# DDEC6 charges by PACMAN v1.1 (https://github.com/mtap-research/PACMAN-charge/)
data_LEPTOS_ion_pacman
_symmetry_space_group_name_H-M   'P 1'
_cell_length_a   12.02440000
_cell_length_b   15.41760000
_cell_length_c   30.73050000
_cell_angle_alpha   81.89870000
_cell_angle_beta   88.52010000
_cell_angle_gamma   88.12300000
_symmetry_Int_Tables_number   1
_chemical_formula_structural   In2H68C106S12NO16
_chemical_formula_sum   'In4 H136 C212 S24 N2 O32'
_cell_volume   5635.87172500
_cell_formula_units_Z   2
loop_
 _symmetry_equiv_pos_site_id
 _symmetry_equiv_pos_as_xyz
  1  'x, y, z'
loop_
 _atom_site_type_symbol
 _atom_site_label
 _atom_site_symmetry_multiplicity
 _atom_site_fract_x
 _atom_site_fract_y
 _atom_site_fract_z
 _atom_site_occupancy
 _atom_site_charge
In  In1  1  0.99547000  0.76280000  0.29129000  1.0 1.2777598513
In  In2  1  0.04942000  0.71093000  0.68298000  1.0 1.1303820026
In  In3  1  0.00453000  0.23720000  0.70871000  1.0 1.2777598513
In  In4  1  0.95058000  0.28907000  0.31702000  1.0 1.1303820026
H  H1  1  0.67174000  0.89401000  0.45996000  1.0 0.1095474067
H  H2  1  0.76624000  0.80689000  0.41429000  1.0 0.1197857084
H  H3  1  0.88457000  0.03045000  0.34103000  1.0 0.1296812273
H  H4  1  0.78940000  0.11330000  0.38918000  1.0 0.1296812273
H  H5  1  0.61721000  0.90267000  0.55337000  1.0 0.1095474067
H  H6  1  0.72169000  0.80187000  0.60118000  1.0 0.1197857084
H  H7  1  0.99677000  0.94455000  0.56971000  1.0 0.1197857084
H  H8  1  0.89229000  0.04535000  0.52191000  1.0 0.1296812273
H  H9  1  0.19927000  0.35927000  0.57200000  1.0 0.1296812273
H  H10  1  0.11876000  0.44432000  0.62152000  1.0 0.139512103
H  H11  1  0.31784000  0.64567000  0.57436000  1.0 0.1009123347
H  H12  1  0.40223000  0.55488000  0.52497000  1.0 0.1009123347
H  H13  1  0.18123000  0.38091000  0.42004000  1.0 0.1197857084
H  H14  1  0.08151000  0.48044000  0.37045000  1.0 0.139512103
H  H15  1  0.27173000  0.67568000  0.39818000  1.0 0.1197857084
H  H16  1  0.37135000  0.58162000  0.44887000  1.0 0.1095474067
H  H17  1  0.56914000  0.73283000  0.80467000  1.0 0.0805740219
H  H18  1  0.69649000  0.68796000  0.75198000  1.0 0.1197857084
H  H19  1  0.94739000  0.78971000  0.81212000  1.0 0.0805740219
H  H20  1  0.81810000  0.84234000  0.86352000  1.0 0.1009123347
H  H21  1  0.49326000  0.69514000  0.82166000  1.0 0.0596106829
H  H22  1  0.37469000  0.67407000  0.76750000  1.0 0.0880890203
H  H23  1  0.15745000  0.85474000  0.79988000  1.0 0.1009123347
H  H24  1  0.29134000  0.90009000  0.84607000  1.0 0.1197857084
H  H25  1  0.78359000  0.87642000  0.08870000  1.0 0.1197857084
H  H26  1  0.89367000  0.83322000  0.15012000  1.0 0.1197857084
H  H27  1  0.62002000  0.74648000  0.22074000  1.0 0.1095474067
H  H28  1  0.50994000  0.78968000  0.15932000  1.0 0.0507766803
H  H29  1  0.46744000  0.73478000  0.14299000  1.0 0.0200213365
H  H30  1  0.34409000  0.69969000  0.20311000  1.0 0.1296812273
H  H31  1  0.13846000  0.90166000  0.15838000  1.0 0.1296812273
H  H32  1  0.26358000  0.94499000  0.10006000  1.0 0.1296812273
H  H33  1  0.63711000  0.54836000  0.82870000  1.0 0.139512103
H  H34  1  0.76888000  0.57211000  0.76929000  1.0 0.1197857084
H  H35  1  0.85959000  0.79544000  0.81079000  1.0 0.0880890203
H  H36  1  0.73896000  0.77076000  0.87081000  1.0 0.0805740219
H  H37  1  0.28053000  0.73829000  0.88253000  1.0 0.0805740219
H  H38  1  0.16264000  0.77433000  0.82212000  1.0 0.0880890203
H  H39  1  0.38962000  0.66323000  0.74614000  1.0 0.1009123347
H  H40  1  0.49361000  0.61206000  0.80667000  1.0 0.0880890203
H  H41  1  0.28359000  0.58579000  0.12948000  1.0 0.1296812273
H  H42  1  0.15414000  0.62786000  0.18336000  1.0 0.1296812273
H  H43  1  0.33556000  0.84642000  0.19253000  1.0 0.1296812273
H  H44  1  0.45731000  0.80442000  0.13916000  1.0 0.0596106829
H  H45  1  0.78712000  0.68664000  0.09904000  1.0 0.1095474067
H  H46  1  0.89951000  0.71652000  0.15745000  1.0 0.1197857084
H  H47  1  0.62721000  0.72693000  0.23478000  1.0 0.1197857084
H  H48  1  0.51694000  0.69454000  0.17807000  1.0 0.0711754256
H  H49  1  0.32826000  0.10599000  0.54004000  1.0 0.1095474067
H  H50  1  0.23376000  0.19311000  0.58571000  1.0 0.1197857084
H  H51  1  0.11543000  0.96955000  0.65897000  1.0 0.1296812273
H  H52  1  0.21060000  0.88670000  0.61082000  1.0 0.1296812273
H  H53  1  0.38279000  0.09733000  0.44663000  1.0 0.1095474067
H  H54  1  0.27831000  0.19813000  0.39882000  1.0 0.1197857084
H  H55  1  0.00323000  0.05545000  0.43029000  1.0 0.1197857084
H  H56  1  0.10771000  0.95465000  0.47809000  1.0 0.1296812273
H  H57  1  0.80073000  0.64073000  0.42800000  1.0 0.1296812273
H  H58  1  0.88124000  0.55568000  0.37848000  1.0 0.139512103
H  H59  1  0.68216000  0.35433000  0.42564000  1.0 0.1009123347
H  H60  1  0.59777000  0.44512000  0.47503000  1.0 0.1009123347
H  H61  1  0.81877000  0.61909000  0.57996000  1.0 0.1197857084
H  H62  1  0.91849000  0.51956000  0.62955000  1.0 0.139512103
H  H63  1  0.72827000  0.32432000  0.60182000  1.0 0.1197857084
H  H64  1  0.62865000  0.41838000  0.55113000  1.0 0.1095474067
H  H65  1  0.43086000  0.26717000  0.19533000  1.0 0.0805740219
H  H66  1  0.30351000  0.31204000  0.24802000  1.0 0.1197857084
H  H67  1  0.05261000  0.21029000  0.18788000  1.0 0.0805740219
H  H68  1  0.18190000  0.15766000  0.13648000  1.0 0.1009123347
H  H69  1  0.50674000  0.30486000  0.17834000  1.0 0.0596106829
H  H70  1  0.62531000  0.32593000  0.23250000  1.0 0.0880890203
H  H71  1  0.84255000  0.14526000  0.20012000  1.0 0.1009123347
H  H72  1  0.70866000  0.09991000  0.15393000  1.0 0.1197857084
H  H73  1  0.21641000  0.12358000  0.91130000  1.0 0.1197857084
H  H74  1  0.10633000  0.16678000  0.84988000  1.0 0.1197857084
H  H75  1  0.37998000  0.25352000  0.77926000  1.0 0.1095474067
H  H76  1  0.49006000  0.21032000  0.84068000  1.0 0.0507766803
H  H77  1  0.53256000  0.26522000  0.85701000  1.0 0.0200213365
H  H78  1  0.65591000  0.30031000  0.79689000  1.0 0.1296812273
H  H79  1  0.86154000  0.09834000  0.84162000  1.0 0.1296812273
H  H80  1  0.73642000  0.05501000  0.89994000  1.0 0.1296812273
H  H81  1  0.36289000  0.45164000  0.17130000  1.0 0.139512103
H  H82  1  0.23112000  0.42789000  0.23071000  1.0 0.1197857084
H  H83  1  0.14041000  0.20456000  0.18921000  1.0 0.0880890203
H  H84  1  0.26104000  0.22924000  0.12919000  1.0 0.0805740219
H  H85  1  0.71947000  0.26171000  0.11747000  1.0 0.0805740219
H  H86  1  0.83736000  0.22567000  0.17788000  1.0 0.0880890203
H  H87  1  0.61038000  0.33677000  0.25386000  1.0 0.1009123347
H  H88  1  0.50639000  0.38794000  0.19333000  1.0 0.0880890203
H  H89  1  0.71641000  0.41421000  0.87052000  1.0 0.1296812273
H  H90  1  0.84586000  0.37214000  0.81664000  1.0 0.1296812273
H  H91  1  0.66444000  0.15358000  0.80747000  1.0 0.1296812273
H  H92  1  0.54269000  0.19558000  0.86084000  1.0 0.0507766803
H  H93  1  0.21288000  0.31336000  0.90096000  1.0 0.1095474067
H  H94  1  0.10049000  0.28348000  0.84255000  1.0 0.1197857084
H  H95  1  0.37279000  0.27307000  0.76522000  1.0 0.1197857084
H  H96  1  0.48306000  0.30546000  0.82193000  1.0 0.0711754256
H  H97  1  0.66064000  0.02733000  0.75921000  1.0 0.1197857084
H  H98  1  0.55606000  0.03764000  0.72848000  1.0 0.1095474067
H  H99  1  0.52091000  0.94646000  0.79497000  1.0 0.1296812273
H  H100  1  0.50433000  0.89474000  0.75407000  1.0 0.1197857084
H  H101  1  0.61475000  0.87772000  0.78238000  1.0 0.1197857084
H  H102  1  0.78392000  0.87078000  0.70798000  1.0 0.1095474067
H  H103  1  0.84396000  0.94827000  0.67727000  1.0 0.1009123347
H  H104  1  0.91074000  0.89186000  0.75527000  1.0 0.1095474067
H  H105  1  0.93165000  0.99014000  0.73266000  1.0 0.1506757115
H  H106  1  0.82896000  0.97015000  0.76636000  1.0 0.1296812273
H  H107  1  0.81426000  0.07712000  0.69553000  1.0 0.1197857084
H  H108  1  0.69458000  0.11999000  0.68410000  1.0 0.1095474067
H  H109  1  0.81097000  0.13957000  0.62280000  1.0 0.1506757115
H  H110  1  0.83084000  0.03588000  0.62517000  1.0 0.1296812273
H  H111  1  0.71058000  0.07937000  0.61369000  1.0 0.1095474067
H  H112  1  0.65912000  0.92356000  0.64777000  1.0 0.1009123347
H  H113  1  0.57376000  0.89979000  0.68769000  1.0 0.1095474067
H  H114  1  0.48416000  0.97522000  0.62504000  1.0 0.1296812273
H  H115  1  0.46773000  0.02829000  0.66602000  1.0 0.139512103
H  H116  1  0.55686000  0.05927000  0.62788000  1.0 0.1296812273
H  H117  1  0.33936000  0.97267000  0.24079000  1.0 0.1197857084
H  H118  1  0.44394000  0.96236000  0.27152000  1.0 0.1095474067
H  H119  1  0.47909000  0.05354000  0.20503000  1.0 0.1296812273
H  H120  1  0.49567000  0.10526000  0.24593000  1.0 0.1197857084
H  H121  1  0.38525000  0.12228000  0.21762000  1.0 0.1197857084
H  H122  1  0.21608000  0.12922000  0.29202000  1.0 0.1095474067
H  H123  1  0.15604000  0.05173000  0.32273000  1.0 0.1009123347
H  H124  1  0.08926000  0.10814000  0.24473000  1.0 0.1095474067
H  H125  1  0.06835000  0.00986000  0.26734000  1.0 0.1506757115
H  H126  1  0.17104000  0.02985000  0.23364000  1.0 0.1296812273
H  H127  1  0.18574000  0.92288000  0.30447000  1.0 0.1197857084
H  H128  1  0.30542000  0.88001000  0.31590000  1.0 0.1095474067
H  H129  1  0.18903000  0.86043000  0.37720000  1.0 0.1506757115
H  H130  1  0.16916000  0.96412000  0.37483000  1.0 0.1296812273
H  H131  1  0.28942000  0.92063000  0.38631000  1.0 0.1095474067
H  H132  1  0.34088000  0.07644000  0.35223000  1.0 0.1009123347
H  H133  1  0.42624000  0.10021000  0.31231000  1.0 0.1095474067
H  H134  1  0.51584000  0.02478000  0.37496000  1.0 0.1296812273
H  H135  1  0.53227000  0.97171000  0.33398000  1.0 0.139512103
H  H136  1  0.44314000  0.94073000  0.37212000  1.0 0.1296812273
C  C1  1  0.67060000  0.06600000  0.46008000  1.0 -0.0498661834
C  C2  1  0.72680000  0.01080000  0.43002000  1.0 0.0805740219
C  C3  1  0.71740000  0.92060000  0.43644000  1.0 -0.1475193414
C  C4  1  0.77270000  0.86880000  0.40943000  1.0 -0.109821215
C  C5  1  0.83850000  0.90900000  0.37474000  1.0 -0.0088097074
C  C6  1  0.84370000  0.00270000  0.36571000  1.0 -0.0810765442
C  C7  1  0.78700000  0.05120000  0.39424000  1.0 -0.1402643192
C  C8  1  0.89650000  0.85560000  0.34422000  1.0 0.5239083183
C  C9  1  0.67380000  0.05340000  0.50600000  1.0 -0.060853128
C  C10  1  0.74490000  0.98349000  0.53315000  1.0 0.1009123347
C  C11  1  0.69425000  0.91117000  0.55669000  1.0 -0.1621636978
C  C12  1  0.75630000  0.85130000  0.58509000  1.0 -0.109821215
C  C13  1  0.86910000  0.86374000  0.58994000  1.0 -0.0209162326
C  C14  1  0.91972000  0.93605000  0.56640000  1.0 -0.089604255
C  C15  1  0.85770000  0.99593000  0.53800000  1.0 -0.1402643192
C  C16  1  0.93360000  0.80430000  0.62261000  1.0 0.5091747654
C  C17  1  0.36310000  0.39150000  0.51386000  1.0 -0.060853128
C  C18  1  0.30960000  0.44690000  0.54422000  1.0 0.0880890203
C  C19  1  0.22520000  0.41660000  0.57256000  1.0 -0.1402643192
C  C20  1  0.17650000  0.46770000  0.60209000  1.0 -0.060853128
C  C21  1  0.21060000  0.55180000  0.60368000  1.0 -0.0295394973
C  C22  1  0.29470000  0.58730000  0.57442000  1.0 -0.109821215
C  C23  1  0.34450000  0.53260000  0.54470000  1.0 -0.1621636978
C  C24  1  0.15590000  0.61060000  0.63207000  1.0 0.5377923858
C  C25  1  0.35430000  0.40210000  0.46797000  1.0 -0.0707111222
C  C26  1  0.28790000  0.46840000  0.43986000  1.0 0.1009123347
C  C27  1  0.19990000  0.44090000  0.41587000  1.0 -0.1475193414
C  C28  1  0.14030000  0.50030000  0.38625000  1.0 -0.0707111222
C  C29  1  0.16600000  0.58810000  0.37967000  1.0 -0.0209162326
C  C30  1  0.25350000  0.61560000  0.40320000  1.0 -0.089604255
C  C31  1  0.31380000  0.56020000  0.43303000  1.0 -0.1621636978
C  C32  1  0.10280000  0.64940000  0.34758000  1.0 0.5317829263
C  C33  1  0.54820000  0.18910000  0.48768000  1.0 -0.109821215
C  C34  1  0.48000000  0.26310000  0.48954000  1.0 -0.1231062549
C  C35  1  0.90760000  0.71560000  0.74323000  1.0 0.3497748089
C  C36  1  0.17800000  0.74210000  0.74074000  1.0 0.3319214148
C  C37  1  0.84060000  0.75860000  0.23335000  1.0 0.4172984821
C  C38  1  0.14990000  0.76490000  0.22888000  1.0 0.4459900868
C  C39  1  0.59470000  0.81830000  0.87360000  1.0 -0.0707111222
C  C40  1  0.67690000  0.79100000  0.83910000  1.0 0.0200213365
C  C41  1  0.64530000  0.74660000  0.80610000  1.0 -0.1402643192
C  C42  1  0.72110000  0.72020000  0.77390000  1.0 -0.0209162326
C  C43  1  0.82950000  0.74200000  0.77500000  1.0 -0.0088097074
C  C44  1  0.86980000  0.78200000  0.80980000  1.0 0.007423717
C  C45  1  0.79320000  0.81080000  0.84140000  1.0 -0.109821215
C  C46  1  0.48570000  0.82150000  0.87500000  1.0 -0.089604255
C  C47  1  0.40430000  0.80070000  0.83960000  1.0 0.0286315603
C  C48  1  0.42870000  0.73180000  0.81610000  1.0 -0.0295394973
C  C49  1  0.35480000  0.71920000  0.78460000  1.0 -0.0209162326
C  C50  1  0.26100000  0.76100000  0.77500000  1.0 0.0286315603
C  C51  1  0.22930000  0.82720000  0.80200000  1.0 -0.0980884328
C  C52  1  0.30610000  0.85040000  0.83150000  1.0 -0.2333967524
C  C53  1  0.56650000  0.86150000  0.07890000  1.0 -0.109821215
C  C54  1  0.63640000  0.83710000  0.11823000  1.0 -0.0209162326
C  C55  1  0.75040000  0.85000000  0.11550000  1.0 -0.17712812
C  C56  1  0.81580000  0.82440000  0.15200000  1.0 -0.0387097665
C  C57  1  0.76720000  0.78580000  0.19121000  1.0 0.0507766803
C  C58  1  0.65320000  0.77290000  0.19394000  1.0 -0.0295394973
C  C59  1  0.58780000  0.79850000  0.15750000  1.0 -0.060853128
C  C60  1  0.44940000  0.86330000  0.07590000  1.0 -0.089604255
C  C61  1  0.37830000  0.84330000  0.11770000  1.0 0.0200213365
C  C62  1  0.40220000  0.76980000  0.14650000  1.0 -0.0980884328
C  C63  1  0.32660000  0.74810000  0.18140000  1.0 -0.0209162326
C  C64  1  0.22880000  0.79380000  0.18560000  1.0 0.0286315603
C  C65  1  0.20550000  0.86850000  0.15530000  1.0 -0.1621636978
C  C66  1  0.27910000  0.89460000  0.12080000  1.0 -0.2092036295
C  C67  1  0.51950000  0.86900000  0.95040000  1.0 -0.0498661834
C  C68  1  0.51190000  0.87780000  0.99390000  1.0 -0.0810765442
C  C69  1  0.59620000  0.64150000  0.89490000  1.0 -0.089604255
C  C70  1  0.67850000  0.65890000  0.85480000  1.0 0.0200213365
C  C71  1  0.68350000  0.59770000  0.82520000  1.0 -0.2494109559
C  C72  1  0.76160000  0.61300000  0.78970000  1.0 -0.089604255
C  C73  1  0.82650000  0.68520000  0.78400000  1.0 0.0507766803
C  C74  1  0.81580000  0.74460000  0.81460000  1.0 0.0014813176
C  C75  1  0.74370000  0.73080000  0.84990000  1.0 -0.0387097665
C  C76  1  0.48140000  0.63430000  0.89190000  1.0 -0.109821215
C  C77  1  0.39970000  0.66600000  0.85150000  1.0 0.0200213365
C  C78  1  0.29940000  0.71840000  0.85530000  1.0 -0.1402643192
C  C79  1  0.22910000  0.74040000  0.81940000  1.0 -0.0295394973
C  C80  1  0.25920000  0.71110000  0.77910000  1.0 0.0435849217
C  C81  1  0.36260000  0.67200000  0.77460000  1.0 -0.0387097665
C  C82  1  0.42730000  0.64560000  0.81040000  1.0 -0.0980884328
C  C83  1  0.46140000  0.67150000  0.09220000  1.0 -0.0980884328
C  C84  1  0.38120000  0.69300000  0.12870000  1.0 0.0507766803
C  C85  1  0.29250000  0.63820000  0.14180000  1.0 -0.2333967524
C  C86  1  0.21620000  0.66310000  0.17420000  1.0 -0.1475193414
C  C87  1  0.23240000  0.73940000  0.19270000  1.0 0.0286315603
C  C88  1  0.32400000  0.79470000  0.17980000  1.0 0.0014813176
C  C89  1  0.39500000  0.76920000  0.14830000  1.0 -0.109821215
C  C90  1  0.57050000  0.67750000  0.09620000  1.0 -0.060853128
C  C91  1  0.63940000  0.69430000  0.13250000  1.0 -0.0088097074
C  C92  1  0.75390000  0.69660000  0.12630000  1.0 -0.17712812
C  C93  1  0.82100000  0.71410000  0.16120000  1.0 -0.0088097074
C  C94  1  0.77050000  0.72740000  0.20060000  1.0 0.007423717
C  C95  1  0.66030000  0.71990000  0.20700000  1.0 -0.0980884328
C  C96  1  0.59460000  0.70180000  0.17300000  1.0 -0.0707111222
C  C97  1  0.51290000  0.62150000  0.97650000  1.0 -0.089604255
C  C98  1  0.52500000  0.62950000  0.02000000  1.0 -0.0810765442
C  C99  1  0.32940000  0.93400000  0.53992000  1.0 -0.0498661834
C  C100  1  0.27320000  0.98920000  0.56998000  1.0 0.0805740219
C  C101  1  0.28260000  0.07940000  0.56356000  1.0 -0.1475193414
C  C102  1  0.22730000  0.13120000  0.59057000  1.0 -0.109821215
C  C103  1  0.16150000  0.09100000  0.62526000  1.0 -0.0088097074
C  C104  1  0.15630000  0.99730000  0.63429000  1.0 -0.0810765442
C  C105  1  0.21300000  0.94880000  0.60576000  1.0 -0.1402643192
C  C106  1  0.10350000  0.14440000  0.65578000  1.0 0.5239083183
C  C107  1  0.32620000  0.94660000  0.49400000  1.0 -0.060853128
C  C108  1  0.25510000  0.01651000  0.46685000  1.0 0.1009123347
C  C109  1  0.30575000  0.08883000  0.44331000  1.0 -0.1621636978
C  C110  1  0.24370000  0.14870000  0.41491000  1.0 -0.109821215
C  C111  1  0.13090000  0.13626000  0.41006000  1.0 -0.0209162326
C  C112  1  0.08028000  0.06395000  0.43360000  1.0 -0.089604255
C  C113  1  0.14230000  0.00407000  0.46200000  1.0 -0.1402643192
C  C114  1  0.06640000  0.19570000  0.37739000  1.0 0.5091747654
C  C115  1  0.63690000  0.60850000  0.48614000  1.0 -0.060853128
C  C116  1  0.69040000  0.55310000  0.45578000  1.0 0.0880890203
C  C117  1  0.77480000  0.58340000  0.42744000  1.0 -0.1402643192
C  C118  1  0.82350000  0.53230000  0.39791000  1.0 -0.060853128
C  C119  1  0.78940000  0.44820000  0.39632000  1.0 -0.0295394973
C  C120  1  0.70530000  0.41270000  0.42558000  1.0 -0.109821215
C  C121  1  0.65550000  0.46740000  0.45530000  1.0 -0.1621636978
C  C122  1  0.84410000  0.38940000  0.36793000  1.0 0.5377923858
C  C123  1  0.64570000  0.59790000  0.53203000  1.0 -0.0707111222
C  C124  1  0.71210000  0.53160000  0.56014000  1.0 0.1009123347
C  C125  1  0.80010000  0.55910000  0.58413000  1.0 -0.1475193414
C  C126  1  0.85970000  0.49970000  0.61375000  1.0 -0.0707111222
C  C127  1  0.83400000  0.41190000  0.62033000  1.0 -0.0209162326
C  C128  1  0.74650000  0.38440000  0.59680000  1.0 -0.089604255
C  C129  1  0.68620000  0.43980000  0.56697000  1.0 -0.1621636978
C  C130  1  0.89720000  0.35060000  0.65242000  1.0 0.5317829263
C  C131  1  0.45180000  0.81090000  0.51232000  1.0 -0.109821215
C  C132  1  0.52000000  0.73690000  0.51046000  1.0 -0.1231062549
C  C133  1  0.09240000  0.28440000  0.25677000  1.0 0.3497748089
C  C134  1  0.82200000  0.25790000  0.25926000  1.0 0.3319214148
C  C135  1  0.15940000  0.24140000  0.76665000  1.0 0.4172984821
C  C136  1  0.85010000  0.23510000  0.77112000  1.0 0.4459900868
C  C137  1  0.40530000  0.18170000  0.12640000  1.0 -0.0707111222
C  C138  1  0.32310000  0.20900000  0.16090000  1.0 0.0200213365
C  C139  1  0.35470000  0.25340000  0.19390000  1.0 -0.1402643192
C  C140  1  0.27890000  0.27980000  0.22610000  1.0 -0.0209162326
C  C141  1  0.17050000  0.25800000  0.22500000  1.0 -0.0088097074
C  C142  1  0.13020000  0.21800000  0.19020000  1.0 0.0014813176
C  C143  1  0.20680000  0.18920000  0.15860000  1.0 -0.109821215
C  C144  1  0.51430000  0.17850000  0.12500000  1.0 -0.089604255
C  C145  1  0.59570000  0.19930000  0.16040000  1.0 0.0286315603
C  C146  1  0.57130000  0.26820000  0.18390000  1.0 -0.0295394973
C  C147  1  0.64520000  0.28080000  0.21540000  1.0 -0.0209162326
C  C148  1  0.73900000  0.23900000  0.22500000  1.0 0.0286315603
C  C149  1  0.77070000  0.17280000  0.19800000  1.0 -0.0980884328
C  C150  1  0.69390000  0.14960000  0.16850000  1.0 -0.2333967524
C  C151  1  0.43350000  0.13850000  0.92110000  1.0 -0.109821215
C  C152  1  0.36360000  0.16290000  0.88177000  1.0 -0.0209162326
C  C153  1  0.24960000  0.15000000  0.88450000  1.0 -0.17712812
C  C154  1  0.18420000  0.17560000  0.84800000  1.0 -0.0387097665
C  C155  1  0.23280000  0.21420000  0.80879000  1.0 0.0507766803
C  C156  1  0.34680000  0.22710000  0.80606000  1.0 -0.0295394973
C  C157  1  0.41220000  0.20150000  0.84250000  1.0 -0.060853128
C  C158  1  0.55060000  0.13670000  0.92410000  1.0 -0.089604255
C  C159  1  0.62170000  0.15670000  0.88230000  1.0 0.0286315603
C  C160  1  0.59780000  0.23020000  0.85350000  1.0 -0.0980884328
C  C161  1  0.67340000  0.25190000  0.81860000  1.0 -0.0209162326
C  C162  1  0.77120000  0.20620000  0.81440000  1.0 0.0286315603
C  C163  1  0.79450000  0.13150000  0.84470000  1.0 -0.1621636978
C  C164  1  0.72090000  0.10540000  0.87920000  1.0 -0.2092036295
C  C165  1  0.48050000  0.13100000  0.04960000  1.0 -0.0498661834
C  C166  1  0.48810000  0.12220000  0.00610000  1.0 -0.0810765442
C  C167  1  0.40380000  0.35850000  0.10510000  1.0 -0.089604255
C  C168  1  0.32150000  0.34110000  0.14520000  1.0 0.0200213365
C  C169  1  0.31650000  0.40230000  0.17480000  1.0 -0.2494109559
C  C170  1  0.23840000  0.38700000  0.21030000  1.0 -0.089604255
C  C171  1  0.17350000  0.31480000  0.21600000  1.0 0.0507766803
C  C172  1  0.18420000  0.25540000  0.18540000  1.0 0.0014813176
C  C173  1  0.25630000  0.26920000  0.15010000  1.0 -0.0387097665
C  C174  1  0.51860000  0.36570000  0.10810000  1.0 -0.109821215
C  C175  1  0.60030000  0.33400000  0.14850000  1.0 0.0200213365
C  C176  1  0.70060000  0.28160000  0.14470000  1.0 -0.1402643192
C  C177  1  0.77090000  0.25960000  0.18060000  1.0 -0.0295394973
C  C178  1  0.74080000  0.28890000  0.22090000  1.0 0.0435849217
C  C179  1  0.63740000  0.32800000  0.22540000  1.0 -0.0387097665
C  C180  1  0.57270000  0.35440000  0.18960000  1.0 -0.0980884328
C  C181  1  0.53860000  0.32850000  0.90780000  1.0 -0.0980884328
C  C182  1  0.61880000  0.30700000  0.87130000  1.0 0.0596106829
C  C183  1  0.70750000  0.36180000  0.85820000  1.0 -0.2333967524
C  C184  1  0.78380000  0.33690000  0.82580000  1.0 -0.1475193414
C  C185  1  0.76760000  0.26060000  0.80730000  1.0 0.0286315603
C  C186  1  0.67600000  0.20530000  0.82020000  1.0 -0.0009192682
C  C187  1  0.60500000  0.23080000  0.85170000  1.0 -0.109821215
C  C188  1  0.42950000  0.32250000  0.90380000  1.0 -0.060853128
C  C189  1  0.36060000  0.30570000  0.86750000  1.0 -0.0088097074
C  C190  1  0.24610000  0.30340000  0.87370000  1.0 -0.17712812
C  C191  1  0.17900000  0.28590000  0.83880000  1.0 -0.0088097074
C  C192  1  0.22950000  0.27260000  0.79940000  1.0 0.007423717
C  C193  1  0.33970000  0.28010000  0.79300000  1.0 -0.0980884328
C  C194  1  0.40540000  0.29820000  0.82700000  1.0 -0.0707111222
C  C195  1  0.48710000  0.37850000  0.02350000  1.0 -0.089604255
C  C196  1  0.47500000  0.37050000  0.98000000  1.0 -0.0810765442
C  C197  1  0.61660000  0.99620000  0.73983000  1.0 -0.0810765442
C  C198  1  0.55880000  0.92200000  0.77064000  1.0 -0.4243483531
C  C199  1  0.80050000  0.93380000  0.70502000  1.0 -0.0980884328
C  C200  1  0.87470000  0.94780000  0.74329000  1.0 -0.4406079042
C  C201  1  0.74580000  0.07060000  0.67919000  1.0 -0.089604255
C  C202  1  0.77730000  0.08240000  0.63100000  1.0 -0.4142174709
C  C203  1  0.61230000  0.94900000  0.67003000  1.0 -0.060853128
C  C204  1  0.52200000  0.00840000  0.64495000  1.0 -0.4004800158
C  C205  1  0.38340000  0.00380000  0.26017000  1.0 -0.0707111222
C  C206  1  0.44120000  0.07800000  0.22936000  1.0 -0.4243483531
C  C207  1  0.19950000  0.06620000  0.29498000  1.0 -0.0980884328
C  C208  1  0.12530000  0.05220000  0.25671000  1.0 -0.4406079042
C  C209  1  0.25420000  0.92940000  0.32081000  1.0 -0.089604255
C  C210  1  0.22270000  0.91760000  0.36900000  1.0 -0.4142174709
C  C211  1  0.38770000  0.05100000  0.32997000  1.0 -0.060853128
C  C212  1  0.47800000  0.99160000  0.35505000  1.0 -0.4004800158
S  S1  1  0.59382000  0.16002000  0.43740000  1.0 0.0880890203
S  S2  1  0.60185000  0.12863000  0.53447000  1.0 0.0880890203
S  S3  1  0.43836000  0.30255000  0.53834000  1.0 0.1095474067
S  S4  1  0.42196000  0.32216000  0.44159000  1.0 0.1009123347
S  S5  1  0.65150000  0.87194000  0.91779000  1.0 -0.0498661834
S  S6  1  0.40860000  0.85146000  0.91949000  1.0 0.139512103
S  S7  1  0.38730000  0.87862000  0.02384000  1.0 0.1009123347
S  S8  1  0.63270000  0.89391000  0.02698000  1.0 0.0880890203
S  S9  1  0.65050000  0.62146000  0.94869000  1.0 0.0880890203
S  S10  1  0.40620000  0.60458000  0.93934000  1.0 0.1009123347
S  S11  1  0.40433000  0.62960000  0.04863000  1.0 0.139512103
S  S12  1  0.64775000  0.64761000  0.04923000  1.0 0.0711754256
S  S13  1  0.40618000  0.83998000  0.56260000  1.0 0.0880890203
S  S14  1  0.39815000  0.87137000  0.46553000  1.0 0.0880890203
S  S15  1  0.56164000  0.69745000  0.46166000  1.0 0.1095474067
S  S16  1  0.57804000  0.67784000  0.55841000  1.0 0.1009123347
S  S17  1  0.34850000  0.12806000  0.08221000  1.0 -0.0498661834
S  S18  1  0.59140000  0.14854000  0.08051000  1.0 0.139512103
S  S19  1  0.61270000  0.12138000  0.97616000  1.0 0.1009123347
S  S20  1  0.36730000  0.10609000  0.97302000  1.0 0.0880890203
S  S21  1  0.34950000  0.37854000  0.05131000  1.0 0.0880890203
S  S22  1  0.59380000  0.39542000  0.06066000  1.0 0.1095474067
S  S23  1  0.59567000  0.37040000  0.95137000  1.0 0.139512103
S  S24  1  0.35225000  0.35239000  0.95077000  1.0 0.0711754256
N  N1  1  0.69140000  0.98570000  0.70078000  1.0 0.1802500126
N  N2  1  0.30860000  0.01430000  0.29922000  1.0 0.1802500126
O  O1  1  0.97130000  0.88900000  0.31862000  1.0 -0.500556284
O  O2  1  0.87110000  0.77480000  0.34707000  1.0 -0.5296522069
O  O3  1  0.90630000  0.72750000  0.63344000  1.0 -0.4714940848
O  O4  1  0.01550000  0.83270000  0.63863000  1.0 -0.4714940848
O  O5  1  0.07800000  0.58110000  0.65775000  1.0 -0.4824814188
O  O6  1  0.18510000  0.68540000  0.63332000  1.0 -0.4855787443
O  O7  1  0.13200000  0.72740000  0.34096000  1.0 -0.5296522069
O  O8  1  0.02210000  0.62300000  0.32895000  1.0 -0.500556284
O  O9  1  0.99830000  0.74830000  0.74654000  1.0 -0.2574742722
O  O10  1  0.88870000  0.66610000  0.71832000  1.0 -0.3911617237
O  O11  1  0.20040000  0.68100000  0.72180000  1.0 -0.381340115
O  O12  1  0.10500000  0.79980000  0.73549000  1.0 -0.2975060034
O  O13  1  0.08740000  0.70190000  0.23931000  1.0 -0.4714940848
O  O14  1  0.14290000  0.82900000  0.24909000  1.0 -0.4714940848
O  O15  1  0.85040000  0.70010000  0.26233000  1.0 -0.3911617237
O  O16  1  0.89600000  0.82810000  0.23467000  1.0 -0.500556284
O  O17  1  0.02870000  0.11100000  0.68138000  1.0 -0.500556284
O  O18  1  0.12890000  0.22520000  0.65293000  1.0 -0.5296522069
O  O19  1  0.09370000  0.27250000  0.36656000  1.0 -0.4714940848
O  O20  1  0.98450000  0.16730000  0.36137000  1.0 -0.4714940848
O  O21  1  0.92200000  0.41890000  0.34225000  1.0 -0.4824814188
O  O22  1  0.81490000  0.31460000  0.36668000  1.0 -0.4855787443
O  O23  1  0.86800000  0.27260000  0.65904000  1.0 -0.5296522069
O  O24  1  0.97790000  0.37700000  0.67105000  1.0 -0.500556284
O  O25  1  0.00170000  0.25170000  0.25346000  1.0 -0.2574742722
O  O26  1  0.11130000  0.33390000  0.28168000  1.0 -0.3911617237
O  O27  1  0.79960000  0.31900000  0.27820000  1.0 -0.381340115
O  O28  1  0.89500000  0.20020000  0.26451000  1.0 -0.2941851008
O  O29  1  0.91260000  0.29810000  0.76069000  1.0 -0.4714940848
O  O30  1  0.85710000  0.17100000  0.75091000  1.0 -0.4714940848
O  O31  1  0.14960000  0.29990000  0.73767000  1.0 -0.3911617237
O  O32  1  0.10400000  0.17190000  0.76533000  1.0 -0.500556284
