# DDEC6 charges by PACMAN v1.1 (https://github.com/mtap-research/PACMAN-charge/)
data_LEQBUG_ASR_pacman
_symmetry_space_group_name_H-M   'P 1'
_cell_length_a   22.24280000
_cell_length_b   22.24280000
_cell_length_c   22.24280000
_cell_angle_alpha   128.34700000
_cell_angle_beta   128.34700000
_cell_angle_gamma   76.06340000
_symmetry_Int_Tables_number   1
_chemical_formula_structural   Zn2H22C37O8
_chemical_formula_sum   'Zn8 H88 C148 O32'
_cell_volume   6580.25986892
_cell_formula_units_Z   4
loop_
 _symmetry_equiv_pos_site_id
 _symmetry_equiv_pos_as_xyz
  1  'x, y, z'
loop_
 _atom_site_type_symbol
 _atom_site_label
 _atom_site_symmetry_multiplicity
 _atom_site_fract_x
 _atom_site_fract_y
 _atom_site_fract_z
 _atom_site_occupancy
 _atom_site_charge
Zn  Zn1  1  0.43136000  0.43136000  0.42910000  1.0 0.9613665312
Zn  Zn2  1  0.43136000  0.00226000  0.00000000  1.0 0.9613665312
Zn  Zn3  1  0.00226000  0.00226000  0.57090000  1.0 0.9613665312
Zn  Zn4  1  0.00226000  0.43136000  0.00000000  1.0 0.9613665312
Zn  Zn5  1  0.56864000  0.99774000  0.00000000  1.0 0.9613665312
Zn  Zn6  1  0.99774000  0.56864000  0.00000000  1.0 0.9613665312
Zn  Zn7  1  0.99774000  0.99774000  0.42910000  1.0 0.9613665312
Zn  Zn8  1  0.56864000  0.56864000  0.57090000  1.0 0.9613665312
H  H1  1  0.33880000  0.54720000  0.58120000  1.0 0.1245779587
H  H2  1  0.54720000  0.96600000  0.20840000  1.0 0.1245779587
H  H3  1  0.96600000  0.75760000  0.41880000  1.0 0.1245779587
H  H4  1  0.75760000  0.33880000  0.79160000  1.0 0.1245779587
H  H5  1  0.66120000  0.24240000  0.20840000  1.0 0.1245779587
H  H6  1  0.03400000  0.45280000  0.79160000  1.0 0.1245779587
H  H7  1  0.24240000  0.03400000  0.58120000  1.0 0.1245779587
H  H8  1  0.45280000  0.66120000  0.41880000  1.0 0.1245779587
H  H9  1  0.66120000  0.45280000  0.41880000  1.0 0.1245779587
H  H10  1  0.45280000  0.03400000  0.79160000  1.0 0.1245779587
H  H11  1  0.03400000  0.24240000  0.58120000  1.0 0.1245779587
H  H12  1  0.24240000  0.66120000  0.20840000  1.0 0.1245779587
H  H13  1  0.33880000  0.75760000  0.79160000  1.0 0.1245779587
H  H14  1  0.96600000  0.54720000  0.20840000  1.0 0.1245779587
H  H15  1  0.75760000  0.96600000  0.41880000  1.0 0.1245779587
H  H16  1  0.54720000  0.33880000  0.58120000  1.0 0.1245779587
H  H17  1  0.50290000  0.74210000  0.76080000  1.0 0.1368467926
H  H18  1  0.74210000  0.98130000  0.23920000  1.0 0.1368467926
H  H19  1  0.98130000  0.74210000  0.23920000  1.0 0.1368467926
H  H20  1  0.74210000  0.50290000  0.76080000  1.0 0.1368467926
H  H21  1  0.49710000  0.25790000  0.23920000  1.0 0.1368467926
H  H22  1  0.01870000  0.25790000  0.76080000  1.0 0.1368467926
H  H23  1  0.25790000  0.01870000  0.76080000  1.0 0.1368467926
H  H24  1  0.25790000  0.49710000  0.23920000  1.0 0.1368467926
H  H25  1  0.16310000  0.44850000  0.56220000  1.0 0.0904104902
H  H26  1  0.44850000  0.88630000  0.28540000  1.0 0.0904104902
H  H27  1  0.88630000  0.60090000  0.43780000  1.0 0.0904104902
H  H28  1  0.60090000  0.16310000  0.71460000  1.0 0.0904104902
H  H29  1  0.83690000  0.39910000  0.28540000  1.0 0.0904104902
H  H30  1  0.11370000  0.55150000  0.71460000  1.0 0.0904104902
H  H31  1  0.39910000  0.11370000  0.56220000  1.0 0.0904104902
H  H32  1  0.55150000  0.83690000  0.43780000  1.0 0.0904104902
H  H33  1  0.83690000  0.55150000  0.43780000  1.0 0.0904104902
H  H34  1  0.55150000  0.11370000  0.71460000  1.0 0.0904104902
H  H35  1  0.11370000  0.39910000  0.56220000  1.0 0.0904104902
H  H36  1  0.39910000  0.83690000  0.28540000  1.0 0.0904104902
H  H37  1  0.16310000  0.60090000  0.71460000  1.0 0.0904104902
H  H38  1  0.88630000  0.44850000  0.28540000  1.0 0.0904104902
H  H39  1  0.60090000  0.88630000  0.43780000  1.0 0.0904104902
H  H40  1  0.44850000  0.16310000  0.56220000  1.0 0.0904104902
H  H41  1  0.28070000  0.50220000  0.61770000  1.0 0.1081818088
H  H42  1  0.50220000  0.88450000  0.22150000  1.0 0.1081818088
H  H43  1  0.88450000  0.66300000  0.38230000  1.0 0.1081818088
H  H44  1  0.66300000  0.28070000  0.77850000  1.0 0.1081818088
H  H45  1  0.71930000  0.33700000  0.22150000  1.0 0.1081818088
H  H46  1  0.11550000  0.49780000  0.77850000  1.0 0.1081818088
H  H47  1  0.33700000  0.11550000  0.61770000  1.0 0.1081818088
H  H48  1  0.49780000  0.71930000  0.38230000  1.0 0.1081818088
H  H49  1  0.71930000  0.49780000  0.38230000  1.0 0.1081818088
H  H50  1  0.49780000  0.11550000  0.77850000  1.0 0.1081818088
H  H51  1  0.11550000  0.33700000  0.61770000  1.0 0.1081818088
H  H52  1  0.33700000  0.71930000  0.22150000  1.0 0.1081818088
H  H53  1  0.28070000  0.66300000  0.77850000  1.0 0.1081818088
H  H54  1  0.88450000  0.50220000  0.22150000  1.0 0.1081818088
H  H55  1  0.66300000  0.88450000  0.38230000  1.0 0.1081818088
H  H56  1  0.50220000  0.28070000  0.61770000  1.0 0.1081818088
H  H57  1  0.20770000  0.70750000  0.68740000  1.0 0.1081818088
H  H58  1  0.70750000  0.02010000  0.49980000  1.0 0.1081818088
H  H59  1  0.02010000  0.52030000  0.31260000  1.0 0.1081818088
H  H60  1  0.52030000  0.20770000  0.50020000  1.0 0.1081818088
H  H61  1  0.79230000  0.47970000  0.49980000  1.0 0.1081818088
H  H62  1  0.97990000  0.29250000  0.50020000  1.0 0.1081818088
H  H63  1  0.47970000  0.97990000  0.68740000  1.0 0.1081818088
H  H64  1  0.29250000  0.79230000  0.31260000  1.0 0.1081818088
H  H65  1  0.79230000  0.29250000  0.31260000  1.0 0.1081818088
H  H66  1  0.29250000  0.97990000  0.50020000  1.0 0.1081818088
H  H67  1  0.97990000  0.47970000  0.68740000  1.0 0.1081818088
H  H68  1  0.47970000  0.79230000  0.49980000  1.0 0.1081818088
H  H69  1  0.20770000  0.52030000  0.50020000  1.0 0.1081818088
H  H70  1  0.02010000  0.70750000  0.49980000  1.0 0.1081818088
H  H71  1  0.52030000  0.02010000  0.31260000  1.0 0.1081818088
H  H72  1  0.70750000  0.20770000  0.68740000  1.0 0.1081818088
H  H73  1  0.08700000  0.64820000  0.62020000  1.0 0.0757512568
H  H74  1  0.64820000  0.02800000  0.56120000  1.0 0.0757512568
H  H75  1  0.02800000  0.46680000  0.37980000  1.0 0.0757512568
H  H76  1  0.46680000  0.08700000  0.43880000  1.0 0.0757512568
H  H77  1  0.91300000  0.53320000  0.56120000  1.0 0.0757512568
H  H78  1  0.97200000  0.35180000  0.43880000  1.0 0.0757512568
H  H79  1  0.53320000  0.97200000  0.62020000  1.0 0.0757512568
H  H80  1  0.35180000  0.91300000  0.37980000  1.0 0.0757512568
H  H81  1  0.91300000  0.35180000  0.37980000  1.0 0.0757512568
H  H82  1  0.35180000  0.97200000  0.43880000  1.0 0.0757512568
H  H83  1  0.97200000  0.53320000  0.62020000  1.0 0.0757512568
H  H84  1  0.53320000  0.91300000  0.56120000  1.0 0.0757512568
H  H85  1  0.08700000  0.46680000  0.43880000  1.0 0.0757512568
H  H86  1  0.02800000  0.64820000  0.56120000  1.0 0.0757512568
H  H87  1  0.46680000  0.02800000  0.37980000  1.0 0.0757512568
H  H88  1  0.64820000  0.08700000  0.62020000  1.0 0.0757512568
C  C1  1  0.45789000  0.58985000  0.60784000  1.0 0.6062819256
C  C2  1  0.58985000  0.98201000  0.13196000  1.0 0.6062819256
C  C3  1  0.98201000  0.85005000  0.39216000  1.0 0.6062819256
C  C4  1  0.85005000  0.45789000  0.86804000  1.0 0.6062819256
C  C5  1  0.54211000  0.14995000  0.13196000  1.0 0.6062819256
C  C6  1  0.01799000  0.41015000  0.86804000  1.0 0.6062819256
C  C7  1  0.14995000  0.01799000  0.60784000  1.0 0.6062819256
C  C8  1  0.41015000  0.54211000  0.39216000  1.0 0.6062819256
C  C9  1  0.54211000  0.41015000  0.39216000  1.0 0.6062819256
C  C10  1  0.41015000  0.01799000  0.86804000  1.0 0.6062819256
C  C11  1  0.01799000  0.14995000  0.60784000  1.0 0.6062819256
C  C12  1  0.14995000  0.54211000  0.13196000  1.0 0.6062819256
C  C13  1  0.45789000  0.85005000  0.86804000  1.0 0.6062819256
C  C14  1  0.98201000  0.58985000  0.13196000  1.0 0.6062819256
C  C15  1  0.85005000  0.98201000  0.39216000  1.0 0.6062819256
C  C16  1  0.58985000  0.45789000  0.60784000  1.0 0.6062819256
C  C17  1  0.42655000  0.63674000  0.66359000  1.0 -0.0236735533
C  C18  1  0.63674000  0.97315000  0.21019000  1.0 -0.0236735533
C  C19  1  0.97315000  0.76296000  0.33641000  1.0 -0.0236735533
C  C20  1  0.76296000  0.42655000  0.78981000  1.0 -0.0236735533
C  C21  1  0.57345000  0.23704000  0.21019000  1.0 -0.0236735533
C  C22  1  0.02685000  0.36326000  0.78981000  1.0 -0.0236735533
C  C23  1  0.23704000  0.02685000  0.66359000  1.0 -0.0236735533
C  C24  1  0.36326000  0.57345000  0.33641000  1.0 -0.0236735533
C  C25  1  0.57345000  0.36326000  0.33641000  1.0 -0.0236735533
C  C26  1  0.36326000  0.02685000  0.78981000  1.0 -0.0236735533
C  C27  1  0.02685000  0.23704000  0.66359000  1.0 -0.0236735533
C  C28  1  0.23704000  0.57345000  0.21019000  1.0 -0.0236735533
C  C29  1  0.42655000  0.76296000  0.78981000  1.0 -0.0236735533
C  C30  1  0.97315000  0.63674000  0.21019000  1.0 -0.0236735533
C  C31  1  0.76296000  0.97315000  0.33641000  1.0 -0.0236735533
C  C32  1  0.63674000  0.42655000  0.66359000  1.0 -0.0236735533
C  C33  1  0.11217000  0.53597000  0.57620000  1.0 0.0516700981
C  C34  1  0.53597000  0.95977000  0.42380000  1.0 0.0516700981
C  C35  1  0.95977000  0.53597000  0.42380000  1.0 0.0516700981
C  C36  1  0.53597000  0.11217000  0.57620000  1.0 0.0516700981
C  C37  1  0.88783000  0.46403000  0.42380000  1.0 0.0516700981
C  C38  1  0.04023000  0.46403000  0.57620000  1.0 0.0516700981
C  C39  1  0.46403000  0.04023000  0.57620000  1.0 0.0516700981
C  C40  1  0.46403000  0.88783000  0.42380000  1.0 0.0516700981
C  C41  1  0.36147000  0.60181000  0.63470000  1.0 -0.1596613855
C  C42  1  0.60181000  0.96711000  0.24034000  1.0 -0.1596613855
C  C43  1  0.96711000  0.72677000  0.36530000  1.0 -0.1596613855
C  C44  1  0.72677000  0.36147000  0.75966000  1.0 -0.1596613855
C  C45  1  0.63853000  0.27323000  0.24034000  1.0 -0.1596613855
C  C46  1  0.03289000  0.39819000  0.75966000  1.0 -0.1596613855
C  C47  1  0.27323000  0.03289000  0.63470000  1.0 -0.1596613855
C  C48  1  0.39819000  0.63853000  0.36530000  1.0 -0.1596613855
C  C49  1  0.63853000  0.39819000  0.36530000  1.0 -0.1596613855
C  C50  1  0.39819000  0.03289000  0.75966000  1.0 -0.1596613855
C  C51  1  0.03289000  0.27323000  0.63470000  1.0 -0.1596613855
C  C52  1  0.27323000  0.63853000  0.24034000  1.0 -0.1596613855
C  C53  1  0.36147000  0.72677000  0.75966000  1.0 -0.1596613855
C  C54  1  0.96711000  0.60181000  0.24034000  1.0 -0.1596613855
C  C55  1  0.72677000  0.96711000  0.36530000  1.0 -0.1596613855
C  C56  1  0.60181000  0.36147000  0.63470000  1.0 -0.1596613855
C  C57  1  0.45810000  0.71730000  0.74080000  1.0 -0.0901258777
C  C58  1  0.71730000  0.97650000  0.25920000  1.0 -0.0901258777
C  C59  1  0.97650000  0.71730000  0.25920000  1.0 -0.0901258777
C  C60  1  0.71730000  0.45810000  0.74080000  1.0 -0.0901258777
C  C61  1  0.54190000  0.28270000  0.25920000  1.0 -0.0901258777
C  C62  1  0.02350000  0.28270000  0.74080000  1.0 -0.0901258777
C  C63  1  0.28270000  0.02350000  0.74080000  1.0 -0.0901258777
C  C64  1  0.28270000  0.54190000  0.25920000  1.0 -0.0901258777
C  C65  1  0.25378000  0.60538000  0.64840000  1.0 0.0516700981
C  C66  1  0.60538000  0.95698000  0.35160000  1.0 0.0516700981
C  C67  1  0.95698000  0.60538000  0.35160000  1.0 0.0516700981
C  C68  1  0.60538000  0.25378000  0.64840000  1.0 0.0516700981
C  C69  1  0.74622000  0.39462000  0.35160000  1.0 0.0516700981
C  C70  1  0.04302000  0.39462000  0.64840000  1.0 0.0516700981
C  C71  1  0.39462000  0.04302000  0.64840000  1.0 0.0516700981
C  C72  1  0.39462000  0.74622000  0.35160000  1.0 0.0516700981
C  C73  1  0.32693000  0.64473000  0.68220000  1.0 0.0736718603
C  C74  1  0.64473000  0.96253000  0.31780000  1.0 0.0736718603
C  C75  1  0.96253000  0.64473000  0.31780000  1.0 0.0736718603
C  C76  1  0.64473000  0.32693000  0.68220000  1.0 0.0736718603
C  C77  1  0.67307000  0.35527000  0.31780000  1.0 0.0736718603
C  C78  1  0.03747000  0.35527000  0.68220000  1.0 0.0736718603
C  C79  1  0.35527000  0.03747000  0.68220000  1.0 0.0736718603
C  C80  1  0.35527000  0.67307000  0.31780000  1.0 0.0736718603
C  C81  1  0.17020000  0.50010000  0.58250000  1.0 -0.0443760281
C  C82  1  0.50010000  0.91760000  0.32990000  1.0 -0.0443760281
C  C83  1  0.91760000  0.58770000  0.41750000  1.0 -0.0443760281
C  C84  1  0.58770000  0.17020000  0.67010000  1.0 -0.0443760281
C  C85  1  0.82980000  0.41230000  0.32990000  1.0 -0.0443760281
C  C86  1  0.08240000  0.49990000  0.67010000  1.0 -0.0443760281
C  C87  1  0.41230000  0.08240000  0.58250000  1.0 -0.0443760281
C  C88  1  0.49990000  0.82980000  0.41750000  1.0 -0.0443760281
C  C89  1  0.82980000  0.49990000  0.41750000  1.0 -0.0443760281
C  C90  1  0.49990000  0.08240000  0.67010000  1.0 -0.0443760281
C  C91  1  0.08240000  0.41230000  0.58250000  1.0 -0.0443760281
C  C92  1  0.41230000  0.82980000  0.32990000  1.0 -0.0443760281
C  C93  1  0.17020000  0.58770000  0.67010000  1.0 -0.0443760281
C  C94  1  0.91760000  0.50010000  0.32990000  1.0 -0.0443760281
C  C95  1  0.58770000  0.91760000  0.41750000  1.0 -0.0443760281
C  C96  1  0.50010000  0.17020000  0.58250000  1.0 -0.0443760281
C  C97  1  0.03420000  0.50000000  0.53420000  1.0 -0.1466222511
C  C98  1  0.50000000  0.96580000  0.46580000  1.0 -0.14252219
C  C99  1  0.96580000  0.50000000  0.46580000  1.0 -0.14252219
C  C100  1  0.50000000  0.03420000  0.53420000  1.0 -0.1466222511
C  C101  1  0.24190000  0.53200000  0.61690000  1.0 -0.0964220281
C  C102  1  0.53200000  0.91510000  0.29010000  1.0 -0.0964220281
C  C103  1  0.91510000  0.62500000  0.38310000  1.0 -0.0964220281
C  C104  1  0.62500000  0.24190000  0.70990000  1.0 -0.0964220281
C  C105  1  0.75810000  0.37500000  0.29010000  1.0 -0.0964220281
C  C106  1  0.08490000  0.46800000  0.70990000  1.0 -0.0964220281
C  C107  1  0.37500000  0.08490000  0.61690000  1.0 -0.0964220281
C  C108  1  0.46800000  0.75810000  0.38310000  1.0 -0.0964220281
C  C109  1  0.75810000  0.46800000  0.38310000  1.0 -0.0964220281
C  C110  1  0.46800000  0.08490000  0.70990000  1.0 -0.0964220281
C  C111  1  0.08490000  0.37500000  0.61690000  1.0 -0.0964220281
C  C112  1  0.37500000  0.75810000  0.29010000  1.0 -0.0964220281
C  C113  1  0.24190000  0.62500000  0.70990000  1.0 -0.0964220281
C  C114  1  0.91510000  0.53200000  0.29010000  1.0 -0.0964220281
C  C115  1  0.62500000  0.91510000  0.38310000  1.0 -0.0964220281
C  C116  1  0.53200000  0.24190000  0.61690000  1.0 -0.0964220281
C  C117  1  0.19601000  0.65301000  0.65620000  1.0 -0.0964220281
C  C118  1  0.65301000  0.99681000  0.45700000  1.0 -0.0964220281
C  C119  1  0.99681000  0.53981000  0.34380000  1.0 -0.0964220281
C  C120  1  0.53981000  0.19601000  0.54300000  1.0 -0.0964220281
C  C121  1  0.80399000  0.46019000  0.45700000  1.0 -0.0964220281
C  C122  1  0.00319000  0.34699000  0.54300000  1.0 -0.0964220281
C  C123  1  0.46019000  0.00319000  0.65620000  1.0 -0.0964220281
C  C124  1  0.34699000  0.80399000  0.34380000  1.0 -0.0964220281
C  C125  1  0.80399000  0.34699000  0.34380000  1.0 -0.0964220281
C  C126  1  0.34699000  0.00319000  0.54300000  1.0 -0.0964220281
C  C127  1  0.00319000  0.46019000  0.65620000  1.0 -0.0964220281
C  C128  1  0.46019000  0.80399000  0.45700000  1.0 -0.0964220281
C  C129  1  0.19601000  0.53981000  0.54300000  1.0 -0.0964220281
C  C130  1  0.99681000  0.65301000  0.45700000  1.0 -0.0964220281
C  C131  1  0.53981000  0.99681000  0.34380000  1.0 -0.0964220281
C  C132  1  0.65301000  0.19601000  0.65620000  1.0 -0.0964220281
C  C133  1  0.12566000  0.61896000  0.61870000  1.0 -0.14252219
C  C134  1  0.61896000  0.00026000  0.49330000  1.0 -0.14252219
C  C135  1  0.00026000  0.50696000  0.38130000  1.0 -0.14252219
C  C136  1  0.50696000  0.12566000  0.50670000  1.0 -0.14252219
C  C137  1  0.87434000  0.49304000  0.49330000  1.0 -0.14252219
C  C138  1  0.99974000  0.38104000  0.50670000  1.0 -0.14252219
C  C139  1  0.49304000  0.99974000  0.61870000  1.0 -0.14252219
C  C140  1  0.38104000  0.87434000  0.38130000  1.0 -0.14252219
C  C141  1  0.87434000  0.38104000  0.38130000  1.0 -0.14252219
C  C142  1  0.38104000  0.99974000  0.50670000  1.0 -0.14252219
C  C143  1  0.99974000  0.49304000  0.61870000  1.0 -0.14252219
C  C144  1  0.49304000  0.87434000  0.49330000  1.0 -0.14252219
C  C145  1  0.12566000  0.50696000  0.50670000  1.0 -0.14252219
C  C146  1  0.00026000  0.61896000  0.49330000  1.0 -0.14252219
C  C147  1  0.50696000  0.00026000  0.38130000  1.0 -0.14252219
C  C148  1  0.61896000  0.12566000  0.61870000  1.0 -0.14252219
O  O1  1  0.41863000  0.51988000  0.53233000  1.0 -0.5632525118
O  O2  1  0.51988000  0.98755000  0.10125000  1.0 -0.5632525118
O  O3  1  0.98755000  0.88630000  0.46767000  1.0 -0.5632525118
O  O4  1  0.88630000  0.41863000  0.89875000  1.0 -0.5632525118
O  O5  1  0.58137000  0.11370000  0.10125000  1.0 -0.5632525118
O  O6  1  0.01245000  0.48012000  0.89875000  1.0 -0.5632525118
O  O7  1  0.11370000  0.01245000  0.53233000  1.0 -0.5632525118
O  O8  1  0.48012000  0.58137000  0.46767000  1.0 -0.5632525118
O  O9  1  0.58137000  0.48012000  0.46767000  1.0 -0.5632525118
O  O10  1  0.48012000  0.01245000  0.89875000  1.0 -0.5632525118
O  O11  1  0.01245000  0.11370000  0.53233000  1.0 -0.5632525118
O  O12  1  0.11370000  0.58137000  0.10125000  1.0 -0.5632525118
O  O13  1  0.41863000  0.88630000  0.89875000  1.0 -0.5632525118
O  O14  1  0.98755000  0.51988000  0.10125000  1.0 -0.5632525118
O  O15  1  0.88630000  0.98755000  0.46767000  1.0 -0.5632525118
O  O16  1  0.51988000  0.41863000  0.53233000  1.0 -0.5632525118
O  O17  1  0.37651000  0.48009000  0.36070000  1.0 -0.54346222
O  O18  1  0.48009000  0.11939000  0.10358000  1.0 -0.54346222
O  O19  1  0.11939000  0.01581000  0.63930000  1.0 -0.54346222
O  O20  1  0.01581000  0.37651000  0.89642000  1.0 -0.54346222
O  O21  1  0.62349000  0.98419000  0.10358000  1.0 -0.54346222
O  O22  1  0.88061000  0.51991000  0.89642000  1.0 -0.54346222
O  O23  1  0.98419000  0.88061000  0.36070000  1.0 -0.54346222
O  O24  1  0.51991000  0.62349000  0.63930000  1.0 -0.54346222
O  O25  1  0.62349000  0.51991000  0.63930000  1.0 -0.54346222
O  O26  1  0.51991000  0.88061000  0.89642000  1.0 -0.54346222
O  O27  1  0.88061000  0.98419000  0.36070000  1.0 -0.54346222
O  O28  1  0.98419000  0.62349000  0.10358000  1.0 -0.54346222
O  O29  1  0.37651000  0.01581000  0.89642000  1.0 -0.54346222
O  O30  1  0.11939000  0.48009000  0.10358000  1.0 -0.54346222
O  O31  1  0.01581000  0.11939000  0.63930000  1.0 -0.54346222
O  O32  1  0.48009000  0.37651000  0.36070000  1.0 -0.54346222
