# DDEC6 charges by PACMAN v1.1 (https://github.com/mtap-research/PACMAN-charge/)
data_LEQCAN_ASR_pacman
_symmetry_space_group_name_H-M   'P 1'
_cell_length_a   22.15690000
_cell_length_b   22.15690000
_cell_length_c   22.15690000
_cell_angle_alpha   130.41300000
_cell_angle_beta   130.41300000
_cell_angle_gamma   72.74750000
_symmetry_Int_Tables_number   1
_chemical_formula_structural   Cu2H22C37O8
_chemical_formula_sum   'Cu8 H88 C148 O32'
_cell_volume   6160.60849730
_cell_formula_units_Z   4
loop_
 _symmetry_equiv_pos_site_id
 _symmetry_equiv_pos_as_xyz
  1  'x, y, z'
loop_
 _atom_site_type_symbol
 _atom_site_label
 _atom_site_symmetry_multiplicity
 _atom_site_fract_x
 _atom_site_fract_y
 _atom_site_fract_z
 _atom_site_occupancy
 _atom_site_charge
Cu  Cu1  1  0.49325000  0.49325000  0.43182000  1.0 0.8762551564
Cu  Cu2  1  0.49325000  0.06143000  0.00000000  1.0 0.8762551564
Cu  Cu3  1  0.06143000  0.06143000  0.56818000  1.0 0.8762551564
Cu  Cu4  1  0.06143000  0.49325000  0.00000000  1.0 0.8762551564
Cu  Cu5  1  0.50675000  0.93857000  0.00000000  1.0 0.8762551564
Cu  Cu6  1  0.93857000  0.50675000  0.00000000  1.0 0.8762551564
Cu  Cu7  1  0.93857000  0.93857000  0.43182000  1.0 0.8762551564
Cu  Cu8  1  0.50675000  0.50675000  0.56818000  1.0 0.8762551564
H  H1  1  0.48320000  0.23840000  0.24480000  1.0 0.1436138022
H  H2  1  0.23840000  0.99360000  0.75520000  1.0 0.1436138022
H  H3  1  0.99360000  0.23840000  0.75520000  1.0 0.1436138022
H  H4  1  0.23840000  0.48320000  0.24480000  1.0 0.1436138022
H  H5  1  0.51680000  0.76160000  0.75520000  1.0 0.1436138022
H  H6  1  0.00640000  0.76160000  0.24480000  1.0 0.1436138022
H  H7  1  0.76160000  0.00640000  0.24480000  1.0 0.1436138022
H  H8  1  0.76160000  0.51680000  0.75520000  1.0 0.1436138022
H  H9  1  0.46550000  0.25530000  0.42180000  1.0 0.1264814529
H  H10  1  0.25530000  0.83350000  0.78980000  1.0 0.1264814529
H  H11  1  0.83350000  0.04370000  0.57820000  1.0 0.1264814529
H  H12  1  0.04370000  0.46550000  0.21020000  1.0 0.1264814529
H  H13  1  0.53450000  0.95630000  0.78980000  1.0 0.1264814529
H  H14  1  0.16650000  0.74470000  0.21020000  1.0 0.1264814529
H  H15  1  0.95630000  0.16650000  0.42180000  1.0 0.1264814529
H  H16  1  0.74470000  0.53450000  0.57820000  1.0 0.1264814529
H  H17  1  0.53450000  0.74470000  0.57820000  1.0 0.1264814529
H  H18  1  0.74470000  0.16650000  0.21020000  1.0 0.1264814529
H  H19  1  0.16650000  0.95630000  0.42180000  1.0 0.1264814529
H  H20  1  0.95630000  0.53450000  0.78980000  1.0 0.1264814529
H  H21  1  0.46550000  0.04370000  0.21020000  1.0 0.1264814529
H  H22  1  0.83350000  0.25530000  0.78980000  1.0 0.1264814529
H  H23  1  0.04370000  0.83350000  0.57820000  1.0 0.1264814529
H  H24  1  0.25530000  0.46550000  0.42180000  1.0 0.1264814529
H  H25  1  0.52850000  0.20270000  0.50340000  1.0 0.0991094395
H  H26  1  0.20270000  0.69930000  0.67420000  1.0 0.0991094395
H  H27  1  0.69930000  0.02510000  0.49660000  1.0 0.0991094395
H  H28  1  0.02510000  0.52850000  0.32580000  1.0 0.0991094395
H  H29  1  0.47150000  0.97490000  0.67420000  1.0 0.0991094395
H  H30  1  0.30070000  0.79730000  0.32580000  1.0 0.0991094395
H  H31  1  0.97490000  0.30070000  0.50340000  1.0 0.0991094395
H  H32  1  0.79730000  0.47150000  0.49660000  1.0 0.0991094395
H  H33  1  0.47150000  0.79730000  0.49660000  1.0 0.0991094395
H  H34  1  0.79730000  0.30070000  0.32580000  1.0 0.0991094395
H  H35  1  0.30070000  0.97490000  0.50340000  1.0 0.0991094395
H  H36  1  0.97490000  0.47150000  0.67420000  1.0 0.0991094395
H  H37  1  0.52850000  0.02510000  0.32580000  1.0 0.0991094395
H  H38  1  0.69930000  0.20270000  0.67420000  1.0 0.0991094395
H  H39  1  0.02510000  0.69930000  0.49660000  1.0 0.0991094395
H  H40  1  0.20270000  0.52850000  0.50340000  1.0 0.0991094395
H  H41  1  0.52730000  0.14410000  0.55960000  1.0 0.0775798553
H  H42  1  0.14410000  0.58450000  0.61680000  1.0 0.0775798553
H  H43  1  0.58450000  0.96770000  0.44040000  1.0 0.0775798553
H  H44  1  0.96770000  0.52730000  0.38320000  1.0 0.0775798553
H  H45  1  0.47270000  0.03230000  0.61680000  1.0 0.0775798553
H  H46  1  0.41550000  0.85590000  0.38320000  1.0 0.0775798553
H  H47  1  0.03230000  0.41550000  0.55960000  1.0 0.0775798553
H  H48  1  0.85590000  0.47270000  0.44040000  1.0 0.0775798553
H  H49  1  0.47270000  0.85590000  0.44040000  1.0 0.0775798553
H  H50  1  0.85590000  0.41550000  0.38320000  1.0 0.0775798553
H  H51  1  0.41550000  0.03230000  0.55960000  1.0 0.0775798553
H  H52  1  0.03230000  0.47270000  0.61680000  1.0 0.0775798553
H  H53  1  0.52730000  0.96770000  0.38320000  1.0 0.0775798553
H  H54  1  0.58450000  0.14410000  0.61680000  1.0 0.0775798553
H  H55  1  0.96770000  0.58450000  0.44040000  1.0 0.0775798553
H  H56  1  0.14410000  0.52730000  0.55960000  1.0 0.0775798553
H  H57  1  0.38190000  0.94050000  0.27160000  1.0 0.0886696595
H  H58  1  0.94050000  0.66890000  0.55860000  1.0 0.0886696595
H  H59  1  0.66890000  0.11030000  0.72840000  1.0 0.0886696595
H  H60  1  0.11030000  0.38190000  0.44140000  1.0 0.0886696595
H  H61  1  0.61810000  0.88970000  0.55860000  1.0 0.0886696595
H  H62  1  0.33110000  0.05950000  0.44140000  1.0 0.0886696595
H  H63  1  0.88970000  0.33110000  0.27160000  1.0 0.0886696595
H  H64  1  0.05950000  0.61810000  0.72840000  1.0 0.0886696595
H  H65  1  0.61810000  0.05950000  0.72840000  1.0 0.0886696595
H  H66  1  0.05950000  0.33110000  0.44140000  1.0 0.0886696595
H  H67  1  0.33110000  0.88970000  0.27160000  1.0 0.0886696595
H  H68  1  0.88970000  0.61810000  0.55860000  1.0 0.0886696595
H  H69  1  0.38190000  0.11030000  0.44140000  1.0 0.0886696595
H  H70  1  0.66890000  0.94050000  0.55860000  1.0 0.0886696595
H  H71  1  0.11030000  0.66890000  0.72840000  1.0 0.0886696595
H  H72  1  0.94050000  0.38190000  0.27160000  1.0 0.0886696595
H  H73  1  0.38300000  0.99730000  0.21410000  1.0 0.0991094395
H  H74  1  0.99730000  0.78320000  0.61430000  1.0 0.0991094395
H  H75  1  0.78320000  0.16890000  0.78590000  1.0 0.0991094395
H  H76  1  0.16890000  0.38300000  0.38570000  1.0 0.0991094395
H  H77  1  0.61700000  0.83110000  0.61430000  1.0 0.0991094395
H  H78  1  0.21680000  0.00270000  0.38570000  1.0 0.0991094395
H  H79  1  0.83110000  0.21680000  0.21410000  1.0 0.0991094395
H  H80  1  0.00270000  0.61700000  0.78590000  1.0 0.0991094395
H  H81  1  0.61700000  0.00270000  0.78590000  1.0 0.0991094395
H  H82  1  0.00270000  0.21680000  0.38570000  1.0 0.0991094395
H  H83  1  0.21680000  0.83110000  0.21410000  1.0 0.0991094395
H  H84  1  0.83110000  0.61700000  0.61430000  1.0 0.0991094395
H  H85  1  0.38300000  0.16890000  0.38570000  1.0 0.0991094395
H  H86  1  0.78320000  0.99730000  0.61430000  1.0 0.0991094395
H  H87  1  0.16890000  0.78320000  0.78590000  1.0 0.0991094395
H  H88  1  0.99730000  0.38300000  0.21410000  1.0 0.0991094395
C  C1  1  0.48280000  0.35110000  0.40170000  1.0 0.577196503
C  C2  1  0.35110000  0.94940000  0.86830000  1.0 0.577196503
C  C3  1  0.94940000  0.08110000  0.59830000  1.0 0.577196503
C  C4  1  0.08110000  0.48280000  0.13170000  1.0 0.577196503
C  C5  1  0.51720000  0.91890000  0.86830000  1.0 0.577196503
C  C6  1  0.05060000  0.64890000  0.13170000  1.0 0.577196503
C  C7  1  0.91890000  0.05060000  0.40170000  1.0 0.577196503
C  C8  1  0.64890000  0.51720000  0.59830000  1.0 0.577196503
C  C9  1  0.51720000  0.64890000  0.59830000  1.0 0.577196503
C  C10  1  0.64890000  0.05060000  0.13170000  1.0 0.577196503
C  C11  1  0.05060000  0.91890000  0.40170000  1.0 0.577196503
C  C12  1  0.91890000  0.51720000  0.86830000  1.0 0.577196503
C  C13  1  0.48280000  0.08110000  0.13170000  1.0 0.577196503
C  C14  1  0.94940000  0.35110000  0.86830000  1.0 0.577196503
C  C15  1  0.08110000  0.94940000  0.59830000  1.0 0.577196503
C  C16  1  0.35110000  0.48280000  0.40170000  1.0 0.577196503
C  C17  1  0.47546000  0.26256000  0.34190000  1.0 -0.0292200337
C  C18  1  0.26256000  0.92066000  0.78710000  1.0 -0.0292200337
C  C19  1  0.92066000  0.13356000  0.65810000  1.0 -0.0292200337
C  C20  1  0.13356000  0.47546000  0.21290000  1.0 -0.0292200337
C  C21  1  0.52454000  0.86644000  0.78710000  1.0 -0.0292200337
C  C22  1  0.07934000  0.73744000  0.21290000  1.0 -0.0292200337
C  C23  1  0.86644000  0.07934000  0.34190000  1.0 -0.0292200337
C  C24  1  0.73744000  0.52454000  0.65810000  1.0 -0.0292200337
C  C25  1  0.52454000  0.73744000  0.65810000  1.0 -0.0292200337
C  C26  1  0.73744000  0.07934000  0.21290000  1.0 -0.0292200337
C  C27  1  0.07934000  0.86644000  0.34190000  1.0 -0.0292200337
C  C28  1  0.86644000  0.52454000  0.78710000  1.0 -0.0292200337
C  C29  1  0.47546000  0.13356000  0.21290000  1.0 -0.0292200337
C  C30  1  0.92066000  0.26256000  0.78710000  1.0 -0.0292200337
C  C31  1  0.13356000  0.92066000  0.65810000  1.0 -0.0292200337
C  C32  1  0.26256000  0.47546000  0.34190000  1.0 -0.0292200337
C  C33  1  0.47860000  0.21440000  0.26420000  1.0 -0.0894812499
C  C34  1  0.21440000  0.95020000  0.73580000  1.0 -0.0894812499
C  C35  1  0.95020000  0.21440000  0.73580000  1.0 -0.0894812499
C  C36  1  0.21440000  0.47860000  0.26420000  1.0 -0.0894812499
C  C37  1  0.52140000  0.78560000  0.73580000  1.0 -0.0894812499
C  C38  1  0.04980000  0.78560000  0.26420000  1.0 -0.0894812499
C  C39  1  0.78560000  0.04980000  0.26420000  1.0 -0.0894812499
C  C40  1  0.78560000  0.52140000  0.73580000  1.0 -0.0894812499
C  C41  1  0.46890000  0.22420000  0.36970000  1.0 -0.1539610117
C  C42  1  0.22420000  0.85450000  0.75530000  1.0 -0.1555428934
C  C43  1  0.85450000  0.09920000  0.63030000  1.0 -0.1539610117
C  C44  1  0.09920000  0.46890000  0.24470000  1.0 -0.1555428934
C  C45  1  0.53110000  0.90080000  0.75530000  1.0 -0.1555428934
C  C46  1  0.14550000  0.77580000  0.24470000  1.0 -0.1539610117
C  C47  1  0.90080000  0.14550000  0.36970000  1.0 -0.1539610117
C  C48  1  0.77580000  0.53110000  0.63030000  1.0 -0.1539610117
C  C49  1  0.53110000  0.77580000  0.63030000  1.0 -0.1555428934
C  C50  1  0.77580000  0.14550000  0.24470000  1.0 -0.1539610117
C  C51  1  0.14550000  0.90080000  0.36970000  1.0 -0.1555428934
C  C52  1  0.90080000  0.53110000  0.75530000  1.0 -0.1539610117
C  C53  1  0.46890000  0.09920000  0.24470000  1.0 -0.1555428934
C  C54  1  0.85450000  0.22420000  0.75530000  1.0 -0.1555428934
C  C55  1  0.09920000  0.85450000  0.63030000  1.0 -0.1555428934
C  C56  1  0.22420000  0.46890000  0.36970000  1.0 -0.1555428934
C  C57  1  0.46730000  0.14360000  0.32370000  1.0 0.0649946797
C  C58  1  0.14360000  0.81990000  0.67630000  1.0 0.0657288493
C  C59  1  0.81990000  0.14360000  0.67630000  1.0 0.0657288493
C  C60  1  0.14360000  0.46730000  0.32370000  1.0 0.0657288493
C  C61  1  0.53270000  0.85640000  0.67630000  1.0 0.0657288493
C  C62  1  0.18010000  0.85640000  0.32370000  1.0 0.0657288493
C  C63  1  0.85640000  0.18010000  0.32370000  1.0 0.0657288493
C  C64  1  0.85640000  0.53270000  0.67630000  1.0 0.0657288493
C  C65  1  0.46900000  0.00000000  0.46900000  1.0 -0.0292200337
C  C66  1  0.00000000  0.53100000  0.53100000  1.0 -0.0363289659
C  C67  1  0.53100000  0.00000000  0.53100000  1.0 -0.0292200337
C  C68  1  0.00000000  0.46900000  0.46900000  1.0 -0.0292200337
C  C69  1  0.49930000  0.15000000  0.45710000  1.0 -0.0894812499
C  C70  1  0.15000000  0.69290000  0.65070000  1.0 -0.0894812499
C  C71  1  0.69290000  0.04220000  0.54290000  1.0 -0.0894812499
C  C72  1  0.04220000  0.49930000  0.34930000  1.0 -0.0894812499
C  C73  1  0.50070000  0.95780000  0.65070000  1.0 -0.0894812499
C  C74  1  0.30710000  0.85000000  0.34930000  1.0 -0.0894812499
C  C75  1  0.95780000  0.30710000  0.45710000  1.0 -0.0894812499
C  C76  1  0.85000000  0.50070000  0.54290000  1.0 -0.0894812499
C  C77  1  0.50070000  0.85000000  0.54290000  1.0 -0.0894812499
C  C78  1  0.85000000  0.30710000  0.34930000  1.0 -0.0894812499
C  C79  1  0.30710000  0.95780000  0.45710000  1.0 -0.0894812499
C  C80  1  0.95780000  0.50070000  0.65070000  1.0 -0.0894812499
C  C81  1  0.49930000  0.04220000  0.34930000  1.0 -0.0894812499
C  C82  1  0.69290000  0.15000000  0.65070000  1.0 -0.0894812499
C  C83  1  0.04220000  0.69290000  0.54290000  1.0 -0.0894812499
C  C84  1  0.15000000  0.49930000  0.45710000  1.0 -0.0894812499
C  C85  1  0.49880000  0.11490000  0.49050000  1.0 -0.136318015
C  C86  1  0.11490000  0.62440000  0.61610000  1.0 -0.136318015
C  C87  1  0.62440000  0.00830000  0.50950000  1.0 -0.136318015
C  C88  1  0.00830000  0.49880000  0.38390000  1.0 -0.136318015
C  C89  1  0.50120000  0.99170000  0.61610000  1.0 -0.136318015
C  C90  1  0.37560000  0.88510000  0.38390000  1.0 -0.136318015
C  C91  1  0.99170000  0.37560000  0.49050000  1.0 -0.136318015
C  C92  1  0.88510000  0.50120000  0.50950000  1.0 -0.136318015
C  C93  1  0.50120000  0.88510000  0.50950000  1.0 -0.136318015
C  C94  1  0.88510000  0.37560000  0.38390000  1.0 -0.136318015
C  C95  1  0.37560000  0.99170000  0.49050000  1.0 -0.136318015
C  C96  1  0.99170000  0.50120000  0.61610000  1.0 -0.136318015
C  C97  1  0.49880000  0.00830000  0.38390000  1.0 -0.136318015
C  C98  1  0.62440000  0.11490000  0.61610000  1.0 -0.136318015
C  C99  1  0.00830000  0.62440000  0.50950000  1.0 -0.136318015
C  C100  1  0.11490000  0.49880000  0.49050000  1.0 -0.136318015
C  C101  1  0.45510000  0.03510000  0.42000000  1.0 0.0511042356
C  C102  1  0.03510000  0.61510000  0.58000000  1.0 0.0511042356
C  C103  1  0.61510000  0.03510000  0.58000000  1.0 0.0511042356
C  C104  1  0.03510000  0.45510000  0.42000000  1.0 0.0511042356
C  C105  1  0.54490000  0.96490000  0.58000000  1.0 0.0511042356
C  C106  1  0.38490000  0.96490000  0.42000000  1.0 0.0511042356
C  C107  1  0.96490000  0.38490000  0.42000000  1.0 0.0511042356
C  C108  1  0.96490000  0.54490000  0.58000000  1.0 0.0511042356
C  C109  1  0.45450000  0.10410000  0.35040000  1.0 0.0511042356
C  C110  1  0.10410000  0.75370000  0.64960000  1.0 0.0511042356
C  C111  1  0.75370000  0.10410000  0.64960000  1.0 0.0511042356
C  C112  1  0.10410000  0.45450000  0.35040000  1.0 0.0511042356
C  C113  1  0.54550000  0.89590000  0.64960000  1.0 0.0511042356
C  C114  1  0.24630000  0.89590000  0.35040000  1.0 0.0511042356
C  C115  1  0.89590000  0.24630000  0.35040000  1.0 0.0511042356
C  C116  1  0.89590000  0.54550000  0.64960000  1.0 0.0511042356
C  C117  1  0.41190000  0.99290000  0.31820000  1.0 -0.0779073477
C  C118  1  0.99290000  0.67470000  0.58100000  1.0 -0.0779073477
C  C119  1  0.67470000  0.09370000  0.68180000  1.0 -0.0779073477
C  C120  1  0.09370000  0.41190000  0.41900000  1.0 -0.0779073477
C  C121  1  0.58810000  0.90630000  0.58100000  1.0 -0.0779073477
C  C122  1  0.32530000  0.00710000  0.41900000  1.0 -0.0779073477
C  C123  1  0.90630000  0.32530000  0.31820000  1.0 -0.0779073477
C  C124  1  0.00710000  0.58810000  0.68180000  1.0 -0.0779073477
C  C125  1  0.58810000  0.00710000  0.68180000  1.0 -0.0779073477
C  C126  1  0.00710000  0.32530000  0.41900000  1.0 -0.0779073477
C  C127  1  0.32530000  0.90630000  0.31820000  1.0 -0.0779073477
C  C128  1  0.90630000  0.58810000  0.58100000  1.0 -0.0779073477
C  C129  1  0.41190000  0.09370000  0.41900000  1.0 -0.0779073477
C  C130  1  0.67470000  0.99290000  0.58100000  1.0 -0.0779073477
C  C131  1  0.09370000  0.67470000  0.68180000  1.0 -0.0779073477
C  C132  1  0.99290000  0.41190000  0.31820000  1.0 -0.0779073477
C  C133  1  0.41200000  0.02710000  0.28350000  1.0 -0.0894812499
C  C134  1  0.02710000  0.74360000  0.61510000  1.0 -0.0894812499
C  C135  1  0.74360000  0.12850000  0.71650000  1.0 -0.0894812499
C  C136  1  0.12850000  0.41200000  0.38490000  1.0 -0.0894812499
C  C137  1  0.58800000  0.87150000  0.61510000  1.0 -0.0894812499
C  C138  1  0.25640000  0.97290000  0.38490000  1.0 -0.0894812499
C  C139  1  0.87150000  0.25640000  0.28350000  1.0 -0.0894812499
C  C140  1  0.97290000  0.58800000  0.71650000  1.0 -0.0894812499
C  C141  1  0.58800000  0.97290000  0.71650000  1.0 -0.0894812499
C  C142  1  0.97290000  0.25640000  0.38490000  1.0 -0.0894812499
C  C143  1  0.25640000  0.87150000  0.28350000  1.0 -0.0894812499
C  C144  1  0.87150000  0.58800000  0.61510000  1.0 -0.0894812499
C  C145  1  0.41200000  0.12850000  0.38490000  1.0 -0.0894812499
C  C146  1  0.74360000  0.02710000  0.61510000  1.0 -0.0894812499
C  C147  1  0.12850000  0.74360000  0.71650000  1.0 -0.0894812499
C  C148  1  0.02710000  0.41200000  0.28350000  1.0 -0.0894812499
O  O1  1  0.48110000  0.37900000  0.36510000  1.0 -0.5162215046
O  O2  1  0.37900000  0.01390000  0.89790000  1.0 -0.5162215046
O  O3  1  0.01390000  0.11600000  0.63490000  1.0 -0.5162215046
O  O4  1  0.11600000  0.48110000  0.10210000  1.0 -0.5162215046
O  O5  1  0.51890000  0.88400000  0.89790000  1.0 -0.5162215046
O  O6  1  0.98610000  0.62100000  0.10210000  1.0 -0.5162215046
O  O7  1  0.88400000  0.98610000  0.36510000  1.0 -0.5162215046
O  O8  1  0.62100000  0.51890000  0.63490000  1.0 -0.5162215046
O  O9  1  0.51890000  0.62100000  0.63490000  1.0 -0.5162215046
O  O10  1  0.62100000  0.98610000  0.10210000  1.0 -0.5162215046
O  O11  1  0.98610000  0.88400000  0.36510000  1.0 -0.5162215046
O  O12  1  0.88400000  0.51890000  0.89790000  1.0 -0.5162215046
O  O13  1  0.48110000  0.11600000  0.10210000  1.0 -0.5162215046
O  O14  1  0.01390000  0.37900000  0.89790000  1.0 -0.5162215046
O  O15  1  0.11600000  0.01390000  0.63490000  1.0 -0.5162215046
O  O16  1  0.37900000  0.48110000  0.36510000  1.0 -0.5162215046
O  O17  1  0.49284000  0.39204000  0.48340000  1.0 -0.5162215046
O  O18  1  0.39204000  0.90864000  0.89920000  1.0 -0.5162215046
O  O19  1  0.90864000  0.00944000  0.51660000  1.0 -0.5162215046
O  O20  1  0.00944000  0.49284000  0.10080000  1.0 -0.5162215046
O  O21  1  0.50716000  0.99056000  0.89920000  1.0 -0.5162215046
O  O22  1  0.09136000  0.60796000  0.10080000  1.0 -0.5162215046
O  O23  1  0.99056000  0.09136000  0.48340000  1.0 -0.5162215046
O  O24  1  0.60796000  0.50716000  0.51660000  1.0 -0.514716996
O  O25  1  0.50716000  0.60796000  0.51660000  1.0 -0.514716996
O  O26  1  0.60796000  0.09136000  0.10080000  1.0 -0.5162215046
O  O27  1  0.09136000  0.99056000  0.48340000  1.0 -0.5162215046
O  O28  1  0.99056000  0.50716000  0.89920000  1.0 -0.5162215046
O  O29  1  0.49284000  0.00944000  0.10080000  1.0 -0.5162215046
O  O30  1  0.90864000  0.39204000  0.89920000  1.0 -0.5162215046
O  O31  1  0.00944000  0.90864000  0.51660000  1.0 -0.5162215046
O  O32  1  0.39204000  0.49284000  0.48340000  1.0 -0.5162215046
