# DDEC6 charges by PACMAN v1.1 (https://github.com/mtap-research/PACMAN-charge/)
data_LEQKAX_ASR_pacman
_symmetry_space_group_name_H-M   'P 1'
_cell_length_a   12.87650000
_cell_length_b   22.05600000
_cell_length_c   19.57520000
_cell_angle_alpha   90.00000000
_cell_angle_beta   123.03900000
_cell_angle_gamma   90.00000000
_symmetry_Int_Tables_number   1
_chemical_formula_structural   Cu3H60C78(N7O6)2
_chemical_formula_sum   'Cu6 H120 C156 N28 O24'
_cell_volume   4660.47387571
_cell_formula_units_Z   2
loop_
 _symmetry_equiv_pos_site_id
 _symmetry_equiv_pos_as_xyz
  1  'x, y, z'
loop_
 _atom_site_type_symbol
 _atom_site_label
 _atom_site_symmetry_multiplicity
 _atom_site_fract_x
 _atom_site_fract_y
 _atom_site_fract_z
 _atom_site_occupancy
 _atom_site_charge
Cu  Cu1  1  0.00719000  0.73479000  0.20182000  1.0 0.7245089198
Cu  Cu2  1  0.99281000  0.23479000  0.29818000  1.0 0.7245089198
Cu  Cu3  1  0.99281000  0.26521000  0.79818000  1.0 0.7245089198
Cu  Cu4  1  0.00719000  0.76521000  0.70182000  1.0 0.7245089198
Cu  Cu5  1  0.00000000  0.50000000  0.00000000  1.0 0.775734433
Cu  Cu6  1  0.00000000  0.00000000  0.50000000  1.0 0.775734433
H  H1  1  0.89767000  0.48003000  0.44948000  1.0 0.1378995054
H  H2  1  0.95292000  0.53459000  0.37206000  1.0 0.1217296431
H  H3  1  0.61474000  0.60967000  0.24467000  1.0 0.1378995054
H  H4  1  0.55970000  0.55888000  0.32480000  1.0 0.1378995054
H  H5  1  0.56294000  0.43041000  0.30033000  1.0 0.1378995054
H  H6  1  0.38045000  0.37714000  0.24039000  1.0 0.1378995054
H  H7  1  0.36540000  0.40457000  0.43847000  1.0 0.1217296431
H  H8  1  0.54860000  0.45862000  0.49795000  1.0 0.1217296431
H  H9  1  0.82712000  0.57177000  0.53129000  1.0 0.1300147608
H  H10  1  0.94631000  0.58314000  0.67306000  1.0 0.1300147608
H  H11  1  0.86718000  0.41033000  0.69804000  1.0 0.1378995054
H  H12  1  0.74766000  0.39911000  0.55663000  1.0 0.1300147608
H  H13  1  0.71799000  0.56169000  0.13729000  1.0 0.1300147608
H  H14  1  0.82705000  0.62886000  0.09556000  1.0 0.1378995054
H  H15  1  0.97623000  0.65075000  0.39494000  1.0 0.1611464885
H  H16  1  0.05412000  0.69128000  0.37039000  1.0 0.1702442757
H  H17  1  0.92510000  0.71571000  0.35352000  1.0 0.1611464885
H  H18  1  0.13979000  0.39029000  0.18062000  1.0 0.1300147608
H  H19  1  0.96877000  0.32654000  0.16190000  1.0 0.1378995054
H  H20  1  0.29251000  0.30681000  0.45384000  1.0 0.1611464885
H  H21  1  0.26480000  0.24071000  0.41386000  1.0 0.1611464885
H  H22  1  0.37688000  0.28002000  0.42403000  1.0 0.1611464885
H  H23  1  0.14359000  0.54990000  0.81355000  1.0 0.1300147608
H  H24  1  0.18554000  0.55313000  0.95322000  1.0 0.1378995054
H  H25  1  0.81701000  0.42260000  0.80312000  1.0 0.184523129
H  H26  1  0.78668000  0.47928000  0.84046000  1.0 0.1702442757
H  H27  1  0.75156000  0.48153000  0.74848000  1.0 0.1490281458
H  H28  1  0.80836000  0.84112000  0.95102000  1.0 0.1100808169
H  H29  1  0.65370000  0.77725000  0.85984000  1.0 0.1217296431
H  H30  1  0.69157000  0.67336000  0.87049000  1.0 0.1100808169
H  H31  1  0.10233000  0.98003000  0.05052000  1.0 0.1378995054
H  H32  1  0.04708000  0.03459000  0.12794000  1.0 0.1217296431
H  H33  1  0.38526000  0.10967000  0.25533000  1.0 0.1378995054
H  H34  1  0.44030000  0.05888000  0.17520000  1.0 0.1378995054
H  H35  1  0.43706000  0.93041000  0.19967000  1.0 0.1378995054
H  H36  1  0.61955000  0.87714000  0.25961000  1.0 0.1378995054
H  H37  1  0.63460000  0.90457000  0.06153000  1.0 0.1217296431
H  H38  1  0.45140000  0.95862000  0.00205000  1.0 0.1217296431
H  H39  1  0.17288000  0.07177000  0.96871000  1.0 0.1300147608
H  H40  1  0.05369000  0.08314000  0.82694000  1.0 0.1300147608
H  H41  1  0.13282000  0.91033000  0.80196000  1.0 0.1378995054
H  H42  1  0.25234000  0.89911000  0.94337000  1.0 0.1300147608
H  H43  1  0.28201000  0.06169000  0.36271000  1.0 0.1300147608
H  H44  1  0.17295000  0.12886000  0.40444000  1.0 0.1378995054
H  H45  1  0.02377000  0.15075000  0.10506000  1.0 0.1611464885
H  H46  1  0.94588000  0.19128000  0.12961000  1.0 0.1702442757
H  H47  1  0.07490000  0.21571000  0.14648000  1.0 0.1611464885
H  H48  1  0.86021000  0.89029000  0.31938000  1.0 0.1300147608
H  H49  1  0.03123000  0.82654000  0.33810000  1.0 0.1378995054
H  H50  1  0.70749000  0.80681000  0.04616000  1.0 0.1611464885
H  H51  1  0.73520000  0.74071000  0.08614000  1.0 0.1611464885
H  H52  1  0.62312000  0.78002000  0.07597000  1.0 0.1611464885
H  H53  1  0.85641000  0.04990000  0.68645000  1.0 0.1300147608
H  H54  1  0.81446000  0.05313000  0.54678000  1.0 0.1378995054
H  H55  1  0.18299000  0.92260000  0.69688000  1.0 0.184523129
H  H56  1  0.21332000  0.97928000  0.65954000  1.0 0.1702442757
H  H57  1  0.24844000  0.98153000  0.75152000  1.0 0.1490281458
H  H58  1  0.19164000  0.34112000  0.54898000  1.0 0.1100808169
H  H59  1  0.34630000  0.27725000  0.64016000  1.0 0.1217296431
H  H60  1  0.30843000  0.17336000  0.62951000  1.0 0.1100808169
H  H61  1  0.10233000  0.51997000  0.55052000  1.0 0.1378995054
H  H62  1  0.04708000  0.46541000  0.62794000  1.0 0.1217296431
H  H63  1  0.38526000  0.39033000  0.75533000  1.0 0.1378995054
H  H64  1  0.44030000  0.44112000  0.67520000  1.0 0.1378995054
H  H65  1  0.43706000  0.56959000  0.69967000  1.0 0.1378995054
H  H66  1  0.61955000  0.62286000  0.75961000  1.0 0.1378995054
H  H67  1  0.63460000  0.59543000  0.56153000  1.0 0.1217296431
H  H68  1  0.45140000  0.54138000  0.50205000  1.0 0.1217296431
H  H69  1  0.17288000  0.42823000  0.46871000  1.0 0.1300147608
H  H70  1  0.05369000  0.41686000  0.32694000  1.0 0.1300147608
H  H71  1  0.13282000  0.58967000  0.30196000  1.0 0.1378995054
H  H72  1  0.25234000  0.60089000  0.44337000  1.0 0.1300147608
H  H73  1  0.28201000  0.43831000  0.86271000  1.0 0.1300147608
H  H74  1  0.17295000  0.37114000  0.90444000  1.0 0.1378995054
H  H75  1  0.02377000  0.34925000  0.60506000  1.0 0.1611464885
H  H76  1  0.94588000  0.30872000  0.62961000  1.0 0.1702442757
H  H77  1  0.07490000  0.28429000  0.64648000  1.0 0.1611464885
H  H78  1  0.86021000  0.60971000  0.81938000  1.0 0.1300147608
H  H79  1  0.03123000  0.67346000  0.83810000  1.0 0.1378995054
H  H80  1  0.70749000  0.69319000  0.54616000  1.0 0.1611464885
H  H81  1  0.73520000  0.75929000  0.58614000  1.0 0.1611464885
H  H82  1  0.62312000  0.71998000  0.57597000  1.0 0.1611464885
H  H83  1  0.85641000  0.45010000  0.18645000  1.0 0.1300147608
H  H84  1  0.81446000  0.44687000  0.04678000  1.0 0.1378995054
H  H85  1  0.18299000  0.57740000  0.19688000  1.0 0.184523129
H  H86  1  0.21332000  0.52072000  0.15954000  1.0 0.1702442757
H  H87  1  0.24844000  0.51847000  0.25152000  1.0 0.1490281458
H  H88  1  0.19164000  0.15888000  0.04898000  1.0 0.1100808169
H  H89  1  0.34630000  0.22275000  0.14016000  1.0 0.1217296431
H  H90  1  0.30843000  0.32664000  0.12951000  1.0 0.1100808169
H  H91  1  0.89767000  0.01997000  0.94948000  1.0 0.1378995054
H  H92  1  0.95292000  0.96541000  0.87206000  1.0 0.1217296431
H  H93  1  0.61474000  0.89033000  0.74467000  1.0 0.1378995054
H  H94  1  0.55970000  0.94112000  0.82480000  1.0 0.1378995054
H  H95  1  0.56294000  0.06959000  0.80033000  1.0 0.1378995054
H  H96  1  0.38045000  0.12286000  0.74039000  1.0 0.1378995054
H  H97  1  0.36540000  0.09543000  0.93847000  1.0 0.1217296431
H  H98  1  0.54860000  0.04138000  0.99795000  1.0 0.1217296431
H  H99  1  0.82712000  0.92823000  0.03129000  1.0 0.1300147608
H  H100  1  0.94631000  0.91686000  0.17306000  1.0 0.1300147608
H  H101  1  0.86718000  0.08967000  0.19804000  1.0 0.1378995054
H  H102  1  0.74766000  0.10089000  0.05663000  1.0 0.1300147608
H  H103  1  0.71799000  0.93831000  0.63729000  1.0 0.1300147608
H  H104  1  0.82705000  0.87114000  0.59556000  1.0 0.1378995054
H  H105  1  0.97623000  0.84925000  0.89494000  1.0 0.1611464885
H  H106  1  0.05412000  0.80872000  0.87039000  1.0 0.1702442757
H  H107  1  0.92510000  0.78429000  0.85352000  1.0 0.1611464885
H  H108  1  0.13979000  0.10971000  0.68062000  1.0 0.1300147608
H  H109  1  0.96877000  0.17346000  0.66190000  1.0 0.1378995054
H  H110  1  0.29251000  0.19319000  0.95384000  1.0 0.1611464885
H  H111  1  0.26480000  0.25929000  0.91386000  1.0 0.1611464885
H  H112  1  0.37688000  0.21998000  0.92403000  1.0 0.1611464885
H  H113  1  0.14359000  0.95010000  0.31355000  1.0 0.1300147608
H  H114  1  0.18554000  0.94687000  0.45322000  1.0 0.1378995054
H  H115  1  0.81701000  0.07740000  0.30312000  1.0 0.184523129
H  H116  1  0.78668000  0.02072000  0.34046000  1.0 0.1702442757
H  H117  1  0.75156000  0.01847000  0.24848000  1.0 0.1490281458
H  H118  1  0.80836000  0.65888000  0.45102000  1.0 0.1100808169
H  H119  1  0.65370000  0.72275000  0.35984000  1.0 0.1217296431
H  H120  1  0.69157000  0.82664000  0.37049000  1.0 0.1100808169
C  C1  1  0.72200000  0.51330000  0.39380000  1.0 0.1611464885
C  C2  1  0.83950000  0.50660000  0.40780000  1.0 -0.141808479
C  C3  1  0.87180000  0.53840000  0.36130000  1.0 -0.1528341238
C  C4  1  0.78680000  0.57540000  0.29940000  1.0 0.1490281458
C  C5  1  0.67240000  0.58310000  0.28650000  1.0 -0.1690922618
C  C6  1  0.63920000  0.55270000  0.33370000  1.0 -0.1594211002
C  C7  1  0.57810000  0.44840000  0.40650000  1.0 0.1702442757
C  C8  1  0.52400000  0.42460000  0.32940000  1.0 -0.1594211002
C  C9  1  0.41570000  0.39300000  0.29370000  1.0 -0.141808479
C  C10  1  0.35740000  0.38390000  0.33400000  1.0 0.1611464885
C  C11  1  0.40660000  0.40930000  0.41070000  1.0 -0.1528341238
C  C12  1  0.51520000  0.44110000  0.44570000  1.0 -0.1759484326
C  C13  1  0.77040000  0.48550000  0.52910000  1.0 0.1702442757
C  C14  1  0.83280000  0.53920000  0.56490000  1.0 -0.1690922618
C  C15  1  0.90370000  0.54627000  0.64910000  1.0 -0.1528341238
C  C16  1  0.91070000  0.49839000  0.69710000  1.0 0.1490281458
C  C17  1  0.85640000  0.44353000  0.66380000  1.0 -0.1528341238
C  C18  1  0.78590000  0.43696000  0.57990000  1.0 -0.1690922618
C  C19  1  0.77780000  0.59170000  0.16990000  1.0 -0.1159721975
C  C20  1  0.83790000  0.62860000  0.14760000  1.0 -0.0290620354
C  C21  1  0.90480000  0.65105000  0.27370000  1.0 0.3429607685
C  C22  1  0.97060000  0.67960000  0.35500000  1.0 -0.5382643034
C  C23  1  0.14280000  0.36310000  0.21930000  1.0 -0.0908107598
C  C24  1  0.05020000  0.32770000  0.20960000  1.0 -0.0415693325
C  C25  1  0.20790000  0.30870000  0.33060000  1.0 0.3459711457
C  C26  1  0.29280000  0.28180000  0.41260000  1.0 -0.5382643034
C  C27  1  0.09210000  0.53500000  0.83070000  1.0 -0.125938638
C  C28  1  0.11340000  0.53650000  0.90680000  1.0 -0.0235850564
C  C29  1  0.93640000  0.49340000  0.83240000  1.0 0.3622720922
C  C30  1  0.81220000  0.46690000  0.80360000  1.0 -0.5511630987
C  C31  1  0.02200000  0.81780000  0.08680000  1.0 0.5524363304
C  C32  1  0.93260000  0.77670000  0.02410000  1.0 -0.1094738484
C  C33  1  0.82120000  0.79850000  0.95760000  1.0 -0.1094738484
C  C34  1  0.73110000  0.76150000  0.90230000  1.0 -0.1041762223
C  C35  1  0.75440000  0.69990000  0.90910000  1.0 -0.1094738484
C  C36  1  0.86690000  0.67550000  0.97060000  1.0 -0.0290620354
C  C37  1  0.88800000  0.60730000  0.96980000  1.0 0.5222773637
C  C38  1  0.95700000  0.71340000  0.02970000  1.0 -0.0676573058
C  C39  1  0.08110000  0.69220000  0.09980000  1.0 0.5798047866
C  C40  1  0.27800000  0.01330000  0.10620000  1.0 0.1611464885
C  C41  1  0.16050000  0.00660000  0.09220000  1.0 -0.141808479
C  C42  1  0.12820000  0.03840000  0.13870000  1.0 -0.1528341238
C  C43  1  0.21320000  0.07540000  0.20060000  1.0 0.1490281458
C  C44  1  0.32760000  0.08310000  0.21350000  1.0 -0.1690922618
C  C45  1  0.36080000  0.05270000  0.16630000  1.0 -0.1594211002
C  C46  1  0.42190000  0.94840000  0.09350000  1.0 0.1702442757
C  C47  1  0.47600000  0.92460000  0.17060000  1.0 -0.1594211002
C  C48  1  0.58430000  0.89300000  0.20630000  1.0 -0.141808479
C  C49  1  0.64260000  0.88390000  0.16600000  1.0 0.1611464885
C  C50  1  0.59340000  0.90930000  0.08930000  1.0 -0.1528341238
C  C51  1  0.48480000  0.94110000  0.05430000  1.0 -0.1759484326
C  C52  1  0.22960000  0.98550000  0.97090000  1.0 0.1702442757
C  C53  1  0.16720000  0.03920000  0.93510000  1.0 -0.1690922618
C  C54  1  0.09630000  0.04627000  0.85090000  1.0 -0.1528341238
C  C55  1  0.08930000  0.99839000  0.80290000  1.0 0.1490281458
C  C56  1  0.14360000  0.94353000  0.83620000  1.0 -0.1528341238
C  C57  1  0.21410000  0.93696000  0.92010000  1.0 -0.1690922618
C  C58  1  0.22220000  0.09170000  0.33010000  1.0 -0.1159721975
C  C59  1  0.16210000  0.12860000  0.35240000  1.0 -0.0290620354
C  C60  1  0.09520000  0.15105000  0.22630000  1.0 0.3429607685
C  C61  1  0.02940000  0.17960000  0.14500000  1.0 -0.5382643034
C  C62  1  0.85720000  0.86310000  0.28070000  1.0 -0.0908107598
C  C63  1  0.94980000  0.82770000  0.29040000  1.0 -0.0415693325
C  C64  1  0.79210000  0.80870000  0.16940000  1.0 0.3459711457
C  C65  1  0.70720000  0.78180000  0.08740000  1.0 -0.5382643034
C  C66  1  0.90790000  0.03500000  0.66930000  1.0 -0.125938638
C  C67  1  0.88660000  0.03650000  0.59320000  1.0 -0.0235850564
C  C68  1  0.06360000  0.99340000  0.66760000  1.0 0.3622720922
C  C69  1  0.18780000  0.96690000  0.69640000  1.0 -0.5511630987
C  C70  1  0.97800000  0.31780000  0.41320000  1.0 0.5524363304
C  C71  1  0.06740000  0.27670000  0.47590000  1.0 -0.1094738484
C  C72  1  0.17880000  0.29850000  0.54240000  1.0 -0.1094738484
C  C73  1  0.26890000  0.26150000  0.59770000  1.0 -0.1041762223
C  C74  1  0.24560000  0.19990000  0.59090000  1.0 -0.1094738484
C  C75  1  0.13310000  0.17550000  0.52940000  1.0 -0.0290620354
C  C76  1  0.11200000  0.10730000  0.53020000  1.0 0.5222773637
C  C77  1  0.04300000  0.21340000  0.47030000  1.0 -0.0676573058
C  C78  1  0.91890000  0.19220000  0.40020000  1.0 0.5798047866
C  C79  1  0.27800000  0.48670000  0.60620000  1.0 0.1611464885
C  C80  1  0.16050000  0.49340000  0.59220000  1.0 -0.141808479
C  C81  1  0.12820000  0.46160000  0.63870000  1.0 -0.1528341238
C  C82  1  0.21320000  0.42460000  0.70060000  1.0 0.1490281458
C  C83  1  0.32760000  0.41690000  0.71350000  1.0 -0.1690922618
C  C84  1  0.36080000  0.44730000  0.66630000  1.0 -0.1594211002
C  C85  1  0.42190000  0.55160000  0.59350000  1.0 0.1702442757
C  C86  1  0.47600000  0.57540000  0.67060000  1.0 -0.1594211002
C  C87  1  0.58430000  0.60700000  0.70630000  1.0 -0.141808479
C  C88  1  0.64260000  0.61610000  0.66600000  1.0 0.1611464885
C  C89  1  0.59340000  0.59070000  0.58930000  1.0 -0.1528341238
C  C90  1  0.48480000  0.55890000  0.55430000  1.0 -0.1759484326
C  C91  1  0.22960000  0.51450000  0.47090000  1.0 0.1702442757
C  C92  1  0.16720000  0.46080000  0.43510000  1.0 -0.1690922618
C  C93  1  0.09630000  0.45373000  0.35090000  1.0 -0.1528341238
C  C94  1  0.08930000  0.50161000  0.30290000  1.0 0.1490281458
C  C95  1  0.14360000  0.55647000  0.33620000  1.0 -0.1528341238
C  C96  1  0.21410000  0.56304000  0.42010000  1.0 -0.1690922618
C  C97  1  0.22220000  0.40830000  0.83010000  1.0 -0.1159721975
C  C98  1  0.16210000  0.37140000  0.85240000  1.0 -0.0290620354
C  C99  1  0.09520000  0.34895000  0.72630000  1.0 0.3429607685
C  C100  1  0.02940000  0.32040000  0.64500000  1.0 -0.5382643034
C  C101  1  0.85720000  0.63690000  0.78070000  1.0 -0.0908107598
C  C102  1  0.94980000  0.67230000  0.79040000  1.0 -0.0415693325
C  C103  1  0.79210000  0.69130000  0.66940000  1.0 0.3459711457
C  C104  1  0.70720000  0.71820000  0.58740000  1.0 -0.5382643034
C  C105  1  0.90790000  0.46500000  0.16930000  1.0 -0.125938638
C  C106  1  0.88660000  0.46350000  0.09320000  1.0 -0.0235850564
C  C107  1  0.06360000  0.50660000  0.16760000  1.0 0.3622720922
C  C108  1  0.18780000  0.53310000  0.19640000  1.0 -0.5511630987
C  C109  1  0.97800000  0.18220000  0.91320000  1.0 0.5524363304
C  C110  1  0.06740000  0.22330000  0.97590000  1.0 -0.1094738484
C  C111  1  0.17880000  0.20150000  0.04240000  1.0 -0.1094738484
C  C112  1  0.26890000  0.23850000  0.09770000  1.0 -0.1041762223
C  C113  1  0.24560000  0.30010000  0.09090000  1.0 -0.1094738484
C  C114  1  0.13310000  0.32450000  0.02940000  1.0 -0.0290620354
C  C115  1  0.11200000  0.39270000  0.03020000  1.0 0.5222773637
C  C116  1  0.04300000  0.28660000  0.97030000  1.0 -0.0676573058
C  C117  1  0.91890000  0.30780000  0.90020000  1.0 0.5798047866
C  C118  1  0.72200000  0.98670000  0.89380000  1.0 0.1611464885
C  C119  1  0.83950000  0.99340000  0.90780000  1.0 -0.141808479
C  C120  1  0.87180000  0.96160000  0.86130000  1.0 -0.1528341238
C  C121  1  0.78680000  0.92460000  0.79940000  1.0 0.1490281458
C  C122  1  0.67240000  0.91690000  0.78650000  1.0 -0.1690922618
C  C123  1  0.63920000  0.94730000  0.83370000  1.0 -0.1594211002
C  C124  1  0.57810000  0.05160000  0.90650000  1.0 0.1702442757
C  C125  1  0.52400000  0.07540000  0.82940000  1.0 -0.1594211002
C  C126  1  0.41570000  0.10700000  0.79370000  1.0 -0.141808479
C  C127  1  0.35740000  0.11610000  0.83400000  1.0 0.1611464885
C  C128  1  0.40660000  0.09070000  0.91070000  1.0 -0.1528341238
C  C129  1  0.51520000  0.05890000  0.94570000  1.0 -0.1759484326
C  C130  1  0.77040000  0.01450000  0.02910000  1.0 0.1702442757
C  C131  1  0.83280000  0.96080000  0.06490000  1.0 -0.1690922618
C  C132  1  0.90370000  0.95373000  0.14910000  1.0 -0.1528341238
C  C133  1  0.91070000  0.00161000  0.19710000  1.0 0.1490281458
C  C134  1  0.85640000  0.05647000  0.16380000  1.0 -0.1528341238
C  C135  1  0.78590000  0.06304000  0.07990000  1.0 -0.1690922618
C  C136  1  0.77780000  0.90830000  0.66990000  1.0 -0.1159721975
C  C137  1  0.83790000  0.87140000  0.64760000  1.0 -0.0290620354
C  C138  1  0.90480000  0.84895000  0.77370000  1.0 0.3429607685
C  C139  1  0.97060000  0.82040000  0.85500000  1.0 -0.5382643034
C  C140  1  0.14280000  0.13690000  0.71930000  1.0 -0.0908107598
C  C141  1  0.05020000  0.17230000  0.70960000  1.0 -0.0415693325
C  C142  1  0.20790000  0.19130000  0.83060000  1.0 0.3459711457
C  C143  1  0.29280000  0.21820000  0.91260000  1.0 -0.5382643034
C  C144  1  0.09210000  0.96500000  0.33070000  1.0 -0.125938638
C  C145  1  0.11340000  0.96350000  0.40680000  1.0 -0.0235850564
C  C146  1  0.93640000  0.00660000  0.33240000  1.0 0.3622720922
C  C147  1  0.81220000  0.03310000  0.30360000  1.0 -0.5511630987
C  C148  1  0.02200000  0.68220000  0.58680000  1.0 0.5524363304
C  C149  1  0.93260000  0.72330000  0.52410000  1.0 -0.1094738484
C  C150  1  0.82120000  0.70150000  0.45760000  1.0 -0.1094738484
C  C151  1  0.73110000  0.73850000  0.40230000  1.0 -0.1041762223
C  C152  1  0.75440000  0.80010000  0.40910000  1.0 -0.1094738484
C  C153  1  0.86690000  0.82450000  0.47060000  1.0 -0.0290620354
C  C154  1  0.88800000  0.89270000  0.46980000  1.0 0.5222773637
C  C155  1  0.95700000  0.78660000  0.52970000  1.0 -0.0676573058
C  C156  1  0.08110000  0.80780000  0.59980000  1.0 0.5798047866
N  N1  1  0.82080000  0.60645000  0.24980000  1.0 -0.0528949228
N  N2  1  0.91790000  0.66590000  0.21220000  1.0 -0.3717303341
N  N3  1  0.97790000  0.50680000  0.78390000  1.0 -0.056176572
N  N4  1  0.01710000  0.51090000  0.90770000  1.0 -0.3491493603
N  N5  1  0.24180000  0.35168000  0.29620000  1.0 -0.0528949228
N  N6  1  0.09050000  0.29349000  0.27890000  1.0 -0.3564472412
N  N7  1  0.69120000  0.48070000  0.44360000  1.0 -0.1594211002
N  N8  1  0.17920000  0.10645000  0.25020000  1.0 -0.0528949228
N  N9  1  0.08210000  0.16590000  0.28780000  1.0 -0.3717303341
N  N10  1  0.02210000  0.00680000  0.71610000  1.0 -0.056176572
N  N11  1  0.98290000  0.01090000  0.59230000  1.0 -0.3491493603
N  N12  1  0.75820000  0.85168000  0.20380000  1.0 -0.0528949228
N  N13  1  0.90950000  0.79349000  0.22110000  1.0 -0.3564472412
N  N14  1  0.30880000  0.98070000  0.05640000  1.0 -0.1594211002
N  N15  1  0.17920000  0.39355000  0.75020000  1.0 -0.0528949228
N  N16  1  0.08210000  0.33410000  0.78780000  1.0 -0.3717303341
N  N17  1  0.02210000  0.49320000  0.21610000  1.0 -0.056176572
N  N18  1  0.98290000  0.48910000  0.09230000  1.0 -0.3491493603
N  N19  1  0.75820000  0.64832000  0.70380000  1.0 -0.0528949228
N  N20  1  0.90950000  0.70651000  0.72110000  1.0 -0.3564472412
N  N21  1  0.30880000  0.51930000  0.55640000  1.0 -0.1594211002
N  N22  1  0.82080000  0.89355000  0.74980000  1.0 -0.0528949228
N  N23  1  0.91790000  0.83410000  0.71220000  1.0 -0.3717303341
N  N24  1  0.97790000  0.99320000  0.28390000  1.0 -0.056176572
N  N25  1  0.01710000  0.98910000  0.40770000  1.0 -0.3491493603
N  N26  1  0.24180000  0.14832000  0.79620000  1.0 -0.0528949228
N  N27  1  0.09050000  0.20651000  0.77890000  1.0 -0.3564472412
N  N28  1  0.69120000  0.01930000  0.94360000  1.0 -0.1594211002
O  O1  1  0.06600000  0.80396000  0.16320000  1.0 -0.5287866657
O  O2  1  0.05250000  0.86495000  0.06900000  1.0 -0.5174448704
O  O3  1  0.09020000  0.67895000  0.16710000  1.0 -0.5511630987
O  O4  1  0.17040000  0.68800000  0.09150000  1.0 -0.4848719751
O  O5  1  0.00250000  0.58922000  0.01530000  1.0 -0.4962375974
O  O6  1  0.79980000  0.57510000  0.92730000  1.0 -0.5287866657
O  O7  1  0.93400000  0.30396000  0.33680000  1.0 -0.5287866657
O  O8  1  0.94750000  0.36495000  0.43100000  1.0 -0.5174448704
O  O9  1  0.90980000  0.17895000  0.33290000  1.0 -0.5511630987
O  O10  1  0.82960000  0.18800000  0.40850000  1.0 -0.4848719751
O  O11  1  0.99750000  0.08922000  0.48470000  1.0 -0.4962375974
O  O12  1  0.20020000  0.07510000  0.57270000  1.0 -0.5287866657
O  O13  1  0.93400000  0.19604000  0.83680000  1.0 -0.5287866657
O  O14  1  0.94750000  0.13505000  0.93100000  1.0 -0.5174448704
O  O15  1  0.90980000  0.32105000  0.83290000  1.0 -0.5511630987
O  O16  1  0.82960000  0.31200000  0.90850000  1.0 -0.4848719751
O  O17  1  0.99750000  0.41078000  0.98470000  1.0 -0.4962375974
O  O18  1  0.20020000  0.42490000  0.07270000  1.0 -0.5287866657
O  O19  1  0.06600000  0.69604000  0.66320000  1.0 -0.5287866657
O  O20  1  0.05250000  0.63505000  0.56900000  1.0 -0.5174448704
O  O21  1  0.09020000  0.82105000  0.66710000  1.0 -0.5511630987
O  O22  1  0.17040000  0.81200000  0.59150000  1.0 -0.4848719751
O  O23  1  0.00250000  0.91078000  0.51530000  1.0 -0.4962375974
O  O24  1  0.79980000  0.92490000  0.42730000  1.0 -0.5287866657
