# DDEC6 charges by PACMAN v1.1 (https://github.com/mtap-research/PACMAN-charge/)
data_LEQVIN_FSR_pacman
_symmetry_space_group_name_H-M   'P 1'
_cell_length_a   9.84414000
_cell_length_b   9.84414000
_cell_length_c   9.84414000
_cell_angle_alpha   53.11800000
_cell_angle_beta   53.11800000
_cell_angle_gamma   53.11800000
_symmetry_Int_Tables_number   1
_chemical_formula_structural   FeP2(HO3)2
_chemical_formula_sum   'Fe3 P6 H6 O18'
_cell_volume   565.78904742
_cell_formula_units_Z   3
loop_
 _symmetry_equiv_pos_site_id
 _symmetry_equiv_pos_as_xyz
  1  'x, y, z'
loop_
 _atom_site_type_symbol
 _atom_site_label
 _atom_site_symmetry_multiplicity
 _atom_site_fract_x
 _atom_site_fract_y
 _atom_site_fract_z
 _atom_site_occupancy
 _atom_site_charge
Fe  Fe1  1  0.68895000  0.68895000  0.68895000  1.0 1.3618303014
Fe  Fe2  1  0.31105000  0.31105000  0.31105000  1.0 1.3618303014
Fe  Fe3  1  0.50000000  0.50000000  0.50000000  1.0 1.4107291175
P  P1  1  0.51400000  0.11581000  0.58109000  1.0 1.0731355024
P  P2  1  0.11581000  0.58109000  0.51400000  1.0 1.0731355024
P  P3  1  0.58109000  0.51400000  0.11581000  1.0 1.0731355024
P  P4  1  0.48600000  0.88419000  0.41891000  1.0 1.0731355024
P  P5  1  0.88419000  0.41891000  0.48600000  1.0 1.0731355024
P  P6  1  0.41891000  0.48600000  0.88419000  1.0 1.0731355024
H  H1  1  0.63964000  0.12359000  0.44260000  1.0 -0.0335760223
H  H2  1  0.12359000  0.44260000  0.63964000  1.0 -0.0335760223
H  H3  1  0.44260000  0.63964000  0.12359000  1.0 -0.0335760223
H  H4  1  0.36036000  0.87641000  0.55740000  1.0 -0.0335760223
H  H5  1  0.87641000  0.55740000  0.36036000  1.0 -0.0355088341
H  H6  1  0.55740000  0.36036000  0.87641000  1.0 -0.0335760223
O  O1  1  0.48016000  0.25491000  0.63312000  1.0 -0.5833266007
O  O2  1  0.25491000  0.63312000  0.48016000  1.0 -0.5833266007
O  O3  1  0.63312000  0.48016000  0.25491000  1.0 -0.5833266007
O  O4  1  0.51984000  0.74509000  0.36688000  1.0 -0.5833266007
O  O5  1  0.74509000  0.36688000  0.51984000  1.0 -0.5833266007
O  O6  1  0.36688000  0.51984000  0.74509000  1.0 -0.5833266007
O  O7  1  0.55308000  0.92463000  0.73064000  1.0 -0.5500846333
O  O8  1  0.92463000  0.73064000  0.55308000  1.0 -0.5500846333
O  O9  1  0.73064000  0.55308000  0.92463000  1.0 -0.5500846333
O  O10  1  0.44692000  0.07537000  0.26936000  1.0 -0.5500846333
O  O11  1  0.07537000  0.26936000  0.44692000  1.0 -0.5500846333
O  O12  1  0.26936000  0.44692000  0.07537000  1.0 -0.5500846333
O  O13  1  0.35503000  0.17008000  0.54329000  1.0 -0.5952536988
O  O14  1  0.17008000  0.54329000  0.35503000  1.0 -0.5945284294
O  O15  1  0.54329000  0.35503000  0.17008000  1.0 -0.5945284294
O  O16  1  0.64497000  0.82992000  0.45671000  1.0 -0.5945284294
O  O17  1  0.82992000  0.45671000  0.64497000  1.0 -0.5952536988
O  O18  1  0.45671000  0.64497000  0.82992000  1.0 -0.5952536988
