# DDEC6 charges by PACMAN v1.1 (https://github.com/mtap-research/PACMAN-charge/)
data_LERNAY02_ASR_pacman
_symmetry_space_group_name_H-M   'P 1'
_cell_length_a   12.66490000
_cell_length_b   12.66490000
_cell_length_c   14.89030000
_cell_angle_alpha   55.79860000
_cell_angle_beta   124.20100000
_cell_angle_gamma   132.96700000
_symmetry_Int_Tables_number   1
_chemical_formula_structural   Co2H10C12NO7
_chemical_formula_sum   'Co8 H40 C48 N4 O28'
_cell_volume   1380.81039302
_cell_formula_units_Z   4
loop_
 _symmetry_equiv_pos_site_id
 _symmetry_equiv_pos_as_xyz
  1  'x, y, z'
loop_
 _atom_site_type_symbol
 _atom_site_label
 _atom_site_symmetry_multiplicity
 _atom_site_fract_x
 _atom_site_fract_y
 _atom_site_fract_z
 _atom_site_occupancy
 _atom_site_charge
Co  Co1  1  0.02227000  0.53647000  0.88458000  1.0 0.8925500259
Co  Co2  1  0.53647000  0.02227000  0.61542000  1.0 0.8925500259
Co  Co3  1  0.97773000  0.46353000  0.11542000  1.0 0.8925500259
Co  Co4  1  0.46353000  0.97773000  0.38458000  1.0 0.8925500259
Co  Co5  1  0.81405000  0.24461000  0.33088000  1.0 0.8767432764
Co  Co6  1  0.24461000  0.81405000  0.16912000  1.0 0.8767432764
Co  Co7  1  0.18595000  0.75539000  0.66912000  1.0 0.8767432764
Co  Co8  1  0.75539000  0.18595000  0.83088000  1.0 0.8767432764
H  H1  1  0.59890000  0.64110000  0.60840000  1.0 0.1311788138
H  H2  1  0.64110000  0.59890000  0.89160000  1.0 0.1311788138
H  H3  1  0.40110000  0.35890000  0.39160000  1.0 0.1311788138
H  H4  1  0.35890000  0.40110000  0.10840000  1.0 0.1311788138
H  H5  1  0.70550000  0.49930000  0.74560000  1.0 0.110555453
H  H6  1  0.49930000  0.70550000  0.75440000  1.0 0.110555453
H  H7  1  0.29450000  0.50070000  0.25440000  1.0 0.110555453
H  H8  1  0.50070000  0.29450000  0.24560000  1.0 0.110555453
H  H9  1  0.11270000  0.86510000  0.77700000  1.0 0.0975906111
H  H10  1  0.86510000  0.11270000  0.72300000  1.0 0.0975906111
H  H11  1  0.88730000  0.13490000  0.22300000  1.0 0.0975906111
H  H12  1  0.13490000  0.88730000  0.27700000  1.0 0.0975906111
H  H13  1  0.01980000  0.01780000  0.63270000  1.0 0.1311788138
H  H14  1  0.01780000  0.01980000  0.86730000  1.0 0.1311788138
H  H15  1  0.98020000  0.98220000  0.36730000  1.0 0.1311788138
H  H16  1  0.98220000  0.98020000  0.13270000  1.0 0.1311788138
H  H17  1  0.67200000  0.36460000  0.54800000  1.0 0.0884841292
H  H18  1  0.36460000  0.67200000  0.95200000  1.0 0.0884841292
H  H19  1  0.32800000  0.63540000  0.45200000  1.0 0.0884841292
H  H20  1  0.63540000  0.32800000  0.04800000  1.0 0.0884841292
H  H21  1  0.87400000  0.48400000  0.48570000  1.0 0.0884841292
H  H22  1  0.48400000  0.87400000  0.01430000  1.0 0.0884841292
H  H23  1  0.12600000  0.51600000  0.51430000  1.0 0.0884841292
H  H24  1  0.51600000  0.12600000  0.98570000  1.0 0.0884841292
H  H25  1  0.91390000  0.35950000  0.58420000  1.0 0.110555453
H  H26  1  0.35950000  0.91390000  0.91580000  1.0 0.110555453
H  H27  1  0.08610000  0.64050000  0.41580000  1.0 0.110555453
H  H28  1  0.64050000  0.08610000  0.08420000  1.0 0.110555453
H  H29  1  0.89470000  0.33250000  0.63650000  1.0 0.0884841292
H  H30  1  0.33250000  0.89470000  0.86350000  1.0 0.0884841292
H  H31  1  0.10530000  0.66750000  0.36350000  1.0 0.0884841292
H  H32  1  0.66750000  0.10530000  0.13650000  1.0 0.0884841292
H  H33  1  0.64380000  0.36140000  0.46920000  1.0 0.0975906111
H  H34  1  0.36140000  0.64380000  0.03080000  1.0 0.0975906111
H  H35  1  0.35620000  0.63860000  0.53080000  1.0 0.0975906111
H  H36  1  0.63860000  0.35620000  0.96920000  1.0 0.0975906111
H  H37  1  0.81020000  0.48840000  0.45410000  1.0 0.0884841292
H  H38  1  0.48840000  0.81020000  0.04590000  1.0 0.0884841292
H  H39  1  0.18980000  0.51160000  0.54590000  1.0 0.0884841292
H  H40  1  0.51160000  0.18980000  0.95410000  1.0 0.0884841292
C  C1  1  0.73390000  0.94350000  0.50940000  1.0 0.5704797104
C  C2  1  0.94350000  0.73390000  0.99060000  1.0 0.5704797104
C  C3  1  0.26610000  0.05650000  0.49060000  1.0 0.5704797104
C  C4  1  0.05650000  0.26610000  0.00940000  1.0 0.5704797104
C  C5  1  0.79700000  0.84580000  0.60240000  1.0 0.0223335333
C  C6  1  0.84580000  0.79700000  0.89760000  1.0 0.0223335333
C  C7  1  0.20300000  0.15420000  0.39760000  1.0 0.0223335333
C  C8  1  0.15420000  0.20300000  0.10240000  1.0 0.0223335333
C  C9  1  0.70560000  0.68980000  0.63990000  1.0 -0.1581872533
C  C10  1  0.68980000  0.70560000  0.86010000  1.0 -0.1581872533
C  C11  1  0.29440000  0.31020000  0.36010000  1.0 -0.1581872533
C  C12  1  0.31020000  0.29440000  0.13990000  1.0 -0.1581872533
C  C13  1  0.77000000  0.60620000  0.72310000  1.0 0.0514461694
C  C14  1  0.60620000  0.77000000  0.77690000  1.0 0.0514461694
C  C15  1  0.23000000  0.39380000  0.27690000  1.0 0.0514461694
C  C16  1  0.39380000  0.23000000  0.22310000  1.0 0.0514461694
C  C17  1  0.00700000  0.81880000  0.74030000  1.0 0.0586605098
C  C18  1  0.81880000  0.00700000  0.75970000  1.0 0.0586605098
C  C19  1  0.99300000  0.18120000  0.25970000  1.0 0.0586605098
C  C20  1  0.18120000  0.99300000  0.24030000  1.0 0.0586605098
C  C21  1  0.95270000  0.91130000  0.65510000  1.0 -0.1411122486
C  C22  1  0.91130000  0.95270000  0.84490000  1.0 -0.1411122486
C  C23  1  0.04730000  0.08870000  0.34490000  1.0 -0.1411122486
C  C24  1  0.08870000  0.04730000  0.15510000  1.0 -0.1411122486
C  C25  1  0.88320000  0.46980000  0.66370000  1.0 0.4265958413
C  C26  1  0.46980000  0.88320000  0.83630000  1.0 0.4265958413
C  C27  1  0.11680000  0.53020000  0.33630000  1.0 0.4265958413
C  C28  1  0.53020000  0.11680000  0.16370000  1.0 0.4265958413
C  C29  1  0.75790000  0.34870000  0.59980000  1.0 0.0833254799
C  C30  1  0.34870000  0.75790000  0.90020000  1.0 0.0833254799
C  C31  1  0.24210000  0.65130000  0.40020000  1.0 0.0833254799
C  C32  1  0.65130000  0.24210000  0.09980000  1.0 0.0833254799
C  C33  1  0.82960000  0.37620000  0.53130000  1.0 -0.1581872533
C  C34  1  0.37620000  0.82960000  0.96870000  1.0 -0.1581872533
C  C35  1  0.17040000  0.62380000  0.46870000  1.0 -0.1581872533
C  C36  1  0.62380000  0.17040000  0.03130000  1.0 -0.1581872533
C  C37  1  0.72700000  0.27980000  0.45020000  1.0 0.4829993069
C  C38  1  0.27980000  0.72700000  0.04980000  1.0 0.4829993069
C  C39  1  0.27300000  0.72020000  0.54980000  1.0 0.4829993069
C  C40  1  0.72020000  0.27300000  0.95020000  1.0 0.4829993069
C  C41  1  0.81170000  0.34210000  0.61750000  1.0 0.0586605098
C  C42  1  0.34210000  0.81170000  0.88250000  1.0 0.0586605098
C  C43  1  0.18830000  0.65790000  0.38250000  1.0 0.0586605098
C  C44  1  0.65790000  0.18830000  0.11750000  1.0 0.0586605098
C  C45  1  0.74370000  0.38050000  0.49020000  1.0 -0.1581872533
C  C46  1  0.38050000  0.74370000  0.00980000  1.0 -0.1581872533
C  C47  1  0.25630000  0.61950000  0.50980000  1.0 -0.1581872533
C  C48  1  0.61950000  0.25630000  0.99020000  1.0 -0.1581872533
N  N1  1  0.92000000  0.66800000  0.77430000  1.0 -0.2594214186
N  N2  1  0.66800000  0.92000000  0.72570000  1.0 -0.2594214186
N  N3  1  0.08000000  0.33200000  0.22570000  1.0 -0.2594214186
N  N4  1  0.33200000  0.08000000  0.27430000  1.0 -0.2594214186
O  O1  1  0.59579000  0.88441000  0.48530000  1.0 -0.5600168511
O  O2  1  0.88441000  0.59579000  0.01470000  1.0 -0.5600168511
O  O3  1  0.40421000  0.11559000  0.51470000  1.0 -0.5600168511
O  O4  1  0.11559000  0.40421000  0.98530000  1.0 -0.5600168511
O  O5  1  0.82880000  0.07760000  0.46600000  1.0 -0.5848124877
O  O6  1  0.07760000  0.82880000  0.03400000  1.0 -0.5848124877
O  O7  1  0.17120000  0.92240000  0.53400000  1.0 -0.5848124877
O  O8  1  0.92240000  0.17120000  0.96600000  1.0 -0.5848124877
O  O9  1  0.89476000  0.42124000  0.76600000  1.0 -0.5165326998
O  O10  1  0.42124000  0.89476000  0.73400000  1.0 -0.5165326998
O  O11  1  0.10524000  0.57876000  0.23400000  1.0 -0.5165326998
O  O12  1  0.57876000  0.10524000  0.26600000  1.0 -0.5165326998
O  O13  1  0.95540000  0.60620000  0.61130000  1.0 -0.4939812005
O  O14  1  0.60620000  0.95540000  0.88870000  1.0 -0.4939812005
O  O15  1  0.04460000  0.39380000  0.38870000  1.0 -0.4939812005
O  O16  1  0.39380000  0.04460000  0.11130000  1.0 -0.4939812005
O  O17  1  0.70462000  0.20058000  0.67660000  1.0 -0.4499338672
O  O18  1  0.20058000  0.70462000  0.82340000  1.0 -0.4499338672
O  O19  1  0.29538000  0.79942000  0.32340000  1.0 -0.4499338672
O  O20  1  0.79942000  0.29538000  0.17660000  1.0 -0.4499338672
O  O21  1  0.77640000  0.34260000  0.36970000  1.0 -0.5165326998
O  O22  1  0.34260000  0.77640000  0.13030000  1.0 -0.5165326998
O  O23  1  0.22360000  0.65740000  0.63030000  1.0 -0.5165326998
O  O24  1  0.65740000  0.22360000  0.86970000  1.0 -0.5143669054
O  O25  1  0.62139000  0.13981000  0.47730000  1.0 -0.5600168511
O  O26  1  0.13981000  0.62139000  0.02270000  1.0 -0.5600168511
O  O27  1  0.37861000  0.86019000  0.52270000  1.0 -0.5600168511
O  O28  1  0.86019000  0.37861000  0.97730000  1.0 -0.5600168511
