# DDEC6 charges by PACMAN v1.1 (https://github.com/mtap-research/PACMAN-charge/)
data_LERNAY_FSR_pacman
_symmetry_space_group_name_H-M   'P 1'
_cell_length_a   12.84220000
_cell_length_b   12.84220000
_cell_length_c   14.99400000
_cell_angle_alpha   54.90030000
_cell_angle_beta   125.10000000
_cell_angle_gamma   133.70800000
_symmetry_Int_Tables_number   1
_chemical_formula_structural   Co2C12NO7
_chemical_formula_sum   'Co8 C48 N4 O28'
_cell_volume   1394.91641795
_cell_formula_units_Z   4
loop_
 _symmetry_equiv_pos_site_id
 _symmetry_equiv_pos_as_xyz
  1  'x, y, z'
loop_
 _atom_site_type_symbol
 _atom_site_label
 _atom_site_symmetry_multiplicity
 _atom_site_fract_x
 _atom_site_fract_y
 _atom_site_fract_z
 _atom_site_occupancy
 _atom_site_charge
Co  Co1  1  0.03421000  0.52177000  0.89717000  1.0 0.9448870935
Co  Co2  1  0.52177000  0.03421000  0.60283000  1.0 0.9453930177
Co  Co3  1  0.96579000  0.47823000  0.10283000  1.0 0.9448870935
Co  Co4  1  0.47823000  0.96579000  0.39717000  1.0 0.9448870935
Co  Co5  1  0.68288000  0.25240000  0.76346000  1.0 0.9577022709
Co  Co6  1  0.25240000  0.68288000  0.73654000  1.0 0.9577022709
Co  Co7  1  0.31712000  0.74760000  0.23654000  1.0 0.9577022709
Co  Co8  1  0.74760000  0.31712000  0.26346000  1.0 0.9577022709
C  C1  1  0.76410000  0.55390000  0.72200000  1.0 0.625203646
C  C2  1  0.55390000  0.76410000  0.77800000  1.0 0.625203646
C  C3  1  0.23590000  0.44610000  0.27800000  1.0 0.625203646
C  C4  1  0.44610000  0.23590000  0.22200000  1.0 0.625203646
C  C5  1  0.77130000  0.22090000  0.00210000  1.0 0.5372638621
C  C6  1  0.22090000  0.77130000  0.49790000  1.0 0.5372638621
C  C7  1  0.22870000  0.77910000  0.99790000  1.0 0.5372638621
C  C8  1  0.77910000  0.22870000  0.50210000  1.0 0.5372638621
C  C9  1  0.69980000  0.65360000  0.65020000  1.0 0.0255133893
C  C10  1  0.65360000  0.69980000  0.84980000  1.0 0.0255133893
C  C11  1  0.30020000  0.34640000  0.34980000  1.0 0.0255133893
C  C12  1  0.34640000  0.30020000  0.15020000  1.0 0.0255133893
C  C13  1  0.67210000  0.12630000  0.07780000  1.0 -0.0804360889
C  C14  1  0.12630000  0.67210000  0.42220000  1.0 -0.0804360889
C  C15  1  0.32790000  0.87370000  0.92220000  1.0 -0.0804360889
C  C16  1  0.87370000  0.32790000  0.57780000  1.0 -0.0804360889
C  C17  1  0.54720000  0.59080000  0.60890000  1.0 -0.0517873054
C  C18  1  0.59080000  0.54720000  0.89110000  1.0 -0.0517873054
C  C19  1  0.45280000  0.40920000  0.39110000  1.0 -0.0517873054
C  C20  1  0.40920000  0.45280000  0.10890000  1.0 -0.0517873054
C  C21  1  0.79140000  0.80860000  0.62390000  1.0 -0.0892012592
C  C22  1  0.80860000  0.79140000  0.87610000  1.0 -0.0892012592
C  C23  1  0.20860000  0.19140000  0.37610000  1.0 -0.0892012592
C  C24  1  0.19140000  0.20860000  0.12390000  1.0 -0.0892012592
C  C25  1  0.74510000  0.15130000  0.19100000  1.0 0.1292525337
C  C26  1  0.15130000  0.74510000  0.30900000  1.0 0.1292525337
C  C27  1  0.25490000  0.84870000  0.80900000  1.0 0.1292525337
C  C28  1  0.84870000  0.25490000  0.69100000  1.0 0.1292525337
C  C29  1  0.49130000  0.68250000  0.54470000  1.0 0.1548541106
C  C30  1  0.68250000  0.49130000  0.95530000  1.0 0.1548541106
C  C31  1  0.50870000  0.31750000  0.45530000  1.0 0.1561170214
C  C32  1  0.31750000  0.50870000  0.04470000  1.0 0.1561170214
C  C33  1  0.72770000  0.89270000  0.55740000  1.0 0.2512405582
C  C34  1  0.89270000  0.72770000  0.94260000  1.0 0.2512405582
C  C35  1  0.27230000  0.10730000  0.44260000  1.0 0.2512405582
C  C36  1  0.10730000  0.27230000  0.05740000  1.0 0.2512405582
C  C37  1  0.62190000  0.03290000  0.24990000  1.0 0.4859111525
C  C38  1  0.03290000  0.62190000  0.25010000  1.0 0.4859111525
C  C39  1  0.37810000  0.96710000  0.75010000  1.0 0.4859111525
C  C40  1  0.96710000  0.37810000  0.74990000  1.0 0.4859111525
C  C41  1  0.83950000  0.31250000  0.64510000  1.0 0.0909546383
C  C42  1  0.31250000  0.83950000  0.85490000  1.0 0.0909546383
C  C43  1  0.16050000  0.68750000  0.35490000  1.0 0.0909546383
C  C44  1  0.68750000  0.16050000  0.14510000  1.0 0.0909546383
C  C45  1  0.87700000  0.23520000  0.62530000  1.0 0.0015787291
C  C46  1  0.23520000  0.87700000  0.87470000  1.0 0.0015787291
C  C47  1  0.12300000  0.76480000  0.37470000  1.0 0.0015787291
C  C48  1  0.76480000  0.12300000  0.12530000  1.0 0.0015787291
N  N1  1  0.16680000  0.42040000  0.01700000  1.0 -0.2541582815
N  N2  1  0.42040000  0.16680000  0.48300000  1.0 -0.2541582815
N  N3  1  0.83320000  0.57960000  0.98300000  1.0 -0.2541582815
N  N4  1  0.57960000  0.83320000  0.51700000  1.0 -0.2541582815
O  O1  1  0.91980000  0.39140000  0.79370000  1.0 -0.5553618751
O  O2  1  0.39140000  0.91980000  0.70630000  1.0 -0.5541620336
O  O3  1  0.08020000  0.60860000  0.20630000  1.0 -0.5541620336
O  O4  1  0.60860000  0.08020000  0.29370000  1.0 -0.5553618751
O  O5  1  0.89820000  0.61180000  0.77750000  1.0 -0.5393481709
O  O6  1  0.61180000  0.89820000  0.72250000  1.0 -0.5393481709
O  O7  1  0.10180000  0.38820000  0.22250000  1.0 -0.5393481709
O  O8  1  0.38820000  0.10180000  0.27750000  1.0 -0.5393481709
O  O9  1  0.20030000  0.69990000  0.82450000  1.0 -0.4295861728
O  O10  1  0.69990000  0.20030000  0.67550000  1.0 -0.4295861728
O  O11  1  0.79970000  0.30010000  0.17550000  1.0 -0.4295861728
O  O12  1  0.30010000  0.79970000  0.32450000  1.0 -0.4295861728
O  O13  1  0.87886000  0.35914000  0.99700000  1.0 -0.5982558064
O  O14  1  0.35914000  0.87886000  0.50300000  1.0 -0.5982558064
O  O15  1  0.12114000  0.64086000  0.00300000  1.0 -0.5982558064
O  O16  1  0.64086000  0.12114000  0.49700000  1.0 -0.5982558064
O  O17  1  0.66880000  0.41980000  0.71850000  1.0 -0.5718258105
O  O18  1  0.41980000  0.66880000  0.78150000  1.0 -0.5718258105
O  O19  1  0.33120000  0.58020000  0.28150000  1.0 -0.5718258105
O  O20  1  0.58020000  0.33120000  0.21850000  1.0 -0.5718258105
O  O21  1  0.45190000  0.10250000  0.74170000  1.0 -0.4964108996
O  O22  1  0.10250000  0.45190000  0.75830000  1.0 -0.4964108996
O  O23  1  0.54810000  0.89750000  0.25830000  1.0 -0.4964108996
O  O24  1  0.89750000  0.54810000  0.24170000  1.0 -0.4964108996
O  O25  1  0.71980000  0.15900000  0.93340000  1.0 -0.5393481709
O  O26  1  0.15900000  0.71980000  0.56660000  1.0 -0.5393481709
O  O27  1  0.28020000  0.84100000  0.06660000  1.0 -0.5393481709
O  O28  1  0.84100000  0.28020000  0.43340000  1.0 -0.5393481709
