# DDEC6 charges by PACMAN v1.1 (https://github.com/mtap-research/PACMAN-charge/)
data_LERNUV_ASR_pacman
_symmetry_space_group_name_H-M   'P 1'
_cell_length_a   13.22800000
_cell_length_b   14.26700000
_cell_length_c   33.99100000
_cell_angle_alpha   89.98500000
_cell_angle_beta   89.55800000
_cell_angle_gamma   89.75900000
_symmetry_Int_Tables_number   1
_chemical_formula_structural   ZnH4C13NO6
_chemical_formula_sum   'Zn8 H32 C104 N8 O48'
_cell_volume   6414.66547539
_cell_formula_units_Z   8
loop_
 _symmetry_equiv_pos_site_id
 _symmetry_equiv_pos_as_xyz
  1  'x, y, z'
loop_
 _atom_site_type_symbol
 _atom_site_label
 _atom_site_symmetry_multiplicity
 _atom_site_fract_x
 _atom_site_fract_y
 _atom_site_fract_z
 _atom_site_occupancy
 _atom_site_charge
Zn  Zn1  1  0.58577000  0.66903000  0.81762000  1.0 1.012130846
Zn  Zn2  1  0.49317000  0.54836000  0.74230000  1.0 0.9210453375
Zn  Zn3  1  0.91268000  0.16843000  0.68265000  1.0 1.003481616
Zn  Zn4  1  0.99454000  0.95174000  0.24208000  1.0 0.9210453375
Zn  Zn5  1  0.41423000  0.33097000  0.18238000  1.0 1.012130846
Zn  Zn6  1  0.50683000  0.45164000  0.25770000  1.0 0.9210453375
Zn  Zn7  1  0.08732000  0.83157000  0.31735000  1.0 1.003481616
Zn  Zn8  1  0.00546000  0.04826000  0.75792000  1.0 0.9210453375
H  H1  1  0.73155000  0.32935000  0.75810000  1.0 0.1403403987
H  H2  1  0.83646000  0.18155000  0.84861000  1.0 0.1403403987
H  H3  1  0.66840000  0.40764000  0.86801000  1.0 0.1299477502
H  H4  1  0.80812000  0.39911000  0.01044000  1.0 0.1403403987
H  H5  1  0.70103000  0.08865000  0.99324000  1.0 0.1403403987
H  H6  1  0.63950000  0.31029000  0.14905000  1.0 0.1230275873
H  H7  1  0.84332000  0.10376000  0.14359000  1.0 0.1403403987
H  H8  1  0.74054000  0.19088000  0.24757000  1.0 0.1403403987
H  H9  1  0.76616000  0.82926000  0.74204000  1.0 0.1403403987
H  H10  1  0.82845000  0.90918000  0.63204000  1.0 0.1299477502
H  H11  1  0.66226000  0.68234000  0.65145000  1.0 0.1403403987
H  H12  1  0.69325000  0.90003000  0.48968000  1.0 0.1403403987
H  H13  1  0.79862000  0.59007000  0.50633000  1.0 0.1403403987
H  H14  1  0.86313000  0.80916000  0.35044000  1.0 0.1230275873
H  H15  1  0.76069000  0.69254000  0.25258000  1.0 0.1403403987
H  H16  1  0.65836000  0.60331000  0.35610000  1.0 0.1403403987
H  H17  1  0.26845000  0.67065000  0.24190000  1.0 0.1403403987
H  H18  1  0.16354000  0.81845000  0.15139000  1.0 0.1403403987
H  H19  1  0.33160000  0.59236000  0.13199000  1.0 0.1299477502
H  H20  1  0.19188000  0.60089000  0.98956000  1.0 0.1403403987
H  H21  1  0.29897000  0.91135000  0.00676000  1.0 0.1450087025
H  H22  1  0.36050000  0.68971000  0.85095000  1.0 0.1230275873
H  H23  1  0.15668000  0.89624000  0.85641000  1.0 0.1403403987
H  H24  1  0.25946000  0.80912000  0.75243000  1.0 0.1403403987
H  H25  1  0.23384000  0.17074000  0.25796000  1.0 0.1403403987
H  H26  1  0.17155000  0.09082000  0.36796000  1.0 0.1299477502
H  H27  1  0.33774000  0.31766000  0.34855000  1.0 0.1403403987
H  H28  1  0.30675000  0.09997000  0.51032000  1.0 0.1403403987
H  H29  1  0.20138000  0.40993000  0.49367000  1.0 0.1403403987
H  H30  1  0.13687000  0.19084000  0.64956000  1.0 0.1299477502
H  H31  1  0.23931000  0.30746000  0.74742000  1.0 0.1403403987
H  H32  1  0.34164000  0.39669000  0.64390000  1.0 0.1403403987
C  C1  1  0.63470000  0.46560000  0.79609000  1.0 0.6007280021
C  C2  1  0.69240000  0.38200000  0.81089000  1.0 -0.0211109581
C  C3  1  0.73820000  0.32070000  0.78508000  1.0 -0.0895720844
C  C4  1  0.79390000  0.24650000  0.79926000  1.0 -0.0270118702
C  C5  1  0.85420000  0.18720000  0.77174000  1.0 0.6007280021
C  C6  1  0.79930000  0.23180000  0.83887000  1.0 -0.1398797364
C  C7  1  0.75030000  0.29090000  0.86416000  1.0 0.1686771506
C  C8  1  0.69910000  0.36630000  0.85042000  1.0 -0.1335879073
C  C9  1  0.72780000  0.19250000  0.92332000  1.0 0.4290466014
C  C10  1  0.78240000  0.34380000  0.93223000  1.0 0.4202818884
C  C11  1  0.73910000  0.20890000  0.96619000  1.0 -0.0692202895
C  C12  1  0.77130000  0.29930000  0.97091000  1.0 -0.0771162771
C  C13  1  0.78640000  0.33780000  0.00699000  1.0 -0.0642025315
C  C14  1  0.72170000  0.15030000  0.99664000  1.0 -0.0642025315
C  C15  1  0.73710000  0.18920000  0.03305000  1.0 -0.0692202895
C  C16  1  0.76690000  0.27850000  0.03779000  1.0 -0.0692202895
C  C17  1  0.77380000  0.29840000  0.08014000  1.0 0.4202818884
C  C18  1  0.72250000  0.14610000  0.07232000  1.0 0.4290466014
C  C19  1  0.74150000  0.20770000  0.14055000  1.0 0.1686771506
C  C20  1  0.68020000  0.26650000  0.16171000  1.0 -0.1586266563
C  C21  1  0.67960000  0.25990000  0.20194000  1.0 -0.0270118702
C  C22  1  0.61760000  0.32410000  0.22610000  1.0 0.572440122
C  C23  1  0.80160000  0.14270000  0.15855000  1.0 -0.1398797364
C  C24  1  0.80010000  0.13520000  0.19849000  1.0 -0.0143454777
C  C25  1  0.86710000  0.06780000  0.21863000  1.0 0.549407859
C  C26  1  0.74020000  0.19460000  0.22025000  1.0 -0.0771162771
C  C27  1  0.64450000  0.68750000  0.72799000  1.0 0.6007280021
C  C28  1  0.70420000  0.74790000  0.70111000  1.0 -0.0270118702
C  C29  1  0.75990000  0.82070000  0.71505000  1.0 -0.0895720844
C  C30  1  0.80710000  0.88170000  0.68954000  1.0 -0.0211109581
C  C31  1  0.86320000  0.96520000  0.70390000  1.0 0.6007280021
C  C32  1  0.79900000  0.86720000  0.64960000  1.0 -0.1398797364
C  C33  1  0.74800000  0.79170000  0.63588000  1.0 0.1686771506
C  C34  1  0.69900000  0.73260000  0.66115000  1.0 -0.1398797364
C  C35  1  0.71630000  0.84470000  0.56800000  1.0 0.4290466014
C  C36  1  0.77270000  0.69110000  0.57670000  1.0 0.4290466014
C  C37  1  0.72860000  0.80020000  0.52901000  1.0 -0.0692202895
C  C38  1  0.76140000  0.70940000  0.53420000  1.0 -0.0771162771
C  C39  1  0.71420000  0.83830000  0.49307000  1.0 -0.0692202895
C  C40  1  0.77800000  0.65200000  0.50314000  1.0 -0.0692202895
C  C41  1  0.73270000  0.77930000  0.46189000  1.0 -0.0771162771
C  C42  1  0.76270000  0.69030000  0.46670000  1.0 -0.0771162771
C  C43  1  0.72680000  0.79890000  0.41967000  1.0 0.4202818884
C  C44  1  0.77860000  0.64710000  0.42764000  1.0 0.4290466014
C  C45  1  0.75880000  0.70920000  0.35964000  1.0 0.1873817636
C  C46  1  0.82120000  0.76660000  0.33789000  1.0 -0.1586266563
C  C47  1  0.82130000  0.76060000  0.29787000  1.0 -0.0270118702
C  C48  1  0.88420000  0.82380000  0.27366000  1.0 0.572440122
C  C49  1  0.76070000  0.69610000  0.27990000  1.0 -0.0771162771
C  C50  1  0.70000000  0.63650000  0.30117000  1.0 -0.0143454777
C  C51  1  0.63350000  0.56860000  0.28120000  1.0 0.549407859
C  C52  1  0.69900000  0.64310000  0.34121000  1.0 -0.1398797364
C  C53  1  0.36530000  0.53440000  0.20391000  1.0 0.6007280021
C  C54  1  0.30760000  0.61800000  0.18911000  1.0 -0.0211109581
C  C55  1  0.26180000  0.67930000  0.21492000  1.0 -0.0895720844
C  C56  1  0.20610000  0.75350000  0.20074000  1.0 -0.0270118702
C  C57  1  0.14580000  0.81280000  0.22826000  1.0 0.6007280021
C  C58  1  0.20070000  0.76820000  0.16113000  1.0 -0.1398797364
C  C59  1  0.24970000  0.70910000  0.13584000  1.0 0.1686771506
C  C60  1  0.30090000  0.63370000  0.14958000  1.0 -0.1335879073
C  C61  1  0.27220000  0.80750000  0.07668000  1.0 0.4290466014
C  C62  1  0.21760000  0.65620000  0.06777000  1.0 0.4290466014
C  C63  1  0.26090000  0.79110000  0.03381000  1.0 -0.0692202895
C  C64  1  0.22870000  0.70070000  0.02909000  1.0 -0.0771162771
C  C65  1  0.21360000  0.66220000  0.99301000  1.0 -0.0642025315
C  C66  1  0.27830000  0.84970000  0.00336000  1.0 -0.0642025315
C  C67  1  0.26290000  0.81080000  0.96695000  1.0 -0.0692202895
C  C68  1  0.23310000  0.72150000  0.96221000  1.0 -0.0692202895
C  C69  1  0.22620000  0.70160000  0.91986000  1.0 0.4202818884
C  C70  1  0.27750000  0.85390000  0.92768000  1.0 0.4290466014
C  C71  1  0.25850000  0.79230000  0.85945000  1.0 0.1686771506
C  C72  1  0.31980000  0.73350000  0.83829000  1.0 -0.1586266563
C  C73  1  0.32040000  0.74010000  0.79806000  1.0 -0.0270118702
C  C74  1  0.38240000  0.67590000  0.77390000  1.0 0.572440122
C  C75  1  0.19840000  0.85730000  0.84145000  1.0 -0.1398797364
C  C76  1  0.19990000  0.86480000  0.80151000  1.0 -0.0143454777
C  C77  1  0.13290000  0.93220000  0.78137000  1.0 0.549407859
C  C78  1  0.25980000  0.80540000  0.77975000  1.0 -0.0771162771
C  C79  1  0.35550000  0.31250000  0.27201000  1.0 0.6007280021
C  C80  1  0.29580000  0.25210000  0.29889000  1.0 -0.0270118702
C  C81  1  0.24010000  0.17930000  0.28495000  1.0 -0.0895720844
C  C82  1  0.19290000  0.11830000  0.31046000  1.0 -0.0211109581
C  C83  1  0.13680000  0.03480000  0.29610000  1.0 0.6007280021
C  C84  1  0.20100000  0.13280000  0.35040000  1.0 -0.1398797364
C  C85  1  0.25200000  0.20830000  0.36412000  1.0 0.1686771506
C  C86  1  0.30100000  0.26740000  0.33885000  1.0 -0.1398797364
C  C87  1  0.28370000  0.15530000  0.43200000  1.0 0.4290466014
C  C88  1  0.22730000  0.30890000  0.42330000  1.0 0.4290466014
C  C89  1  0.27140000  0.19980000  0.47099000  1.0 -0.0692202895
C  C90  1  0.23860000  0.29060000  0.46580000  1.0 -0.0692202895
C  C91  1  0.28580000  0.16170000  0.50693000  1.0 -0.0692202895
C  C92  1  0.22200000  0.34800000  0.49686000  1.0 -0.0692202895
C  C93  1  0.26730000  0.22070000  0.53811000  1.0 -0.0771162771
C  C94  1  0.23730000  0.30970000  0.53330000  1.0 -0.0771162771
C  C95  1  0.27320000  0.20110000  0.58033000  1.0 0.4202818884
C  C96  1  0.22140000  0.35290000  0.57236000  1.0 0.4290466014
C  C97  1  0.24120000  0.29080000  0.64036000  1.0 0.1873817636
C  C98  1  0.17880000  0.23340000  0.66211000  1.0 -0.1586266563
C  C99  1  0.17870000  0.23940000  0.70213000  1.0 -0.0211109581
C  C100  1  0.11580000  0.17620000  0.72634000  1.0 0.572440122
C  C101  1  0.23930000  0.30390000  0.72010000  1.0 -0.0771162771
C  C102  1  0.30000000  0.36350000  0.69883000  1.0 -0.0143454777
C  C103  1  0.36650000  0.43140000  0.71880000  1.0 0.549407859
C  C104  1  0.30100000  0.35690000  0.65879000  1.0 -0.1398797364
N  N1  1  0.75460000  0.27450000  0.90525000  1.0 -0.2026630876
N  N2  1  0.74390000  0.21690000  0.09878000  1.0 -0.2026630876
N  N3  1  0.74470000  0.77540000  0.59492000  1.0 -0.2026630876
N  N4  1  0.75550000  0.71830000  0.40083000  1.0 -0.2026630876
N  N5  1  0.24540000  0.72550000  0.09475000  1.0 -0.2026630876
N  N6  1  0.25610000  0.78310000  0.90122000  1.0 -0.2026630876
N  N7  1  0.25530000  0.22460000  0.40508000  1.0 -0.2026630876
N  N8  1  0.24450000  0.28170000  0.59917000  1.0 -0.2026630876
O  O1  1  0.65123000  0.70357000  0.76389000  1.0 -0.5713746057
O  O2  1  0.63330000  0.53492000  0.81841000  1.0 -0.5574624495
O  O3  1  0.59382000  0.45825000  0.76377000  1.0 -0.5110342735
O  O4  1  0.59054000  0.62604000  0.71277000  1.0 -0.5110342735
O  O5  1  0.86530000  0.03378000  0.68227000  1.0 -0.5392799185
O  O6  1  0.90509000  0.95842000  0.73609000  1.0 -0.5110342735
O  O7  1  0.93085000  0.02338000  0.19830000  1.0 -0.5110342735
O  O8  1  0.86190000  0.05780000  0.25440000  1.0 -0.5110342735
O  O9  1  0.63250000  0.33230000  0.26127000  1.0 -0.457620676
O  O10  1  0.54778000  0.37208000  0.20926000  1.0 -0.6019080983
O  O11  1  0.69680000  0.06770000  0.08041000  1.0 -0.388845347
O  O12  1  0.79750000  0.36970000  0.09620000  1.0 -0.3816144307
O  O13  1  0.70080000  0.12410000  0.90694000  1.0 -0.388845347
O  O14  1  0.80710000  0.42090000  0.92470000  1.0 -0.3816144307
O  O15  1  0.90747000  0.12561000  0.78726000  1.0 -0.5110342735
O  O16  1  0.84740000  0.20284000  0.73635000  1.0 -0.5574624495
O  O17  1  0.79920000  0.62430000  0.59322000  1.0 -0.374456893
O  O18  1  0.69180000  0.92200000  0.57568000  1.0 -0.3816144307
O  O19  1  0.70180000  0.86790000  0.40383000  1.0 -0.3816144307
O  O20  1  0.80470000  0.57050000  0.41937000  1.0 -0.3816144307
O  O21  1  0.57061000  0.52392000  0.30132000  1.0 -0.5026012168
O  O22  1  0.63880000  0.55910000  0.24539000  1.0 -0.5110342735
O  O23  1  0.86940000  0.83320000  0.23847000  1.0 -0.4547996328
O  O24  1  0.95324000  0.87260000  0.29039000  1.0 -0.6019080983
O  O25  1  0.34877000  0.29643000  0.23611000  1.0 -0.5713746057
O  O26  1  0.36670000  0.46508000  0.18159000  1.0 -0.5574624495
O  O27  1  0.40618000  0.54175000  0.23623000  1.0 -0.5110342735
O  O28  1  0.40946000  0.37396000  0.28723000  1.0 -0.5110342735
O  O29  1  0.13470000  0.96622000  0.31773000  1.0 -0.5392799185
O  O30  1  0.09491000  0.04158000  0.26391000  1.0 -0.5110342735
O  O31  1  0.06915000  0.97662000  0.80170000  1.0 -0.5110342735
O  O32  1  0.13810000  0.94220000  0.74560000  1.0 -0.5110342735
O  O33  1  0.36750000  0.66770000  0.73873000  1.0 -0.457620676
O  O34  1  0.45222000  0.62792000  0.79074000  1.0 -0.6019080983
O  O35  1  0.30320000  0.93230000  0.91959000  1.0 -0.388845347
O  O36  1  0.20250000  0.63030000  0.90380000  1.0 -0.3816144307
O  O37  1  0.29920000  0.87590000  0.09306000  1.0 -0.388845347
O  O38  1  0.19290000  0.57910000  0.07530000  1.0 -0.388845347
O  O39  1  0.09253000  0.87439000  0.21274000  1.0 -0.5110342735
O  O40  1  0.15260000  0.79716000  0.26365000  1.0 -0.5574624495
O  O41  1  0.20080000  0.37570000  0.40678000  1.0 -0.374456893
O  O42  1  0.30820000  0.07800000  0.42432000  1.0 -0.3816144307
O  O43  1  0.29820000  0.13210000  0.59617000  1.0 -0.3816144307
O  O44  1  0.19530000  0.42950000  0.58063000  1.0 -0.3816144307
O  O45  1  0.42939000  0.47608000  0.69868000  1.0 -0.5026012168
O  O46  1  0.36120000  0.44090000  0.75461000  1.0 -0.5110342735
O  O47  1  0.13060000  0.16680000  0.76153000  1.0 -0.4547996328
O  O48  1  0.04676000  0.12740000  0.70961000  1.0 -0.6019080983
