# DDEC6 charges by PACMAN v1.1 (https://github.com/mtap-research/PACMAN-charge/)
data_LERNAY03_ASR_pacman
_symmetry_space_group_name_H-M   'P 1'
_cell_length_a   12.55780000
_cell_length_b   12.55780000
_cell_length_c   14.99700000
_cell_angle_alpha   56.33340000
_cell_angle_beta   123.66700000
_cell_angle_gamma   132.94900000
_symmetry_Int_Tables_number   1
_chemical_formula_structural   Co2C12NO7
_chemical_formula_sum   'Co8 C48 N4 O28'
_cell_volume   1378.84058684
_cell_formula_units_Z   4
loop_
 _symmetry_equiv_pos_site_id
 _symmetry_equiv_pos_as_xyz
  1  'x, y, z'
loop_
 _atom_site_type_symbol
 _atom_site_label
 _atom_site_symmetry_multiplicity
 _atom_site_fract_x
 _atom_site_fract_y
 _atom_site_fract_z
 _atom_site_occupancy
 _atom_site_charge
Co  Co1  1  0.31773000  0.74331000  0.83199000  1.0 0.9668355154
Co  Co2  1  0.47659000  0.96457000  0.61407000  1.0 0.9497802572
Co  Co3  1  0.74331000  0.31773000  0.66801000  1.0 0.9668355154
Co  Co4  1  0.96457000  0.47659000  0.88593000  1.0 0.9497802572
Co  Co5  1  0.68227000  0.25669000  0.16801000  1.0 0.9668355154
Co  Co6  1  0.52341000  0.03543000  0.38593000  1.0 0.9497802572
Co  Co7  1  0.25669000  0.68227000  0.33199000  1.0 0.9668355154
Co  Co8  1  0.03543000  0.52341000  0.11407000  1.0 0.9497802572
C  C1  1  0.61997000  0.03123000  0.83460000  1.0 0.4887664633
C  C2  1  0.74550000  0.15090000  0.89840000  1.0 0.1361637095
C  C3  1  0.67060000  0.12520000  0.96710000  1.0 -0.0729309379
C  C4  1  0.77032000  0.22008000  0.04760000  1.0 0.5382793115
C  C5  1  0.27097000  0.10503000  0.22510000  1.0 0.2581962885
C  C6  1  0.50974000  0.31966000  0.24220000  1.0 0.1686643788
C  C7  1  0.20622000  0.18858000  0.14080000  1.0 -0.0830241909
C  C8  1  0.45505000  0.41155000  0.15640000  1.0 -0.0487456678
C  C9  1  0.30025000  0.34555000  0.10420000  1.0 0.0128804918
C  C10  1  0.23673000  0.44307000  0.01080000  1.0 0.6307324337
C  C11  1  0.11840000  0.76100000  0.49050000  1.0 -0.0051468204
C  C12  1  0.16010000  0.69010000  0.61640000  1.0 0.0892888641
C  C13  1  0.03123000  0.61997000  0.66540000  1.0 0.4887664633
C  C14  1  0.15090000  0.74550000  0.60160000  1.0 0.1361637095
C  C15  1  0.12520000  0.67060000  0.53290000  1.0 -0.0729309379
C  C16  1  0.22008000  0.77032000  0.45240000  1.0 0.5382793115
C  C17  1  0.10503000  0.27097000  0.27490000  1.0 0.2581962885
C  C18  1  0.31966000  0.50974000  0.25780000  1.0 0.1686643788
C  C19  1  0.18858000  0.20622000  0.35920000  1.0 -0.0830241909
C  C20  1  0.41155000  0.45505000  0.34360000  1.0 -0.0487456678
C  C21  1  0.34555000  0.30025000  0.39580000  1.0 0.0128804918
C  C22  1  0.44307000  0.23673000  0.48920000  1.0 0.6307324337
C  C23  1  0.76100000  0.11840000  0.00950000  1.0 -0.0027587462
C  C24  1  0.69010000  0.16010000  0.88360000  1.0 0.0892888641
C  C25  1  0.38003000  0.96877000  0.16540000  1.0 0.4887664633
C  C26  1  0.25450000  0.84910000  0.10160000  1.0 0.1361637095
C  C27  1  0.32940000  0.87480000  0.03290000  1.0 -0.0729309379
C  C28  1  0.22968000  0.77992000  0.95240000  1.0 0.5382793115
C  C29  1  0.72903000  0.89497000  0.77490000  1.0 0.2581962885
C  C30  1  0.49026000  0.68034000  0.75780000  1.0 0.1686643788
C  C31  1  0.79378000  0.81142000  0.85920000  1.0 -0.0830241909
C  C32  1  0.54495000  0.58845000  0.84360000  1.0 -0.0487456678
C  C33  1  0.69975000  0.65445000  0.89580000  1.0 0.0128804918
C  C34  1  0.76327000  0.55693000  0.98920000  1.0 0.6307324337
C  C35  1  0.88160000  0.23900000  0.50950000  1.0 -0.0027587462
C  C36  1  0.83990000  0.30990000  0.38360000  1.0 0.0892888641
C  C37  1  0.96877000  0.38003000  0.33460000  1.0 0.4887664633
C  C38  1  0.84910000  0.25450000  0.39840000  1.0 0.1361637095
C  C39  1  0.87480000  0.32940000  0.46710000  1.0 -0.0729309379
C  C40  1  0.77992000  0.22968000  0.54760000  1.0 0.5382793115
C  C41  1  0.89497000  0.72903000  0.72510000  1.0 0.2581962885
C  C42  1  0.68034000  0.49026000  0.74220000  1.0 0.1686643788
C  C43  1  0.81142000  0.79378000  0.64080000  1.0 -0.0830241909
C  C44  1  0.58845000  0.54495000  0.65640000  1.0 -0.0487456678
C  C45  1  0.65445000  0.69975000  0.60420000  1.0 0.0128804918
C  C46  1  0.55693000  0.76327000  0.51080000  1.0 0.6307324337
C  C47  1  0.23900000  0.88160000  0.99050000  1.0 -0.0051468204
C  C48  1  0.30990000  0.83990000  0.11640000  1.0 0.0892888641
N  N1  1  0.42041000  0.16719000  0.27630000  1.0 -0.2712228878
N  N2  1  0.16719000  0.42041000  0.22370000  1.0 -0.2712228878
N  N3  1  0.57959000  0.83281000  0.72370000  1.0 -0.2712228878
N  N4  1  0.83281000  0.57959000  0.77630000  1.0 -0.2712228878
O  O1  1  0.87761000  0.35819000  0.02326000  1.0 -0.5879312588
O  O2  1  0.79893000  0.29887000  0.82308000  1.0 -0.423850788
O  O3  1  0.60252000  0.08088000  0.73118000  1.0 -0.5612961484
O  O4  1  0.54936000  0.89444000  0.88712000  1.0 -0.5062741472
O  O5  1  0.72146000  0.15754000  0.12830000  1.0 -0.5368621928
O  O6  1  0.09818000  0.38442000  0.98717000  1.0 -0.5612961484
O  O7  1  0.33259000  0.57681000  0.96670000  1.0 -0.5806816651
O  O8  1  0.35819000  0.87761000  0.47674000  1.0 -0.5879312588
O  O9  1  0.29887000  0.79893000  0.67692000  1.0 -0.423850788
O  O10  1  0.08088000  0.60252000  0.76882000  1.0 -0.5612961484
O  O11  1  0.89444000  0.54936000  0.61288000  1.0 -0.5062741472
O  O12  1  0.15754000  0.72146000  0.37170000  1.0 -0.5368621928
O  O13  1  0.38442000  0.09818000  0.51283000  1.0 -0.5612961484
O  O14  1  0.57681000  0.33259000  0.53330000  1.0 -0.5806816651
O  O15  1  0.12239000  0.64181000  0.97674000  1.0 -0.5879312588
O  O16  1  0.20107000  0.70113000  0.17692000  1.0 -0.4254399968
O  O17  1  0.39748000  0.91912000  0.26882000  1.0 -0.5657825304
O  O18  1  0.45064000  0.10556000  0.11288000  1.0 -0.5062741472
O  O19  1  0.27854000  0.84246000  0.87170000  1.0 -0.5368621928
O  O20  1  0.90182000  0.61558000  0.01283000  1.0 -0.5612961484
O  O21  1  0.66741000  0.42319000  0.03330000  1.0 -0.5806816651
O  O22  1  0.64181000  0.12239000  0.52326000  1.0 -0.5879312588
O  O23  1  0.70113000  0.20107000  0.32308000  1.0 -0.423850788
O  O24  1  0.91912000  0.39748000  0.23118000  1.0 -0.5612961484
O  O25  1  0.10556000  0.45064000  0.38712000  1.0 -0.5062741472
O  O26  1  0.84246000  0.27854000  0.62830000  1.0 -0.5368621928
O  O27  1  0.61558000  0.90182000  0.48717000  1.0 -0.5612961484
O  O28  1  0.42319000  0.66741000  0.46670000  1.0 -0.5806816651
