# DDEC6 charges by PACMAN v1.1 (https://github.com/mtap-research/PACMAN-charge/)
data_LETPAF_FSR_pacman
_symmetry_space_group_name_H-M   'P 1'
_cell_length_a   13.46420000
_cell_length_b   14.05750000
_cell_length_c   14.35900000
_cell_angle_alpha   104.33600000
_cell_angle_beta   98.12000000
_cell_angle_gamma   116.70900000
_symmetry_Int_Tables_number   1
_chemical_formula_structural   U3P8H32(C5O3)10
_chemical_formula_sum   'U3 P8 H32 C50 O30'
_cell_volume   2249.82749241
_cell_formula_units_Z   1
loop_
 _symmetry_equiv_pos_site_id
 _symmetry_equiv_pos_as_xyz
  1  'x, y, z'
loop_
 _atom_site_type_symbol
 _atom_site_label
 _atom_site_symmetry_multiplicity
 _atom_site_fract_x
 _atom_site_fract_y
 _atom_site_fract_z
 _atom_site_occupancy
 _atom_site_charge
U  U1  1  0.92999000  0.05894000  0.86294000  1.0 2.6005942387
U  U2  1  0.07001000  0.94106000  0.13706000  1.0 2.6005942387
U  U3  1  0.50000000  0.00000000  0.50000000  1.0 2.5899898572
P  P1  1  0.87805000  0.79507000  0.89059000  1.0 1.3375831408
P  P2  1  0.26160000  0.72092000  0.39071000  1.0 1.2736444039
P  P3  1  0.00724000  0.35774000  0.91402000  1.0 1.2799260182
P  P4  1  0.27402000  0.03302000  0.37572000  1.0 1.3468193574
P  P5  1  0.12195000  0.20493000  0.10941000  1.0 1.3375831408
P  P6  1  0.73840000  0.27908000  0.60929000  1.0 1.2736444039
P  P7  1  0.99276000  0.64226000  0.08598000  1.0 1.2799260182
P  P8  1  0.72598000  0.96698000  0.62428000  1.0 1.3468193574
H  H1  1  0.73118000  0.55769000  0.77473000  1.0 0.1614781532
H  H2  1  0.53770000  0.44114000  0.68568000  1.0 0.1313821324
H  H3  1  0.48111000  0.69869000  0.79325000  1.0 0.1313821324
H  H4  1  0.67577000  0.81474000  0.87812000  1.0 0.1614781532
H  H5  1  0.13215000  0.59438000  0.50428000  1.0 0.1407709544
H  H6  1  0.16842000  0.50933000  0.61407000  1.0 0.1313821324
H  H7  1  0.48458000  0.61342000  0.58058000  1.0 0.1313821324
H  H8  1  0.45339000  0.70280000  0.47526000  1.0 0.1313821324
H  H9  1  0.00493000  0.27752000  0.71481000  1.0 0.1718247397
H  H10  1  0.13411000  0.32699000  0.62198000  1.0 0.1313821324
H  H11  1  0.38848000  0.55647000  0.87327000  1.0 0.1313821324
H  H12  1  0.25739000  0.51730000  0.96284000  1.0 0.1487873656
H  H13  1  0.27155000  0.22866000  0.35431000  1.0 0.1407709544
H  H14  1  0.30207000  0.39924000  0.46320000  1.0 0.1407709544
H  H15  1  0.34775000  0.29851000  0.69448000  1.0 0.1407709544
H  H16  1  0.31754000  0.13023000  0.58746000  1.0 0.1614781532
H  H17  1  0.26882000  0.44231000  0.22527000  1.0 0.1614781532
H  H18  1  0.46230000  0.55886000  0.31432000  1.0 0.1313821324
H  H19  1  0.51889000  0.30131000  0.20675000  1.0 0.1313821324
H  H20  1  0.32423000  0.18526000  0.12188000  1.0 0.1614781532
H  H21  1  0.86785000  0.40562000  0.49572000  1.0 0.1407709544
H  H22  1  0.83158000  0.49067000  0.38593000  1.0 0.1313821324
H  H23  1  0.51542000  0.38658000  0.41942000  1.0 0.1313821324
H  H24  1  0.54661000  0.29720000  0.52474000  1.0 0.1313821324
H  H25  1  0.99507000  0.72248000  0.28519000  1.0 0.1718247397
H  H26  1  0.86589000  0.67301000  0.37802000  1.0 0.1313821324
H  H27  1  0.61152000  0.44353000  0.12673000  1.0 0.1313821324
H  H28  1  0.74261000  0.48270000  0.03716000  1.0 0.1487873656
H  H29  1  0.72845000  0.77134000  0.64569000  1.0 0.1407709544
H  H30  1  0.69793000  0.60076000  0.53680000  1.0 0.1407709544
H  H31  1  0.65225000  0.70149000  0.30552000  1.0 0.1407709544
H  H32  1  0.68246000  0.86977000  0.41254000  1.0 0.1614781532
C  C1  1  0.72520000  0.69950000  0.83160000  1.0 -0.1475847835
C  C2  1  0.68150000  0.58700000  0.77690000  1.0 -0.028775252
C  C3  1  0.56410000  0.51610000  0.72460000  1.0 -0.1280029612
C  C4  1  0.48500000  0.55390000  0.72890000  1.0 0.0868687494
C  C5  1  0.53070000  0.66950000  0.78820000  1.0 -0.1280029612
C  C6  1  0.64810000  0.73960000  0.83870000  1.0 -0.0421907098
C  C7  1  0.28640000  0.65560000  0.47620000  1.0 -0.1475847835
C  C8  1  0.20380000  0.59840000  0.51920000  1.0 -0.0421907098
C  C9  1  0.22510000  0.54610000  0.58510000  1.0 -0.1280029612
C  C10  1  0.32970000  0.54890000  0.60700000  1.0 0.0800184918
C  C11  1  0.41280000  0.60900000  0.56500000  1.0 -0.1280029612
C  C12  1  0.39480000  0.66270000  0.50120000  1.0 -0.0421907098
C  C13  1  0.11680000  0.39350000  0.84920000  1.0 -0.0918308074
C  C14  1  0.08140000  0.33600000  0.74660000  1.0 -0.0246079328
C  C15  1  0.15960000  0.36520000  0.69110000  1.0 -0.1221244323
C  C16  1  0.27500000  0.45010000  0.73630000  1.0 0.0800184918
C  C17  1  0.31060000  0.50300000  0.84020000  1.0 -0.1383093434
C  C18  1  0.23230000  0.47730000  0.89410000  1.0 -0.045202172
C  C19  1  0.28970000  0.16070000  0.45880000  1.0 -0.1638606327
C  C20  1  0.28660000  0.24240000  0.42300000  1.0 -0.0421907098
C  C21  1  0.30580000  0.34560000  0.48830000  1.0 -0.1221244323
C  C22  1  0.33030000  0.36620000  0.59040000  1.0 0.0868687494
C  C23  1  0.33290000  0.28490000  0.62580000  1.0 -0.1280029612
C  C24  1  0.31400000  0.18350000  0.56170000  1.0 -0.028775252
C  C25  1  0.35480000  0.48190000  0.66840000  1.0 0.0178822273
C  C26  1  0.27480000  0.30050000  0.16840000  1.0 -0.1475847835
C  C27  1  0.31850000  0.41300000  0.22310000  1.0 -0.028775252
C  C28  1  0.43590000  0.48390000  0.27540000  1.0 -0.1280029612
C  C29  1  0.51500000  0.44610000  0.27110000  1.0 0.0868687494
C  C30  1  0.46930000  0.33050000  0.21180000  1.0 -0.1280029612
C  C31  1  0.35190000  0.26040000  0.16130000  1.0 -0.0421907098
C  C32  1  0.71360000  0.34440000  0.52380000  1.0 -0.1475847835
C  C33  1  0.79620000  0.40160000  0.48080000  1.0 -0.0421907098
C  C34  1  0.77490000  0.45390000  0.41490000  1.0 -0.1280029612
C  C35  1  0.67030000  0.45110000  0.39300000  1.0 0.0800184918
C  C36  1  0.58720000  0.39100000  0.43500000  1.0 -0.1280029612
C  C37  1  0.60520000  0.33730000  0.49880000  1.0 -0.0421907098
C  C38  1  0.88320000  0.60650000  0.15080000  1.0 -0.0918308074
C  C39  1  0.91860000  0.66400000  0.25340000  1.0 -0.0246079328
C  C40  1  0.84040000  0.63480000  0.30890000  1.0 -0.1221244323
C  C41  1  0.72500000  0.54990000  0.26370000  1.0 0.0800184918
C  C42  1  0.68940000  0.49700000  0.15980000  1.0 -0.1383093434
C  C43  1  0.76770000  0.52270000  0.10590000  1.0 -0.045202172
C  C44  1  0.71030000  0.83930000  0.54120000  1.0 -0.1638606327
C  C45  1  0.71340000  0.75760000  0.57700000  1.0 -0.0421907098
C  C46  1  0.69420000  0.65440000  0.51170000  1.0 -0.1221244323
C  C47  1  0.66970000  0.63380000  0.40960000  1.0 0.0868687494
C  C48  1  0.66710000  0.71510000  0.37420000  1.0 -0.1280029612
C  C49  1  0.68600000  0.81650000  0.43830000  1.0 -0.028775252
C  C50  1  0.64520000  0.51810000  0.33160000  1.0 0.0178822273
O  O1  1  0.92080000  0.88580000  0.84290000  1.0 -0.7991731516
O  O2  1  0.90080000  0.84180000  0.00330000  1.0 -0.7991731516
O  O3  1  0.93710000  0.72260000  0.86410000  1.0 -0.5701540994
O  O4  1  0.37920000  0.81360000  0.39570000  1.0 -0.7991731516
O  O5  1  0.21210000  0.62280000  0.28650000  1.0 -0.5498725312
O  O6  1  0.17700000  0.75830000  0.41160000  1.0 -0.6316823798
O  O7  1  0.94080000  0.23080000  0.88740000  1.0 -0.7793658363
O  O8  1  0.92820000  0.40190000  0.88150000  1.0 -0.4735596912
O  O9  1  0.06810000  0.41640000  0.02860000  1.0 -0.5369556086
O  O10  1  0.23240000  0.02460000  0.26800000  1.0 -0.794446929
O  O11  1  0.18340000  0.93610000  0.40080000  1.0 -0.6316823798
O  O12  1  0.39000000  0.03970000  0.39630000  1.0 -0.7793658363
O  O13  1  0.01780000  0.08030000  0.78340000  1.0 -0.5701540994
O  O14  1  0.84390000  0.03580000  0.94530000  1.0 -0.592531804
O  O15  1  0.40600000  0.98690000  0.57550000  1.0 -0.5950939494
O  O16  1  0.07920000  0.11420000  0.15710000  1.0 -0.7991731516
O  O17  1  0.09920000  0.15820000  0.99670000  1.0 -0.7991731516
O  O18  1  0.06290000  0.27740000  0.13590000  1.0 -0.5701540994
O  O19  1  0.62080000  0.18640000  0.60430000  1.0 -0.7991731516
O  O20  1  0.78790000  0.37720000  0.71350000  1.0 -0.5498725312
O  O21  1  0.82300000  0.24170000  0.58840000  1.0 -0.6316823798
O  O22  1  0.05920000  0.76920000  0.11260000  1.0 -0.7793658363
O  O23  1  0.07180000  0.59810000  0.11850000  1.0 -0.4735596912
O  O24  1  0.93190000  0.58360000  0.97140000  1.0 -0.5369556086
O  O25  1  0.76760000  0.97540000  0.73200000  1.0 -0.7991731516
O  O26  1  0.81660000  0.06390000  0.59920000  1.0 -0.6316823798
O  O27  1  0.61000000  0.96030000  0.60370000  1.0 -0.7793658363
O  O28  1  0.98220000  0.91970000  0.21660000  1.0 -0.5701540994
O  O29  1  0.15610000  0.96420000  0.05470000  1.0 -0.592531804
O  O30  1  0.59400000  0.01310000  0.42450000  1.0 -0.592531804
