# DDEC6 charges by PACMAN v1.1 (https://github.com/mtap-research/PACMAN-charge/)
data_LETPEJ_ASR_pacman
_symmetry_space_group_name_H-M   'P 1'
_cell_length_a   13.67790000
_cell_length_b   14.85270000
_cell_length_c   15.58970000
_cell_angle_alpha   112.83900000
_cell_angle_beta   109.79300000
_cell_angle_gamma   98.08300000
_symmetry_Int_Tables_number   1
_chemical_formula_structural   U5P8H32(C25O12)2
_chemical_formula_sum   'U5 P8 H32 C50 O24'
_cell_volume   2607.71856472
_cell_formula_units_Z   1
loop_
 _symmetry_equiv_pos_site_id
 _symmetry_equiv_pos_as_xyz
  1  'x, y, z'
loop_
 _atom_site_type_symbol
 _atom_site_label
 _atom_site_symmetry_multiplicity
 _atom_site_fract_x
 _atom_site_fract_y
 _atom_site_fract_z
 _atom_site_occupancy
 _atom_site_charge
U  U1  1  0.37894000  0.35775000  0.42481000  1.0 2.1364599852
U  U2  1  0.46303000  0.58602000  0.16711000  1.0 2.1364599852
U  U3  1  0.62106000  0.64225000  0.57519000  1.0 2.1364599852
U  U4  1  0.53697000  0.41398000  0.83289000  1.0 2.1364599852
U  U5  1  0.00000000  0.00000000  0.00000000  1.0 2.0498703508
P  P1  1  0.35960000  0.23240000  0.57560000  1.0 1.299939671
P  P2  1  0.35570000  0.51160000  0.33040000  1.0 1.299939671
P  P3  1  0.90440000  0.79280000  0.74170000  1.0 1.3126243739
P  P4  1  0.63480000  0.66640000  0.06360000  1.0 1.3278618245
P  P5  1  0.64040000  0.76760000  0.42440000  1.0 1.299939671
P  P6  1  0.64430000  0.48840000  0.66960000  1.0 1.299939671
P  P7  1  0.09560000  0.20720000  0.25830000  1.0 1.3126243739
P  P8  1  0.36520000  0.33360000  0.93640000  1.0 1.3278618245
H  H1  1  0.18532000  0.08108000  0.38968000  1.0 0.1197219777
H  H2  1  0.06984000  0.92073000  0.33678000  1.0 0.1107949534
H  H3  1  0.26692000  0.91862000  0.59399000  1.0 0.1028367865
H  H4  1  0.38240000  0.07897000  0.64689000  1.0 0.1258482052
H  H5  1  0.28747000  0.59041000  0.48978000  1.0 0.1107949534
H  H6  1  0.18018000  0.69371000  0.52671000  1.0 0.1107949534
H  H7  1  0.14825000  0.73736000  0.28113000  1.0 0.1107949534
H  H8  1  0.25842000  0.63571000  0.24733000  1.0 0.1107949534
H  H9  1  0.91088000  0.64300000  0.56241000  1.0 0.1258482052
H  H10  1  0.97255000  0.64520000  0.44389000  1.0 0.1107949534
H  H11  1  0.10182000  0.95065000  0.60773000  1.0 0.1107949534
H  H12  1  0.03540000  0.94633000  0.72511000  1.0 0.1107949534
H  H13  1  0.80311000  0.57411000  0.10695000  1.0 0.1197219777
H  H14  1  0.97291000  0.62395000  0.24239000  1.0 0.1028367865
H  H15  1  0.92996000  0.89180000  0.39681000  1.0 0.1028367865
H  H16  1  0.76015000  0.84196000  0.26137000  1.0 0.1197219777
H  H17  1  0.81468000  0.91892000  0.61032000  1.0 0.1197219777
H  H18  1  0.93016000  0.07927000  0.66322000  1.0 0.1107949534
H  H19  1  0.73308000  0.08138000  0.40601000  1.0 0.1028367865
H  H20  1  0.61760000  0.92103000  0.35311000  1.0 0.1258482052
H  H21  1  0.71253000  0.40959000  0.51022000  1.0 0.1107949534
H  H22  1  0.81982000  0.30629000  0.47329000  1.0 0.1107949534
H  H23  1  0.85175000  0.26264000  0.71887000  1.0 0.1107949534
H  H24  1  0.74158000  0.36429000  0.75267000  1.0 0.1107949534
H  H25  1  0.08912000  0.35700000  0.43759000  1.0 0.1258482052
H  H26  1  0.02745000  0.35480000  0.55611000  1.0 0.1107949534
H  H27  1  0.89818000  0.04935000  0.39227000  1.0 0.1107949534
H  H28  1  0.96460000  0.05367000  0.27489000  1.0 0.1107949534
H  H29  1  0.19689000  0.42589000  0.89305000  1.0 0.1197219777
H  H30  1  0.02709000  0.37605000  0.75761000  1.0 0.1028367865
H  H31  1  0.07004000  0.10820000  0.60319000  1.0 0.1028367865
H  H32  1  0.23985000  0.15804000  0.73863000  1.0 0.1197219777
C  C1  1  0.29530000  0.09590000  0.52350000  1.0 -0.178408912
C  C2  1  0.20170000  0.04850000  0.43060000  1.0 -0.0730880448
C  C3  1  0.13250000  0.95240000  0.39890000  1.0 -0.1597308485
C  C4  1  0.15690000  0.90380000  0.46010000  1.0 0.0598587084
C  C5  1  0.25060000  0.95120000  0.55300000  1.0 -0.1597308485
C  C6  1  0.31980000  0.04730000  0.58470000  1.0 -0.0797744268
C  C7  1  0.28050000  0.59900000  0.36330000  1.0 -0.1705372842
C  C8  1  0.25880000  0.61890000  0.44700000  1.0 -0.0868692757
C  C9  1  0.19400000  0.68130000  0.46940000  1.0 -0.1527820365
C  C10  1  0.14950000  0.72560000  0.40670000  1.0 0.0598587084
C  C11  1  0.17510000  0.70780000  0.32320000  1.0 -0.1527820365
C  C12  1  0.24090000  0.64580000  0.30240000  1.0 -0.0797744268
C  C13  1  0.96170000  0.79150000  0.65510000  1.0 -0.2285642611
C  C14  1  0.94830000  0.70620000  0.57230000  1.0 -0.0346043358
C  C15  1  0.98680000  0.70660000  0.50100000  1.0 -0.1378333406
C  C16  1  0.04710000  0.79960000  0.51460000  1.0 0.0661551928
C  C17  1  0.06330000  0.88780000  0.59760000  1.0 -0.1597308485
C  C18  1  0.02230000  0.88510000  0.66830000  1.0 -0.0607627834
C  C19  1  0.76480000  0.70310000  0.17070000  1.0 -0.2039732473
C  C20  1  0.82850000  0.63780000  0.16500000  1.0 -0.0607627834
C  C21  1  0.93030000  0.66760000  0.24620000  1.0 -0.1597308485
C  C22  1  0.96830000  0.76280000  0.33300000  1.0 0.0598587084
C  C23  1  0.90450000  0.82810000  0.33870000  1.0 -0.1378333406
C  C24  1  0.80280000  0.79830000  0.25760000  1.0 -0.0607627834
C  C25  1  0.08220000  0.79840000  0.42920000  1.0 -0.0129662495
C  C26  1  0.70470000  0.90410000  0.47650000  1.0 -0.178408912
C  C27  1  0.79830000  0.95150000  0.56940000  1.0 -0.0730880448
C  C28  1  0.86750000  0.04760000  0.60110000  1.0 -0.1597308485
C  C29  1  0.84310000  0.09620000  0.53990000  1.0 0.0598587084
C  C30  1  0.74940000  0.04880000  0.44700000  1.0 -0.1597308485
C  C31  1  0.68020000  0.95270000  0.41530000  1.0 -0.0797744268
C  C32  1  0.71950000  0.40100000  0.63670000  1.0 -0.1705372842
C  C33  1  0.74120000  0.38110000  0.55300000  1.0 -0.0868692757
C  C34  1  0.80600000  0.31870000  0.53060000  1.0 -0.1527820365
C  C35  1  0.85050000  0.27440000  0.59330000  1.0 0.0598587084
C  C36  1  0.82490000  0.29220000  0.67680000  1.0 -0.1527820365
C  C37  1  0.75910000  0.35420000  0.69760000  1.0 -0.0797744268
C  C38  1  0.03830000  0.20850000  0.34490000  1.0 -0.2285642611
C  C39  1  0.05170000  0.29380000  0.42770000  1.0 -0.0346043358
C  C40  1  0.01320000  0.29340000  0.49900000  1.0 -0.1378333406
C  C41  1  0.95290000  0.20040000  0.48540000  1.0 0.0661551928
C  C42  1  0.93670000  0.11220000  0.40240000  1.0 -0.1597308485
C  C43  1  0.97770000  0.11490000  0.33170000  1.0 -0.0607627834
C  C44  1  0.23520000  0.29690000  0.82930000  1.0 -0.2039732473
C  C45  1  0.17150000  0.36220000  0.83500000  1.0 -0.0607627834
C  C46  1  0.06970000  0.33240000  0.75380000  1.0 -0.1597308485
C  C47  1  0.03170000  0.23720000  0.66700000  1.0 0.0598587084
C  C48  1  0.09550000  0.17190000  0.66130000  1.0 -0.1378333406
C  C49  1  0.19720000  0.20170000  0.74240000  1.0 -0.0607627834
C  C50  1  0.91780000  0.20160000  0.57080000  1.0 -0.0129662495
O  O1  1  0.39670000  0.25380000  0.50470000  1.0 -0.8246687861
O  O2  1  0.27250000  0.28660000  0.59130000  1.0 -0.7619510503
O  O3  1  0.45560000  0.26660000  0.67970000  1.0 -0.869846067
O  O4  1  0.39020000  0.52400000  0.25230000  1.0 -0.869846067
O  O5  1  0.45100000  0.53020000  0.42950000  1.0 -1.0106531592
O  O6  1  0.28400000  0.40150000  0.28850000  1.0 -0.7619510503
O  O7  1  0.96630000  0.89130000  0.84400000  1.0 -0.9713075967
O  O8  1  0.78250000  0.77560000  0.68920000  1.0 -0.869846067
O  O9  1  0.91770000  0.69650000  0.75680000  1.0 -0.6661859365
O  O10  1  0.62090000  0.56240000  0.98140000  1.0 -0.9092893811
O  O11  1  0.54700000  0.66710000  0.10050000  1.0 -0.8818930896
O  O12  1  0.63610000  0.74960000  0.02540000  1.0 -0.6412431212
O  O13  1  0.60330000  0.74620000  0.49530000  1.0 -0.8246687861
O  O14  1  0.72750000  0.71340000  0.40870000  1.0 -0.7619510503
O  O15  1  0.54440000  0.73340000  0.32030000  1.0 -0.869846067
O  O16  1  0.60980000  0.47600000  0.74770000  1.0 -0.869846067
O  O17  1  0.54900000  0.46980000  0.57050000  1.0 -1.0106531592
O  O18  1  0.71600000  0.59850000  0.71150000  1.0 -0.7619510503
O  O19  1  0.03370000  0.10870000  0.15600000  1.0 -0.9713075967
O  O20  1  0.21750000  0.22440000  0.31080000  1.0 -0.869846067
O  O21  1  0.08230000  0.30350000  0.24320000  1.0 -0.6661859365
O  O22  1  0.37910000  0.43760000  0.01860000  1.0 -0.9092893811
O  O23  1  0.45300000  0.33290000  0.89950000  1.0 -0.8818930896
O  O24  1  0.36390000  0.25040000  0.97460000  1.0 -0.6412431212
