# DDEC6 charges by PACMAN v1.1 (https://github.com/mtap-research/PACMAN-charge/)
data_LETXUH_FSR_pacman
_symmetry_space_group_name_H-M   'P 1'
_cell_length_a   10.77670000
_cell_length_b   17.63880000
_cell_length_c   21.10280000
_cell_angle_alpha   90.00000000
_cell_angle_beta   95.48700000
_cell_angle_gamma   90.00000000
_symmetry_Int_Tables_number   1
_chemical_formula_structural   HoH23C39(NO3)2
_chemical_formula_sum   'Ho4 H92 C156 N8 O24'
_cell_volume   3993.00971420
_cell_formula_units_Z   4
loop_
 _symmetry_equiv_pos_site_id
 _symmetry_equiv_pos_as_xyz
  1  'x, y, z'
loop_
 _atom_site_type_symbol
 _atom_site_label
 _atom_site_symmetry_multiplicity
 _atom_site_fract_x
 _atom_site_fract_y
 _atom_site_fract_z
 _atom_site_occupancy
 _atom_site_charge
Ho  Ho1  1  0.13946000  0.43131000  0.46416000  1.0 1.9427800832
Ho  Ho2  1  0.86054000  0.93131000  0.03584000  1.0 1.9427800832
Ho  Ho3  1  0.86054000  0.56869000  0.53584000  1.0 1.9427800832
Ho  Ho4  1  0.13946000  0.06869000  0.96416000  1.0 1.9427800832
H  H1  1  0.03588000  0.51782000  0.72692000  1.0 0.1210342516
H  H2  1  0.17493000  0.51447000  0.81606000  1.0 0.1210342516
H  H3  1  0.36672000  0.35163000  0.73547000  1.0 0.1125523057
H  H4  1  0.23262000  0.35812000  0.64521000  1.0 0.1210342516
H  H5  1  0.38804000  0.54906000  0.85089000  1.0 0.1125523057
H  H6  1  0.65710000  0.44410000  0.96195000  1.0 0.1125523057
H  H7  1  0.42054000  0.32291000  0.84545000  1.0 0.1210342516
H  H8  1  0.47174000  0.23160000  0.92206000  1.0 0.1125523057
H  H9  1  0.57999000  0.12174000  0.95011000  1.0 0.1125523057
H  H10  1  0.89934000  0.23802000  0.96004000  1.0 0.1303946173
H  H11  1  0.79116000  0.34755000  0.93617000  1.0 0.1125523057
H  H12  1  0.43720000  0.65006000  0.90554000  1.0 0.1125523057
H  H13  1  0.52313000  0.76401000  0.93615000  1.0 0.1210342516
H  H14  1  0.84204000  0.65973000  0.99390000  1.0 0.1303946173
H  H15  1  0.75274000  0.54553000  0.96361000  1.0 0.1125523057
H  H16  1  0.97400000  0.31183000  0.36183000  1.0 0.1125523057
H  H17  1  0.96260000  0.25398000  0.26419000  1.0 0.1303946173
H  H18  1  0.13109000  0.25551000  0.20711000  1.0 0.1210342516
H  H19  1  0.34216000  0.30799000  0.19311000  1.0 0.1210342516
H  H20  1  0.50152000  0.38149000  0.22663000  1.0 0.1210342516
H  H21  1  0.60039000  0.47799000  0.30842000  1.0 0.1210342516
H  H22  1  0.58597000  0.54540000  0.39981000  1.0 0.1414206272
H  H23  1  0.41015000  0.53437000  0.45274000  1.0 0.1125523057
H  H24  1  0.96412000  0.01782000  0.77308000  1.0 0.1210342516
H  H25  1  0.82507000  0.01447000  0.68394000  1.0 0.1210342516
H  H26  1  0.63328000  0.85163000  0.76453000  1.0 0.1125523057
H  H27  1  0.76738000  0.85812000  0.85479000  1.0 0.1210342516
H  H28  1  0.61196000  0.04906000  0.64911000  1.0 0.1125523057
H  H29  1  0.34290000  0.94410000  0.53805000  1.0 0.1125523057
H  H30  1  0.57946000  0.82291000  0.65455000  1.0 0.1210342516
H  H31  1  0.52826000  0.73160000  0.57794000  1.0 0.1125523057
H  H32  1  0.42001000  0.62174000  0.54989000  1.0 0.1125523057
H  H33  1  0.10066000  0.73802000  0.53996000  1.0 0.1303946173
H  H34  1  0.20884000  0.84755000  0.56383000  1.0 0.1125523057
H  H35  1  0.56280000  0.15006000  0.59446000  1.0 0.1125523057
H  H36  1  0.47687000  0.26401000  0.56385000  1.0 0.1210342516
H  H37  1  0.15796000  0.15973000  0.50610000  1.0 0.1303946173
H  H38  1  0.24726000  0.04553000  0.53639000  1.0 0.1125523057
H  H39  1  0.02600000  0.81183000  0.13817000  1.0 0.1125523057
H  H40  1  0.03740000  0.75398000  0.23581000  1.0 0.1303946173
H  H41  1  0.86891000  0.75551000  0.29289000  1.0 0.1210342516
H  H42  1  0.65784000  0.80799000  0.30689000  1.0 0.1210342516
H  H43  1  0.49848000  0.88149000  0.27337000  1.0 0.1210342516
H  H44  1  0.39961000  0.97799000  0.19158000  1.0 0.1210342516
H  H45  1  0.41403000  0.04540000  0.10019000  1.0 0.1414206272
H  H46  1  0.58985000  0.03437000  0.04726000  1.0 0.1125523057
H  H47  1  0.96412000  0.48218000  0.27308000  1.0 0.1210342516
H  H48  1  0.82507000  0.48553000  0.18394000  1.0 0.1210342516
H  H49  1  0.63328000  0.64837000  0.26453000  1.0 0.1125523057
H  H50  1  0.76738000  0.64188000  0.35479000  1.0 0.1210342516
H  H51  1  0.61196000  0.45094000  0.14911000  1.0 0.1125523057
H  H52  1  0.34290000  0.55590000  0.03805000  1.0 0.1125523057
H  H53  1  0.57946000  0.67709000  0.15455000  1.0 0.1210342516
H  H54  1  0.52826000  0.76840000  0.07794000  1.0 0.1125523057
H  H55  1  0.42001000  0.87826000  0.04989000  1.0 0.1125523057
H  H56  1  0.10066000  0.76198000  0.03996000  1.0 0.1303946173
H  H57  1  0.20884000  0.65245000  0.06383000  1.0 0.1125523057
H  H58  1  0.56280000  0.34994000  0.09446000  1.0 0.1125523057
H  H59  1  0.47687000  0.23599000  0.06385000  1.0 0.1210342516
H  H60  1  0.15796000  0.34027000  0.00610000  1.0 0.1303946173
H  H61  1  0.24726000  0.45447000  0.03639000  1.0 0.1125523057
H  H62  1  0.02600000  0.68817000  0.63817000  1.0 0.1125523057
H  H63  1  0.03740000  0.74602000  0.73581000  1.0 0.1303946173
H  H64  1  0.86891000  0.74449000  0.79289000  1.0 0.1210342516
H  H65  1  0.65784000  0.69201000  0.80689000  1.0 0.1210342516
H  H66  1  0.49848000  0.61851000  0.77337000  1.0 0.1210342516
H  H67  1  0.39961000  0.52201000  0.69158000  1.0 0.1210342516
H  H68  1  0.41403000  0.45460000  0.60019000  1.0 0.1414206272
H  H69  1  0.58985000  0.46563000  0.54726000  1.0 0.1125523057
H  H70  1  0.03588000  0.98218000  0.22692000  1.0 0.1210342516
H  H71  1  0.17493000  0.98553000  0.31606000  1.0 0.1210342516
H  H72  1  0.36672000  0.14837000  0.23547000  1.0 0.1125523057
H  H73  1  0.23262000  0.14188000  0.14521000  1.0 0.1210342516
H  H74  1  0.38804000  0.95094000  0.35089000  1.0 0.1125523057
H  H75  1  0.65710000  0.05590000  0.46195000  1.0 0.1125523057
H  H76  1  0.42054000  0.17709000  0.34545000  1.0 0.1210342516
H  H77  1  0.47174000  0.26840000  0.42206000  1.0 0.1125523057
H  H78  1  0.57999000  0.37826000  0.45011000  1.0 0.1125523057
H  H79  1  0.89934000  0.26198000  0.46004000  1.0 0.1303946173
H  H80  1  0.79116000  0.15245000  0.43617000  1.0 0.1125523057
H  H81  1  0.43720000  0.84994000  0.40554000  1.0 0.1125523057
H  H82  1  0.52313000  0.73599000  0.43615000  1.0 0.1210342516
H  H83  1  0.84204000  0.84027000  0.49390000  1.0 0.1303946173
H  H84  1  0.75274000  0.95447000  0.46361000  1.0 0.1125523057
H  H85  1  0.97400000  0.18817000  0.86183000  1.0 0.1125523057
H  H86  1  0.96260000  0.24602000  0.76419000  1.0 0.1303946173
H  H87  1  0.13109000  0.24449000  0.70711000  1.0 0.1210342516
H  H88  1  0.34216000  0.19201000  0.69311000  1.0 0.1210342516
H  H89  1  0.50152000  0.11851000  0.72663000  1.0 0.1210342516
H  H90  1  0.60039000  0.02201000  0.80842000  1.0 0.1210342516
H  H91  1  0.58597000  0.95460000  0.89981000  1.0 0.1414206272
H  H92  1  0.41015000  0.96563000  0.95274000  1.0 0.1125523057
C  C1  1  0.04210000  0.45120000  0.61410000  1.0 0.6395987927
C  C2  1  0.12140000  0.44140000  0.67550000  1.0 -0.0307686052
C  C3  1  0.10440000  0.48560000  0.72800000  1.0 -0.1013180453
C  C4  1  0.18700000  0.48300000  0.78180000  1.0 -0.1600202984
C  C5  1  0.28830000  0.43370000  0.78580000  1.0 0.0683606102
C  C6  1  0.30150000  0.38630000  0.73330000  1.0 -0.1600202984
C  C7  1  0.22130000  0.38980000  0.67940000  1.0 -0.1059331
C  C8  1  0.38680000  0.43510000  0.83940000  1.0 0.0770640133
C  C9  1  0.42900000  0.50480000  0.86470000  1.0 -0.2004045079
C  C10  1  0.53170000  0.50910000  0.91040000  1.0 0.0898796589
C  C11  1  0.59010000  0.44210000  0.93080000  1.0 -0.1913826352
C  C12  1  0.55110000  0.37220000  0.90600000  1.0 0.0898796589
C  C13  1  0.44870000  0.36970000  0.86130000  1.0 -0.1913826352
C  C14  1  0.61900000  0.30150000  0.92590000  1.0 0.0683606102
C  C15  1  0.55810000  0.23330000  0.93010000  1.0 -0.140269256
C  C16  1  0.62290000  0.16700000  0.94610000  1.0 -0.1013180453
C  C17  1  0.75180000  0.16830000  0.95610000  1.0 -0.0307686052
C  C18  1  0.81290000  0.23640000  0.95250000  1.0 -0.1059331
C  C19  1  0.74810000  0.30200000  0.93800000  1.0 -0.1501452269
C  C20  1  0.82510000  0.09610000  0.96780000  1.0 0.6395987927
C  C21  1  0.58420000  0.58470000  0.93220000  1.0 0.0683606102
C  C22  1  0.51900000  0.65150000  0.92410000  1.0 -0.1690705807
C  C23  1  0.57040000  0.72000000  0.94220000  1.0 -0.1059331
C  C24  1  0.69160000  0.72440000  0.96950000  1.0 -0.0307686052
C  C25  1  0.75940000  0.65820000  0.97660000  1.0 -0.1013180453
C  C26  1  0.70550000  0.58960000  0.95820000  1.0 -0.1600202984
C  C27  1  0.74870000  0.79740000  0.99230000  1.0 0.5532715975
C  C28  1  0.03990000  0.31800000  0.33690000  1.0 0.0898796589
C  C29  1  0.03400000  0.28070000  0.27900000  1.0 -0.140269256
C  C30  1  0.13140000  0.28330000  0.24460000  1.0 -0.1013180453
C  C31  1  0.23580000  0.32920000  0.26570000  1.0 0.0482617432
C  C32  1  0.34000000  0.33520000  0.23070000  1.0 -0.140269256
C  C33  1  0.43360000  0.37860000  0.25060000  1.0 -0.140269256
C  C34  1  0.43540000  0.42300000  0.30940000  1.0 0.0482617432
C  C35  1  0.53090000  0.47270000  0.33100000  1.0 -0.0943476575
C  C36  1  0.52220000  0.51280000  0.38460000  1.0 -0.1266876662
C  C37  1  0.41660000  0.50480000  0.41670000  1.0 0.1044579057
C  C38  1  0.33190000  0.41700000  0.34430000  1.0 0.1303946173
C  C39  1  0.23120000  0.36850000  0.32310000  1.0 0.1414206272
C  C40  1  0.95790000  0.95120000  0.88590000  1.0 0.6395987927
C  C41  1  0.87860000  0.94140000  0.82450000  1.0 -0.0307686052
C  C42  1  0.89560000  0.98560000  0.77200000  1.0 -0.1013180453
C  C43  1  0.81300000  0.98300000  0.71820000  1.0 -0.1600202984
C  C44  1  0.71170000  0.93370000  0.71420000  1.0 0.0683606102
C  C45  1  0.69850000  0.88630000  0.76670000  1.0 -0.1600202984
C  C46  1  0.77870000  0.88980000  0.82060000  1.0 -0.1059331
C  C47  1  0.61320000  0.93510000  0.66060000  1.0 0.0770640133
C  C48  1  0.57100000  0.00480000  0.63530000  1.0 -0.2004045079
C  C49  1  0.46830000  0.00910000  0.58960000  1.0 0.0898796589
C  C50  1  0.40990000  0.94210000  0.56920000  1.0 -0.1913826352
C  C51  1  0.44890000  0.87220000  0.59400000  1.0 0.0898796589
C  C52  1  0.55130000  0.86970000  0.63870000  1.0 -0.1913826352
C  C53  1  0.38100000  0.80150000  0.57410000  1.0 0.0683606102
C  C54  1  0.44190000  0.73330000  0.56990000  1.0 -0.140269256
C  C55  1  0.37710000  0.66700000  0.55390000  1.0 -0.1013180453
C  C56  1  0.24820000  0.66830000  0.54390000  1.0 -0.0307686052
C  C57  1  0.18710000  0.73640000  0.54750000  1.0 -0.1059331
C  C58  1  0.25190000  0.80200000  0.56200000  1.0 -0.1501452269
C  C59  1  0.17490000  0.59610000  0.53220000  1.0 0.6343532859
C  C60  1  0.41580000  0.08470000  0.56780000  1.0 0.0683606102
C  C61  1  0.48100000  0.15150000  0.57590000  1.0 -0.1690705807
C  C62  1  0.42960000  0.22000000  0.55780000  1.0 -0.1013180453
C  C63  1  0.30840000  0.22440000  0.53050000  1.0 -0.0307686052
C  C64  1  0.24060000  0.15820000  0.52340000  1.0 -0.1013180453
C  C65  1  0.29450000  0.08960000  0.54180000  1.0 -0.1600202984
C  C66  1  0.25130000  0.29740000  0.50770000  1.0 0.5532715975
C  C67  1  0.96010000  0.81800000  0.16310000  1.0 0.0898796589
C  C68  1  0.96600000  0.78070000  0.22100000  1.0 -0.140269256
C  C69  1  0.86860000  0.78330000  0.25540000  1.0 -0.1013180453
C  C70  1  0.76420000  0.82920000  0.23430000  1.0 0.0482617432
C  C71  1  0.66000000  0.83520000  0.26930000  1.0 -0.140269256
C  C72  1  0.56640000  0.87860000  0.24940000  1.0 -0.140269256
C  C73  1  0.56460000  0.92300000  0.19060000  1.0 0.0482617432
C  C74  1  0.46910000  0.97270000  0.16900000  1.0 -0.0943476575
C  C75  1  0.47780000  0.01280000  0.11540000  1.0 -0.1266876662
C  C76  1  0.58340000  0.00480000  0.08330000  1.0 0.1044579057
C  C77  1  0.66810000  0.91700000  0.15570000  1.0 0.1303946173
C  C78  1  0.76880000  0.86850000  0.17690000  1.0 0.1414206272
C  C79  1  0.95790000  0.54880000  0.38590000  1.0 0.6395987927
C  C80  1  0.87860000  0.55860000  0.32450000  1.0 -0.0307686052
C  C81  1  0.89560000  0.51440000  0.27200000  1.0 -0.1013180453
C  C82  1  0.81300000  0.51700000  0.21820000  1.0 -0.1600202984
C  C83  1  0.71170000  0.56630000  0.21420000  1.0 0.0683606102
C  C84  1  0.69850000  0.61370000  0.26670000  1.0 -0.1600202984
C  C85  1  0.77870000  0.61020000  0.32060000  1.0 -0.1059331
C  C86  1  0.61320000  0.56490000  0.16060000  1.0 0.0770640133
C  C87  1  0.57100000  0.49520000  0.13530000  1.0 -0.2004045079
C  C88  1  0.46830000  0.49090000  0.08960000  1.0 0.0898796589
C  C89  1  0.40990000  0.55790000  0.06920000  1.0 -0.1913826352
C  C90  1  0.44890000  0.62780000  0.09400000  1.0 0.0898796589
C  C91  1  0.55130000  0.63030000  0.13870000  1.0 -0.1913826352
C  C92  1  0.38100000  0.69850000  0.07410000  1.0 0.0683606102
C  C93  1  0.44190000  0.76670000  0.06990000  1.0 -0.140269256
C  C94  1  0.37710000  0.83300000  0.05390000  1.0 -0.1013180453
C  C95  1  0.24820000  0.83170000  0.04390000  1.0 -0.0307686052
C  C96  1  0.18710000  0.76360000  0.04750000  1.0 -0.1059331
C  C97  1  0.25190000  0.69800000  0.06200000  1.0 -0.1501452269
C  C98  1  0.17490000  0.90390000  0.03220000  1.0 0.6343532859
C  C99  1  0.41580000  0.41530000  0.06780000  1.0 0.0683606102
C  C100  1  0.48100000  0.34850000  0.07590000  1.0 -0.1690705807
C  C101  1  0.42960000  0.28000000  0.05780000  1.0 -0.1013180453
C  C102  1  0.30840000  0.27560000  0.03050000  1.0 -0.0307686052
C  C103  1  0.24060000  0.34180000  0.02340000  1.0 -0.1013180453
C  C104  1  0.29450000  0.41040000  0.04180000  1.0 -0.1600202984
C  C105  1  0.25130000  0.20260000  0.00770000  1.0 0.5532715975
C  C106  1  0.96010000  0.68200000  0.66310000  1.0 0.0898796589
C  C107  1  0.96600000  0.71930000  0.72100000  1.0 -0.140269256
C  C108  1  0.86860000  0.71670000  0.75540000  1.0 -0.1013180453
C  C109  1  0.76420000  0.67080000  0.73430000  1.0 0.0482617432
C  C110  1  0.66000000  0.66480000  0.76930000  1.0 -0.140269256
C  C111  1  0.56640000  0.62140000  0.74940000  1.0 -0.140269256
C  C112  1  0.56460000  0.57700000  0.69060000  1.0 0.0482617432
C  C113  1  0.46910000  0.52730000  0.66900000  1.0 -0.0943476575
C  C114  1  0.47780000  0.48720000  0.61540000  1.0 -0.1266876662
C  C115  1  0.58340000  0.49520000  0.58330000  1.0 0.1044579057
C  C116  1  0.66810000  0.58300000  0.65570000  1.0 0.1303946173
C  C117  1  0.76880000  0.63150000  0.67690000  1.0 0.1414206272
C  C118  1  0.04210000  0.04880000  0.11410000  1.0 0.6395987927
C  C119  1  0.12140000  0.05860000  0.17550000  1.0 -0.0307686052
C  C120  1  0.10440000  0.01440000  0.22800000  1.0 -0.1013180453
C  C121  1  0.18700000  0.01700000  0.28180000  1.0 -0.1600202984
C  C122  1  0.28830000  0.06630000  0.28580000  1.0 0.0683606102
C  C123  1  0.30150000  0.11370000  0.23330000  1.0 -0.1600202984
C  C124  1  0.22130000  0.11020000  0.17940000  1.0 -0.1059331
C  C125  1  0.38680000  0.06490000  0.33940000  1.0 0.0770640133
C  C126  1  0.42900000  0.99520000  0.36470000  1.0 -0.2004045079
C  C127  1  0.53170000  0.99090000  0.41040000  1.0 0.0898796589
C  C128  1  0.59010000  0.05790000  0.43080000  1.0 -0.1913826352
C  C129  1  0.55110000  0.12780000  0.40600000  1.0 0.0898796589
C  C130  1  0.44870000  0.13030000  0.36130000  1.0 -0.1913826352
C  C131  1  0.61900000  0.19850000  0.42590000  1.0 0.0683606102
C  C132  1  0.55810000  0.26670000  0.43010000  1.0 -0.140269256
C  C133  1  0.62290000  0.33300000  0.44610000  1.0 -0.1013180453
C  C134  1  0.75180000  0.33170000  0.45610000  1.0 -0.0307686052
C  C135  1  0.81290000  0.26360000  0.45250000  1.0 -0.1059331
C  C136  1  0.74810000  0.19800000  0.43800000  1.0 -0.1501452269
C  C137  1  0.82510000  0.40390000  0.46780000  1.0 0.6343532859
C  C138  1  0.58420000  0.91530000  0.43220000  1.0 0.0683606102
C  C139  1  0.51900000  0.84850000  0.42410000  1.0 -0.1690705807
C  C140  1  0.57040000  0.78000000  0.44220000  1.0 -0.1013180453
C  C141  1  0.69160000  0.77560000  0.46950000  1.0 -0.0307686052
C  C142  1  0.75940000  0.84180000  0.47660000  1.0 -0.1013180453
C  C143  1  0.70550000  0.91040000  0.45820000  1.0 -0.1600202984
C  C144  1  0.74870000  0.70260000  0.49230000  1.0 0.5532715975
C  C145  1  0.03990000  0.18200000  0.83690000  1.0 0.0898796589
C  C146  1  0.03400000  0.21930000  0.77900000  1.0 -0.140269256
C  C147  1  0.13140000  0.21670000  0.74460000  1.0 -0.1013180453
C  C148  1  0.23580000  0.17080000  0.76570000  1.0 0.0482617432
C  C149  1  0.34000000  0.16480000  0.73070000  1.0 -0.140269256
C  C150  1  0.43360000  0.12140000  0.75060000  1.0 -0.140269256
C  C151  1  0.43540000  0.07700000  0.80940000  1.0 0.0482617432
C  C152  1  0.53090000  0.02730000  0.83100000  1.0 -0.0943476575
C  C153  1  0.52220000  0.98720000  0.88460000  1.0 -0.1266876662
C  C154  1  0.41660000  0.99520000  0.91670000  1.0 0.1044579057
C  C155  1  0.33190000  0.08300000  0.84430000  1.0 0.1303946173
C  C156  1  0.23120000  0.13150000  0.82310000  1.0 0.1414206272
N  N1  1  0.13540000  0.36260000  0.35920000  1.0 -0.3698521794
N  N2  1  0.32340000  0.45690000  0.39890000  1.0 -0.3630096258
N  N3  1  0.86460000  0.86260000  0.14080000  1.0 -0.3698521794
N  N4  1  0.67660000  0.95690000  0.10110000  1.0 -0.3630096258
N  N5  1  0.86460000  0.63740000  0.64080000  1.0 -0.3698521794
N  N6  1  0.67660000  0.54310000  0.60110000  1.0 -0.3630096258
N  N7  1  0.13540000  0.13740000  0.85920000  1.0 -0.3698521794
N  N8  1  0.32340000  0.04310000  0.89890000  1.0 -0.3630096258
O  O1  1  0.08730000  0.42670000  0.56530000  1.0 -0.671395147
O  O2  1  0.94140000  0.48540000  0.61470000  1.0 -0.6264893355
O  O3  1  0.93250000  0.09550000  0.95150000  1.0 -0.6499177904
O  O4  1  0.77320000  0.04200000  0.99310000  1.0 -0.6417809741
O  O5  1  0.68480000  0.85790000  0.98930000  1.0 -0.6417809741
O  O6  1  0.86090000  0.79810000  0.01400000  1.0 -0.6026315333
O  O7  1  0.91270000  0.92670000  0.93470000  1.0 -0.671395147
O  O8  1  0.05860000  0.98540000  0.88530000  1.0 -0.6264893355
O  O9  1  0.06750000  0.59550000  0.54850000  1.0 -0.6499177904
O  O10  1  0.22680000  0.54200000  0.50690000  1.0 -0.6417809741
O  O11  1  0.31520000  0.35790000  0.51070000  1.0 -0.6417809741
O  O12  1  0.13910000  0.29810000  0.48600000  1.0 -0.6026315333
O  O13  1  0.91270000  0.57330000  0.43470000  1.0 -0.671395147
O  O14  1  0.05860000  0.51460000  0.38530000  1.0 -0.6264893355
O  O15  1  0.06750000  0.90450000  0.04850000  1.0 -0.6499177904
O  O16  1  0.22680000  0.95800000  0.00690000  1.0 -0.6417809741
O  O17  1  0.31520000  0.14210000  0.01070000  1.0 -0.6417809741
O  O18  1  0.13910000  0.20190000  0.98600000  1.0 -0.6026315333
O  O19  1  0.08730000  0.07330000  0.06530000  1.0 -0.671395147
O  O20  1  0.94140000  0.01460000  0.11470000  1.0 -0.6264893355
O  O21  1  0.93250000  0.40450000  0.45150000  1.0 -0.6499177904
O  O22  1  0.77320000  0.45800000  0.49310000  1.0 -0.6417809741
O  O23  1  0.68480000  0.64210000  0.48930000  1.0 -0.6417809741
O  O24  1  0.86090000  0.70190000  0.51400000  1.0 -0.6026315333
