# DDEC6 charges by PACMAN v1.1 (https://github.com/mtap-research/PACMAN-charge/)
data_LEVBAQ_ion_pacman
_symmetry_space_group_name_H-M   'P 1'
_cell_length_a   13.93060000
_cell_length_b   13.93060000
_cell_length_c   24.04350000
_cell_angle_alpha   90.00000000
_cell_angle_beta   90.00000000
_cell_angle_gamma   120.00000000
_symmetry_Int_Tables_number   1
_chemical_formula_structural   In9P14H48C30N6O62F3
_chemical_formula_sum   'In18 P28 H96 C60 N12 O124 F6'
_cell_volume   4040.80566161
_cell_formula_units_Z   2
loop_
 _symmetry_equiv_pos_site_id
 _symmetry_equiv_pos_as_xyz
  1  'x, y, z'
loop_
 _atom_site_type_symbol
 _atom_site_label
 _atom_site_symmetry_multiplicity
 _atom_site_fract_x
 _atom_site_fract_y
 _atom_site_fract_z
 _atom_site_occupancy
 _atom_site_charge
In  In1  1  0.29304000  0.44140000  0.47129000  1.0 1.6835121149
In  In2  1  0.55860000  0.85164000  0.47129000  1.0 1.6835121149
In  In3  1  0.14836000  0.70696000  0.47129000  1.0 1.6835121149
In  In4  1  0.14836000  0.44140000  0.02871000  1.0 1.6835121149
In  In5  1  0.29304000  0.85164000  0.02871000  1.0 1.6835121149
In  In6  1  0.55860000  0.70696000  0.02871000  1.0 1.6835121149
In  In7  1  0.70696000  0.55860000  0.52871000  1.0 1.6835121149
In  In8  1  0.44140000  0.14836000  0.52871000  1.0 1.6835121149
In  In9  1  0.85164000  0.29304000  0.52871000  1.0 1.6835121149
In  In10  1  0.85164000  0.55860000  0.97129000  1.0 1.6835121149
In  In11  1  0.70696000  0.14836000  0.97129000  1.0 1.6835121149
In  In12  1  0.44140000  0.29304000  0.97129000  1.0 1.6835121149
In  In13  1  0.00000000  0.00000000  0.50000000  1.0 1.8033761019
In  In14  1  0.00000000  0.00000000  0.00000000  1.0 1.8033761019
In  In15  1  0.00000000  0.00000000  0.31507000  1.0 1.5570174093
In  In16  1  0.00000000  0.00000000  0.18493000  1.0 1.5570174093
In  In17  1  0.00000000  0.00000000  0.68493000  1.0 1.5570174093
In  In18  1  0.00000000  0.00000000  0.81507000  1.0 1.5570174093
P  P1  1  0.12005000  0.49220000  0.54439000  1.0 1.5393857493
P  P2  1  0.50780000  0.62785000  0.54439000  1.0 1.5393857493
P  P3  1  0.37215000  0.87995000  0.54439000  1.0 1.5393857493
P  P4  1  0.37215000  0.49220000  0.95561000  1.0 1.5393857493
P  P5  1  0.12005000  0.62785000  0.95561000  1.0 1.5393857493
P  P6  1  0.50780000  0.87995000  0.95561000  1.0 1.5393857493
P  P7  1  0.87995000  0.50780000  0.45561000  1.0 1.5393857493
P  P8  1  0.49220000  0.37215000  0.45561000  1.0 1.5393857493
P  P9  1  0.62785000  0.12005000  0.45561000  1.0 1.5393857493
P  P10  1  0.62785000  0.50780000  0.04439000  1.0 1.5393857493
P  P11  1  0.87995000  0.37215000  0.04439000  1.0 1.5393857493
P  P12  1  0.49220000  0.12005000  0.04439000  1.0 1.5393857493
P  P13  1  0.16657000  0.19116000  0.40118000  1.0 1.5393857493
P  P14  1  0.80884000  0.97541000  0.40118000  1.0 1.5393857493
P  P15  1  0.02459000  0.83343000  0.40118000  1.0 1.5393857493
P  P16  1  0.02459000  0.19116000  0.09882000  1.0 1.5393857493
P  P17  1  0.16657000  0.97541000  0.09882000  1.0 1.5393857493
P  P18  1  0.80884000  0.83343000  0.09882000  1.0 1.5393857493
P  P19  1  0.83343000  0.80884000  0.59882000  1.0 1.5393857493
P  P20  1  0.19116000  0.02459000  0.59882000  1.0 1.5393857493
P  P21  1  0.97541000  0.16657000  0.59882000  1.0 1.5393857493
P  P22  1  0.97541000  0.80884000  0.90118000  1.0 1.5393857493
P  P23  1  0.83343000  0.02459000  0.90118000  1.0 1.5393857493
P  P24  1  0.19116000  0.16657000  0.90118000  1.0 1.5393857493
P  P25  1  0.33333333  0.66666667  0.39315000  1.0 1.4524640674
P  P26  1  0.33333333  0.66666667  0.10685000  1.0 1.4524640674
P  P27  1  0.66666667  0.33333333  0.60685000  1.0 1.4524640674
P  P28  1  0.66666667  0.33333333  0.89315000  1.0 1.4524640674
H  H1  1  0.14660000  0.41350000  0.60740000  1.0 0.3008434409
H  H2  1  0.58650000  0.73310000  0.60740000  1.0 0.3008434409
H  H3  1  0.26690000  0.85340000  0.60740000  1.0 0.3008434409
H  H4  1  0.26690000  0.41350000  0.89260000  1.0 0.3008434409
H  H5  1  0.14660000  0.73310000  0.89260000  1.0 0.3008434409
H  H6  1  0.58650000  0.85340000  0.89260000  1.0 0.3008434409
H  H7  1  0.85340000  0.58650000  0.39260000  1.0 0.3008434409
H  H8  1  0.41350000  0.26690000  0.39260000  1.0 0.3008434409
H  H9  1  0.73310000  0.14660000  0.39260000  1.0 0.3008434409
H  H10  1  0.73310000  0.58650000  0.10740000  1.0 0.3008434409
H  H11  1  0.85340000  0.26690000  0.10740000  1.0 0.3008434409
H  H12  1  0.41350000  0.14660000  0.10740000  1.0 0.3008434409
H  H13  1  0.32140000  0.22380000  0.38870000  1.0 0.2790719504
H  H14  1  0.77620000  0.09760000  0.38870000  1.0 0.2790719504
H  H15  1  0.90240000  0.67860000  0.38870000  1.0 0.2790719504
H  H16  1  0.90240000  0.22380000  0.11130000  1.0 0.2790719504
H  H17  1  0.32140000  0.09760000  0.11130000  1.0 0.2790719504
H  H18  1  0.77620000  0.67860000  0.11130000  1.0 0.2790719504
H  H19  1  0.67860000  0.77620000  0.61130000  1.0 0.2790719504
H  H20  1  0.22380000  0.90240000  0.61130000  1.0 0.2790719504
H  H21  1  0.09760000  0.32140000  0.61130000  1.0 0.2790719504
H  H22  1  0.09760000  0.77620000  0.88870000  1.0 0.2790719504
H  H23  1  0.67860000  0.90240000  0.88870000  1.0 0.2790719504
H  H24  1  0.22380000  0.32140000  0.88870000  1.0 0.2790719504
H  H25  1  0.38450000  0.65890000  0.31660000  1.0 0.1977914358
H  H26  1  0.34110000  0.72560000  0.31660000  1.0 0.1977914358
H  H27  1  0.27440000  0.61550000  0.31660000  1.0 0.1977914358
H  H28  1  0.27440000  0.65890000  0.18340000  1.0 0.1977914358
H  H29  1  0.38450000  0.72560000  0.18340000  1.0 0.1977914358
H  H30  1  0.34110000  0.61550000  0.18340000  1.0 0.1977914358
H  H31  1  0.61550000  0.34110000  0.68340000  1.0 0.1977914358
H  H32  1  0.65890000  0.27440000  0.68340000  1.0 0.1977914358
H  H33  1  0.72560000  0.38450000  0.68340000  1.0 0.1977914358
H  H34  1  0.72560000  0.34110000  0.81660000  1.0 0.1977914358
H  H35  1  0.61550000  0.27440000  0.81660000  1.0 0.1977914358
H  H36  1  0.65890000  0.38450000  0.81660000  1.0 0.1977914358
H  H37  1  0.49400000  0.05200000  0.66290000  1.0 0.1596944714
H  H38  1  0.55800000  0.05200000  0.83710000  1.0 0.1596944714
H  H39  1  0.62400000  0.05680000  0.60250000  1.0 0.1505330922
H  H40  1  0.43280000  0.05680000  0.89750000  1.0 0.1505330922
H  H41  1  0.60720000  0.93920000  0.78110000  1.0 0.1712840767
H  H42  1  0.33200000  0.93920000  0.71890000  1.0 0.1712840767
H  H43  1  0.74580000  0.95850000  0.72060000  1.0 0.1505330922
H  H44  1  0.21270000  0.95850000  0.77940000  1.0 0.1505330922
H  H45  1  0.74940000  0.02470000  0.63800000  1.0 0.3097745711
H  H46  1  0.27530000  0.02470000  0.86200000  1.0 0.3097745711
H  H47  1  0.55800000  0.50600000  0.66290000  1.0 0.1596944714
H  H48  1  0.49400000  0.44200000  0.83710000  1.0 0.1596944714
H  H49  1  0.43280000  0.37600000  0.60250000  1.0 0.1505330922
H  H50  1  0.62400000  0.56720000  0.89750000  1.0 0.1505330922
H  H51  1  0.33200000  0.39280000  0.78110000  1.0 0.1712840767
H  H52  1  0.60720000  0.66800000  0.71890000  1.0 0.1712840767
H  H53  1  0.21270000  0.25420000  0.72060000  1.0 0.1505330922
H  H54  1  0.74580000  0.78730000  0.77940000  1.0 0.1505330922
H  H55  1  0.27530000  0.25060000  0.63800000  1.0 0.3097745711
H  H56  1  0.74940000  0.72470000  0.86200000  1.0 0.3097745711
H  H57  1  0.94800000  0.44200000  0.66290000  1.0 0.1596944714
H  H58  1  0.94800000  0.50600000  0.83710000  1.0 0.1596944714
H  H59  1  0.94320000  0.56720000  0.60250000  1.0 0.1505330922
H  H60  1  0.94320000  0.37600000  0.89750000  1.0 0.1505330922
H  H61  1  0.06080000  0.66800000  0.78110000  1.0 0.1712840767
H  H62  1  0.06080000  0.39280000  0.71890000  1.0 0.1712840767
H  H63  1  0.04150000  0.78730000  0.72060000  1.0 0.1505330922
H  H64  1  0.04150000  0.25420000  0.77940000  1.0 0.1505330922
H  H65  1  0.97530000  0.72470000  0.63800000  1.0 0.3097745711
H  H66  1  0.97530000  0.25060000  0.86200000  1.0 0.3097745711
H  H67  1  0.50600000  0.94800000  0.33710000  1.0 0.1596944714
H  H68  1  0.44200000  0.94800000  0.16290000  1.0 0.1596944714
H  H69  1  0.37600000  0.94320000  0.39750000  1.0 0.1505330922
H  H70  1  0.56720000  0.94320000  0.10250000  1.0 0.1505330922
H  H71  1  0.39280000  0.06080000  0.21890000  1.0 0.1712840767
H  H72  1  0.66800000  0.06080000  0.28110000  1.0 0.1712840767
H  H73  1  0.25420000  0.04150000  0.27940000  1.0 0.1505330922
H  H74  1  0.78730000  0.04150000  0.22060000  1.0 0.1505330922
H  H75  1  0.25060000  0.97530000  0.36200000  1.0 0.3097745711
H  H76  1  0.72470000  0.97530000  0.13800000  1.0 0.3097745711
H  H77  1  0.44200000  0.49400000  0.33710000  1.0 0.1596944714
H  H78  1  0.50600000  0.55800000  0.16290000  1.0 0.1596944714
H  H79  1  0.56720000  0.62400000  0.39750000  1.0 0.1505330922
H  H80  1  0.37600000  0.43280000  0.10250000  1.0 0.1505330922
H  H81  1  0.66800000  0.60720000  0.21890000  1.0 0.1712840767
H  H82  1  0.39280000  0.33200000  0.28110000  1.0 0.1712840767
H  H83  1  0.78730000  0.74580000  0.27940000  1.0 0.1505330922
H  H84  1  0.25420000  0.21270000  0.22060000  1.0 0.1505330922
H  H85  1  0.72470000  0.74940000  0.36200000  1.0 0.3097745711
H  H86  1  0.25060000  0.27530000  0.13800000  1.0 0.3097745711
H  H87  1  0.05200000  0.55800000  0.33710000  1.0 0.1596944714
H  H88  1  0.05200000  0.49400000  0.16290000  1.0 0.1596944714
H  H89  1  0.05680000  0.43280000  0.39750000  1.0 0.1505330922
H  H90  1  0.05680000  0.62400000  0.10250000  1.0 0.1505330922
H  H91  1  0.93920000  0.33200000  0.21890000  1.0 0.1712840767
H  H92  1  0.93920000  0.60720000  0.28110000  1.0 0.1712840767
H  H93  1  0.95850000  0.21270000  0.27940000  1.0 0.1505330922
H  H94  1  0.95850000  0.74580000  0.22060000  1.0 0.1505330922
H  H95  1  0.02470000  0.27530000  0.36200000  1.0 0.3097745711
H  H96  1  0.02470000  0.74940000  0.13800000  1.0 0.3097745711
C  C1  1  0.54650000  0.03470000  0.67580000  1.0 -0.2139217497
C  C2  1  0.48820000  0.03470000  0.82420000  1.0 -0.2139217497
C  C3  1  0.54330000  0.00570000  0.73160000  1.0 0.1070372342
C  C4  1  0.46240000  0.00570000  0.76840000  1.0 0.1070372342
C  C5  1  0.62340000  0.03840000  0.63970000  1.0 0.1413496196
C  C6  1  0.41500000  0.03840000  0.86030000  1.0 0.1413496196
C  C7  1  0.61320000  0.97010000  0.74600000  1.0 -0.1964647537
C  C8  1  0.35690000  0.97010000  0.75400000  1.0 -0.1964647537
C  C9  1  0.69420000  0.97850000  0.70960000  1.0 0.1156530241
C  C10  1  0.28430000  0.97850000  0.79040000  1.0 0.1156530241
C  C11  1  0.48820000  0.45350000  0.67580000  1.0 -0.2139217497
C  C12  1  0.54650000  0.51180000  0.82420000  1.0 -0.2139217497
C  C13  1  0.46240000  0.45670000  0.73160000  1.0 0.1070372342
C  C14  1  0.54330000  0.53760000  0.76840000  1.0 0.1070372342
C  C15  1  0.41500000  0.37660000  0.63970000  1.0 0.1413496196
C  C16  1  0.62340000  0.58500000  0.86030000  1.0 0.1413496196
C  C17  1  0.35690000  0.38680000  0.74600000  1.0 -0.1964647537
C  C18  1  0.61320000  0.64310000  0.75400000  1.0 -0.1964647537
C  C19  1  0.28430000  0.30580000  0.70960000  1.0 0.1156530241
C  C20  1  0.69420000  0.71570000  0.79040000  1.0 0.1156530241
C  C21  1  0.96530000  0.51180000  0.67580000  1.0 -0.2139217497
C  C22  1  0.96530000  0.45350000  0.82420000  1.0 -0.2139217497
C  C23  1  0.99430000  0.53760000  0.73160000  1.0 0.1070372342
C  C24  1  0.99430000  0.45670000  0.76840000  1.0 0.1070372342
C  C25  1  0.96160000  0.58500000  0.63970000  1.0 0.1413496196
C  C26  1  0.96160000  0.37660000  0.86030000  1.0 0.1413496196
C  C27  1  0.02990000  0.64310000  0.74600000  1.0 -0.1964647537
C  C28  1  0.02990000  0.38680000  0.75400000  1.0 -0.1964647537
C  C29  1  0.02150000  0.71570000  0.70960000  1.0 0.1156530241
C  C30  1  0.02150000  0.30580000  0.79040000  1.0 0.1156530241
C  C31  1  0.45350000  0.96530000  0.32420000  1.0 -0.2139217497
C  C32  1  0.51180000  0.96530000  0.17580000  1.0 -0.2139217497
C  C33  1  0.45670000  0.99430000  0.26840000  1.0 0.1070372342
C  C34  1  0.53760000  0.99430000  0.23160000  1.0 0.1070372342
C  C35  1  0.37660000  0.96160000  0.36030000  1.0 0.1413496196
C  C36  1  0.58500000  0.96160000  0.13970000  1.0 0.1413496196
C  C37  1  0.38680000  0.02990000  0.25400000  1.0 -0.1964647537
C  C38  1  0.64310000  0.02990000  0.24600000  1.0 -0.1964647537
C  C39  1  0.30580000  0.02150000  0.29040000  1.0 0.1156530241
C  C40  1  0.71570000  0.02150000  0.20960000  1.0 0.1156530241
C  C41  1  0.51180000  0.54650000  0.32420000  1.0 -0.2139217497
C  C42  1  0.45350000  0.48820000  0.17580000  1.0 -0.2139217497
C  C43  1  0.53760000  0.54330000  0.26840000  1.0 0.1070372342
C  C44  1  0.45670000  0.46240000  0.23160000  1.0 0.1070372342
C  C45  1  0.58500000  0.62340000  0.36030000  1.0 0.1413496196
C  C46  1  0.37660000  0.41500000  0.13970000  1.0 0.1413496196
C  C47  1  0.64310000  0.61320000  0.25400000  1.0 -0.1964647537
C  C48  1  0.38680000  0.35690000  0.24600000  1.0 -0.1964647537
C  C49  1  0.71570000  0.69420000  0.29040000  1.0 0.1156530241
C  C50  1  0.30580000  0.28430000  0.20960000  1.0 0.1156530241
C  C51  1  0.03470000  0.48820000  0.32420000  1.0 -0.2139217497
C  C52  1  0.03470000  0.54650000  0.17580000  1.0 -0.2139217497
C  C53  1  0.00570000  0.46240000  0.26840000  1.0 0.1070372342
C  C54  1  0.00570000  0.54330000  0.23160000  1.0 0.1070372342
C  C55  1  0.03840000  0.41500000  0.36030000  1.0 0.1413496196
C  C56  1  0.03840000  0.62340000  0.13970000  1.0 0.1413496196
C  C57  1  0.97010000  0.35690000  0.25400000  1.0 -0.1964647537
C  C58  1  0.97010000  0.61320000  0.24600000  1.0 -0.1964647537
C  C59  1  0.97850000  0.28430000  0.29040000  1.0 0.1156530241
C  C60  1  0.97850000  0.69420000  0.20960000  1.0 0.1156530241
N  N1  1  0.69610000  0.01520000  0.65950000  1.0 -0.0837230748
N  N2  1  0.31910000  0.01520000  0.84050000  1.0 -0.0837230748
N  N3  1  0.31910000  0.30390000  0.65950000  1.0 -0.0837230748
N  N4  1  0.69610000  0.68090000  0.84050000  1.0 -0.0837230748
N  N5  1  0.98480000  0.68090000  0.65950000  1.0 -0.0837230748
N  N6  1  0.98480000  0.30390000  0.84050000  1.0 -0.0837230748
N  N7  1  0.30390000  0.98480000  0.34050000  1.0 -0.0837230748
N  N8  1  0.68090000  0.98480000  0.15950000  1.0 -0.0837230748
N  N9  1  0.68090000  0.69610000  0.34050000  1.0 -0.0837230748
N  N10  1  0.30390000  0.31910000  0.15950000  1.0 -0.0837230748
N  N11  1  0.01520000  0.31910000  0.34050000  1.0 -0.0837230748
N  N12  1  0.01520000  0.69610000  0.15950000  1.0 -0.0837230748
O  O1  1  0.14400000  0.43130000  0.49840000  1.0 -0.7624355322
O  O2  1  0.56870000  0.71270000  0.49840000  1.0 -0.7624355322
O  O3  1  0.28730000  0.85600000  0.49840000  1.0 -0.7624355322
O  O4  1  0.28730000  0.43130000  0.00160000  1.0 -0.7624355322
O  O5  1  0.14400000  0.71270000  0.00160000  1.0 -0.7624355322
O  O6  1  0.56870000  0.85600000  0.00160000  1.0 -0.7624355322
O  O7  1  0.85600000  0.56870000  0.50160000  1.0 -0.7624355322
O  O8  1  0.43130000  0.28730000  0.50160000  1.0 -0.7624355322
O  O9  1  0.71270000  0.14400000  0.50160000  1.0 -0.7624355322
O  O10  1  0.71270000  0.56870000  0.99840000  1.0 -0.7624355322
O  O11  1  0.85600000  0.28730000  0.99840000  1.0 -0.7624355322
O  O12  1  0.43130000  0.14400000  0.99840000  1.0 -0.7624355322
O  O13  1  0.18940000  0.30550000  0.41794000  1.0 -0.7739047573
O  O14  1  0.69450000  0.88390000  0.41794000  1.0 -0.7739047573
O  O15  1  0.11610000  0.81060000  0.41794000  1.0 -0.7739047573
O  O16  1  0.11610000  0.30550000  0.08206000  1.0 -0.7739047573
O  O17  1  0.18940000  0.88390000  0.08206000  1.0 -0.7739047573
O  O18  1  0.69450000  0.81060000  0.08206000  1.0 -0.7739047573
O  O19  1  0.81060000  0.69450000  0.58206000  1.0 -0.7739047573
O  O20  1  0.30550000  0.11610000  0.58206000  1.0 -0.7739047573
O  O21  1  0.88390000  0.18940000  0.58206000  1.0 -0.7739047573
O  O22  1  0.88390000  0.69450000  0.91794000  1.0 -0.7739047573
O  O23  1  0.81060000  0.11610000  0.91794000  1.0 -0.7739047573
O  O24  1  0.30550000  0.18940000  0.91794000  1.0 -0.7739047573
O  O25  1  0.17250000  0.47950000  0.60030000  1.0 -0.5969604617
O  O26  1  0.52050000  0.69300000  0.60030000  1.0 -0.5969604617
O  O27  1  0.30700000  0.82750000  0.60030000  1.0 -0.5969604617
O  O28  1  0.30700000  0.47950000  0.89970000  1.0 -0.5969604617
O  O29  1  0.17250000  0.69300000  0.89970000  1.0 -0.5969604617
O  O30  1  0.52050000  0.82750000  0.89970000  1.0 -0.5969604617
O  O31  1  0.82750000  0.52050000  0.39970000  1.0 -0.5969604617
O  O32  1  0.47950000  0.30700000  0.39970000  1.0 -0.5969604617
O  O33  1  0.69300000  0.17250000  0.39970000  1.0 -0.5969604617
O  O34  1  0.69300000  0.52050000  0.10030000  1.0 -0.5969604617
O  O35  1  0.82750000  0.30700000  0.10030000  1.0 -0.5969604617
O  O36  1  0.47950000  0.17250000  0.10030000  1.0 -0.5969604617
O  O37  1  0.25540000  0.30660000  0.53497000  1.0 -0.5287475154
O  O38  1  0.69340000  0.94880000  0.53497000  1.0 -0.5287475154
O  O39  1  0.05120000  0.74460000  0.53497000  1.0 -0.5287475154
O  O40  1  0.05120000  0.30660000  0.96503000  1.0 -0.5287475154
O  O41  1  0.25540000  0.94880000  0.96503000  1.0 -0.5287475154
O  O42  1  0.69340000  0.74460000  0.96503000  1.0 -0.5287475154
O  O43  1  0.74460000  0.69340000  0.46503000  1.0 -0.5287475154
O  O44  1  0.30660000  0.05120000  0.46503000  1.0 -0.5287475154
O  O45  1  0.94880000  0.25540000  0.46503000  1.0 -0.5287475154
O  O46  1  0.94880000  0.69340000  0.03497000  1.0 -0.5287475154
O  O47  1  0.74460000  0.05120000  0.03497000  1.0 -0.5287475154
O  O48  1  0.30660000  0.25540000  0.03497000  1.0 -0.5287475154
O  O49  1  0.33333333  0.66666667  0.32800000  1.0 -0.4906249708
O  O50  1  0.33333333  0.66666667  0.17200000  1.0 -0.4906249708
O  O51  1  0.66666667  0.33333333  0.67200000  1.0 -0.4906249708
O  O52  1  0.66666667  0.33333333  0.82800000  1.0 -0.4906249708
O  O53  1  0.31850000  0.55550000  0.40880000  1.0 -0.7526098952
O  O54  1  0.44450000  0.76300000  0.40880000  1.0 -0.7526098952
O  O55  1  0.23700000  0.68150000  0.40880000  1.0 -0.7526098952
O  O56  1  0.23700000  0.55550000  0.09120000  1.0 -0.7526098952
O  O57  1  0.31850000  0.76300000  0.09120000  1.0 -0.7526098952
O  O58  1  0.44450000  0.68150000  0.09120000  1.0 -0.7526098952
O  O59  1  0.68150000  0.44450000  0.59120000  1.0 -0.7526098952
O  O60  1  0.55550000  0.23700000  0.59120000  1.0 -0.7526098952
O  O61  1  0.76300000  0.31850000  0.59120000  1.0 -0.7526098952
O  O62  1  0.76300000  0.44450000  0.90880000  1.0 -0.7526098952
O  O63  1  0.68150000  0.23700000  0.90880000  1.0 -0.7526098952
O  O64  1  0.55550000  0.31850000  0.90880000  1.0 -0.7526098952
O  O65  1  0.99740000  0.43680000  0.55500000  1.0 -0.8185491329
O  O66  1  0.56320000  0.56060000  0.55500000  1.0 -0.8185491329
O  O67  1  0.43940000  0.00260000  0.55500000  1.0 -0.8185491329
O  O68  1  0.43940000  0.43680000  0.94500000  1.0 -0.8185491329
O  O69  1  0.99740000  0.56060000  0.94500000  1.0 -0.8185491329
O  O70  1  0.56320000  0.00260000  0.94500000  1.0 -0.8185491329
O  O71  1  0.00260000  0.56320000  0.44500000  1.0 -0.8185491329
O  O72  1  0.43680000  0.43940000  0.44500000  1.0 -0.8185491329
O  O73  1  0.56060000  0.99740000  0.44500000  1.0 -0.8185491329
O  O74  1  0.56060000  0.56320000  0.05500000  1.0 -0.8185491329
O  O75  1  0.00260000  0.43940000  0.05500000  1.0 -0.8185491329
O  O76  1  0.43680000  0.99740000  0.05500000  1.0 -0.8185491329
O  O77  1  0.14020000  0.11290000  0.45101000  1.0 -0.7439554498
O  O78  1  0.88710000  0.02730000  0.45101000  1.0 -0.7439554498
O  O79  1  0.97270000  0.85980000  0.45101000  1.0 -0.7439554498
O  O80  1  0.97270000  0.11290000  0.04899000  1.0 -0.7439554498
O  O81  1  0.14020000  0.02730000  0.04899000  1.0 -0.7439554498
O  O82  1  0.88710000  0.85980000  0.04899000  1.0 -0.7439554498
O  O83  1  0.85980000  0.88710000  0.54899000  1.0 -0.7439554498
O  O84  1  0.11290000  0.97270000  0.54899000  1.0 -0.7439554498
O  O85  1  0.02730000  0.14020000  0.54899000  1.0 -0.7439554498
O  O86  1  0.02730000  0.88710000  0.95101000  1.0 -0.7439554498
O  O87  1  0.85980000  0.97270000  0.95101000  1.0 -0.7439554498
O  O88  1  0.11290000  0.14020000  0.95101000  1.0 -0.7439554498
O  O89  1  0.07150000  0.14720000  0.35840000  1.0 -0.8125133232
O  O90  1  0.85280000  0.92430000  0.35840000  1.0 -0.8125133232
O  O91  1  0.07570000  0.92850000  0.35840000  1.0 -0.8125133232
O  O92  1  0.07570000  0.14720000  0.14160000  1.0 -0.8125133232
O  O93  1  0.07150000  0.92430000  0.14160000  1.0 -0.8125133232
O  O94  1  0.85280000  0.92850000  0.14160000  1.0 -0.8125133232
O  O95  1  0.92850000  0.85280000  0.64160000  1.0 -0.8125133232
O  O96  1  0.14720000  0.07570000  0.64160000  1.0 -0.8125133232
O  O97  1  0.92430000  0.07150000  0.64160000  1.0 -0.8125133232
O  O98  1  0.92430000  0.85280000  0.85840000  1.0 -0.8125133232
O  O99  1  0.92850000  0.07570000  0.85840000  1.0 -0.8125133232
O  O100  1  0.14720000  0.07150000  0.85840000  1.0 -0.8125133232
O  O101  1  0.26610000  0.19560000  0.36888000  1.0 -0.6353340512
O  O102  1  0.80440000  0.07050000  0.36888000  1.0 -0.6346865064
O  O103  1  0.92950000  0.73390000  0.36888000  1.0 -0.6346865064
O  O104  1  0.92950000  0.19560000  0.13112000  1.0 -0.6346865064
O  O105  1  0.26610000  0.07050000  0.13112000  1.0 -0.6353340512
O  O106  1  0.80440000  0.73390000  0.13112000  1.0 -0.6353340512
O  O107  1  0.73390000  0.80440000  0.63112000  1.0 -0.6353340512
O  O108  1  0.19560000  0.92950000  0.63112000  1.0 -0.6353340512
O  O109  1  0.07050000  0.26610000  0.63112000  1.0 -0.6353340512
O  O110  1  0.07050000  0.80440000  0.86888000  1.0 -0.6353340512
O  O111  1  0.73390000  0.92950000  0.86888000  1.0 -0.6353340512
O  O112  1  0.19560000  0.26610000  0.86888000  1.0 -0.6353340512
O  O113  1  0.17310000  0.61560000  0.53409000  1.0 -0.7805219656
O  O114  1  0.38440000  0.55750000  0.53409000  1.0 -0.7805219656
O  O115  1  0.44250000  0.82690000  0.53409000  1.0 -0.7805219656
O  O116  1  0.44250000  0.61560000  0.96591000  1.0 -0.7805219656
O  O117  1  0.17310000  0.55750000  0.96591000  1.0 -0.7805219656
O  O118  1  0.38440000  0.82690000  0.96591000  1.0 -0.7805219656
O  O119  1  0.82690000  0.38440000  0.46591000  1.0 -0.7805219656
O  O120  1  0.61560000  0.44250000  0.46591000  1.0 -0.7805219656
O  O121  1  0.55750000  0.17310000  0.46591000  1.0 -0.7805219656
O  O122  1  0.55750000  0.38440000  0.03409000  1.0 -0.7805219656
O  O123  1  0.82690000  0.44250000  0.03409000  1.0 -0.7805219656
O  O124  1  0.61560000  0.17310000  0.03409000  1.0 -0.7805219656
F  F1  1  0.12340000  0.06170000  0.25000000  1.0 -0.5731027291
F  F2  1  0.93830000  0.06170000  0.25000000  1.0 -0.5731027291
F  F3  1  0.93830000  0.87660000  0.25000000  1.0 -0.5731027291
F  F4  1  0.87660000  0.93830000  0.75000000  1.0 -0.5731027291
F  F5  1  0.06170000  0.93830000  0.75000000  1.0 -0.5731027291
F  F6  1  0.06170000  0.12340000  0.75000000  1.0 -0.5731027291
