# DDEC6 charges by PACMAN v1.1 (https://github.com/mtap-research/PACMAN-charge/)
data_LEWTUD_FSR_pacman
_symmetry_space_group_name_H-M   'P 1'
_cell_length_a   12.76970000
_cell_length_b   12.76970000
_cell_length_c   15.04400000
_cell_angle_alpha   55.34210000
_cell_angle_beta   124.65800000
_cell_angle_gamma   133.43900000
_symmetry_Int_Tables_number   1
_chemical_formula_structural   Co2H9C11NO7
_chemical_formula_sum   'Co8 H36 C44 N4 O28'
_cell_volume   1398.86512913
_cell_formula_units_Z   4
loop_
 _symmetry_equiv_pos_site_id
 _symmetry_equiv_pos_as_xyz
  1  'x, y, z'
loop_
 _atom_site_type_symbol
 _atom_site_label
 _atom_site_symmetry_multiplicity
 _atom_site_fract_x
 _atom_site_fract_y
 _atom_site_fract_z
 _atom_site_occupancy
 _atom_site_charge
Co  Co1  1  0.03322000  0.52118000  0.89730000  1.0 0.9416537718
Co  Co2  1  0.52118000  0.03322000  0.60270000  1.0 0.9416537718
Co  Co3  1  0.96678000  0.47882000  0.10270000  1.0 0.9416537718
Co  Co4  1  0.47882000  0.96678000  0.39730000  1.0 0.9416537718
Co  Co5  1  0.75056000  0.31814000  0.26546000  1.0 0.9664919064
Co  Co6  1  0.31814000  0.75056000  0.23454000  1.0 0.9664919064
Co  Co7  1  0.24944000  0.68186000  0.73454000  1.0 0.9664919064
Co  Co8  1  0.68186000  0.24944000  0.76546000  1.0 0.9664919064
H  H1  1  0.14510000  0.10390000  0.15170000  1.0 0.141908674
H  H2  1  0.10390000  0.14510000  0.34830000  1.0 0.141908674
H  H3  1  0.85490000  0.89610000  0.84830000  1.0 0.141908674
H  H4  1  0.89610000  0.85490000  0.65170000  1.0 0.141908674
H  H5  1  0.00180000  0.20860000  0.04240000  1.0 0.1099468865
H  H6  1  0.20860000  0.00180000  0.45760000  1.0 0.1099468865
H  H7  1  0.99820000  0.79140000  0.95760000  1.0 0.1099468865
H  H8  1  0.79140000  0.99820000  0.54240000  1.0 0.1099468865
H  H9  1  0.36230000  0.61330000  0.01840000  1.0 0.1099468865
H  H10  1  0.61330000  0.36230000  0.48160000  1.0 0.1099468865
H  H11  1  0.63770000  0.38670000  0.98160000  1.0 0.1099468865
H  H12  1  0.38670000  0.63770000  0.51840000  1.0 0.1099468865
H  H13  1  0.51370000  0.51750000  0.12490000  1.0 0.141908674
H  H14  1  0.51750000  0.51370000  0.37510000  1.0 0.141908674
H  H15  1  0.48630000  0.48250000  0.87510000  1.0 0.141908674
H  H16  1  0.48250000  0.48630000  0.62490000  1.0 0.141908674
H  H17  1  0.85380000  0.18080000  0.74440000  1.0 0.1229876228
H  H18  1  0.18080000  0.85380000  0.75560000  1.0 0.1229876228
H  H19  1  0.14620000  0.81920000  0.25560000  1.0 0.1229876228
H  H20  1  0.81920000  0.14620000  0.24440000  1.0 0.1229876228
H  H21  1  0.97650000  0.35850000  0.60080000  1.0 0.1330479034
H  H22  1  0.35850000  0.97650000  0.89920000  1.0 0.1330479034
H  H23  1  0.02350000  0.64150000  0.39920000  1.0 0.1330479034
H  H24  1  0.64150000  0.02350000  0.10080000  1.0 0.1330479034
H  H25  1  0.91120000  0.18660000  0.66130000  1.0 0.1229876228
H  H26  1  0.18660000  0.91120000  0.83870000  1.0 0.1229876228
H  H27  1  0.08880000  0.81340000  0.33870000  1.0 0.1229876228
H  H28  1  0.81340000  0.08880000  0.16130000  1.0 0.1229876228
H  H29  1  0.85350000  0.41090000  0.53270000  1.0 0.1330479034
H  H30  1  0.41090000  0.85350000  0.96730000  1.0 0.1330479034
H  H31  1  0.14650000  0.58910000  0.46730000  1.0 0.1330479034
H  H32  1  0.58910000  0.14650000  0.03270000  1.0 0.1330479034
H  H33  1  0.97690000  0.37410000  0.59330000  1.0 0.1330479034
H  H34  1  0.37410000  0.97690000  0.90670000  1.0 0.1330479034
H  H35  1  0.02310000  0.62590000  0.40670000  1.0 0.1330479034
H  H36  1  0.62590000  0.02310000  0.09330000  1.0 0.1330479034
C  C1  1  0.44560000  0.23660000  0.22220000  1.0 0.58437237
C  C2  1  0.23660000  0.44560000  0.27780000  1.0 0.58437237
C  C3  1  0.55440000  0.76340000  0.77780000  1.0 0.58437237
C  C4  1  0.76340000  0.55440000  0.72220000  1.0 0.58437237
C  C5  1  0.34580000  0.29960000  0.15080000  1.0 0.008381207
C  C6  1  0.29960000  0.34580000  0.34920000  1.0 0.008381207
C  C7  1  0.65420000  0.70040000  0.84920000  1.0 0.008381207
C  C8  1  0.70040000  0.65420000  0.65080000  1.0 0.008381207
C  C9  1  0.19200000  0.20840000  0.12490000  1.0 -0.1629309072
C  C10  1  0.20840000  0.19200000  0.37510000  1.0 -0.1629309072
C  C11  1  0.80800000  0.79160000  0.87510000  1.0 -0.1629309072
C  C12  1  0.79160000  0.80800000  0.62490000  1.0 -0.1629309072
C  C13  1  0.10640000  0.27260000  0.05840000  1.0 0.0719656433
C  C14  1  0.27260000  0.10640000  0.44160000  1.0 0.0719656433
C  C15  1  0.89360000  0.72740000  0.94160000  1.0 0.0719656433
C  C16  1  0.72740000  0.89360000  0.55840000  1.0 0.0719656433
C  C17  1  0.31700000  0.50920000  0.04400000  1.0 0.0719656433
C  C18  1  0.50920000  0.31700000  0.45600000  1.0 0.0719656433
C  C19  1  0.68300000  0.49080000  0.95600000  1.0 0.0719656433
C  C20  1  0.49080000  0.68300000  0.54400000  1.0 0.0719656433
C  C21  1  0.40940000  0.45220000  0.10950000  1.0 -0.1460828199
C  C22  1  0.45220000  0.40940000  0.39050000  1.0 -0.1460828199
C  C23  1  0.59060000  0.54780000  0.89050000  1.0 -0.1460828199
C  C24  1  0.54780000  0.59060000  0.60950000  1.0 -0.1460828199
C  C25  1  0.96760000  0.37660000  0.75190000  1.0 0.5257882164
C  C26  1  0.37660000  0.96760000  0.74810000  1.0 0.5248057729
C  C27  1  0.03240000  0.62340000  0.24810000  1.0 0.5248057729
C  C28  1  0.62340000  0.03240000  0.25190000  1.0 0.5248057729
C  C29  1  0.84550000  0.26570000  0.68130000  1.0 0.0719656433
C  C30  1  0.26570000  0.84550000  0.81870000  1.0 0.0719656433
C  C31  1  0.15450000  0.73430000  0.31870000  1.0 0.0719656433
C  C32  1  0.73430000  0.15450000  0.18130000  1.0 0.0719656433
C  C33  1  0.88440000  0.26160000  0.61480000  1.0 -0.2284787312
C  C34  1  0.26160000  0.88440000  0.88520000  1.0 -0.2284787312
C  C35  1  0.11560000  0.73840000  0.38520000  1.0 -0.2284787312
C  C36  1  0.73840000  0.11560000  0.11480000  1.0 -0.2284787312
C  C37  1  0.78080000  0.23060000  0.50290000  1.0 0.5598966763
C  C38  1  0.23060000  0.78080000  0.99710000  1.0 0.5598966763
C  C39  1  0.21920000  0.76940000  0.49710000  1.0 0.5598966763
C  C40  1  0.76940000  0.21920000  0.00290000  1.0 0.5598966763
C  C41  1  0.87070000  0.32910000  0.57740000  1.0 -0.2284787312
C  C42  1  0.32910000  0.87070000  0.92260000  1.0 -0.2284787312
C  C43  1  0.12930000  0.67090000  0.42260000  1.0 -0.2284787312
C  C44  1  0.67090000  0.12930000  0.07740000  1.0 -0.2284787312
N  N1  1  0.16600000  0.42160000  0.01600000  1.0 -0.2492668308
N  N2  1  0.42160000  0.16600000  0.48400000  1.0 -0.2492668308
N  N3  1  0.83400000  0.57840000  0.98400000  1.0 -0.2492668308
N  N4  1  0.57840000  0.83400000  0.51600000  1.0 -0.2492668308
O  O1  1  0.38850000  0.10150000  0.27990000  1.0 -0.54432282
O  O2  1  0.10150000  0.38850000  0.22010000  1.0 -0.54432282
O  O3  1  0.61150000  0.89850000  0.72010000  1.0 -0.54432282
O  O4  1  0.89850000  0.61150000  0.77990000  1.0 -0.54432282
O  O5  1  0.57870000  0.32970000  0.21690000  1.0 -0.5800248697
O  O6  1  0.32970000  0.57870000  0.28310000  1.0 -0.5800248697
O  O7  1  0.42130000  0.67030000  0.78310000  1.0 -0.5800248697
O  O8  1  0.67030000  0.42130000  0.71690000  1.0 -0.5800248697
O  O9  1  0.91835000  0.38785000  0.79620000  1.0 -0.5683174148
O  O10  1  0.38785000  0.91835000  0.70380000  1.0 -0.5683174148
O  O11  1  0.08165000  0.61215000  0.20380000  1.0 -0.5683174148
O  O12  1  0.61215000  0.08165000  0.29620000  1.0 -0.5683174148
O  O13  1  0.10300000  0.44960000  0.76030000  1.0 -0.5308886483
O  O14  1  0.44960000  0.10300000  0.73970000  1.0 -0.5308886483
O  O15  1  0.89700000  0.55040000  0.23970000  1.0 -0.5308886483
O  O16  1  0.55040000  0.89700000  0.26030000  1.0 -0.5308886483
O  O17  1  0.69871000  0.20009000  0.67570000  1.0 -0.5991423144
O  O18  1  0.20009000  0.69871000  0.82430000  1.0 -0.5991423144
O  O19  1  0.30129000  0.79991000  0.32430000  1.0 -0.5991423144
O  O20  1  0.79991000  0.30129000  0.17570000  1.0 -0.5991423144
O  O21  1  0.84140000  0.28380000  0.43300000  1.0 -0.54432282
O  O22  1  0.28380000  0.84140000  0.06700000  1.0 -0.54432282
O  O23  1  0.15860000  0.71620000  0.56700000  1.0 -0.54432282
O  O24  1  0.71620000  0.15860000  0.93300000  1.0 -0.54432282
O  O25  1  0.64186000  0.12114000  0.49720000  1.0 -0.5683174148
O  O26  1  0.12114000  0.64186000  0.00280000  1.0 -0.5683174148
O  O27  1  0.35814000  0.87886000  0.50280000  1.0 -0.5683174148
O  O28  1  0.87886000  0.35814000  0.99720000  1.0 -0.5683174148
