# DDEC6 charges by PACMAN v1.1 (https://github.com/mtap-research/PACMAN-charge/)
data_LEWTUD01_FSR_pacman
_symmetry_space_group_name_H-M   'P 1'
_cell_length_a   12.78480000
_cell_length_b   12.78480000
_cell_length_c   14.98510000
_cell_angle_alpha   54.96140000
_cell_angle_beta   125.03900000
_cell_angle_gamma   133.82100000
_symmetry_Int_Tables_number   1
_chemical_formula_structural   Co2H10C12NO7
_chemical_formula_sum   'Co8 H40 C48 N4 O28'
_cell_volume   1380.75929277
_cell_formula_units_Z   4
loop_
 _symmetry_equiv_pos_site_id
 _symmetry_equiv_pos_as_xyz
  1  'x, y, z'
loop_
 _atom_site_type_symbol
 _atom_site_label
 _atom_site_symmetry_multiplicity
 _atom_site_fract_x
 _atom_site_fract_y
 _atom_site_fract_z
 _atom_site_occupancy
 _atom_site_charge
Co  Co1  1  0.03333000  0.52203000  0.89778000  1.0 0.8891647903
Co  Co2  1  0.52203000  0.03333000  0.60222000  1.0 0.8891647903
Co  Co3  1  0.96667000  0.47797000  0.10222000  1.0 0.8891647903
Co  Co4  1  0.47797000  0.96667000  0.39778000  1.0 0.8891647903
Co  Co5  1  0.74942000  0.31846000  0.26375000  1.0 0.8783231077
Co  Co6  1  0.31846000  0.74942000  0.23625000  1.0 0.8783231077
Co  Co7  1  0.25058000  0.68154000  0.73625000  1.0 0.8783231077
Co  Co8  1  0.68154000  0.25058000  0.76375000  1.0 0.8783231077
H  H1  1  0.14080000  0.10040000  0.15540000  1.0 0.1298924981
H  H2  1  0.10040000  0.14080000  0.34460000  1.0 0.1298924981
H  H3  1  0.85920000  0.89960000  0.84460000  1.0 0.1298924981
H  H4  1  0.89960000  0.85920000  0.65540000  1.0 0.1298924981
H  H5  1  0.99640000  0.20600000  0.03950000  1.0 0.1123588921
H  H6  1  0.20600000  0.99640000  0.46050000  1.0 0.1123588921
H  H7  1  0.00360000  0.79400000  0.96050000  1.0 0.1123588921
H  H8  1  0.79400000  0.00360000  0.53950000  1.0 0.1123588921
H  H9  1  0.36320000  0.61720000  0.02080000  1.0 0.0975924915
H  H10  1  0.61720000  0.36320000  0.47920000  1.0 0.0975924915
H  H11  1  0.63680000  0.38280000  0.97920000  1.0 0.0975924915
H  H12  1  0.38280000  0.63680000  0.52080000  1.0 0.0975924915
H  H13  1  0.51630000  0.52190000  0.12820000  1.0 0.1367768792
H  H14  1  0.52190000  0.51630000  0.37180000  1.0 0.1367768792
H  H15  1  0.48370000  0.47810000  0.87180000  1.0 0.1367768792
H  H16  1  0.47810000  0.48370000  0.62820000  1.0 0.1367768792
H  H17  1  0.86220000  0.16200000  0.74190000  1.0 0.0885439979
H  H18  1  0.16200000  0.86220000  0.75810000  1.0 0.0885439979
H  H19  1  0.13780000  0.83800000  0.25810000  1.0 0.0885439979
H  H20  1  0.83800000  0.13780000  0.24190000  1.0 0.0885439979
H  H21  1  0.87390000  0.41610000  0.54110000  1.0 0.1123588921
H  H22  1  0.41610000  0.87390000  0.95890000  1.0 0.1123588921
H  H23  1  0.12610000  0.58390000  0.45890000  1.0 0.1123588921
H  H24  1  0.58390000  0.12610000  0.04110000  1.0 0.1123588921
H  H25  1  0.98870000  0.36470000  0.60070000  1.0 0.0885439979
H  H26  1  0.36470000  0.98870000  0.89930000  1.0 0.0885439979
H  H27  1  0.01130000  0.63530000  0.39930000  1.0 0.0885439979
H  H28  1  0.63530000  0.01130000  0.10070000  1.0 0.0885439979
H  H29  1  0.83370000  0.39350000  0.58350000  1.0 0.0975924915
H  H30  1  0.39350000  0.83370000  0.91650000  1.0 0.0975924915
H  H31  1  0.16630000  0.60650000  0.41650000  1.0 0.0975924915
H  H32  1  0.60650000  0.16630000  0.08350000  1.0 0.0975924915
H  H33  1  0.99120000  0.31500000  0.62710000  1.0 0.0885439979
H  H34  1  0.31500000  0.99120000  0.87290000  1.0 0.0885439979
H  H35  1  0.00880000  0.68500000  0.37290000  1.0 0.0885439979
H  H36  1  0.68500000  0.00880000  0.12710000  1.0 0.0885439979
H  H37  1  0.86400000  0.14480000  0.67830000  1.0 0.0975924915
H  H38  1  0.14480000  0.86400000  0.82170000  1.0 0.0975924915
H  H39  1  0.13600000  0.85520000  0.32170000  1.0 0.0975924915
H  H40  1  0.85520000  0.13600000  0.17830000  1.0 0.0975924915
C  C1  1  0.44450000  0.23630000  0.22270000  1.0 0.5704315005
C  C2  1  0.23630000  0.44450000  0.27730000  1.0 0.5704315005
C  C3  1  0.55550000  0.76370000  0.77730000  1.0 0.5704315005
C  C4  1  0.76370000  0.55550000  0.72270000  1.0 0.5704315005
C  C5  1  0.34520000  0.29940000  0.15230000  1.0 0.0229233548
C  C6  1  0.29940000  0.34520000  0.34770000  1.0 0.0229233548
C  C7  1  0.65480000  0.70060000  0.84770000  1.0 0.0229233548
C  C8  1  0.70060000  0.65480000  0.65230000  1.0 0.0229233548
C  C9  1  0.18940000  0.20780000  0.12640000  1.0 -0.1621778833
C  C10  1  0.20780000  0.18940000  0.37360000  1.0 -0.1621778833
C  C11  1  0.81060000  0.79220000  0.87360000  1.0 -0.1621778833
C  C12  1  0.79220000  0.81060000  0.62640000  1.0 -0.1621778833
C  C13  1  0.10390000  0.27150000  0.05840000  1.0 0.0573557445
C  C14  1  0.27150000  0.10390000  0.44160000  1.0 0.0573557445
C  C15  1  0.89610000  0.72850000  0.94160000  1.0 0.0573557445
C  C16  1  0.72850000  0.89610000  0.55840000  1.0 0.0573557445
C  C17  1  0.31690000  0.51030000  0.04640000  1.0 0.0573557445
C  C18  1  0.51030000  0.31690000  0.45360000  1.0 0.0573557445
C  C19  1  0.68310000  0.48970000  0.95360000  1.0 0.0573557445
C  C20  1  0.48970000  0.68310000  0.54640000  1.0 0.0573557445
C  C21  1  0.40920000  0.45420000  0.11150000  1.0 -0.1401749479
C  C22  1  0.45420000  0.40920000  0.38850000  1.0 -0.1401749479
C  C23  1  0.59080000  0.54580000  0.88850000  1.0 -0.1401749479
C  C24  1  0.54580000  0.59080000  0.61150000  1.0 -0.1401749479
C  C25  1  0.96900000  0.37600000  0.75420000  1.0 0.429363787
C  C26  1  0.37600000  0.96900000  0.74580000  1.0 0.429363787
C  C27  1  0.03100000  0.62400000  0.24580000  1.0 0.429363787
C  C28  1  0.62400000  0.03100000  0.25420000  1.0 0.429363787
C  C29  1  0.84900000  0.24960000  0.69470000  1.0 0.0798515321
C  C30  1  0.24960000  0.84900000  0.80530000  1.0 0.0798515321
C  C31  1  0.15100000  0.75040000  0.30530000  1.0 0.0798515321
C  C32  1  0.75040000  0.15100000  0.19470000  1.0 0.0798515321
C  C33  1  0.88190000  0.32650000  0.58260000  1.0 -0.1726448985
C  C34  1  0.32650000  0.88190000  0.91740000  1.0 -0.1726448985
C  C35  1  0.11810000  0.67350000  0.41740000  1.0 -0.1726448985
C  C36  1  0.67350000  0.11810000  0.08260000  1.0 -0.1726448985
C  C37  1  0.78200000  0.23220000  0.50130000  1.0 0.4786977617
C  C38  1  0.23220000  0.78200000  0.99870000  1.0 0.4786977617
C  C39  1  0.21800000  0.76780000  0.49870000  1.0 0.4786977617
C  C40  1  0.76780000  0.21800000  0.00130000  1.0 0.4786977617
C  C41  1  0.84160000  0.30820000  0.65190000  1.0 0.0573557445
C  C42  1  0.30820000  0.84160000  0.84810000  1.0 0.0573557445
C  C43  1  0.15840000  0.69180000  0.34810000  1.0 0.0573557445
C  C44  1  0.69180000  0.15840000  0.15190000  1.0 0.0573557445
C  C45  1  0.88250000  0.24570000  0.62320000  1.0 -0.1621778833
C  C46  1  0.24570000  0.88250000  0.87680000  1.0 -0.1621778833
C  C47  1  0.11750000  0.75430000  0.37680000  1.0 -0.1621778833
C  C48  1  0.75430000  0.11750000  0.12320000  1.0 -0.1621778833
N  N1  1  0.16570000  0.42170000  0.01790000  1.0 -0.2552585008
N  N2  1  0.42170000  0.16570000  0.48210000  1.0 -0.2552585008
N  N3  1  0.83430000  0.57830000  0.98210000  1.0 -0.2545970382
N  N4  1  0.57830000  0.83430000  0.51790000  1.0 -0.2552585008
O  O1  1  0.38576000  0.09924000  0.27970000  1.0 -0.5642770829
O  O2  1  0.09924000  0.38576000  0.22030000  1.0 -0.5642770829
O  O3  1  0.61424000  0.90076000  0.72030000  1.0 -0.5642770829
O  O4  1  0.90076000  0.61424000  0.77970000  1.0 -0.5642770829
O  O5  1  0.57713000  0.33047000  0.21550000  1.0 -0.5770684334
O  O6  1  0.33047000  0.57713000  0.28450000  1.0 -0.5770684334
O  O7  1  0.42287000  0.66953000  0.78450000  1.0 -0.5770684334
O  O8  1  0.66953000  0.42287000  0.71550000  1.0 -0.5770684334
O  O9  1  0.91974000  0.38966000  0.79580000  1.0 -0.5270585122
O  O10  1  0.38966000  0.91974000  0.70420000  1.0 -0.5270585122
O  O11  1  0.08026000  0.61034000  0.20420000  1.0 -0.5270585122
O  O12  1  0.61034000  0.08026000  0.29580000  1.0 -0.5270585122
O  O13  1  0.10550000  0.44790000  0.76430000  1.0 -0.4862993884
O  O14  1  0.44790000  0.10550000  0.73570000  1.0 -0.4862993884
O  O15  1  0.89450000  0.55210000  0.23570000  1.0 -0.4862993884
O  O16  1  0.55210000  0.89450000  0.26430000  1.0 -0.4862993884
O  O17  1  0.70035000  0.20125000  0.67490000  1.0 -0.4452929499
O  O18  1  0.20125000  0.70035000  0.82510000  1.0 -0.4452929499
O  O19  1  0.29965000  0.79875000  0.32510000  1.0 -0.4452929499
O  O20  1  0.79875000  0.29965000  0.17490000  1.0 -0.4452929499
O  O21  1  0.64315000  0.12305000  0.49670000  1.0 -0.5512960704
O  O22  1  0.12305000  0.64315000  0.00330000  1.0 -0.5512960704
O  O23  1  0.35685000  0.87695000  0.50330000  1.0 -0.5512960704
O  O24  1  0.87695000  0.35685000  0.99670000  1.0 -0.5512960704
O  O25  1  0.84510000  0.28730000  0.43180000  1.0 -0.5270585122
O  O26  1  0.28730000  0.84510000  0.06820000  1.0 -0.5270585122
O  O27  1  0.15490000  0.71270000  0.56820000  1.0 -0.5270585122
O  O28  1  0.71270000  0.15490000  0.93180000  1.0 -0.5270585122
