# DDEC6 charges by PACMAN v1.1 (https://github.com/mtap-research/PACMAN-charge/)
data_LEYVAQ_ASR_pacman
_symmetry_space_group_name_H-M   'P 1'
_cell_length_a   11.92600000
_cell_length_b   9.73230000
_cell_length_c   21.36860000
_cell_angle_alpha   90.00000000
_cell_angle_beta   103.77200000
_cell_angle_gamma   90.00000000
_symmetry_Int_Tables_number   1
_chemical_formula_structural   CuH10C20(N2O3)3
_chemical_formula_sum   'Cu4 H40 C80 N24 O36'
_cell_volume   2408.89417795
_cell_formula_units_Z   4
loop_
 _symmetry_equiv_pos_site_id
 _symmetry_equiv_pos_as_xyz
  1  'x, y, z'
loop_
 _atom_site_type_symbol
 _atom_site_label
 _atom_site_symmetry_multiplicity
 _atom_site_fract_x
 _atom_site_fract_y
 _atom_site_fract_z
 _atom_site_occupancy
 _atom_site_charge
Cu  Cu1  1  0.08999000  0.35704000  0.97156000  1.0 0.7859745876
Cu  Cu2  1  0.08999000  0.14296000  0.47156000  1.0 0.7859745876
Cu  Cu3  1  0.91001000  0.85704000  0.52844000  1.0 0.7859745876
Cu  Cu4  1  0.91001000  0.64296000  0.02844000  1.0 0.7859745876
H  H1  1  0.98339000  0.14240000  0.04061000  1.0 0.1112062515
H  H2  1  0.98339000  0.35760000  0.54061000  1.0 0.1112062515
H  H3  1  0.45848000  0.57784000  0.08304000  1.0 0.1435753998
H  H4  1  0.45848000  0.92216000  0.58304000  1.0 0.1435753998
H  H5  1  0.82196000  0.00993000  0.02598000  1.0 0.1477846711
H  H6  1  0.82196000  0.49007000  0.52598000  1.0 0.1477846711
H  H7  1  0.72044000  0.16314000  0.84843000  1.0 0.1435753998
H  H8  1  0.72044000  0.33686000  0.34843000  1.0 0.1435753998
H  H9  1  0.30947000  0.43039000  0.07070000  1.0 0.1175108955
H  H10  1  0.30947000  0.06961000  0.57070000  1.0 0.1175108955
H  H11  1  0.88365000  0.29077000  0.86851000  1.0 0.1175108955
H  H12  1  0.88365000  0.20923000  0.36851000  1.0 0.1175108955
H  H13  1  0.32314000  0.72539000  0.90765000  1.0 0.1477846711
H  H14  1  0.32314000  0.77461000  0.40765000  1.0 0.1477846711
H  H15  1  0.04272000  0.99479000  0.68210000  1.0 0.1435753998
H  H16  1  0.04272000  0.50521000  0.18210000  1.0 0.1477846711
H  H17  1  0.20866000  0.34387000  0.67240000  1.0 0.1477846711
H  H18  1  0.20866000  0.15613000  0.17240000  1.0 0.1477846711
H  H19  1  0.17243000  0.57869000  0.90093000  1.0 0.1112062515
H  H20  1  0.17243000  0.92131000  0.40093000  1.0 0.1112062515
H  H21  1  0.01661000  0.64240000  0.45939000  1.0 0.1112062515
H  H22  1  0.01661000  0.85760000  0.95939000  1.0 0.1112062515
H  H23  1  0.54152000  0.07784000  0.41696000  1.0 0.1435753998
H  H24  1  0.54152000  0.42216000  0.91696000  1.0 0.1435753998
H  H25  1  0.17804000  0.50993000  0.47402000  1.0 0.1477846711
H  H26  1  0.17804000  0.99007000  0.97402000  1.0 0.1477846711
H  H27  1  0.27956000  0.66314000  0.65157000  1.0 0.1435753998
H  H28  1  0.27956000  0.83686000  0.15157000  1.0 0.1435753998
H  H29  1  0.69053000  0.93039000  0.42930000  1.0 0.1175108955
H  H30  1  0.69053000  0.56961000  0.92930000  1.0 0.1175108955
H  H31  1  0.11635000  0.79077000  0.63149000  1.0 0.1175108955
H  H32  1  0.11635000  0.70923000  0.13149000  1.0 0.1175108955
H  H33  1  0.67686000  0.22539000  0.59235000  1.0 0.1477846711
H  H34  1  0.67686000  0.27461000  0.09235000  1.0 0.1477846711
H  H35  1  0.95728000  0.49479000  0.81790000  1.0 0.1435753998
H  H36  1  0.95728000  0.00521000  0.31790000  1.0 0.1435753998
H  H37  1  0.79134000  0.84387000  0.82760000  1.0 0.1477846711
H  H38  1  0.79134000  0.65613000  0.32760000  1.0 0.1477846711
H  H39  1  0.82757000  0.07869000  0.59907000  1.0 0.1112062515
H  H40  1  0.82757000  0.42131000  0.09907000  1.0 0.1112062515
C  C1  1  0.15510000  0.23260000  0.86920000  1.0 0.5602483407
C  C2  1  0.15510000  0.26740000  0.36920000  1.0 0.5602483407
C  C3  1  0.14560000  0.20850000  0.79800000  1.0 -0.0717445358
C  C4  1  0.14560000  0.29150000  0.29800000  1.0 -0.0717445358
C  C5  1  0.75160000  0.07080000  0.93610000  1.0 0.0509215674
C  C6  1  0.75160000  0.42920000  0.43610000  1.0 0.0509215674
C  C7  1  0.10640000  0.14520000  0.59560000  1.0 0.5409356014
C  C8  1  0.10640000  0.35480000  0.09560000  1.0 0.5409356014
C  C9  1  0.41110000  0.66690000  0.99600000  1.0 0.1013895863
C  C10  1  0.41110000  0.83310000  0.49600000  1.0 0.1013895863
C  C11  1  0.64350000  0.98740000  0.92210000  1.0 0.4101063789
C  C12  1  0.64350000  0.51260000  0.42210000  1.0 0.4101063789
C  C13  1  0.51430000  0.75680000  0.00510000  1.0 0.0607898415
C  C14  1  0.51430000  0.74320000  0.50510000  1.0 0.0607898415
C  C15  1  0.09100000  0.09380000  0.76760000  1.0 0.0607898415
C  C16  1  0.09100000  0.40620000  0.26760000  1.0 0.0607898415
C  C17  1  0.92900000  0.14810000  0.00150000  1.0 0.0795027942
C  C18  1  0.92900000  0.35190000  0.50150000  1.0 0.0795027942
C  C19  1  0.12290000  0.16870000  0.66610000  1.0 0.0103125122
C  C20  1  0.12290000  0.33130000  0.16610000  1.0 0.0103125122
C  C21  1  0.40190000  0.57790000  0.04470000  1.0 -0.16900703
C  C22  1  0.40190000  0.92210000  0.54470000  1.0 -0.16900703
C  C23  1  0.18970000  0.30100000  0.76220000  1.0 0.0509215674
C  C24  1  0.18970000  0.19900000  0.26220000  1.0 0.0509215674
C  C25  1  0.83230000  0.06710000  0.99290000  1.0 -0.1420214965
C  C26  1  0.83230000  0.43290000  0.49290000  1.0 -0.1420214965
C  C27  1  0.77260000  0.15770000  0.88830000  1.0 -0.1474002531
C  C28  1  0.77260000  0.34230000  0.38830000  1.0 -0.1474002531
C  C29  1  0.31170000  0.49070000  0.03730000  1.0 0.073884669
C  C30  1  0.31170000  0.00930000  0.53730000  1.0 0.073884669
C  C31  1  0.87050000  0.23410000  0.90110000  1.0 0.0795027942
C  C32  1  0.87050000  0.26590000  0.40110000  1.0 0.0795027942
C  C33  1  0.32220000  0.66600000  0.94160000  1.0 -0.1602023325
C  C34  1  0.32220000  0.83400000  0.44160000  1.0 -0.1602023325
C  C35  1  0.07960000  0.07310000  0.70190000  1.0 -0.1287027977
C  C36  1  0.07960000  0.42690000  0.20190000  1.0 -0.1287027977
C  C37  1  0.17790000  0.27990000  0.69600000  1.0 -0.1287027977
C  C38  1  0.17790000  0.22010000  0.19600000  1.0 -0.1287027977
C  C39  1  0.23220000  0.57650000  0.93790000  1.0 0.0940699608
C  C40  1  0.23220000  0.92350000  0.43790000  1.0 0.0940699608
C  C41  1  0.84490000  0.73260000  0.63080000  1.0 0.5602483407
C  C42  1  0.84490000  0.76740000  0.13080000  1.0 0.5602483407
C  C43  1  0.85440000  0.70850000  0.70200000  1.0 -0.0717445358
C  C44  1  0.85440000  0.79150000  0.20200000  1.0 -0.0717445358
C  C45  1  0.24840000  0.57080000  0.56390000  1.0 0.0509215674
C  C46  1  0.24840000  0.92920000  0.06390000  1.0 0.0509215674
C  C47  1  0.89360000  0.64520000  0.90440000  1.0 0.5409356014
C  C48  1  0.89360000  0.85480000  0.40440000  1.0 0.5409356014
C  C49  1  0.58890000  0.16690000  0.50400000  1.0 0.1013895863
C  C50  1  0.58890000  0.33310000  0.00400000  1.0 0.1013895863
C  C51  1  0.35650000  0.48740000  0.57790000  1.0 0.4101063789
C  C52  1  0.35650000  0.01260000  0.07790000  1.0 0.4101063789
C  C53  1  0.48570000  0.25680000  0.49490000  1.0 0.0509215674
C  C54  1  0.48570000  0.24320000  0.99490000  1.0 0.0607898415
C  C55  1  0.90900000  0.59380000  0.73240000  1.0 0.0607898415
C  C56  1  0.90900000  0.90620000  0.23240000  1.0 0.0607898415
C  C57  1  0.07100000  0.64810000  0.49850000  1.0 0.0795027942
C  C58  1  0.07100000  0.85190000  0.99850000  1.0 0.0795027942
C  C59  1  0.87710000  0.66870000  0.83390000  1.0 0.0103125122
C  C60  1  0.87710000  0.83130000  0.33390000  1.0 0.0103125122
C  C61  1  0.59810000  0.07790000  0.45530000  1.0 -0.16900703
C  C62  1  0.59810000  0.42210000  0.95530000  1.0 -0.16900703
C  C63  1  0.81030000  0.80100000  0.73780000  1.0 0.0509215674
C  C64  1  0.81030000  0.69900000  0.23780000  1.0 0.0509215674
C  C65  1  0.16770000  0.56710000  0.50710000  1.0 -0.1420214965
C  C66  1  0.16770000  0.93290000  0.00710000  1.0 -0.1420214965
C  C67  1  0.22740000  0.65770000  0.61170000  1.0 -0.1474002531
C  C68  1  0.22740000  0.84230000  0.11170000  1.0 -0.1474002531
C  C69  1  0.68830000  0.99070000  0.46270000  1.0 0.073884669
C  C70  1  0.68830000  0.50930000  0.96270000  1.0 0.073884669
C  C71  1  0.12950000  0.73410000  0.59890000  1.0 0.0795027942
C  C72  1  0.12950000  0.76590000  0.09890000  1.0 0.0795027942
C  C73  1  0.67780000  0.16600000  0.55840000  1.0 -0.1602023325
C  C74  1  0.67780000  0.33400000  0.05840000  1.0 -0.1602023325
C  C75  1  0.92040000  0.57310000  0.79810000  1.0 -0.1287027977
C  C76  1  0.92040000  0.92690000  0.29810000  1.0 -0.1287027977
C  C77  1  0.82210000  0.77990000  0.80400000  1.0 -0.1287027977
C  C78  1  0.82210000  0.72010000  0.30400000  1.0 -0.1287027977
C  C79  1  0.76780000  0.07650000  0.56210000  1.0 0.0940699608
C  C80  1  0.76780000  0.42350000  0.06210000  1.0 0.0940699608
N  N1  1  0.94950000  0.23360000  0.95738000  1.0 -0.2190270318
N  N2  1  0.94950000  0.26640000  0.45738000  1.0 -0.2190270318
N  N3  1  0.22460000  0.48660000  0.98371000  1.0 -0.2138058885
N  N4  1  0.22460000  0.01340000  0.48371000  1.0 -0.2138058885
N  N5  1  0.62430000  0.90980000  0.96900000  1.0 -0.3090466007
N  N6  1  0.62430000  0.59020000  0.46900000  1.0 -0.3090466007
N  N7  1  0.52480000  0.83110000  0.95700000  1.0 0.0103125122
N  N8  1  0.52480000  0.66890000  0.45700000  1.0 0.0103125122
N  N9  1  0.26710000  0.41240000  0.79280000  1.0 0.5006021515
N  N10  1  0.26710000  0.08760000  0.29280000  1.0 0.5006021515
N  N11  1  0.07100000  0.97350000  0.80760000  1.0 0.5295305506
N  N12  1  0.07100000  0.52650000  0.30760000  1.0 0.5295305506
N  N13  1  0.05050000  0.73360000  0.54262000  1.0 -0.2190270318
N  N14  1  0.05050000  0.76640000  0.04262000  1.0 -0.2190270318
N  N15  1  0.77540000  0.98660000  0.51629000  1.0 -0.2138058885
N  N16  1  0.77540000  0.51340000  0.01629000  1.0 -0.2138058885
N  N17  1  0.37570000  0.40980000  0.53100000  1.0 -0.3090466007
N  N18  1  0.37570000  0.09020000  0.03100000  1.0 -0.3090466007
N  N19  1  0.47520000  0.33110000  0.54300000  1.0 0.0103125122
N  N20  1  0.47520000  0.16890000  0.04300000  1.0 0.0103125122
N  N21  1  0.73290000  0.91240000  0.70720000  1.0 0.5006021515
N  N22  1  0.73290000  0.58760000  0.20720000  1.0 0.5006021515
N  N23  1  0.92900000  0.47350000  0.69240000  1.0 0.5295305506
N  N24  1  0.92900000  0.02650000  0.19240000  1.0 0.5295305506
O  O1  1  0.09610000  0.32930000  0.88207000  1.0 -0.5103231415
O  O2  1  0.09610000  0.17070000  0.38207000  1.0 -0.5103231415
O  O3  1  0.04620000  0.05400000  0.56650000  1.0 -0.5353294804
O  O4  1  0.04620000  0.44600000  0.06650000  1.0 -0.5353294804
O  O5  1  0.22030000  0.15820000  0.90860000  1.0 -0.4977010532
O  O6  1  0.22030000  0.34180000  0.40860000  1.0 -0.4977010532
O  O7  1  0.57690000  0.99820000  0.87010000  1.0 -0.4155832871
O  O8  1  0.57690000  0.50180000  0.37010000  1.0 -0.4149691208
O  O9  1  0.32360000  0.39950000  0.84730000  1.0 -0.2492040589
O  O10  1  0.32360000  0.10050000  0.34730000  1.0 -0.2492040589
O  O11  1  0.29000000  0.51230000  0.76450000  1.0 -0.2492040589
O  O12  1  0.29000000  0.98770000  0.26450000  1.0 -0.2492040589
O  O13  1  0.15650000  0.22870000  0.56632000  1.0 -0.5103231415
O  O14  1  0.15650000  0.27130000  0.06632000  1.0 -0.5103231415
O  O15  1  0.02530000  0.00150000  0.85060000  1.0 -0.2892020612
O  O16  1  0.02530000  0.49850000  0.35060000  1.0 -0.2892020612
O  O17  1  0.09850000  0.85210000  0.79360000  1.0 -0.3812439784
O  O18  1  0.09850000  0.64790000  0.29360000  1.0 -0.3812439784
O  O19  1  0.90390000  0.82930000  0.61793000  1.0 -0.5151772841
O  O20  1  0.90390000  0.67070000  0.11793000  1.0 -0.5151772841
O  O21  1  0.95380000  0.55400000  0.93350000  1.0 -0.5353294804
O  O22  1  0.95380000  0.94600000  0.43350000  1.0 -0.5353294804
O  O23  1  0.77970000  0.65820000  0.59140000  1.0 -0.4977010532
O  O24  1  0.77970000  0.84180000  0.09140000  1.0 -0.4977010532
O  O25  1  0.42310000  0.49820000  0.62990000  1.0 -0.4155832871
O  O26  1  0.42310000  0.00180000  0.12990000  1.0 -0.4149691208
O  O27  1  0.67640000  0.89950000  0.65270000  1.0 -0.2492040589
O  O28  1  0.67640000  0.60050000  0.15270000  1.0 -0.2492040589
O  O29  1  0.71000000  0.01230000  0.73550000  1.0 -0.2492040589
O  O30  1  0.71000000  0.48770000  0.23550000  1.0 -0.2492040589
O  O31  1  0.84350000  0.72870000  0.93368000  1.0 -0.5103231415
O  O32  1  0.84350000  0.77130000  0.43368000  1.0 -0.5103231415
O  O33  1  0.97470000  0.50150000  0.64940000  1.0 -0.2892020612
O  O34  1  0.97470000  0.99850000  0.14940000  1.0 -0.2892020612
O  O35  1  0.90150000  0.35210000  0.70640000  1.0 -0.3812439784
O  O36  1  0.90150000  0.14790000  0.20640000  1.0 -0.3812439784
