# DDEC6 charges by PACMAN v1.1 (https://github.com/mtap-research/PACMAN-charge/)
data_LEZQAM_FSR_pacman
_symmetry_space_group_name_H-M   'P 1'
_cell_length_a   14.76000000
_cell_length_b   14.76000000
_cell_length_c   12.26800000
_cell_angle_alpha   90.00000000
_cell_angle_beta   90.00000000
_cell_angle_gamma   120.00000000
_symmetry_Int_Tables_number   1
_chemical_formula_structural   InH8C16(O2F)4
_chemical_formula_sum   'In3 H24 C48 O24 F12'
_cell_volume   2314.60620998
_cell_formula_units_Z   3
loop_
 _symmetry_equiv_pos_site_id
 _symmetry_equiv_pos_as_xyz
  1  'x, y, z'
loop_
 _atom_site_type_symbol
 _atom_site_label
 _atom_site_symmetry_multiplicity
 _atom_site_fract_x
 _atom_site_fract_y
 _atom_site_fract_z
 _atom_site_occupancy
 _atom_site_charge
In  In1  1  0.50000000  0.00000000  0.00000000  1.0 1.3216470835
In  In2  1  0.50000000  0.50000000  0.66666667  1.0 1.3216470835
In  In3  1  0.00000000  0.50000000  0.33333333  1.0 1.3216470835
H  H1  1  0.65698000  0.27919000  0.26130000  1.0 0.1302009133
H  H2  1  0.34661000  0.12822000  0.25667000  1.0 0.2061047114
H  H3  1  0.62221000  0.34302000  0.92796000  1.0 0.1302009133
H  H4  1  0.78161000  0.65339000  0.92333000  1.0 0.2061047114
H  H5  1  0.72081000  0.37779000  0.59463000  1.0 0.1302009133
H  H6  1  0.87178000  0.21839000  0.59000000  1.0 0.2061047114
H  H7  1  0.34302000  0.72081000  0.26130000  1.0 0.1302009133
H  H8  1  0.65339000  0.87178000  0.25667000  1.0 0.2061047114
H  H9  1  0.37779000  0.65698000  0.92796000  1.0 0.1302009133
H  H10  1  0.21839000  0.34661000  0.92333000  1.0 0.2061047114
H  H11  1  0.27919000  0.62221000  0.59463000  1.0 0.1302009133
H  H12  1  0.12822000  0.78161000  0.59000000  1.0 0.2061047114
H  H13  1  0.37779000  0.72081000  0.73870000  1.0 0.1302009133
H  H14  1  0.21839000  0.87178000  0.74333000  1.0 0.2061047114
H  H15  1  0.27919000  0.65698000  0.07204000  1.0 0.1302009133
H  H16  1  0.12822000  0.34661000  0.07667000  1.0 0.2061047114
H  H17  1  0.34302000  0.62221000  0.40537000  1.0 0.1302009133
H  H18  1  0.65339000  0.78161000  0.41000000  1.0 0.2061047114
H  H19  1  0.62221000  0.27919000  0.73870000  1.0 0.1302009133
H  H20  1  0.78161000  0.12822000  0.74333000  1.0 0.2061047114
H  H21  1  0.72081000  0.34302000  0.07204000  1.0 0.1302009133
H  H22  1  0.87178000  0.65339000  0.07667000  1.0 0.2061047114
H  H23  1  0.65698000  0.37779000  0.40537000  1.0 0.1302009133
H  H24  1  0.34661000  0.21839000  0.41000000  1.0 0.2061047114
C  C1  1  0.50410000  0.12850000  0.14967000  1.0 0.5375645913
C  C2  1  0.50380000  0.19330000  0.24457000  1.0 -0.0664826435
C  C3  1  0.40960000  0.17690000  0.28837000  1.0 0.0535283921
C  C4  1  0.59370000  0.26750000  0.28997000  1.0 -0.1005277664
C  C5  1  0.62440000  0.49590000  0.81633000  1.0 0.5375645913
C  C6  1  0.68950000  0.49620000  0.91123000  1.0 -0.0664826435
C  C7  1  0.76730000  0.59040000  0.95503000  1.0 0.0535283921
C  C8  1  0.67380000  0.40630000  0.95663000  1.0 -0.1005277664
C  C9  1  0.87150000  0.37560000  0.48300000  1.0 0.5375645913
C  C10  1  0.80670000  0.31050000  0.57790000  1.0 -0.0664826435
C  C11  1  0.82310000  0.23270000  0.62170000  1.0 0.0535283921
C  C12  1  0.73250000  0.32620000  0.62330000  1.0 -0.1005277664
C  C13  1  0.49590000  0.87150000  0.14967000  1.0 0.5375645913
C  C14  1  0.49620000  0.80670000  0.24457000  1.0 -0.0664826435
C  C15  1  0.59040000  0.82310000  0.28837000  1.0 0.0535283921
C  C16  1  0.40630000  0.73250000  0.28997000  1.0 -0.1005277664
C  C17  1  0.37560000  0.50410000  0.81633000  1.0 0.5375645913
C  C18  1  0.31050000  0.50380000  0.91123000  1.0 -0.0664826435
C  C19  1  0.23270000  0.40960000  0.95503000  1.0 0.0535283921
C  C20  1  0.32620000  0.59370000  0.95663000  1.0 -0.1005277664
C  C21  1  0.12850000  0.62440000  0.48300000  1.0 0.5375645913
C  C22  1  0.19330000  0.68950000  0.57790000  1.0 -0.0664826435
C  C23  1  0.17690000  0.76730000  0.62170000  1.0 0.0535283921
C  C24  1  0.26750000  0.67380000  0.62330000  1.0 -0.1005277664
C  C25  1  0.37560000  0.87150000  0.85033000  1.0 0.5375645913
C  C26  1  0.31050000  0.80670000  0.75543000  1.0 -0.0664826435
C  C27  1  0.23270000  0.82310000  0.71163000  1.0 0.0535283921
C  C28  1  0.32620000  0.73250000  0.71003000  1.0 -0.1005277664
C  C29  1  0.12850000  0.50410000  0.18367000  1.0 0.5375645913
C  C30  1  0.19330000  0.50380000  0.08877000  1.0 -0.0664826435
C  C31  1  0.17690000  0.40960000  0.04497000  1.0 0.0535283921
C  C32  1  0.26750000  0.59370000  0.04337000  1.0 -0.1005277664
C  C33  1  0.49590000  0.62440000  0.51700000  1.0 0.5375645913
C  C34  1  0.49620000  0.68950000  0.42210000  1.0 -0.0664826435
C  C35  1  0.59040000  0.76730000  0.37830000  1.0 0.0535283921
C  C36  1  0.40630000  0.67380000  0.37670000  1.0 -0.1005277664
C  C37  1  0.62440000  0.12850000  0.85033000  1.0 0.5375645913
C  C38  1  0.68950000  0.19330000  0.75543000  1.0 -0.0664826435
C  C39  1  0.76730000  0.17690000  0.71163000  1.0 0.0535283921
C  C40  1  0.67380000  0.26750000  0.71003000  1.0 -0.1005277664
C  C41  1  0.87150000  0.49590000  0.18367000  1.0 0.5375645913
C  C42  1  0.80670000  0.49620000  0.08877000  1.0 -0.0664826435
C  C43  1  0.82310000  0.59040000  0.04497000  1.0 0.0535283921
C  C44  1  0.73250000  0.40630000  0.04337000  1.0 -0.1005277664
C  C45  1  0.50410000  0.37560000  0.51700000  1.0 0.5375645913
C  C46  1  0.50380000  0.31050000  0.42210000  1.0 -0.0664826435
C  C47  1  0.40960000  0.23270000  0.37830000  1.0 0.0535283921
C  C48  1  0.59370000  0.32620000  0.37670000  1.0 -0.1005277664
O  O1  1  0.58600000  0.13010000  0.12597000  1.0 -0.5023569209
O  O2  1  0.42150000  0.07160000  0.09847000  1.0 -0.4879152817
O  O3  1  0.54410000  0.41400000  0.79263000  1.0 -0.5023569209
O  O4  1  0.65010000  0.57850000  0.76513000  1.0 -0.4879152817
O  O5  1  0.86990000  0.45590000  0.45930000  1.0 -0.5023569209
O  O6  1  0.92840000  0.34990000  0.43180000  1.0 -0.4879152817
O  O7  1  0.41400000  0.86990000  0.12597000  1.0 -0.5023569209
O  O8  1  0.57850000  0.92840000  0.09847000  1.0 -0.4879152817
O  O9  1  0.45590000  0.58600000  0.79263000  1.0 -0.5023569209
O  O10  1  0.34990000  0.42150000  0.76513000  1.0 -0.4879152817
O  O11  1  0.13010000  0.54410000  0.45930000  1.0 -0.5023569209
O  O12  1  0.07160000  0.65010000  0.43180000  1.0 -0.4879152817
O  O13  1  0.45590000  0.86990000  0.87403000  1.0 -0.5023569209
O  O14  1  0.34990000  0.92840000  0.90153000  1.0 -0.4879152817
O  O15  1  0.13010000  0.58600000  0.20737000  1.0 -0.5023569209
O  O16  1  0.07160000  0.42150000  0.23487000  1.0 -0.4879152817
O  O17  1  0.41400000  0.54410000  0.54070000  1.0 -0.5023569209
O  O18  1  0.57850000  0.65010000  0.56820000  1.0 -0.4879152817
O  O19  1  0.54410000  0.13010000  0.87403000  1.0 -0.5023569209
O  O20  1  0.65010000  0.07160000  0.90153000  1.0 -0.4879152817
O  O21  1  0.86990000  0.41400000  0.20737000  1.0 -0.5023569209
O  O22  1  0.92840000  0.57850000  0.23487000  1.0 -0.4879152817
O  O23  1  0.58600000  0.45590000  0.54070000  1.0 -0.5023569209
O  O24  1  0.42150000  0.34990000  0.56820000  1.0 -0.4879152817
F  F1  1  0.31610000  0.10240000  0.25797000  1.0 -0.1005277664
F  F2  1  0.78630000  0.68390000  0.92463000  1.0 -0.1005277664
F  F3  1  0.89760000  0.21370000  0.59130000  1.0 -0.1005277664
F  F4  1  0.68390000  0.89760000  0.25797000  1.0 -0.1005277664
F  F5  1  0.21370000  0.31610000  0.92463000  1.0 -0.1005277664
F  F6  1  0.10240000  0.78630000  0.59130000  1.0 -0.1005277664
F  F7  1  0.21370000  0.89760000  0.74203000  1.0 -0.1005277664
F  F8  1  0.10240000  0.31610000  0.07537000  1.0 -0.1005277664
F  F9  1  0.68390000  0.78630000  0.40870000  1.0 -0.1005277664
F  F10  1  0.78630000  0.10240000  0.74203000  1.0 -0.1005277664
F  F11  1  0.89760000  0.68390000  0.07537000  1.0 -0.1005277664
F  F12  1  0.31610000  0.21370000  0.40870000  1.0 -0.1005277664
