# DDEC6 charges by PACMAN v1.1 (https://github.com/mtap-research/PACMAN-charge/)
data_LEZXAR_ion_pacman
_symmetry_space_group_name_H-M   'P 1'
_cell_length_a   19.62440000
_cell_length_b   19.62440000
_cell_length_c   19.62440000
_cell_angle_alpha   50.23630000
_cell_angle_beta   50.23630000
_cell_angle_gamma   50.23630000
_symmetry_Int_Tables_number   1
_chemical_formula_structural   Yb3H21W12C21N6O67
_chemical_formula_sum   'Yb6 H42 W24 C42 N12 O134'
_cell_volume   4111.89493807
_cell_formula_units_Z   2
loop_
 _symmetry_equiv_pos_site_id
 _symmetry_equiv_pos_as_xyz
  1  'x, y, z'
loop_
 _atom_site_type_symbol
 _atom_site_label
 _atom_site_symmetry_multiplicity
 _atom_site_fract_x
 _atom_site_fract_y
 _atom_site_fract_z
 _atom_site_occupancy
 _atom_site_charge
Yb  Yb1  1  0.73483000  0.19584000  0.30795000  1.0 2.1509738042
Yb  Yb2  1  0.19584000  0.30795000  0.73483000  1.0 2.1509738042
Yb  Yb3  1  0.30795000  0.73483000  0.19584000  1.0 2.1509738042
Yb  Yb4  1  0.23483000  0.80795000  0.69584000  1.0 2.1553025796
Yb  Yb5  1  0.69584000  0.23483000  0.80795000  1.0 2.1509738042
Yb  Yb6  1  0.80795000  0.69584000  0.23483000  1.0 2.1509738042
H  H1  1  0.54400000  0.47070000  0.90340000  1.0 0.146625996
H  H2  1  0.47070000  0.90340000  0.54400000  1.0 0.146625996
H  H3  1  0.90340000  0.54400000  0.47070000  1.0 0.146625996
H  H4  1  0.04400000  0.40340000  0.97070000  1.0 0.146625996
H  H5  1  0.97070000  0.04400000  0.40340000  1.0 0.146625996
H  H6  1  0.40340000  0.97070000  0.04400000  1.0 0.146625996
H  H7  1  0.69640000  0.28850000  0.06430000  1.0 0.146625996
H  H8  1  0.28850000  0.06430000  0.69640000  1.0 0.146625996
H  H9  1  0.06430000  0.69640000  0.28850000  1.0 0.146625996
H  H10  1  0.19640000  0.56430000  0.78850000  1.0 0.146625996
H  H11  1  0.78850000  0.19640000  0.56430000  1.0 0.146625996
H  H12  1  0.56430000  0.78850000  0.19640000  1.0 0.146625996
H  H13  1  0.46710000  0.53120000  0.10010000  1.0 0.146625996
H  H14  1  0.53120000  0.10010000  0.46710000  1.0 0.146625996
H  H15  1  0.10010000  0.46710000  0.53120000  1.0 0.146625996
H  H16  1  0.96710000  0.60010000  0.03120000  1.0 0.146625996
H  H17  1  0.03120000  0.96710000  0.60010000  1.0 0.146625996
H  H18  1  0.60010000  0.03120000  0.96710000  1.0 0.146625996
H  H19  1  0.49500000  0.12110000  0.80160000  1.0 0.3277427558
H  H20  1  0.43670000  0.22660000  0.79670000  1.0 0.3383461241
H  H21  1  0.41010000  0.14200000  0.89440000  1.0 0.3238977645
H  H22  1  0.50600000  0.14990000  0.85150000  1.0 0.3238977645
H  H23  1  0.12110000  0.80160000  0.49500000  1.0 0.3277427558
H  H24  1  0.22660000  0.79670000  0.43670000  1.0 0.3383461241
H  H25  1  0.14200000  0.89440000  0.41010000  1.0 0.3238977645
H  H26  1  0.14990000  0.85150000  0.50600000  1.0 0.3238977645
H  H27  1  0.80160000  0.49500000  0.12110000  1.0 0.3277427558
H  H28  1  0.79670000  0.43670000  0.22660000  1.0 0.3383461241
H  H29  1  0.89440000  0.41010000  0.14200000  1.0 0.3238977645
H  H30  1  0.85150000  0.50600000  0.14990000  1.0 0.3238977645
H  H31  1  0.99500000  0.30160000  0.62110000  1.0 0.3277427558
H  H32  1  0.93670000  0.29670000  0.72660000  1.0 0.3383461241
H  H33  1  0.91010000  0.39440000  0.64200000  1.0 0.3238977645
H  H34  1  0.00600000  0.35150000  0.64990000  1.0 0.3238977645
H  H35  1  0.62110000  0.99500000  0.30160000  1.0 0.3277427558
H  H36  1  0.72660000  0.93670000  0.29670000  1.0 0.3383461241
H  H37  1  0.64200000  0.91010000  0.39440000  1.0 0.3238977645
H  H38  1  0.64990000  0.00600000  0.35150000  1.0 0.3238977645
H  H39  1  0.30160000  0.62110000  0.99500000  1.0 0.3277427558
H  H40  1  0.29670000  0.72660000  0.93670000  1.0 0.3383461241
H  H41  1  0.39440000  0.64200000  0.91010000  1.0 0.3238977645
H  H42  1  0.35150000  0.64990000  0.00600000  1.0 0.3238977645
W  W1  1  0.76131000  0.77818000  0.54979000  1.0 2.4189071808
W  W2  1  0.77818000  0.54979000  0.76131000  1.0 2.4189071808
W  W3  1  0.54979000  0.76131000  0.77818000  1.0 2.4189071808
W  W4  1  0.26131000  0.04979000  0.27818000  1.0 2.4189071808
W  W5  1  0.27818000  0.26131000  0.04979000  1.0 2.4189071808
W  W6  1  0.04979000  0.27818000  0.26131000  1.0 2.4189071808
W  W7  1  0.93555000  0.79320000  0.52325000  1.0 2.4030503823
W  W8  1  0.79320000  0.52325000  0.93555000  1.0 2.4030503823
W  W9  1  0.52325000  0.93555000  0.79320000  1.0 2.4030503823
W  W10  1  0.43555000  0.02325000  0.29320000  1.0 2.4030503823
W  W11  1  0.29320000  0.43555000  0.02325000  1.0 2.4054039075
W  W12  1  0.02325000  0.29320000  0.43555000  1.0 2.4030503823
W  W13  1  0.71930000  0.96548000  0.55504000  1.0 2.4585417662
W  W14  1  0.96548000  0.55504000  0.71930000  1.0 2.4585417662
W  W15  1  0.55504000  0.71930000  0.96548000  1.0 2.4585417662
W  W16  1  0.21930000  0.05504000  0.46548000  1.0 2.4585417662
W  W17  1  0.46548000  0.21930000  0.05504000  1.0 2.4585417662
W  W18  1  0.05504000  0.46548000  0.21930000  1.0 2.4585417662
W  W19  1  0.73250000  0.94078000  0.74852000  1.0 2.3630861992
W  W20  1  0.94078000  0.74852000  0.73250000  1.0 2.3630861992
W  W21  1  0.74852000  0.73250000  0.94078000  1.0 2.3630861992
W  W22  1  0.23250000  0.24852000  0.44078000  1.0 2.3630861992
W  W23  1  0.44078000  0.23250000  0.24852000  1.0 2.3630861992
W  W24  1  0.24852000  0.44078000  0.23250000  1.0 2.3630861992
C  C1  1  0.59240000  0.40720000  0.08950000  1.0 -0.0182277551
C  C2  1  0.40720000  0.08950000  0.59240000  1.0 -0.0182277551
C  C3  1  0.08950000  0.59240000  0.40720000  1.0 -0.0182277551
C  C4  1  0.09240000  0.58950000  0.90720000  1.0 -0.0182277551
C  C5  1  0.90720000  0.09240000  0.58950000  1.0 -0.0182277551
C  C6  1  0.58950000  0.90720000  0.09240000  1.0 -0.0182277551
C  C7  1  0.62790000  0.37130000  0.97380000  1.0 -0.0290347216
C  C8  1  0.37130000  0.97380000  0.62790000  1.0 -0.0290347216
C  C9  1  0.97380000  0.62790000  0.37130000  1.0 -0.0290347216
C  C10  1  0.12790000  0.47380000  0.87130000  1.0 -0.0290347216
C  C11  1  0.87130000  0.12790000  0.47380000  1.0 -0.0290347216
C  C12  1  0.47380000  0.87130000  0.12790000  1.0 -0.0290347216
C  C13  1  0.55310000  0.45060000  0.95730000  1.0 0.0520641907
C  C14  1  0.45060000  0.95730000  0.55310000  1.0 0.0520641907
C  C15  1  0.95730000  0.55310000  0.45060000  1.0 0.0520641907
C  C16  1  0.05310000  0.45730000  0.95060000  1.0 0.0520641907
C  C17  1  0.95060000  0.05310000  0.45730000  1.0 0.0520641907
C  C18  1  0.45730000  0.95060000  0.05310000  1.0 0.0520641907
C  C19  1  0.64560000  0.34790000  0.04550000  1.0 -0.0425381297
C  C20  1  0.34790000  0.04550000  0.64560000  1.0 -0.0425381297
C  C21  1  0.04550000  0.64560000  0.34790000  1.0 -0.0425381297
C  C22  1  0.14560000  0.54550000  0.84790000  1.0 -0.0425381297
C  C23  1  0.84790000  0.14560000  0.54550000  1.0 -0.0425381297
C  C24  1  0.54550000  0.84790000  0.14560000  1.0 -0.0425381297
C  C25  1  0.51110000  0.48860000  0.06690000  1.0 0.083647665
C  C26  1  0.48860000  0.06690000  0.51110000  1.0 0.083647665
C  C27  1  0.06690000  0.51110000  0.48860000  1.0 0.083647665
C  C28  1  0.01110000  0.56690000  0.98860000  1.0 0.083647665
C  C29  1  0.98860000  0.01110000  0.56690000  1.0 0.083647665
C  C30  1  0.56690000  0.98860000  0.01110000  1.0 0.083647665
C  C31  1  0.68930000  0.30230000  0.92530000  1.0 0.6372889831
C  C32  1  0.30230000  0.92530000  0.68930000  1.0 0.6372889831
C  C33  1  0.92530000  0.68930000  0.30230000  1.0 0.6372889831
C  C34  1  0.18930000  0.42530000  0.80230000  1.0 0.6372889831
C  C35  1  0.80230000  0.18930000  0.42530000  1.0 0.6372889831
C  C36  1  0.42530000  0.80230000  0.18930000  1.0 0.6372889831
C  C37  1  0.60830000  0.38290000  0.17020000  1.0 0.6306636486
C  C38  1  0.38290000  0.17020000  0.60830000  1.0 0.6306636486
C  C39  1  0.17020000  0.60830000  0.38290000  1.0 0.6306636486
C  C40  1  0.10830000  0.67020000  0.88290000  1.0 0.6306636486
C  C41  1  0.88290000  0.10830000  0.67020000  1.0 0.6306636486
C  C42  1  0.67020000  0.88290000  0.10830000  1.0 0.6306636486
N  N1  1  0.48880000  0.50130000  0.00240000  1.0 -0.160405174
N  N2  1  0.50130000  0.00240000  0.48880000  1.0 -0.160405174
N  N3  1  0.00240000  0.48880000  0.50130000  1.0 -0.160405174
N  N4  1  0.98880000  0.50240000  0.00130000  1.0 -0.160405174
N  N5  1  0.00130000  0.98880000  0.50240000  1.0 -0.160405174
N  N6  1  0.50240000  0.00130000  0.98880000  1.0 -0.160405174
N  N7  1  0.46200000  0.15990000  0.83600000  1.0 -0.6388760752
N  N8  1  0.15990000  0.83600000  0.46200000  1.0 -0.6388760752
N  N9  1  0.83600000  0.46200000  0.15990000  1.0 -0.6388760752
N  N10  1  0.96200000  0.33600000  0.65990000  1.0 -0.6388760752
N  N11  1  0.65990000  0.96200000  0.33600000  1.0 -0.6388760752
N  N12  1  0.33600000  0.65990000  0.96200000  1.0 -0.6388760752
O  O1  1  0.96900000  0.65660000  0.60420000  1.0 -0.8014897452
O  O2  1  0.65660000  0.60420000  0.96900000  1.0 -0.8014897452
O  O3  1  0.60420000  0.96900000  0.65660000  1.0 -0.8014897452
O  O4  1  0.46900000  0.10420000  0.15660000  1.0 -0.8014897452
O  O5  1  0.15660000  0.46900000  0.10420000  1.0 -0.8014897452
O  O6  1  0.10420000  0.15660000  0.46900000  1.0 -0.8014897452
O  O7  1  0.78267000  0.78267000  0.78267000  1.0 -0.9180505247
O  O8  1  0.28267000  0.28267000  0.28267000  1.0 -0.9180505247
O  O9  1  0.71360000  0.92160000  0.49590000  1.0 -0.8199646121
O  O10  1  0.92160000  0.49590000  0.71360000  1.0 -0.8199646121
O  O11  1  0.49590000  0.71360000  0.92160000  1.0 -0.8199646121
O  O12  1  0.21360000  0.99590000  0.42160000  1.0 -0.8199646121
O  O13  1  0.42160000  0.21360000  0.99590000  1.0 -0.8199646121
O  O14  1  0.99590000  0.42160000  0.21360000  1.0 -0.8199646121
O  O15  1  0.70330000  0.04580000  0.74050000  1.0 -0.5215602265
O  O16  1  0.04580000  0.74050000  0.70330000  1.0 -0.5215602265
O  O17  1  0.74050000  0.70330000  0.04580000  1.0 -0.5215602265
O  O18  1  0.20330000  0.24050000  0.54580000  1.0 -0.5215602265
O  O19  1  0.54580000  0.20330000  0.24050000  1.0 -0.5215602265
O  O20  1  0.24050000  0.54580000  0.20330000  1.0 -0.5215602265
O  O21  1  0.94830000  0.79840000  0.60730000  1.0 -0.8279209679
O  O22  1  0.79840000  0.60730000  0.94830000  1.0 -0.8279209679
O  O23  1  0.60730000  0.94830000  0.79840000  1.0 -0.8279209679
O  O24  1  0.44830000  0.10730000  0.29840000  1.0 -0.8279209679
O  O25  1  0.29840000  0.44830000  0.10730000  1.0 -0.8279209679
O  O26  1  0.10730000  0.29840000  0.44830000  1.0 -0.8279209679
O  O27  1  0.04310000  0.79440000  0.42740000  1.0 -0.5419546213
O  O28  1  0.79440000  0.42740000  0.04310000  1.0 -0.5419546213
O  O29  1  0.42740000  0.04310000  0.79440000  1.0 -0.5419546213
O  O30  1  0.54310000  0.92740000  0.29440000  1.0 -0.5419546213
O  O31  1  0.29440000  0.54310000  0.92740000  1.0 -0.5419546213
O  O32  1  0.92740000  0.29440000  0.54310000  1.0 -0.5419546213
O  O33  1  0.88800000  0.77370000  0.47630000  1.0 -0.8418073104
O  O34  1  0.77370000  0.47630000  0.88800000  1.0 -0.8418073104
O  O35  1  0.47630000  0.88800000  0.77370000  1.0 -0.8418073104
O  O36  1  0.38800000  0.97630000  0.27370000  1.0 -0.8418073104
O  O37  1  0.27370000  0.38800000  0.97630000  1.0 -0.8418073104
O  O38  1  0.97630000  0.27370000  0.38800000  1.0 -0.8418073104
O  O39  1  0.68700000  0.11480000  0.30320000  1.0 -0.419001266
O  O40  1  0.11480000  0.30320000  0.68700000  1.0 -0.4258039938
O  O41  1  0.30320000  0.68700000  0.11480000  1.0 -0.419001266
O  O42  1  0.18700000  0.80320000  0.61480000  1.0 -0.4258039938
O  O43  1  0.61480000  0.18700000  0.80320000  1.0 -0.419001266
O  O44  1  0.80320000  0.61480000  0.18700000  1.0 -0.419001266
O  O45  1  0.70740000  0.34740000  0.28150000  1.0 -0.160405174
O  O46  1  0.34740000  0.28150000  0.70740000  1.0 -0.160405174
O  O47  1  0.28150000  0.70740000  0.34740000  1.0 -0.160405174
O  O48  1  0.20740000  0.78150000  0.84740000  1.0 -0.1708832057
O  O49  1  0.84740000  0.20740000  0.78150000  1.0 -0.1708832057
O  O50  1  0.78150000  0.84740000  0.20740000  1.0 -0.160405174
O  O51  1  0.86700000  0.05420000  0.29510000  1.0 -0.4032252179
O  O52  1  0.05420000  0.29510000  0.86700000  1.0 -0.4077759332
O  O53  1  0.29510000  0.86700000  0.05420000  1.0 -0.4077759332
O  O54  1  0.36700000  0.79510000  0.55420000  1.0 -0.4077759332
O  O55  1  0.55420000  0.36700000  0.79510000  1.0 -0.4077759332
O  O56  1  0.79510000  0.55420000  0.36700000  1.0 -0.4077759332
O  O57  1  0.86670000  0.88720000  0.71350000  1.0 -0.8199646121
O  O58  1  0.88720000  0.71350000  0.86670000  1.0 -0.8199646121
O  O59  1  0.71350000  0.86670000  0.88720000  1.0 -0.8199646121
O  O60  1  0.36670000  0.21350000  0.38720000  1.0 -0.8199646121
O  O61  1  0.38720000  0.36670000  0.21350000  1.0 -0.8199646121
O  O62  1  0.21350000  0.38720000  0.36670000  1.0 -0.8199646121
O  O63  1  0.86060000  0.92660000  0.47680000  1.0 -0.8085543758
O  O64  1  0.92660000  0.47680000  0.86060000  1.0 -0.8085543758
O  O65  1  0.47680000  0.86060000  0.92660000  1.0 -0.8085543758
O  O66  1  0.36060000  0.97680000  0.42660000  1.0 -0.8085543758
O  O67  1  0.42660000  0.36060000  0.97680000  1.0 -0.8085543758
O  O68  1  0.97680000  0.42660000  0.36060000  1.0 -0.8085543758
O  O69  1  0.66890000  0.30210000  0.19820000  1.0 -0.5864626453
O  O70  1  0.30210000  0.19820000  0.66890000  1.0 -0.5864626453
O  O71  1  0.19820000  0.66890000  0.30210000  1.0 -0.5849311994
O  O72  1  0.16890000  0.69820000  0.80210000  1.0 -0.5864626453
O  O73  1  0.80210000  0.16890000  0.69820000  1.0 -0.5864626453
O  O74  1  0.69820000  0.80210000  0.16890000  1.0 -0.5864626453
O  O75  1  0.69420000  0.08470000  0.46830000  1.0 -0.783607259
O  O76  1  0.08470000  0.46830000  0.69420000  1.0 -0.783607259
O  O77  1  0.46830000  0.69420000  0.08470000  1.0 -0.783607259
O  O78  1  0.19420000  0.96830000  0.58470000  1.0 -0.783607259
O  O79  1  0.58470000  0.19420000  0.96830000  1.0 -0.783607259
O  O80  1  0.96830000  0.58470000  0.19420000  1.0 -0.783607259
O  O81  1  0.66666667  0.32620000  0.86280000  1.0 -0.6264023231
O  O82  1  0.32620000  0.86280000  0.66666667  1.0 -0.6264023231
O  O83  1  0.86280000  0.66666667  0.32620000  1.0 -0.6249352739
O  O84  1  0.16670000  0.36280000  0.82620000  1.0 -0.6264023231
O  O85  1  0.82620000  0.16670000  0.36280000  1.0 -0.6264023231
O  O86  1  0.36280000  0.82620000  0.16670000  1.0 -0.6264023231
O  O87  1  0.57370000  0.26200000  0.39470000  1.0 -0.419001266
O  O88  1  0.26200000  0.39470000  0.57370000  1.0 -0.419001266
O  O89  1  0.39470000  0.57370000  0.26200000  1.0 -0.419001266
O  O90  1  0.07370000  0.89470000  0.76200000  1.0 -0.419001266
O  O91  1  0.76200000  0.07370000  0.89470000  1.0 -0.419001266
O  O92  1  0.89470000  0.76200000  0.07370000  1.0 -0.4077759332
O  O93  1  0.56740000  0.44320000  0.20480000  1.0 -0.3448351966
O  O94  1  0.44320000  0.20480000  0.56740000  1.0 -0.3458668516
O  O95  1  0.20480000  0.56740000  0.44320000  1.0 -0.3458668516
O  O96  1  0.06740000  0.70480000  0.94320000  1.0 -0.3458668516
O  O97  1  0.94320000  0.06740000  0.70480000  1.0 -0.3458668516
O  O98  1  0.70480000  0.94320000  0.06740000  1.0 -0.3458668516
O  O99  1  0.78390000  0.81190000  0.62170000  1.0 -0.9180505247
O  O100  1  0.81190000  0.62170000  0.78390000  1.0 -0.9180505247
O  O101  1  0.62170000  0.78390000  0.81190000  1.0 -0.9180505247
O  O102  1  0.28390000  0.12170000  0.31190000  1.0 -0.9180505247
O  O103  1  0.31190000  0.28390000  0.12170000  1.0 -0.9180505247
O  O104  1  0.12170000  0.31190000  0.28390000  1.0 -0.9180505247
O  O105  1  0.85730000  0.23150000  0.15810000  1.0 -0.3874867754
O  O106  1  0.23150000  0.15810000  0.85730000  1.0 -0.3874867754
O  O107  1  0.15810000  0.85730000  0.23150000  1.0 -0.3847047136
O  O108  1  0.35730000  0.65810000  0.73150000  1.0 -0.3874867754
O  O109  1  0.73150000  0.35730000  0.65810000  1.0 -0.3874867754
O  O110  1  0.65810000  0.73150000  0.35730000  1.0 -0.3847047136
O  O111  1  0.77310000  0.24270000  0.93140000  1.0 -0.4463267472
O  O112  1  0.24270000  0.93140000  0.77310000  1.0 -0.4463267472
O  O113  1  0.93140000  0.77310000  0.24270000  1.0 -0.4463267472
O  O114  1  0.27310000  0.43140000  0.74270000  1.0 -0.4463267472
O  O115  1  0.74270000  0.27310000  0.43140000  1.0 -0.4463267472
O  O116  1  0.43140000  0.74270000  0.27310000  1.0 -0.4463267472
O  O117  1  0.63390000  0.79900000  0.64870000  1.0 -0.8418073104
O  O118  1  0.79900000  0.64870000  0.63390000  1.0 -0.8418073104
O  O119  1  0.64870000  0.63390000  0.79900000  1.0 -0.8418073104
O  O120  1  0.13390000  0.14870000  0.29900000  1.0 -0.8418073104
O  O121  1  0.29900000  0.13390000  0.14870000  1.0 -0.8418073104
O  O122  1  0.14870000  0.29900000  0.13390000  1.0 -0.8418073104
O  O123  1  0.74710000  0.77600000  0.47270000  1.0 -0.6474515643
O  O124  1  0.77600000  0.47270000  0.74710000  1.0 -0.6474515643
O  O125  1  0.47270000  0.74710000  0.77600000  1.0 -0.6474515643
O  O126  1  0.24710000  0.97270000  0.27600000  1.0 -0.6474515643
O  O127  1  0.27600000  0.24710000  0.97270000  1.0 -0.6474515643
O  O128  1  0.97270000  0.27600000  0.24710000  1.0 -0.6474515643
O  O129  1  0.74670000  0.97110000  0.63260000  1.0 -0.783607259
O  O130  1  0.97110000  0.63260000  0.74670000  1.0 -0.783607259
O  O131  1  0.63260000  0.74670000  0.97110000  1.0 -0.783607259
O  O132  1  0.24670000  0.13260000  0.47110000  1.0 -0.783607259
O  O133  1  0.47110000  0.24670000  0.13260000  1.0 -0.783607259
O  O134  1  0.13260000  0.47110000  0.24670000  1.0 -0.783607259
