# DDEC6 charges by PACMAN v1.1 (https://github.com/mtap-research/PACMAN-charge/)
data_LIDNUL_ASR_pacman
_symmetry_space_group_name_H-M   'P 1'
_cell_length_a   9.62300000
_cell_length_b   12.31900000
_cell_length_c   31.67240000
_cell_angle_alpha   90.00000000
_cell_angle_beta   106.50400000
_cell_angle_gamma   90.00000000
_symmetry_Int_Tables_number   1
_chemical_formula_structural   CdH22C28(N3O2)2
_chemical_formula_sum   'Cd4 H88 C112 N24 O16'
_cell_volume   3599.93696844
_cell_formula_units_Z   4
loop_
 _symmetry_equiv_pos_site_id
 _symmetry_equiv_pos_as_xyz
  1  'x, y, z'
loop_
 _atom_site_type_symbol
 _atom_site_label
 _atom_site_symmetry_multiplicity
 _atom_site_fract_x
 _atom_site_fract_y
 _atom_site_fract_z
 _atom_site_occupancy
 _atom_site_charge
Cd  Cd1  1  0.69972000  0.05077000  0.53795000  1.0 0.8704855554
Cd  Cd2  1  0.30028000  0.05077000  0.96205000  1.0 0.8704855554
Cd  Cd3  1  0.30028000  0.94923000  0.46205000  1.0 0.8704855554
Cd  Cd4  1  0.69972000  0.94923000  0.03795000  1.0 0.8704855554
H  H1  1  0.98468000  0.06641000  0.69338000  1.0 0.1300185541
H  H2  1  0.01532000  0.06641000  0.80662000  1.0 0.1300185541
H  H3  1  0.01532000  0.93359000  0.30662000  1.0 0.1300185541
H  H4  1  0.98468000  0.93359000  0.19338000  1.0 0.1300185541
H  H5  1  0.19416000  0.08599000  0.75132000  1.0 0.1300185541
H  H6  1  0.80584000  0.08599000  0.74868000  1.0 0.1300185541
H  H7  1  0.80584000  0.91401000  0.24868000  1.0 0.1300185541
H  H8  1  0.19416000  0.91401000  0.25132000  1.0 0.1300185541
H  H9  1  0.41629000  0.17099000  0.66608000  1.0 0.1193213239
H  H10  1  0.58371000  0.17099000  0.83392000  1.0 0.1193213239
H  H11  1  0.58371000  0.82901000  0.33392000  1.0 0.1193213239
H  H12  1  0.41629000  0.82901000  0.16608000  1.0 0.1193213239
H  H13  1  0.19884000  0.15608000  0.60583000  1.0 0.1193213239
H  H14  1  0.80116000  0.15608000  0.89417000  1.0 0.1193213239
H  H15  1  0.80116000  0.84392000  0.39417000  1.0 0.1193213239
H  H16  1  0.19884000  0.84392000  0.10583000  1.0 0.1193213239
H  H17  1  0.79967000  0.15010000  0.40474000  1.0 0.1193213239
H  H18  1  0.20033000  0.15010000  0.09526000  1.0 0.1193213239
H  H19  1  0.20033000  0.84990000  0.59526000  1.0 0.1193213239
H  H20  1  0.79967000  0.84990000  0.90474000  1.0 0.1193213239
H  H21  1  0.77522000  0.17456000  0.32964000  1.0 0.1300185541
H  H22  1  0.22478000  0.17456000  0.17036000  1.0 0.1300185541
H  H23  1  0.22478000  0.82544000  0.67036000  1.0 0.1300185541
H  H24  1  0.77522000  0.82544000  0.82964000  1.0 0.1300185541
H  H25  1  0.35504000  0.07491000  0.30009000  1.0 0.1193213239
H  H26  1  0.64496000  0.07491000  0.19991000  1.0 0.1193213239
H  H27  1  0.64496000  0.92509000  0.69991000  1.0 0.1193213239
H  H28  1  0.35504000  0.92509000  0.80009000  1.0 0.1193213239
H  H29  1  0.38018000  0.04980000  0.37506000  1.0 0.1300185541
H  H30  1  0.61982000  0.04980000  0.12494000  1.0 0.1300185541
H  H31  1  0.61982000  0.95020000  0.62494000  1.0 0.1300185541
H  H32  1  0.38018000  0.95020000  0.87506000  1.0 0.1300185541
H  H33  1  0.90618000  0.92353000  0.49206000  1.0 0.1193213239
H  H34  1  0.09382000  0.92353000  0.00794000  1.0 0.1193213239
H  H35  1  0.09382000  0.07647000  0.50794000  1.0 0.1193213239
H  H36  1  0.90618000  0.07647000  0.99206000  1.0 0.1193213239
H  H37  1  0.04089000  0.76669000  0.49752000  1.0 0.1389346036
H  H38  1  0.95911000  0.76669000  0.00248000  1.0 0.1389346036
H  H39  1  0.95911000  0.23331000  0.50248000  1.0 0.1389346036
H  H40  1  0.04089000  0.23331000  0.99752000  1.0 0.1389346036
H  H41  1  0.84986000  0.65430000  0.58834000  1.0 0.1300185541
H  H42  1  0.15014000  0.65430000  0.91166000  1.0 0.1300185541
H  H43  1  0.15014000  0.34570000  0.41166000  1.0 0.1300185541
H  H44  1  0.84986000  0.34570000  0.08834000  1.0 0.1300185541
H  H45  1  0.71362000  0.81430000  0.57810000  1.0 0.1092341803
H  H46  1  0.28638000  0.81430000  0.92190000  1.0 0.1092341803
H  H47  1  0.28638000  0.18570000  0.42190000  1.0 0.1092341803
H  H48  1  0.71362000  0.18570000  0.07810000  1.0 0.1092341803
H  H49  1  0.07498000  0.50752000  0.60618000  1.0 0.1573114358
H  H50  1  0.92502000  0.50752000  0.89382000  1.0 0.1573114358
H  H51  1  0.92502000  0.49248000  0.39382000  1.0 0.1573114358
H  H52  1  0.07498000  0.49248000  0.10618000  1.0 0.1573114358
H  H53  1  0.91686000  0.49439000  0.57240000  1.0 0.1389346036
H  H54  1  0.08314000  0.49439000  0.92760000  1.0 0.1389346036
H  H55  1  0.08314000  0.50561000  0.42760000  1.0 0.1389346036
H  H56  1  0.91686000  0.50561000  0.07240000  1.0 0.1389346036
H  H57  1  0.05117000  0.42974000  0.56425000  1.0 0.1511355055
H  H58  1  0.94883000  0.42974000  0.93575000  1.0 0.1511355055
H  H59  1  0.94883000  0.57026000  0.43575000  1.0 0.1511355055
H  H60  1  0.05117000  0.57026000  0.06425000  1.0 0.1511355055
H  H61  1  0.38780000  0.66128000  0.58039000  1.0 0.1573114358
H  H62  1  0.61220000  0.66128000  0.91961000  1.0 0.1573114358
H  H63  1  0.61220000  0.33872000  0.41961000  1.0 0.1573114358
H  H64  1  0.38780000  0.33872000  0.08039000  1.0 0.1573114358
H  H65  1  0.54141000  0.60211000  0.58908000  1.0 0.1511355055
H  H66  1  0.45859000  0.60211000  0.91092000  1.0 0.1511355055
H  H67  1  0.45859000  0.39789000  0.41092000  1.0 0.1511355055
H  H68  1  0.54141000  0.39789000  0.08908000  1.0 0.1511355055
H  H69  1  0.46744000  0.65754000  0.54240000  1.0 0.1511355055
H  H70  1  0.53256000  0.65754000  0.95760000  1.0 0.1511355055
H  H71  1  0.53256000  0.34246000  0.45760000  1.0 0.1511355055
H  H72  1  0.46744000  0.34246000  0.04240000  1.0 0.1511355055
H  H73  1  0.64988000  0.47023000  0.54959000  1.0 0.1300185541
H  H74  1  0.35012000  0.47023000  0.95041000  1.0 0.1300185541
H  H75  1  0.35012000  0.52977000  0.45041000  1.0 0.1300185541
H  H76  1  0.64988000  0.52977000  0.04959000  1.0 0.1300185541
H  H77  1  0.75412000  0.30576000  0.54433000  1.0 0.1193213239
H  H78  1  0.24588000  0.30576000  0.95567000  1.0 0.1193213239
H  H79  1  0.24588000  0.69424000  0.45567000  1.0 0.1193213239
H  H80  1  0.75412000  0.69424000  0.04433000  1.0 0.1193213239
H  H81  1  0.40912000  0.14859000  0.55258000  1.0 0.1016524769
H  H82  1  0.59088000  0.14859000  0.94742000  1.0 0.1016524769
H  H83  1  0.59088000  0.85141000  0.44742000  1.0 0.1016524769
H  H84  1  0.40912000  0.85141000  0.05258000  1.0 0.1016524769
H  H85  1  0.29115000  0.31224000  0.55504000  1.0 0.1300185541
H  H86  1  0.70885000  0.31224000  0.94496000  1.0 0.1300185541
H  H87  1  0.70885000  0.68776000  0.44496000  1.0 0.1300185541
H  H88  1  0.29115000  0.68776000  0.05504000  1.0 0.1300185541
C  C1  1  0.93700000  0.09130000  0.60750000  1.0 0.5485405587
C  C2  1  0.06300000  0.09130000  0.89250000  1.0 0.5485405587
C  C3  1  0.06300000  0.90870000  0.39250000  1.0 0.5485405587
C  C4  1  0.93700000  0.90870000  0.10750000  1.0 0.5485405587
C  C5  1  0.07260000  0.10740000  0.64450000  1.0 -0.020275021
C  C6  1  0.92740000  0.10740000  0.85550000  1.0 -0.020275021
C  C7  1  0.92740000  0.89260000  0.35550000  1.0 -0.020275021
C  C8  1  0.07260000  0.89260000  0.14450000  1.0 -0.020275021
C  C9  1  0.07210000  0.08810000  0.68750000  1.0 -0.0921797653
C  C10  1  0.92790000  0.08810000  0.81250000  1.0 -0.0921797653
C  C11  1  0.92790000  0.91190000  0.31250000  1.0 -0.0921797653
C  C12  1  0.07210000  0.91190000  0.18750000  1.0 -0.0921797653
C  C13  1  0.19620000  0.09970000  0.72200000  1.0 -0.1544410432
C  C14  1  0.80380000  0.09970000  0.77800000  1.0 -0.1544410432
C  C15  1  0.80380000  0.90030000  0.27800000  1.0 -0.1544410432
C  C16  1  0.19620000  0.90030000  0.22200000  1.0 -0.1544410432
C  C17  1  0.32080000  0.13070000  0.71380000  1.0 0.1389346036
C  C18  1  0.67920000  0.13070000  0.78620000  1.0 0.1389346036
C  C19  1  0.67920000  0.86930000  0.28620000  1.0 0.1389346036
C  C20  1  0.32080000  0.86930000  0.21380000  1.0 0.1389346036
C  C21  1  0.32720000  0.15070000  0.67120000  1.0 -0.1544410432
C  C22  1  0.67280000  0.15070000  0.82880000  1.0 -0.1592509027
C  C23  1  0.67280000  0.84930000  0.32880000  1.0 -0.1544410432
C  C24  1  0.32720000  0.84930000  0.17120000  1.0 -0.1544410432
C  C25  1  0.19820000  0.14060000  0.63520000  1.0 -0.0921797653
C  C26  1  0.80180000  0.14060000  0.86480000  1.0 -0.0921797653
C  C27  1  0.80180000  0.85940000  0.36480000  1.0 -0.0921797653
C  C28  1  0.19820000  0.85940000  0.13520000  1.0 -0.0921797653
C  C29  1  0.60850000  0.07770000  0.44510000  1.0 0.5485405587
C  C30  1  0.39150000  0.07770000  0.05490000  1.0 0.5485405587
C  C31  1  0.39150000  0.92230000  0.55490000  1.0 0.5485405587
C  C32  1  0.60850000  0.92230000  0.94510000  1.0 0.5485405587
C  C33  1  0.59280000  0.09860000  0.39730000  1.0 -0.020275021
C  C34  1  0.40720000  0.09860000  0.10270000  1.0 -0.020275021
C  C35  1  0.40720000  0.90140000  0.60270000  1.0 -0.020275021
C  C36  1  0.59280000  0.90140000  0.89730000  1.0 -0.020275021
C  C37  1  0.70990000  0.13490000  0.38360000  1.0 -0.0921797653
C  C38  1  0.29010000  0.13490000  0.11640000  1.0 -0.0921797653
C  C39  1  0.29010000  0.86510000  0.61640000  1.0 -0.0921797653
C  C40  1  0.70990000  0.86510000  0.88360000  1.0 -0.0921797653
C  C41  1  0.69570000  0.14900000  0.33900000  1.0 -0.1592509027
C  C42  1  0.30430000  0.14900000  0.16100000  1.0 -0.1592509027
C  C43  1  0.30430000  0.85100000  0.66100000  1.0 -0.1592509027
C  C44  1  0.69570000  0.85100000  0.83900000  1.0 -0.1592509027
C  C45  1  0.56440000  0.12530000  0.30820000  1.0 0.1679878496
C  C46  1  0.43560000  0.12530000  0.19180000  1.0 0.1679878496
C  C47  1  0.43560000  0.87470000  0.69180000  1.0 0.1679878496
C  C48  1  0.56440000  0.87470000  0.80820000  1.0 0.1679878496
C  C49  1  0.44500000  0.08940000  0.32140000  1.0 -0.1592509027
C  C50  1  0.55500000  0.08940000  0.17860000  1.0 -0.1592509027
C  C51  1  0.55500000  0.91060000  0.67860000  1.0 -0.1592509027
C  C52  1  0.44500000  0.91060000  0.82140000  1.0 -0.1592509027
C  C53  1  0.45980000  0.07530000  0.36570000  1.0 -0.1019236334
C  C54  1  0.54020000  0.07530000  0.13430000  1.0 -0.1019236334
C  C55  1  0.54020000  0.92470000  0.63430000  1.0 -0.1019236334
C  C56  1  0.45980000  0.92470000  0.86570000  1.0 -0.1019236334
C  C57  1  0.89400000  0.86790000  0.51150000  1.0 0.0703995563
C  C58  1  0.10600000  0.86790000  0.98850000  1.0 0.0703995563
C  C59  1  0.10600000  0.13210000  0.48850000  1.0 0.0703995563
C  C60  1  0.89400000  0.13210000  0.01150000  1.0 0.0703995563
C  C61  1  0.97500000  0.77450000  0.51470000  1.0 -0.1592509027
C  C62  1  0.02500000  0.77450000  0.98530000  1.0 -0.1592509027
C  C63  1  0.02500000  0.22550000  0.48530000  1.0 -0.1592509027
C  C64  1  0.97500000  0.22550000  0.01470000  1.0 -0.1592509027
C  C65  1  0.96010000  0.69080000  0.54300000  1.0 0.0622847807
C  C66  1  0.03990000  0.69080000  0.95700000  1.0 0.0622847807
C  C67  1  0.03990000  0.30920000  0.45700000  1.0 0.0622847807
C  C68  1  0.96010000  0.30920000  0.04300000  1.0 0.0622847807
C  C69  1  0.86200000  0.70750000  0.56800000  1.0 -0.1978607513
C  C70  1  0.13800000  0.70750000  0.93200000  1.0 -0.1978607513
C  C71  1  0.13800000  0.29250000  0.43200000  1.0 -0.1978607513
C  C72  1  0.86200000  0.29250000  0.06800000  1.0 -0.1978607513
C  C73  1  0.78230000  0.80460000  0.56200000  1.0 0.0893391035
C  C74  1  0.21770000  0.80460000  0.93800000  1.0 0.0893391035
C  C75  1  0.21770000  0.19540000  0.43800000  1.0 0.0893391035
C  C76  1  0.78230000  0.19540000  0.06200000  1.0 0.0893391035
C  C77  1  0.05060000  0.59070000  0.54880000  1.0 0.2706187777
C  C78  1  0.94940000  0.59070000  0.95120000  1.0 0.2706187777
C  C79  1  0.94940000  0.40930000  0.45120000  1.0 0.2706187777
C  C80  1  0.05060000  0.40930000  0.04880000  1.0 0.2706187777
C  C81  1  0.02090000  0.49760000  0.57520000  1.0 -0.5114025958
C  C82  1  0.97910000  0.49760000  0.92480000  1.0 -0.5114025958
C  C83  1  0.97910000  0.50240000  0.42480000  1.0 -0.5114025958
C  C84  1  0.02090000  0.50240000  0.07520000  1.0 -0.5114025958
C  C85  1  0.37400000  0.51330000  0.55050000  1.0 0.258523982
C  C86  1  0.62600000  0.51330000  0.94950000  1.0 0.258523982
C  C87  1  0.62600000  0.48670000  0.44950000  1.0 0.258523982
C  C88  1  0.37400000  0.48670000  0.05050000  1.0 0.258523982
C  C89  1  0.44910000  0.61750000  0.56700000  1.0 -0.5114025958
C  C90  1  0.55090000  0.61750000  0.93300000  1.0 -0.5114025958
C  C91  1  0.55090000  0.38250000  0.43300000  1.0 -0.5114025958
C  C92  1  0.44910000  0.38250000  0.06700000  1.0 -0.5114025958
C  C93  1  0.45370000  0.41060000  0.55140000  1.0 0.0622847807
C  C94  1  0.54630000  0.41060000  0.94860000  1.0 0.0622847807
C  C95  1  0.54630000  0.58940000  0.44860000  1.0 0.0622847807
C  C96  1  0.45370000  0.58940000  0.05140000  1.0 0.0622847807
C  C97  1  0.59620000  0.40540000  0.54940000  1.0 -0.1819543429
C  C98  1  0.40380000  0.40540000  0.95060000  1.0 -0.1819543429
C  C99  1  0.40380000  0.59460000  0.45060000  1.0 -0.1819543429
C  C100  1  0.59620000  0.59460000  0.04940000  1.0 -0.1819543429
C  C101  1  0.65820000  0.30660000  0.54690000  1.0 0.0806722548
C  C102  1  0.34180000  0.30660000  0.95310000  1.0 0.0806722548
C  C103  1  0.34180000  0.69340000  0.45310000  1.0 0.0806722548
C  C104  1  0.65820000  0.69340000  0.04690000  1.0 0.0806722548
C  C105  1  0.45830000  0.21490000  0.55130000  1.0 0.0806722548
C  C106  1  0.54170000  0.21490000  0.94870000  1.0 0.0806722548
C  C107  1  0.54170000  0.78510000  0.44870000  1.0 0.0806722548
C  C108  1  0.45830000  0.78510000  0.05130000  1.0 0.0806722548
C  C109  1  0.38760000  0.31320000  0.55290000  1.0 -0.1676196046
C  C110  1  0.61240000  0.31320000  0.94710000  1.0 -0.1676196046
C  C111  1  0.61240000  0.68680000  0.44710000  1.0 -0.1676196046
C  C112  1  0.38760000  0.68680000  0.05290000  1.0 -0.1676196046
N  N1  1  0.44980000  0.13380000  0.75680000  1.0 -0.0656271018
N  N2  1  0.55020000  0.13380000  0.74320000  1.0 -0.0656271018
N  N3  1  0.55020000  0.86620000  0.24320000  1.0 -0.0656271018
N  N4  1  0.44980000  0.86620000  0.25680000  1.0 -0.0656271018
N  N5  1  0.56270000  0.13250000  0.26320000  1.0 -0.1363568492
N  N6  1  0.43730000  0.13250000  0.23680000  1.0 -0.1363568492
N  N7  1  0.43730000  0.86750000  0.73680000  1.0 -0.1363568492
N  N8  1  0.56270000  0.86750000  0.76320000  1.0 -0.1363568492
N  N9  1  0.79780000  0.88410000  0.53500000  1.0 -0.2549930103
N  N10  1  0.20220000  0.88410000  0.96500000  1.0 -0.2555165775
N  N11  1  0.20220000  0.11590000  0.46500000  1.0 -0.2555165775
N  N12  1  0.79780000  0.11590000  0.03500000  1.0 -0.2549930103
N  N13  1  0.15500000  0.59510000  0.53190000  1.0 -0.217334155
N  N14  1  0.84500000  0.59510000  0.96810000  1.0 -0.217334155
N  N15  1  0.84500000  0.40490000  0.46810000  1.0 -0.217334155
N  N16  1  0.15500000  0.40490000  0.03190000  1.0 -0.217334155
N  N17  1  0.23730000  0.50220000  0.53570000  1.0 -0.2294161171
N  N18  1  0.76270000  0.50220000  0.96430000  1.0 -0.2294161171
N  N19  1  0.76270000  0.49780000  0.46430000  1.0 -0.2294161171
N  N20  1  0.23730000  0.49780000  0.03570000  1.0 -0.2294161171
N  N21  1  0.59430000  0.21220000  0.54800000  1.0 -0.2294161171
N  N22  1  0.40570000  0.21220000  0.95200000  1.0 -0.2294161171
N  N23  1  0.40570000  0.78780000  0.45200000  1.0 -0.2294161171
N  N24  1  0.59430000  0.78780000  0.04800000  1.0 -0.2294161171
O  O1  1  0.82980000  0.04730000  0.61580000  1.0 -0.5600203462
O  O2  1  0.17020000  0.04730000  0.88420000  1.0 -0.5600203462
O  O3  1  0.17020000  0.95270000  0.38420000  1.0 -0.5600203462
O  O4  1  0.82980000  0.95270000  0.11580000  1.0 -0.5600203462
O  O5  1  0.93470000  0.12420000  0.56920000  1.0 -0.5600203462
O  O6  1  0.06530000  0.12420000  0.93080000  1.0 -0.5600203462
O  O7  1  0.06530000  0.87580000  0.43080000  1.0 -0.5600203462
O  O8  1  0.93470000  0.87580000  0.06920000  1.0 -0.5600203462
O  O9  1  0.73070000  0.09640000  0.47170000  1.0 -0.5240542777
O  O10  1  0.26930000  0.09640000  0.02830000  1.0 -0.5240542777
O  O11  1  0.26930000  0.90360000  0.52830000  1.0 -0.5240542777
O  O12  1  0.73070000  0.90360000  0.97170000  1.0 -0.5240542777
O  O13  1  0.50310000  0.04520000  0.45710000  1.0 -0.5775374659
O  O14  1  0.49690000  0.04520000  0.04290000  1.0 -0.5775374659
O  O15  1  0.49690000  0.95480000  0.54290000  1.0 -0.5775374659
O  O16  1  0.50310000  0.95480000  0.95710000  1.0 -0.5775374659
