# DDEC6 charges by PACMAN v1.1 (https://github.com/mtap-research/PACMAN-charge/)
data_LIDPAT_FSR_pacman
_symmetry_space_group_name_H-M   'P 1'
_cell_length_a   17.08530000
_cell_length_b   17.09960000
_cell_length_c   18.12130000
_cell_angle_alpha   93.07800000
_cell_angle_beta   102.82100000
_cell_angle_gamma   105.23100000
_symmetry_Int_Tables_number   1
_chemical_formula_structural   ZnH15C21(NO)4
_chemical_formula_sum   'Zn6 H90 C126 N24 O24'
_cell_volume   4945.43748060
_cell_formula_units_Z   6
loop_
 _symmetry_equiv_pos_site_id
 _symmetry_equiv_pos_as_xyz
  1  'x, y, z'
loop_
 _atom_site_type_symbol
 _atom_site_label
 _atom_site_symmetry_multiplicity
 _atom_site_fract_x
 _atom_site_fract_y
 _atom_site_fract_z
 _atom_site_occupancy
 _atom_site_charge
Zn  Zn1  1  0.15448000  0.77287000  0.24063000  1.0 0.8263055745
Zn  Zn2  1  0.11784000  0.74859000  0.07192000  1.0 0.8228788737
Zn  Zn3  1  0.84552000  0.22713000  0.75937000  1.0 0.8263055745
Zn  Zn4  1  0.88216000  0.25141000  0.92808000  1.0 0.8228788737
Zn  Zn5  1  0.48189000  0.98801000  0.41525000  1.0 0.8263055745
Zn  Zn6  1  0.51811000  0.01199000  0.58475000  1.0 0.8263055745
H  H1  1  0.42342000  0.79649000  0.29146000  1.0 0.1295140587
H  H2  1  0.50306000  0.75933000  0.06510000  1.0 0.1214134554
H  H3  1  0.36713000  0.76028000  0.06207000  1.0 0.1295140587
H  H4  1  0.56188000  0.80062000  0.29492000  1.0 0.1295140587
H  H5  1  0.77605000  0.78773000  0.25340000  1.0 0.1214134554
H  H6  1  0.85274000  0.73733000  0.02709000  1.0 0.1214134554
H  H7  1  0.71810000  0.74432000  0.02212000  1.0 0.1295140587
H  H8  1  0.91121000  0.77892000  0.25750000  1.0 0.1214134554
H  H9  1  0.29180000  0.79622000  0.38070000  1.0 0.1214134554
H  H10  1  0.31238000  0.80497000  0.51222000  1.0 0.1295140587
H  H11  1  0.32159000  0.85955000  0.62380000  1.0 0.1492103023
H  H12  1  0.05021000  0.76388000  0.35267000  1.0 0.113850806
H  H13  1  0.08706000  0.63492000  0.62812000  1.0 0.1295140587
H  H14  1  0.05162000  0.59470000  0.69612000  1.0 0.1295140587
H  H15  1  0.14873000  0.61137000  0.69799000  1.0 0.1376907442
H  H16  1  0.30488000  0.77720000  0.66319000  1.0 0.1492103023
H  H17  1  0.28025000  0.85416000  0.69512000  1.0 0.1492103023
H  H18  1  0.06244000  0.76778000  0.48200000  1.0 0.1376907442
H  H19  1  0.11216000  0.84138000  0.81451000  1.0 0.1376907442
H  H20  1  0.12376000  0.62671000  0.95484000  1.0 0.1214134554
H  H21  1  0.12177000  0.60819000  0.82675000  1.0 0.1295140587
H  H22  1  0.11006000  0.85157000  0.94120000  1.0 0.113850806
H  H23  1  0.07959000  0.48257000  0.03820000  1.0 0.1295140587
H  H24  1  0.08527000  0.11528000  0.02186000  1.0 0.1295140587
H  H25  1  0.11465000  0.99282000  0.03377000  1.0 0.1295140587
H  H26  1  0.07957000  0.34542000  0.04911000  1.0 0.1295140587
H  H27  1  0.12344000  0.52157000  0.26814000  1.0 0.1295140587
H  H28  1  0.13783000  0.15984000  0.24890000  1.0 0.1214134554
H  H29  1  0.12481000  0.38654000  0.27790000  1.0 0.1295140587
H  H30  1  0.15848000  0.03065000  0.26019000  1.0 0.1214134554
H  H31  1  0.57658000  0.20351000  0.70854000  1.0 0.1295140587
H  H32  1  0.49694000  0.24067000  0.93490000  1.0 0.1214134554
H  H33  1  0.63287000  0.23972000  0.93793000  1.0 0.1295140587
H  H34  1  0.43812000  0.19938000  0.70508000  1.0 0.1295140587
H  H35  1  0.22395000  0.21227000  0.74660000  1.0 0.1214134554
H  H36  1  0.14726000  0.26267000  0.97291000  1.0 0.1214134554
H  H37  1  0.28190000  0.25568000  0.97788000  1.0 0.1295140587
H  H38  1  0.08879000  0.22108000  0.74250000  1.0 0.1295140587
H  H39  1  0.70820000  0.20378000  0.61930000  1.0 0.1214134554
H  H40  1  0.68762000  0.19503000  0.48778000  1.0 0.1295140587
H  H41  1  0.67841000  0.14045000  0.37620000  1.0 0.1492103023
H  H42  1  0.94979000  0.23612000  0.64733000  1.0 0.113850806
H  H43  1  0.91294000  0.36508000  0.37188000  1.0 0.1295140587
H  H44  1  0.94838000  0.40530000  0.30388000  1.0 0.1295140587
H  H45  1  0.85127000  0.38863000  0.30201000  1.0 0.1376907442
H  H46  1  0.69512000  0.22280000  0.33681000  1.0 0.1492103023
H  H47  1  0.71975000  0.14584000  0.30488000  1.0 0.1492103023
H  H48  1  0.93756000  0.23222000  0.51800000  1.0 0.1376907442
H  H49  1  0.88784000  0.15862000  0.18549000  1.0 0.1376907442
H  H50  1  0.87624000  0.37329000  0.04516000  1.0 0.1214134554
H  H51  1  0.87823000  0.39181000  0.17325000  1.0 0.1295140587
H  H52  1  0.88994000  0.14843000  0.05880000  1.0 0.113850806
H  H53  1  0.92041000  0.51743000  0.96180000  1.0 0.1295140587
H  H54  1  0.91473000  0.88472000  0.97814000  1.0 0.1295140587
H  H55  1  0.88535000  0.00718000  0.96623000  1.0 0.1295140587
H  H56  1  0.92043000  0.65458000  0.95089000  1.0 0.1295140587
H  H57  1  0.87656000  0.47843000  0.73186000  1.0 0.1295140587
H  H58  1  0.86217000  0.84016000  0.75110000  1.0 0.1214134554
H  H59  1  0.87519000  0.61346000  0.72210000  1.0 0.1295140587
H  H60  1  0.84152000  0.96935000  0.73981000  1.0 0.1214134554
H  H61  1  0.58403000  0.00251000  0.30177000  1.0 0.113850806
H  H62  1  0.41597000  0.99749000  0.69823000  1.0 0.113850806
H  H63  1  0.34177000  0.97091000  0.27466000  1.0 0.1214134554
H  H64  1  0.65823000  0.02909000  0.72534000  1.0 0.1214134554
H  H65  1  0.57174000  0.99804000  0.17220000  1.0 0.1295140587
H  H66  1  0.42826000  0.00196000  0.82780000  1.0 0.1295140587
H  H67  1  0.32387000  0.96476000  0.14337000  1.0 0.1295140587
H  H68  1  0.67613000  0.03524000  0.85663000  1.0 0.1295140587
H  H69  1  0.54605000  0.25041000  0.39308000  1.0 0.1295140587
H  H70  1  0.45395000  0.74959000  0.60692000  1.0 0.1295140587
H  H71  1  0.50909000  0.26502000  0.60299000  1.0 0.1214134554
H  H72  1  0.49091000  0.73498000  0.39701000  1.0 0.1214134554
H  H73  1  0.21510000  0.96461000  0.37044000  1.0 0.1295140587
H  H74  1  0.78490000  0.03539000  0.62956000  1.0 0.1295140587
H  H75  1  0.27525000  0.02640000  0.59869000  1.0 0.1295140587
H  H76  1  0.72475000  0.97360000  0.40131000  1.0 0.1295140587
H  H77  1  0.53056000  0.38093000  0.38017000  1.0 0.1214134554
H  H78  1  0.46944000  0.61907000  0.61983000  1.0 0.1214134554
H  H79  1  0.49901000  0.39778000  0.59231000  1.0 0.1214134554
H  H80  1  0.50099000  0.60222000  0.40769000  1.0 0.1214134554
H  H81  1  0.07842000  0.96815000  0.36484000  1.0 0.1295140587
H  H82  1  0.92158000  0.03185000  0.63516000  1.0 0.1295140587
H  H83  1  0.13792000  0.02650000  0.59386000  1.0 0.1214134554
H  H84  1  0.86208000  0.97350000  0.40614000  1.0 0.1214134554
H  H85  1  0.31410000  0.90744000  0.03374000  1.0 0.1492103023
H  H86  1  0.68590000  0.09256000  0.96626000  1.0 0.1492103023
H  H87  1  0.35299000  0.91694000  0.96099000  1.0 0.1492103023
H  H88  1  0.64701000  0.08306000  0.03901000  1.0 0.1492103023
H  H89  1  0.32582000  0.99080000  0.99580000  1.0 0.158312376
H  H90  1  0.67418000  0.00920000  0.00420000  1.0 0.1492103023
C  C1  1  0.29120000  0.77330000  0.17330000  1.0 0.5703164477
C  C2  1  0.38110000  0.77630000  0.17560000  1.0 -0.0231267086
C  C3  1  0.43980000  0.78930000  0.24530000  1.0 -0.0973969651
C  C4  1  0.48720000  0.76780000  0.11130000  1.0 -0.1503924082
C  C5  1  0.40640000  0.76720000  0.10980000  1.0 -0.0905224941
C  C6  1  0.52180000  0.79160000  0.24740000  1.0 -0.1599454052
C  C7  1  0.54540000  0.78080000  0.18050000  1.0 0.158312376
C  C8  1  0.73310000  0.76510000  0.13750000  1.0 0.158312376
C  C9  1  0.79140000  0.77670000  0.20750000  1.0 -0.1599454052
C  C10  1  0.83700000  0.74700000  0.07310000  1.0 -0.0973969651
C  C11  1  0.75710000  0.75110000  0.07000000  1.0 -0.1599454052
C  C12  1  0.87190000  0.77190000  0.20980000  1.0 -0.0973969651
C  C13  1  0.89520000  0.75700000  0.14270000  1.0 -0.0279680887
C  C14  1  0.98270000  0.75310000  0.14680000  1.0 0.580597407
C  C15  1  0.24490000  0.79090000  0.40210000  1.0 0.0993292246
C  C16  1  0.25780000  0.79610000  0.48050000  1.0 -0.1711348232
C  C17  1  0.10390000  0.77150000  0.38580000  1.0 0.0816584767
C  C18  1  0.18970000  0.78810000  0.51180000  1.0 0.0816584767
C  C19  1  0.19940000  0.79360000  0.59670000  1.0 0.2560306999
C  C20  1  0.11710000  0.71300000  0.72380000  1.0 0.2529698375
C  C21  1  0.11070000  0.77460000  0.46250000  1.0 -0.1711348232
C  C22  1  0.11980000  0.67030000  0.92520000  1.0 0.0929381948
C  C23  1  0.11240000  0.80160000  0.91750000  1.0 0.0732937574
C  C24  1  0.28360000  0.82370000  0.64910000  1.0 -0.5074843105
C  C25  1  0.09970000  0.63180000  0.68320000  1.0 -0.4829177794
C  C26  1  0.11650000  0.72370000  0.80570000  1.0 0.0732937574
C  C27  1  0.11970000  0.65890000  0.84910000  1.0 -0.1907856252
C  C28  1  0.11350000  0.79580000  0.84200000  1.0 -0.1812750336
C  C29  1  0.10970000  0.60420000  0.14960000  1.0 0.580597407
C  C30  1  0.14890000  0.91330000  0.15230000  1.0 0.5703164477
C  C31  1  0.11310000  0.15050000  0.13400000  1.0 0.1492103023
C  C32  1  0.10350000  0.35350000  0.16380000  1.0 0.1376907442
C  C33  1  0.10350000  0.51510000  0.15310000  1.0 -0.0279680887
C  C34  1  0.08920000  0.46350000  0.08680000  1.0 -0.0973969651
C  C35  1  0.10280000  0.09980000  0.07100000  1.0 -0.1503924082
C  C36  1  0.11780000  0.02610000  0.07860000  1.0 -0.1067273256
C  C37  1  0.13720000  0.99720000  0.14740000  1.0 -0.0231267086
C  C38  1  0.11600000  0.40570000  0.22930000  1.0 -0.1599454052
C  C39  1  0.14480000  0.04790000  0.21120000  1.0 -0.0973969651
C  C40  1  0.11550000  0.48600000  0.22330000  1.0 -0.0973969651
C  C41  1  0.08940000  0.38180000  0.09380000  1.0 -0.1599454052
C  C42  1  0.13260000  0.12490000  0.20440000  1.0 -0.1599454052
C  C43  1  0.70880000  0.22670000  0.82670000  1.0 0.5703164477
C  C44  1  0.61890000  0.22370000  0.82440000  1.0 -0.0231267086
C  C45  1  0.56020000  0.21070000  0.75470000  1.0 -0.0973969651
C  C46  1  0.51280000  0.23220000  0.88870000  1.0 -0.1503924082
C  C47  1  0.59360000  0.23280000  0.89020000  1.0 -0.0905224941
C  C48  1  0.47820000  0.20840000  0.75260000  1.0 -0.1599454052
C  C49  1  0.45460000  0.21920000  0.81950000  1.0 0.158312376
C  C50  1  0.26690000  0.23490000  0.86250000  1.0 0.158312376
C  C51  1  0.20860000  0.22330000  0.79250000  1.0 -0.1599454052
C  C52  1  0.16300000  0.25300000  0.92690000  1.0 -0.0973969651
C  C53  1  0.24290000  0.24890000  0.93000000  1.0 -0.1503924082
C  C54  1  0.12810000  0.22810000  0.79020000  1.0 -0.0973969651
C  C55  1  0.10480000  0.24300000  0.85730000  1.0 -0.0279680887
C  C56  1  0.01730000  0.24690000  0.85320000  1.0 0.580597407
C  C57  1  0.75510000  0.20910000  0.59790000  1.0 0.0993292246
C  C58  1  0.74220000  0.20390000  0.51950000  1.0 -0.1711348232
C  C59  1  0.89610000  0.22850000  0.61420000  1.0 0.0816584767
C  C60  1  0.81030000  0.21190000  0.48820000  1.0 0.0816584767
C  C61  1  0.80060000  0.20640000  0.40330000  1.0 0.2560306999
C  C62  1  0.88290000  0.28700000  0.27620000  1.0 0.2529698375
C  C63  1  0.88930000  0.22540000  0.53750000  1.0 -0.1711348232
C  C64  1  0.88020000  0.32970000  0.07480000  1.0 0.0929381948
C  C65  1  0.88760000  0.19840000  0.08250000  1.0 0.0732937574
C  C66  1  0.71640000  0.17630000  0.35090000  1.0 -0.5074843105
C  C67  1  0.90030000  0.36820000  0.31680000  1.0 -0.4829177794
C  C68  1  0.88350000  0.27630000  0.19430000  1.0 0.0732937574
C  C69  1  0.88030000  0.34110000  0.15090000  1.0 -0.1907856252
C  C70  1  0.88650000  0.20420000  0.15800000  1.0 -0.1812750336
C  C71  1  0.89030000  0.39580000  0.85040000  1.0 0.580597407
C  C72  1  0.85110000  0.08670000  0.84770000  1.0 0.5703164477
C  C73  1  0.88690000  0.84950000  0.86600000  1.0 0.1492103023
C  C74  1  0.89650000  0.64650000  0.83620000  1.0 0.1376907442
C  C75  1  0.89650000  0.48490000  0.84690000  1.0 -0.0279680887
C  C76  1  0.91080000  0.53650000  0.91320000  1.0 -0.0973969651
C  C77  1  0.89720000  0.90020000  0.92900000  1.0 -0.1503924082
C  C78  1  0.88220000  0.97390000  0.92140000  1.0 -0.1067273256
C  C79  1  0.86280000  0.00280000  0.85260000  1.0 -0.0231267086
C  C80  1  0.88400000  0.59430000  0.77070000  1.0 -0.1599454052
C  C81  1  0.85520000  0.95210000  0.78880000  1.0 -0.0973969651
C  C82  1  0.88450000  0.51400000  0.77670000  1.0 -0.0973969651
C  C83  1  0.91060000  0.61820000  0.90620000  1.0 -0.1599454052
C  C84  1  0.86740000  0.87510000  0.79560000  1.0 -0.1599454052
C  C85  1  0.52540000  0.15580000  0.50270000  1.0 0.5703164477
C  C86  1  0.47460000  0.84420000  0.49730000  1.0 0.5703164477
C  C87  1  0.34670000  0.99440000  0.48850000  1.0 0.5703164477
C  C88  1  0.65330000  0.00560000  0.51150000  1.0 0.5703164477
C  C89  1  0.53010000  0.99440000  0.26890000  1.0 0.0816584767
C  C90  1  0.46990000  0.00560000  0.73110000  1.0 0.0816584767
C  C91  1  0.38890000  0.97590000  0.25380000  1.0 0.0929381948
C  C92  1  0.61110000  0.02410000  0.74620000  1.0 0.0929381948
C  C93  1  0.52440000  0.24280000  0.49810000  1.0 -0.0279680887
C  C94  1  0.47560000  0.75720000  0.50190000  1.0 -0.0279680887
C  C95  1  0.25890000  0.99840000  0.48450000  1.0 -0.0231267086
C  C96  1  0.74110000  0.00160000  0.51550000  1.0 -0.0231267086
C  C97  1  0.52380000  0.99240000  0.19200000  1.0 -0.1711348232
C  C98  1  0.47620000  0.00760000  0.80800000  1.0 -0.1711348232
C  C99  1  0.37830000  0.97300000  0.17530000  1.0 -0.1599454052
C  C100  1  0.62170000  0.02700000  0.82470000  1.0 -0.1599454052
C  C101  1  0.53400000  0.27940000  0.43340000  1.0 -0.0973969651
C  C102  1  0.46600000  0.72060000  0.56660000  1.0 -0.0973969651
C  C103  1  0.51310000  0.28790000  0.55690000  1.0 -0.0905224941
C  C104  1  0.48690000  0.71210000  0.44310000  1.0 -0.0905224941
C  C105  1  0.19990000  0.97880000  0.41560000  1.0 -0.0973969651
C  C106  1  0.80010000  0.02120000  0.58440000  1.0 -0.0973969651
C  C107  1  0.23510000  0.01500000  0.55110000  1.0 -0.0905224941
C  C108  1  0.76490000  0.98500000  0.44890000  1.0 -0.0905224941
C  C109  1  0.44440000  0.98170000  0.14350000  1.0 0.0816584767
C  C110  1  0.55560000  0.01830000  0.85650000  1.0 0.0816584767
C  C111  1  0.52660000  0.35750000  0.42600000  1.0 -0.1503924082
C  C112  1  0.47340000  0.64250000  0.57400000  1.0 -0.1503924082
C  C113  1  0.50730000  0.36740000  0.55070000  1.0 -0.1503924082
C  C114  1  0.49270000  0.63260000  0.44930000  1.0 -0.1503924082
C  C115  1  0.11870000  0.97990000  0.41240000  1.0 -0.1599454052
C  C116  1  0.88130000  0.02010000  0.58760000  1.0 -0.1599454052
C  C117  1  0.15390000  0.01500000  0.54840000  1.0 -0.1503924082
C  C118  1  0.84610000  0.98500000  0.45160000  1.0 -0.1503924082
C  C119  1  0.43580000  0.97810000  0.05960000  1.0 0.2670535806
C  C120  1  0.56420000  0.02190000  0.94040000  1.0 0.2670535806
C  C121  1  0.51330000  0.40090000  0.48660000  1.0 0.158312376
C  C122  1  0.48670000  0.59910000  0.51340000  1.0 0.158312376
C  C123  1  0.09600000  0.99820000  0.47870000  1.0 0.1680569116
C  C124  1  0.90400000  0.00180000  0.52130000  1.0 0.1680569116
C  C125  1  0.34970000  0.94550000  0.00810000  1.0 -0.5074843105
C  C126  1  0.65030000  0.05450000  0.99190000  1.0 -0.5074843105
N  N1  1  0.63140000  0.78150000  0.18940000  1.0 -0.1297412731
N  N2  1  0.64960000  0.76740000  0.12860000  1.0 -0.1226268125
N  N3  1  0.16970000  0.77860000  0.35530000  1.0 -0.2211992752
N  N4  1  0.11460000  0.73900000  0.95940000  1.0 -0.2274790865
N  N5  1  0.13090000  0.77230000  0.61660000  1.0 -0.2412202146
N  N6  1  0.13640000  0.78040000  0.69470000  1.0 -0.2533376452
N  N7  1  0.11000000  0.27270000  0.17800000  1.0 -0.0797813621
N  N8  1  0.10580000  0.23380000  0.12020000  1.0 -0.0973969651
N  N9  1  0.36860000  0.21850000  0.81060000  1.0 -0.1297412731
N  N10  1  0.35040000  0.23260000  0.87140000  1.0 -0.1226268125
N  N11  1  0.83030000  0.22140000  0.64470000  1.0 -0.2211992752
N  N12  1  0.88540000  0.26100000  0.04060000  1.0 -0.2274790865
N  N13  1  0.86910000  0.22770000  0.38340000  1.0 -0.2412202146
N  N14  1  0.86360000  0.21960000  0.30530000  1.0 -0.2533376452
N  N15  1  0.89000000  0.72730000  0.82200000  1.0 -0.0797813621
N  N16  1  0.89420000  0.76620000  0.87980000  1.0 -0.0973969651
N  N17  1  0.46470000  0.98560000  0.30070000  1.0 -0.2274790865
N  N18  1  0.53530000  0.01440000  0.69930000  1.0 -0.2274790865
N  N19  1  0.50470000  0.00130000  0.03930000  1.0 -0.2412202146
N  N20  1  0.49530000  0.99870000  0.96070000  1.0 -0.2412202146
N  N21  1  0.50790000  0.48230000  0.47370000  1.0 -0.1226268125
N  N22  1  0.49210000  0.51770000  0.52630000  1.0 -0.1226268125
N  N23  1  0.01060000  0.99640000  0.46960000  1.0 -0.1297412731
N  N24  1  0.98940000  0.00360000  0.53040000  1.0 -0.1297412731
O  O1  1  0.27340000  0.78180000  0.23560000  1.0 -0.522406691
O  O2  1  0.24270000  0.76260000  0.10840000  1.0 -0.5396207136
O  O3  1  0.03060000  0.76280000  0.21070000  1.0 -0.5319115456
O  O4  1  0.00100000  0.74170000  0.08460000  1.0 -0.5319115456
O  O5  1  0.09830000  0.62820000  0.08520000  1.0 -0.5319115456
O  O6  1  0.14390000  0.87420000  0.09100000  1.0 -0.5319115456
O  O7  1  0.16960000  0.89310000  0.21780000  1.0 -0.5319115456
O  O8  1  0.12690000  0.64820000  0.21220000  1.0 -0.5396207136
O  O9  1  0.72660000  0.21820000  0.76440000  1.0 -0.522406691
O  O10  1  0.75730000  0.23740000  0.89160000  1.0 -0.5396207136
O  O11  1  0.96940000  0.23720000  0.78930000  1.0 -0.5319115456
O  O12  1  0.99900000  0.25830000  0.91540000  1.0 -0.5319115456
O  O13  1  0.90170000  0.37180000  0.91480000  1.0 -0.5319115456
O  O14  1  0.85610000  0.12580000  0.90900000  1.0 -0.5319115456
O  O15  1  0.83040000  0.10690000  0.78220000  1.0 -0.5319115456
O  O16  1  0.87310000  0.35180000  0.78780000  1.0 -0.5396207136
O  O17  1  0.51520000  0.11400000  0.44090000  1.0 -0.5319115456
O  O18  1  0.48480000  0.88600000  0.55910000  1.0 -0.5319115456
O  O19  1  0.36660000  0.98480000  0.42740000  1.0 -0.522406691
O  O20  1  0.63340000  0.01520000  0.57260000  1.0 -0.522406691
O  O21  1  0.46210000  0.86700000  0.43170000  1.0 -0.5396207136
O  O22  1  0.53790000  0.13300000  0.56830000  1.0 -0.5396207136
O  O23  1  0.60630000  0.99690000  0.44630000  1.0 -0.5396207136
O  O24  1  0.39370000  0.00310000  0.55370000  1.0 -0.5396207136
