# DDEC6 charges by PACMAN v1.1 (https://github.com/mtap-research/PACMAN-charge/)
data_LIDSIC_ASR_pacman
_symmetry_space_group_name_H-M   'P 1'
_cell_length_a   11.04830000
_cell_length_b   20.72090000
_cell_length_c   22.08180000
_cell_angle_alpha   115.71500000
_cell_angle_beta   99.40300000
_cell_angle_gamma   90.77400000
_symmetry_Int_Tables_number   1
_chemical_formula_structural   Co2H20C30N2O9
_chemical_formula_sum   'Co8 H80 C120 N8 O36'
_cell_volume   4473.05500477
_cell_formula_units_Z   4
loop_
 _symmetry_equiv_pos_site_id
 _symmetry_equiv_pos_as_xyz
  1  'x, y, z'
loop_
 _atom_site_type_symbol
 _atom_site_label
 _atom_site_symmetry_multiplicity
 _atom_site_fract_x
 _atom_site_fract_y
 _atom_site_fract_z
 _atom_site_occupancy
 _atom_site_charge
Co  Co1  1  0.83170000  0.17147000  0.45629000  1.0 0.93017362
Co  Co2  1  0.16830000  0.82853000  0.54371000  1.0 0.93017362
Co  Co3  1  0.75120000  0.33651000  0.57974000  1.0 0.8698603952
Co  Co4  1  0.24880000  0.66349000  0.42026000  1.0 0.8698603952
Co  Co5  1  0.26780000  0.67131000  0.92495000  1.0 0.8854086244
Co  Co6  1  0.73220000  0.32869000  0.07505000  1.0 0.8854086244
Co  Co7  1  0.18740000  0.83654000  0.04737000  1.0 0.9373597348
Co  Co8  1  0.81260000  0.16346000  0.95263000  1.0 0.9373597348
H  H1  1  0.96630000  0.27490000  0.57240000  1.0 0.4043107697
H  H2  1  0.03370000  0.72510000  0.42760000  1.0 0.4043107697
H  H3  1  0.87850000  0.23180000  0.59430000  1.0 0.4043107697
H  H4  1  0.12150000  0.76820000  0.40570000  1.0 0.4043107697
H  H5  1  0.14150000  0.77530000  0.90970000  1.0 0.4043107697
H  H6  1  0.85850000  0.22470000  0.09030000  1.0 0.4043107697
H  H7  1  0.05360000  0.73260000  0.93190000  1.0 0.4043107697
H  H8  1  0.94640000  0.26740000  0.06810000  1.0 0.4043107697
H  H9  1  0.67520000  0.03010000  0.36660000  1.0 0.101011059
H  H10  1  0.32480000  0.96990000  0.63340000  1.0 0.101011059
H  H11  1  0.63080000  0.93870000  0.25630000  1.0 0.1282266558
H  H12  1  0.36920000  0.06130000  0.74370000  1.0 0.1282266558
H  H13  1  0.86750000  0.04490000  0.20560000  1.0 0.1367224524
H  H14  1  0.13250000  0.95510000  0.79440000  1.0 0.1367224524
H  H15  1  0.90320000  0.13290000  0.32030000  1.0 0.1091782232
H  H16  1  0.09680000  0.86710000  0.67970000  1.0 0.1091782232
H  H17  1  0.54040000  0.90550000  0.13820000  1.0 0.1091782232
H  H18  1  0.45960000  0.09450000  0.86180000  1.0 0.1091782232
H  H19  1  0.66620000  0.76610000  0.97320000  1.0 0.1195218567
H  H20  1  0.33380000  0.23390000  0.02680000  1.0 0.1195218567
H  H21  1  0.89830000  0.91580000  0.13370000  1.0 0.1091782232
H  H22  1  0.10170000  0.08420000  0.86630000  1.0 0.1091782232
H  H23  1  0.35660000  0.88280000  0.18600000  1.0 0.1091782232
H  H24  1  0.64340000  0.11720000  0.81400000  1.0 0.101011059
H  H25  1  0.41070000  0.97800000  0.29330000  1.0 0.1282266558
H  H26  1  0.58930000  0.02200000  0.70670000  1.0 0.1282266558
H  H27  1  0.13620000  0.07570000  0.24410000  1.0 0.1367224524
H  H28  1  0.86380000  0.92430000  0.75590000  1.0 0.1367224524
H  H29  1  0.10470000  0.98420000  0.13420000  1.0 0.1091782232
H  H30  1  0.89530000  0.01580000  0.86580000  1.0 0.1091782232
H  H31  1  0.48340000  0.10100000  0.36800000  1.0 0.1091782232
H  H32  1  0.51660000  0.89900000  0.63200000  1.0 0.1091782232
H  H33  1  0.35560000  0.24310000  0.52960000  1.0 0.1195218567
H  H34  1  0.64440000  0.75690000  0.47040000  1.0 0.1195218567
H  H35  1  0.12180000  0.10160000  0.36620000  1.0 0.1195218567
H  H36  1  0.87820000  0.89840000  0.63380000  1.0 0.1195218567
H  H37  1  0.51910000  0.38520000  0.51350000  1.0 0.1195218567
H  H38  1  0.48090000  0.61480000  0.48650000  1.0 0.1195218567
H  H39  1  0.39480000  0.47560000  0.53420000  1.0 0.101011059
H  H40  1  0.60520000  0.52440000  0.46580000  1.0 0.1091782232
H  H41  1  0.60080000  0.57960000  0.72210000  1.0 0.1091782232
H  H42  1  0.39920000  0.42040000  0.27790000  1.0 0.1091782232
H  H43  1  0.72810000  0.48880000  0.69260000  1.0 0.1195218567
H  H44  1  0.27190000  0.51120000  0.30740000  1.0 0.1195218567
H  H45  1  0.37340000  0.59870000  0.74330000  1.0 0.1195218567
H  H46  1  0.62660000  0.40130000  0.25670000  1.0 0.1195218567
H  H47  1  0.18390000  0.73860000  0.69730000  1.0 0.1195218567
H  H48  1  0.81610000  0.26140000  0.30270000  1.0 0.1195218567
H  H49  1  0.37120000  0.59760000  0.56330000  1.0 0.1091782232
H  H50  1  0.62880000  0.40240000  0.43670000  1.0 0.1091782232
H  H51  1  0.50820000  0.63430000  0.87010000  1.0 0.1282266558
H  H52  1  0.49180000  0.36570000  0.12990000  1.0 0.1282266558
H  H53  1  0.63250000  0.54230000  0.83770000  1.0 0.1091782232
H  H54  1  0.36750000  0.45770000  0.16230000  1.0 0.1091782232
H  H55  1  0.41860000  0.43950000  0.90510000  1.0 0.101011059
H  H56  1  0.58140000  0.56050000  0.09490000  1.0 0.101011059
H  H57  1  0.29760000  0.53040000  0.92770000  1.0 0.1091782232
H  H58  1  0.70240000  0.46960000  0.07230000  1.0 0.1091782232
H  H59  1  0.64900000  0.41030000  0.76060000  1.0 0.1091782232
H  H60  1  0.35100000  0.58970000  0.23940000  1.0 0.1091782232
H  H61  1  0.81560000  0.26000000  0.80220000  1.0 0.1195218567
H  H62  1  0.18440000  0.74000000  0.19780000  1.0 0.1195218567
H  H63  1  0.62780000  0.39790000  0.93500000  1.0 0.1091782232
H  H64  1  0.37220000  0.60210000  0.06500000  1.0 0.1091782232
H  H65  1  0.70910000  0.47660000  0.57330000  1.0 0.1195218567
H  H66  1  0.29090000  0.52340000  0.42670000  1.0 0.1195218567
H  H67  1  0.58710000  0.56380000  0.59470000  1.0 0.101011059
H  H68  1  0.41290000  0.43620000  0.40530000  1.0 0.101011059
H  H69  1  0.37680000  0.46120000  0.66610000  1.0 0.101011059
H  H70  1  0.62320000  0.53880000  0.33390000  1.0 0.101011059
H  H71  1  0.51600000  0.37100000  0.63570000  1.0 0.1282266558
H  H72  1  0.48400000  0.62900000  0.36430000  1.0 0.1282266558
H  H73  1  0.49500000  0.61850000  0.99210000  1.0 0.1195218567
H  H74  1  0.50500000  0.38150000  0.00790000  1.0 0.1195218567
H  H75  1  0.61760000  0.52410000  0.96780000  1.0 0.101011059
H  H76  1  0.38240000  0.47590000  0.03220000  1.0 0.101011059
H  H77  1  0.41670000  0.42640000  0.78050000  1.0 0.1195218567
H  H78  1  0.58330000  0.57360000  0.21950000  1.0 0.1195218567
H  H79  1  0.28890000  0.51750000  0.80960000  1.0 0.1195218567
H  H80  1  0.71110000  0.48250000  0.19040000  1.0 0.1195218567
C  C1  1  0.71600000  0.03290000  0.33410000  1.0 0.101011059
C  C2  1  0.28400000  0.96710000  0.66590000  1.0 0.101011059
C  C3  1  0.68900000  0.97660000  0.26690000  1.0 -0.2097139414
C  C4  1  0.31100000  0.02340000  0.73310000  1.0 -0.2097139414
C  C5  1  0.74650000  0.97740000  0.21870000  1.0 0.1195218567
C  C6  1  0.25350000  0.02260000  0.78130000  1.0 0.1195218567
C  C7  1  0.82830000  0.03930000  0.23750000  1.0 -0.2097139414
C  C8  1  0.17170000  0.96070000  0.76250000  1.0 -0.2097139414
C  C9  1  0.84800000  0.09270000  0.30710000  1.0 0.1091782232
C  C10  1  0.15200000  0.90730000  0.69290000  1.0 0.1091782232
C  C11  1  0.72190000  0.91920000  0.14730000  1.0 0.0521637866
C  C12  1  0.27810000  0.08080000  0.85270000  1.0 0.0521637866
C  C13  1  0.60530000  0.88820000  0.11540000  1.0 -0.1610572463
C  C14  1  0.39470000  0.11180000  0.88460000  1.0 -0.1610572463
C  C15  1  0.58020000  0.83140000  0.04990000  1.0 -0.0101263203
C  C16  1  0.41980000  0.16860000  0.95010000  1.0 -0.0046701522
C  C17  1  0.67990000  0.80500000  0.01640000  1.0 -0.1311042628
C  C18  1  0.32010000  0.19500000  0.98360000  1.0 -0.1311042628
C  C19  1  0.79770000  0.83710000  0.04820000  1.0 -0.0101263203
C  C20  1  0.20230000  0.16290000  0.95180000  1.0 -0.0101263203
C  C21  1  0.81870000  0.89410000  0.11300000  1.0 -0.1516803807
C  C22  1  0.18130000  0.10590000  0.88700000  1.0 -0.1516803807
C  C23  1  0.90900000  0.81020000  0.01560000  1.0 0.5800438765
C  C24  1  0.09100000  0.18980000  0.98440000  1.0 0.5800438765
C  C25  1  0.44860000  0.79990000  0.01750000  1.0 0.5800438765
C  C26  1  0.55140000  0.20010000  0.98250000  1.0 0.5800438765
C  C27  1  0.31170000  0.92270000  0.19690000  1.0 0.1091782232
C  C28  1  0.68830000  0.07730000  0.80310000  1.0 0.1091782232
C  C29  1  0.34200000  0.97910000  0.26320000  1.0 -0.2034461281
C  C30  1  0.65800000  0.02090000  0.73680000  1.0 -0.2034461281
C  C31  1  0.27350000  0.03410000  0.28290000  1.0 0.1195218567
C  C32  1  0.72650000  0.96590000  0.71710000  1.0 0.1195218567
C  C33  1  0.18400000  0.03680000  0.23370000  1.0 -0.2097139414
C  C34  1  0.81600000  0.96320000  0.76630000  1.0 -0.2097139414
C  C35  1  0.16400000  0.98060000  0.16750000  1.0 0.0809225732
C  C36  1  0.83600000  0.01940000  0.83250000  1.0 0.0809225732
C  C37  1  0.29880000  0.09380000  0.35400000  1.0 0.0584184223
C  C38  1  0.70120000  0.90620000  0.64600000  1.0 0.0584184223
C  C39  1  0.41740000  0.12090000  0.38870000  1.0 -0.1610572463
C  C40  1  0.58260000  0.87910000  0.61130000  1.0 -0.1610572463
C  C41  1  0.43960000  0.17730000  0.45390000  1.0 -0.0180932196
C  C42  1  0.56040000  0.82270000  0.54610000  1.0 -0.0180932196
C  C43  1  0.34100000  0.20520000  0.48580000  1.0 -0.1246913902
C  C44  1  0.65900000  0.79480000  0.51420000  1.0 -0.1246913902
C  C45  1  0.22180000  0.17740000  0.45290000  1.0 -0.0101263203
C  C46  1  0.77820000  0.82260000  0.54710000  1.0 -0.0101263203
C  C47  1  0.20200000  0.12150000  0.38800000  1.0 -0.1516803807
C  C48  1  0.79800000  0.87850000  0.61200000  1.0 -0.1516803807
C  C49  1  0.11050000  0.20190000  0.48680000  1.0 0.5800438765
C  C50  1  0.88950000  0.79810000  0.51320000  1.0 0.5800438765
C  C51  1  0.57100000  0.20620000  0.48720000  1.0 0.5896043324
C  C52  1  0.42900000  0.79380000  0.51280000  1.0 0.5896043324
C  C53  1  0.53300000  0.42400000  0.55700000  1.0 -0.0316954774
C  C54  1  0.46700000  0.57600000  0.44300000  1.0 -0.0316954774
C  C55  1  0.45600000  0.47600000  0.56910000  1.0 -0.1311042628
C  C56  1  0.54400000  0.52400000  0.43090000  1.0 -0.1311042628
C  C57  1  0.46900000  0.53030000  0.63340000  1.0 0.0584184223
C  C58  1  0.53100000  0.46970000  0.36660000  1.0 0.0584184223
C  C59  1  0.58000000  0.53860000  0.68060000  1.0 -0.1311042628
C  C60  1  0.42000000  0.46140000  0.31940000  1.0 -0.1375046825
C  C61  1  0.65500000  0.48360000  0.66240000  1.0 -0.0316954774
C  C62  1  0.34500000  0.51640000  0.33760000  1.0 -0.0316954774
C  C63  1  0.38300000  0.58710000  0.64890000  1.0 0.0678515186
C  C64  1  0.61700000  0.41290000  0.35110000  1.0 0.0678515186
C  C65  1  0.34600000  0.61670000  0.71200000  1.0 -0.1610572463
C  C66  1  0.65400000  0.38330000  0.28800000  1.0 -0.1610572463
C  C67  1  0.27080000  0.67180000  0.72950000  1.0 0.0030849686
C  C68  1  0.72920000  0.32820000  0.27050000  1.0 0.0030849686
C  C69  1  0.23220000  0.70010000  0.68500000  1.0 -0.1311042628
C  C70  1  0.76780000  0.29990000  0.31500000  1.0 -0.1311042628
C  C71  1  0.26640000  0.67060000  0.62030000  1.0 0.0030849686
C  C72  1  0.73360000  0.32940000  0.37970000  1.0 0.0030849686
C  C73  1  0.34480000  0.61540000  0.60500000  1.0 -0.1797004795
C  C74  1  0.65520000  0.38460000  0.39500000  1.0 -0.1797004795
C  C75  1  0.22640000  0.69990000  0.56800000  1.0 0.5800438765
C  C76  1  0.77360000  0.30010000  0.43200000  1.0 0.5800438765
C  C77  1  0.23130000  0.69950000  0.79900000  1.0 0.5800438765
C  C78  1  0.76870000  0.30050000  0.20100000  1.0 0.5800438765
C  C79  1  0.49100000  0.59300000  0.87510000  1.0 -0.0409801027
C  C80  1  0.50900000  0.40700000  0.12490000  1.0 -0.0409801027
C  C81  1  0.56500000  0.53920000  0.85720000  1.0 -0.1375046825
C  C82  1  0.43500000  0.46080000  0.14280000  1.0 -0.1375046825
C  C83  1  0.54010000  0.47390000  0.86850000  1.0 0.0521637866
C  C84  1  0.45990000  0.52610000  0.13150000  1.0 0.0521637866
C  C85  1  0.44000000  0.47710000  0.89550000  1.0 -0.0522302153
C  C86  1  0.56000000  0.52290000  0.10450000  1.0 -0.0522302153
C  C87  1  0.36700000  0.53340000  0.91000000  1.0 0.0233594145
C  C88  1  0.63300000  0.46660000  0.09000000  1.0 0.0233594145
C  C89  1  0.62170000  0.41270000  0.85040000  1.0 0.0678515186
C  C90  1  0.37830000  0.58730000  0.14960000  1.0 0.0678515186
C  C91  1  0.66680000  0.38800000  0.78920000  1.0 -0.1610572463
C  C92  1  0.33320000  0.61200000  0.21080000  1.0 -0.1610572463
C  C93  1  0.73820000  0.33000000  0.77110000  1.0 -0.0101263203
C  C94  1  0.26180000  0.67000000  0.22890000  1.0 -0.0101263203
C  C95  1  0.76850000  0.29900000  0.81480000  1.0 -0.110378713
C  C96  1  0.23150000  0.70100000  0.18520000  1.0 -0.110378713
C  C97  1  0.72980000  0.32480000  0.87770000  1.0 -0.0316954774
C  C98  1  0.27020000  0.67520000  0.12230000  1.0 -0.0409801027
C  C99  1  0.65570000  0.38090000  0.89380000  1.0 -0.1712477809
C  C100  1  0.34430000  0.61910000  0.10620000  1.0 -0.1712477809
C  C101  1  0.78020000  0.30660000  0.70410000  1.0 0.5800438765
C  C102  1  0.21980000  0.69340000  0.29590000  1.0 0.5800438765
C  C103  1  0.75920000  0.29330000  0.92620000  1.0 0.5896043324
C  C104  1  0.24080000  0.70670000  0.07380000  1.0 0.5896043324
C  C105  1  0.64200000  0.47300000  0.59300000  1.0 0.0118544012
C  C106  1  0.35800000  0.52700000  0.40700000  1.0 0.0118544012
C  C107  1  0.56800000  0.52700000  0.60600000  1.0 -0.0522302153
C  C108  1  0.43200000  0.47300000  0.39400000  1.0 -0.0522302153
C  C109  1  0.44400000  0.46540000  0.64700000  1.0 -0.1610572463
C  C110  1  0.55600000  0.53460000  0.35300000  1.0 -0.1610572463
C  C111  1  0.52800000  0.41220000  0.62960000  1.0 -0.0316954774
C  C112  1  0.47200000  0.58780000  0.37040000  1.0 -0.0316954774
C  C113  1  0.48100000  0.58140000  0.94780000  1.0 -0.0180932196
C  C114  1  0.51900000  0.41860000  0.05220000  1.0 -0.0180932196
C  C115  1  0.55700000  0.52600000  0.93400000  1.0 -0.1311042628
C  C116  1  0.44300000  0.47400000  0.06600000  1.0 -0.1311042628
C  C117  1  0.43600000  0.46700000  0.82240000  1.0 -0.1246913902
C  C118  1  0.56400000  0.53300000  0.17760000  1.0 -0.1311042628
C  C119  1  0.36100000  0.52250000  0.84000000  1.0 -0.0409801027
C  C120  1  0.63900000  0.47750000  0.16000000  1.0 -0.0409801027
N  N1  1  0.79320000  0.08750000  0.35280000  1.0 -0.2373575984
N  N2  1  0.20680000  0.91250000  0.64720000  1.0 -0.2373575984
N  N3  1  0.22470000  0.92280000  0.14970000  1.0 -0.2373575984
N  N4  1  0.77530000  0.07720000  0.85030000  1.0 -0.2373575984
N  N5  1  0.63000000  0.42190000  0.60300000  1.0 -0.0316954774
N  N6  1  0.37000000  0.57810000  0.39700000  1.0 -0.0316954774
N  N7  1  0.38630000  0.58560000  0.90170000  1.0 -0.0316954774
N  N8  1  0.61370000  0.41440000  0.09830000  1.0 -0.0316954774
O  O1  1  0.00800000  0.84690000  0.04920000  1.0 -0.5824614844
O  O2  1  0.99200000  0.15310000  0.95080000  1.0 -0.5824614844
O  O3  1  0.89740000  0.75570000  0.96000000  1.0 -0.5503593064
O  O4  1  0.10260000  0.24430000  0.04000000  1.0 -0.5503593064
O  O5  1  0.42690000  0.74410000  0.96380000  1.0 -0.5400514758
O  O6  1  0.57310000  0.25590000  0.03620000  1.0 -0.5400514758
O  O7  1  0.37010000  0.83580000  0.05020000  1.0 -0.5898394144
O  O8  1  0.62990000  0.16420000  0.94980000  1.0 -0.5898394144
O  O9  1  0.65040000  0.17000000  0.45630000  1.0 -0.5824614844
O  O10  1  0.34960000  0.83000000  0.54370000  1.0 -0.5824614844
O  O11  1  0.59440000  0.26310000  0.54170000  1.0 -0.5565630352
O  O12  1  0.40560000  0.73690000  0.45830000  1.0 -0.5565630352
O  O13  1  0.12200000  0.25440000  0.54280000  1.0 -0.5400514758
O  O14  1  0.87800000  0.74560000  0.45720000  1.0 -0.5400514758
O  O15  1  0.01140000  0.16540000  0.45220000  1.0 -0.5824614844
O  O16  1  0.98860000  0.83460000  0.54780000  1.0 -0.5824614844
O  O17  1  0.26760000  0.66260000  0.83100000  1.0 -0.6056363142
O  O18  1  0.73240000  0.33740000  0.16900000  1.0 -0.6056363142
O  O19  1  0.17200000  0.75210000  0.81980000  1.0 -0.5503593064
O  O20  1  0.82800000  0.24790000  0.18020000  1.0 -0.5503593064
O  O21  1  0.17340000  0.75570000  0.58590000  1.0 -0.5503593064
O  O22  1  0.82660000  0.24430000  0.41410000  1.0 -0.5503593064
O  O23  1  0.25240000  0.66290000  0.51120000  1.0 -0.5824614844
O  O24  1  0.74760000  0.33710000  0.48880000  1.0 -0.5824614844
O  O25  1  0.75460000  0.34550000  0.67420000  1.0 -0.5898394144
O  O26  1  0.24540000  0.65450000  0.32580000  1.0 -0.5898394144
O  O27  1  0.83960000  0.25260000  0.68230000  1.0 -0.5503593064
O  O28  1  0.16040000  0.74740000  0.31770000  1.0 -0.5503593064
O  O29  1  0.81030000  0.23610000  0.90900000  1.0 -0.5503593064
O  O30  1  0.18970000  0.76390000  0.09100000  1.0 -0.5503593064
O  O31  1  0.73100000  0.32860000  0.98440000  1.0 -0.6009651578
O  O32  1  0.26900000  0.67140000  0.01560000  1.0 -0.6009651578
O  O33  1  0.88280000  0.25350000  0.56350000  1.0 -0.7940202361
O  O34  1  0.11720000  0.74650000  0.43650000  1.0 -0.7940202361
O  O35  1  0.13710000  0.75400000  0.94070000  1.0 -0.7940202361
O  O36  1  0.86290000  0.24600000  0.05930000  1.0 -0.7940202361
