# DDEC6 charges by PACMAN v1.1 (https://github.com/mtap-research/PACMAN-charge/)
data_LIDZOP_ASR_pacman
_symmetry_space_group_name_H-M   'P 1'
_cell_length_a   12.17220000
_cell_length_b   5.72770000
_cell_length_c   24.22560000
_cell_angle_alpha   90.00000000
_cell_angle_beta   110.90900000
_cell_angle_gamma   90.00000000
_symmetry_Int_Tables_number   1
_chemical_formula_structural   SrH8C14SO6
_chemical_formula_sum   'Sr4 H32 C56 S4 O24'
_cell_volume   1577.75574834
_cell_formula_units_Z   4
loop_
 _symmetry_equiv_pos_site_id
 _symmetry_equiv_pos_as_xyz
  1  'x, y, z'
loop_
 _atom_site_type_symbol
 _atom_site_label
 _atom_site_symmetry_multiplicity
 _atom_site_fract_x
 _atom_site_fract_y
 _atom_site_fract_z
 _atom_site_occupancy
 _atom_site_charge
Sr  Sr1  1  0.59085000  0.74465000  0.22433000  1.0 1.4710134518
Sr  Sr2  1  0.40915000  0.24465000  0.27567000  1.0 1.4710134518
Sr  Sr3  1  0.40915000  0.25535000  0.77567000  1.0 1.4710134518
Sr  Sr4  1  0.59085000  0.75535000  0.72433000  1.0 1.4710134518
H  H1  1  0.56480000  0.48730000  0.93590000  1.0 0.1200962764
H  H2  1  0.43520000  0.98730000  0.56410000  1.0 0.1200962764
H  H3  1  0.43520000  0.51270000  0.06410000  1.0 0.1200962764
H  H4  1  0.56480000  0.01270000  0.43590000  1.0 0.1200962764
H  H5  1  0.61600000  0.56380000  0.03530000  1.0 0.1295911598
H  H6  1  0.38400000  0.06380000  0.46470000  1.0 0.1295911598
H  H7  1  0.38400000  0.43620000  0.96470000  1.0 0.1295911598
H  H8  1  0.61600000  0.93620000  0.53530000  1.0 0.1295911598
H  H9  1  0.72340000  0.20500000  0.01020000  1.0 0.1200962764
H  H10  1  0.27660000  0.70500000  0.48980000  1.0 0.1200962764
H  H11  1  0.27660000  0.79500000  0.98980000  1.0 0.1200962764
H  H12  1  0.72340000  0.29500000  0.51020000  1.0 0.1200962764
H  H13  1  0.67030000  0.12730000  0.91010000  1.0 0.1295911598
H  H14  1  0.32970000  0.62730000  0.58990000  1.0 0.1295911598
H  H15  1  0.32970000  0.87270000  0.08990000  1.0 0.1295911598
H  H16  1  0.67030000  0.37270000  0.41010000  1.0 0.1295911598
H  H17  1  0.82920000  0.56590000  0.17000000  1.0 0.1295911598
H  H18  1  0.17080000  0.06590000  0.33000000  1.0 0.1295911598
H  H19  1  0.17080000  0.43410000  0.83000000  1.0 0.1295911598
H  H20  1  0.82920000  0.93410000  0.67000000  1.0 0.1295911598
H  H21  1  0.02640000  0.48060000  0.21670000  1.0 0.1120872506
H  H22  1  0.97360000  0.98060000  0.28330000  1.0 0.1120872506
H  H23  1  0.97360000  0.51940000  0.78330000  1.0 0.1120872506
H  H24  1  0.02640000  0.01940000  0.71670000  1.0 0.1120872506
H  H25  1  0.11480000  0.10730000  0.17160000  1.0 0.1200962764
H  H26  1  0.88520000  0.60730000  0.32840000  1.0 0.1200962764
H  H27  1  0.88520000  0.89270000  0.82840000  1.0 0.1200962764
H  H28  1  0.11480000  0.39270000  0.67160000  1.0 0.1200962764
H  H29  1  0.91710000  0.19100000  0.12180000  1.0 0.1200962764
H  H30  1  0.08290000  0.69100000  0.37820000  1.0 0.1200962764
H  H31  1  0.08290000  0.80900000  0.87820000  1.0 0.1200962764
H  H32  1  0.91710000  0.30900000  0.62180000  1.0 0.1200962764
C  C1  1  0.57142000  0.75380000  0.84752000  1.0 0.6187073243
C  C2  1  0.42858000  0.25380000  0.65248000  1.0 0.6187073243
C  C3  1  0.42858000  0.24620000  0.15248000  1.0 0.6187073243
C  C4  1  0.57142000  0.74620000  0.34752000  1.0 0.6187073243
C  C5  1  0.61001000  0.80100000  0.91271000  1.0 -0.0177760615
C  C6  1  0.38999000  0.30100000  0.58729000  1.0 -0.0177760615
C  C7  1  0.38999000  0.19900000  0.08729000  1.0 -0.0177760615
C  C8  1  0.61001000  0.69900000  0.41271000  1.0 -0.0177760615
C  C9  1  0.59553000  0.63250000  0.95073000  1.0 -0.0882458163
C  C10  1  0.40447000  0.13250000  0.54927000  1.0 -0.0882458163
C  C11  1  0.40447000  0.36750000  0.04927000  1.0 -0.0882458163
C  C12  1  0.59553000  0.86750000  0.45073000  1.0 -0.0882458163
C  C13  1  0.62603000  0.67730000  0.01003000  1.0 -0.0986301011
C  C14  1  0.37397000  0.17730000  0.48997000  1.0 -0.0986301011
C  C15  1  0.37397000  0.32270000  0.98997000  1.0 -0.0986301011
C  C16  1  0.62603000  0.82270000  0.51003000  1.0 -0.0986301011
C  C17  1  0.67167000  0.89290000  0.03157000  1.0 -0.0834537941
C  C18  1  0.32833000  0.39290000  0.46843000  1.0 -0.0834537941
C  C19  1  0.32833000  0.10710000  0.96843000  1.0 -0.0834537941
C  C20  1  0.67167000  0.60710000  0.53157000  1.0 -0.0834537941
C  C21  1  0.69020000  0.06190000  0.99490000  1.0 -0.1088437038
C  C22  1  0.30980000  0.56190000  0.50510000  1.0 -0.1088437038
C  C23  1  0.30980000  0.93810000  0.00510000  1.0 -0.1088437038
C  C24  1  0.69020000  0.43810000  0.49490000  1.0 -0.1088437038
C  C25  1  0.65870000  0.01490000  0.93520000  1.0 -0.0882458163
C  C26  1  0.34130000  0.51490000  0.56480000  1.0 -0.0882458163
C  C27  1  0.34130000  0.98510000  0.06480000  1.0 -0.0882458163
C  C28  1  0.65870000  0.48510000  0.43520000  1.0 -0.0882458163
C  C29  1  0.85540000  0.88780000  0.14250000  1.0 -0.0882458163
C  C30  1  0.14460000  0.38780000  0.35750000  1.0 -0.0882458163
C  C31  1  0.14460000  0.11220000  0.85750000  1.0 -0.0882458163
C  C32  1  0.85540000  0.61220000  0.64250000  1.0 -0.0882458163
C  C33  1  0.88637000  0.67370000  0.17017000  1.0 -0.0986301011
C  C34  1  0.11363000  0.17370000  0.32983000  1.0 -0.0986301011
C  C35  1  0.11363000  0.32630000  0.82983000  1.0 -0.0986301011
C  C36  1  0.88637000  0.82630000  0.67017000  1.0 -0.0986301011
C  C37  1  0.00427000  0.62400000  0.19807000  1.0 -0.0986301011
C  C38  1  0.99573000  0.12400000  0.30193000  1.0 -0.0986301011
C  C39  1  0.99573000  0.37600000  0.80193000  1.0 -0.0986301011
C  C40  1  0.00427000  0.87600000  0.69807000  1.0 -0.0986301011
C  C41  1  0.09042000  0.78450000  0.19882000  1.0 -0.0177760615
C  C42  1  0.90958000  0.28450000  0.30118000  1.0 -0.0177760615
C  C43  1  0.90958000  0.21550000  0.80118000  1.0 -0.0177760615
C  C44  1  0.09042000  0.71550000  0.69882000  1.0 -0.0177760615
C  C45  1  0.05761000  0.99830000  0.17081000  1.0 -0.0986301011
C  C46  1  0.94239000  0.49830000  0.32919000  1.0 -0.0986301011
C  C47  1  0.94239000  0.00170000  0.82919000  1.0 -0.0986301011
C  C48  1  0.05761000  0.50170000  0.67081000  1.0 -0.0986301011
C  C49  1  0.93956000  0.04980000  0.14166000  1.0 -0.1088437038
C  C50  1  0.06044000  0.54980000  0.35834000  1.0 -0.1088437038
C  C51  1  0.06044000  0.95020000  0.85834000  1.0 -0.1088437038
C  C52  1  0.93956000  0.45020000  0.64166000  1.0 -0.1088437038
C  C53  1  0.21916000  0.72800000  0.23206000  1.0 0.6090754819
C  C54  1  0.78084000  0.22800000  0.26794000  1.0 0.6090754819
C  C55  1  0.78084000  0.27200000  0.76794000  1.0 0.6090754819
C  C56  1  0.21916000  0.77200000  0.73206000  1.0 0.6090754819
S  S1  1  0.70581000  0.96171000  0.10715000  1.0 0.9913841737
S  S2  1  0.29419000  0.46171000  0.39285000  1.0 0.9913841737
S  S3  1  0.29419000  0.03829000  0.89285000  1.0 0.9913841737
S  S4  1  0.70581000  0.53829000  0.60715000  1.0 0.9913841737
O  O1  1  0.24519000  0.51790000  0.24078000  1.0 -0.6296773898
O  O2  1  0.75481000  0.01790000  0.25922000  1.0 -0.6296773898
O  O3  1  0.75481000  0.48210000  0.75922000  1.0 -0.6296773898
O  O4  1  0.24519000  0.98210000  0.74078000  1.0 -0.6296773898
O  O5  1  0.28811000  0.89530000  0.24883000  1.0 -0.6296773898
O  O6  1  0.71189000  0.39530000  0.25117000  1.0 -0.6296773898
O  O7  1  0.71189000  0.10470000  0.75117000  1.0 -0.6296773898
O  O8  1  0.28811000  0.60470000  0.74883000  1.0 -0.6296773898
O  O9  1  0.56444000  0.54820000  0.82963000  1.0 -0.635987674
O  O10  1  0.43556000  0.04820000  0.67037000  1.0 -0.635987674
O  O11  1  0.43556000  0.45180000  0.17037000  1.0 -0.635987674
O  O12  1  0.56444000  0.95180000  0.32963000  1.0 -0.635987674
O  O13  1  0.55179000  0.92890000  0.81349000  1.0 -0.6850042689
O  O14  1  0.44821000  0.42890000  0.68651000  1.0 -0.6850042689
O  O15  1  0.44821000  0.07110000  0.18651000  1.0 -0.6847923743
O  O16  1  0.55179000  0.57110000  0.31349000  1.0 -0.6850042689
O  O17  1  0.63673000  0.80570000  0.12892000  1.0 -0.5801636922
O  O18  1  0.36327000  0.30570000  0.37108000  1.0 -0.5801636922
O  O19  1  0.36327000  0.19430000  0.87108000  1.0 -0.5801636922
O  O20  1  0.63673000  0.69430000  0.62892000  1.0 -0.5801636922
O  O21  1  0.69341000  0.20920000  0.11170000  1.0 -0.5150825131
O  O22  1  0.30659000  0.70920000  0.38830000  1.0 -0.514823054
O  O23  1  0.30659000  0.79080000  0.88830000  1.0 -0.5150825131
O  O24  1  0.69341000  0.29080000  0.61170000  1.0 -0.5150825131
