# DDEC6 charges by PACMAN v1.1 (https://github.com/mtap-research/PACMAN-charge/)
data_LIDZUV_ASR_pacman
_symmetry_space_group_name_H-M   'P 1'
_cell_length_a   11.83010000
_cell_length_b   5.57610000
_cell_length_c   23.69020000
_cell_angle_alpha   90.00000000
_cell_angle_beta   108.91400000
_cell_angle_gamma   90.00000000
_symmetry_Int_Tables_number   1
_chemical_formula_structural   CaH8C14SO6
_chemical_formula_sum   'Ca4 H32 C56 S4 O24'
_cell_volume   1478.36499717
_cell_formula_units_Z   4
loop_
 _symmetry_equiv_pos_site_id
 _symmetry_equiv_pos_as_xyz
  1  'x, y, z'
loop_
 _atom_site_type_symbol
 _atom_site_label
 _atom_site_symmetry_multiplicity
 _atom_site_fract_x
 _atom_site_fract_y
 _atom_site_fract_z
 _atom_site_occupancy
 _atom_site_charge
Ca  Ca1  1  0.91375000  0.74362000  0.77716000  1.0 1.4010422003
Ca  Ca2  1  0.08625000  0.24362000  0.72284000  1.0 1.4010422003
Ca  Ca3  1  0.08625000  0.25638000  0.22284000  1.0 1.4010422003
Ca  Ca4  1  0.91375000  0.75638000  0.27716000  1.0 1.4010422003
H  H1  1  0.82650000  0.37530000  0.09410000  1.0 0.1291037757
H  H2  1  0.17350000  0.87530000  0.40590000  1.0 0.1291037757
H  H3  1  0.17350000  0.62470000  0.90590000  1.0 0.1291037757
H  H4  1  0.82650000  0.12470000  0.59410000  1.0 0.1291037757
H  H5  1  0.76750000  0.29370000  0.99250000  1.0 0.1197618839
H  H6  1  0.23250000  0.79370000  0.50750000  1.0 0.1197618839
H  H7  1  0.23250000  0.70630000  0.00750000  1.0 0.1197618839
H  H8  1  0.76750000  0.20630000  0.49250000  1.0 0.1197618839
H  H9  1  0.88360000  0.94470000  0.96270000  1.0 0.1291037757
H  H10  1  0.11640000  0.44470000  0.53730000  1.0 0.1291037757
H  H11  1  0.11640000  0.05530000  0.03730000  1.0 0.1291037757
H  H12  1  0.88360000  0.55530000  0.46270000  1.0 0.1291037757
H  H13  1  0.93720000  0.02860000  0.06400000  1.0 0.1197618839
H  H14  1  0.06280000  0.52860000  0.43600000  1.0 0.1197618839
H  H15  1  0.06280000  0.97140000  0.93600000  1.0 0.1197618839
H  H16  1  0.93720000  0.47140000  0.56400000  1.0 0.1197618839
H  H17  1  0.46450000  0.02190000  0.78060000  1.0 0.1132505831
H  H18  1  0.53550000  0.52190000  0.71940000  1.0 0.1132505831
H  H19  1  0.53550000  0.97810000  0.21940000  1.0 0.1132505831
H  H20  1  0.46450000  0.47810000  0.28060000  1.0 0.1132505831
H  H21  1  0.66560000  0.93630000  0.82710000  1.0 0.1291037757
H  H22  1  0.33440000  0.43630000  0.67290000  1.0 0.1291037757
H  H23  1  0.33440000  0.06370000  0.17290000  1.0 0.1291037757
H  H24  1  0.66560000  0.56370000  0.32710000  1.0 0.1291037757
H  H25  1  0.57520000  0.30130000  0.88170000  1.0 0.1197618839
H  H26  1  0.42480000  0.80130000  0.61830000  1.0 0.1197618839
H  H27  1  0.42480000  0.69870000  0.11830000  1.0 0.1197618839
H  H28  1  0.57520000  0.19870000  0.38170000  1.0 0.1197618839
H  H29  1  0.37460000  0.38130000  0.83100000  1.0 0.1291037757
H  H30  1  0.62540000  0.88130000  0.66900000  1.0 0.1291037757
H  H31  1  0.62540000  0.61870000  0.16900000  1.0 0.1291037757
H  H32  1  0.37460000  0.11870000  0.33100000  1.0 0.1291037757
C  C1  1  0.93214000  0.76120000  0.15511000  1.0 0.6127564084
C  C2  1  0.06786000  0.26120000  0.34489000  1.0 0.6127564084
C  C3  1  0.06786000  0.23880000  0.84489000  1.0 0.6127564084
C  C4  1  0.93214000  0.73880000  0.65511000  1.0 0.6127564084
C  C5  1  0.89081000  0.70740000  0.08926000  1.0 -0.0119136692
C  C6  1  0.10919000  0.20740000  0.41074000  1.0 -0.0119136692
C  C7  1  0.10919000  0.29260000  0.91074000  1.0 -0.0119136692
C  C8  1  0.89081000  0.79260000  0.58926000  1.0 -0.0119136692
C  C9  1  0.83844000  0.48880000  0.06784000  1.0 -0.0899957035
C  C10  1  0.16156000  0.98880000  0.43216000  1.0 -0.0899957035
C  C11  1  0.16156000  0.51120000  0.93216000  1.0 -0.0899957035
C  C12  1  0.83844000  0.01120000  0.56784000  1.0 -0.0899957035
C  C13  1  0.80362000  0.43910000  0.00712000  1.0 -0.1075316392
C  C14  1  0.19638000  0.93910000  0.49288000  1.0 -0.1075316392
C  C15  1  0.19638000  0.56090000  0.99288000  1.0 -0.1075316392
C  C16  1  0.80362000  0.06090000  0.50712000  1.0 -0.1075316392
C  C17  1  0.82346000  0.60920000  0.96866000  1.0 -0.0835755248
C  C18  1  0.17654000  0.10920000  0.53134000  1.0 -0.0835755248
C  C19  1  0.17654000  0.39080000  0.03134000  1.0 -0.0835755248
C  C20  1  0.82346000  0.89080000  0.46866000  1.0 -0.0835755248
C  C21  1  0.87263000  0.83070000  0.98913000  1.0 -0.0990581242
C  C22  1  0.12737000  0.33070000  0.51087000  1.0 -0.0990581242
C  C23  1  0.12737000  0.16930000  0.01087000  1.0 -0.0990581242
C  C24  1  0.87263000  0.66930000  0.48913000  1.0 -0.0990581242
C  C25  1  0.90531000  0.87950000  0.04971000  1.0 -0.0899957035
C  C26  1  0.09469000  0.37950000  0.45029000  1.0 -0.0899957035
C  C27  1  0.09469000  0.12050000  0.95029000  1.0 -0.0899957035
C  C28  1  0.90531000  0.62050000  0.54971000  1.0 -0.0899957035
C  C29  1  0.26982000  0.75870000  0.76542000  1.0 0.6185777556
C  C30  1  0.73018000  0.25870000  0.73458000  1.0 0.6185777556
C  C31  1  0.73018000  0.24130000  0.23458000  1.0 0.6185777556
C  C32  1  0.26982000  0.74130000  0.26542000  1.0 0.6185777556
C  C33  1  0.39992000  0.70760000  0.80037000  1.0 -0.0177404088
C  C34  1  0.60008000  0.20760000  0.69963000  1.0 -0.0177404088
C  C35  1  0.60008000  0.29240000  0.19963000  1.0 -0.0177404088
C  C36  1  0.39992000  0.79240000  0.30037000  1.0 -0.0177404088
C  C37  1  0.48712000  0.87580000  0.79992000  1.0 -0.0990581242
C  C38  1  0.51288000  0.37580000  0.70008000  1.0 -0.0990581242
C  C39  1  0.51288000  0.12420000  0.20008000  1.0 -0.0990581242
C  C40  1  0.48712000  0.62420000  0.29992000  1.0 -0.0990581242
C  C41  1  0.60727000  0.82640000  0.82817000  1.0 -0.0899957035
C  C42  1  0.39273000  0.32640000  0.67183000  1.0 -0.0899957035
C  C43  1  0.39273000  0.17360000  0.17183000  1.0 -0.0899957035
C  C44  1  0.60727000  0.67360000  0.32817000  1.0 -0.0899957035
C  C45  1  0.63860000  0.61040000  0.85797000  1.0 -0.0899957035
C  C46  1  0.36140000  0.11040000  0.64203000  1.0 -0.0899957035
C  C47  1  0.36140000  0.38960000  0.14203000  1.0 -0.0899957035
C  C48  1  0.63860000  0.88960000  0.35797000  1.0 -0.0899957035
C  C49  1  0.55274000  0.44340000  0.86044000  1.0 -0.1075316392
C  C50  1  0.44726000  0.94340000  0.63956000  1.0 -0.1075316392
C  C51  1  0.44726000  0.55660000  0.13956000  1.0 -0.1075316392
C  C52  1  0.55274000  0.05660000  0.36044000  1.0 -0.1075316392
C  C53  1  0.43282000  0.49280000  0.83062000  1.0 -0.0990581242
C  C54  1  0.56718000  0.99280000  0.66938000  1.0 -0.0990581242
C  C55  1  0.56718000  0.50720000  0.16938000  1.0 -0.0990581242
C  C56  1  0.43282000  0.00720000  0.33062000  1.0 -0.0990581242
S  S1  1  0.79018000  0.53618000  0.89229000  1.0 0.994134016
S  S2  1  0.20982000  0.03618000  0.60771000  1.0 0.994134016
S  S3  1  0.20982000  0.46382000  0.10771000  1.0 0.994134016
S  S4  1  0.79018000  0.96382000  0.39229000  1.0 0.994134016
O  O1  1  0.95345000  0.58560000  0.19073000  1.0 -0.6727610458
O  O2  1  0.04655000  0.08560000  0.30927000  1.0 -0.6727610458
O  O3  1  0.04655000  0.41440000  0.80927000  1.0 -0.6727610458
O  O4  1  0.95345000  0.91440000  0.69073000  1.0 -0.6727610458
O  O5  1  0.93988000  0.97510000  0.17169000  1.0 -0.6220064986
O  O6  1  0.06012000  0.47510000  0.32831000  1.0 -0.6220064986
O  O7  1  0.06012000  0.02490000  0.82831000  1.0 -0.6220064986
O  O8  1  0.93988000  0.52490000  0.67169000  1.0 -0.6220064986
O  O9  1  0.24069000  0.97450000  0.75668000  1.0 -0.6342050064
O  O10  1  0.75931000  0.47450000  0.74332000  1.0 -0.6342050064
O  O11  1  0.75931000  0.02550000  0.24332000  1.0 -0.6342050064
O  O12  1  0.24069000  0.52550000  0.25668000  1.0 -0.6342050064
O  O13  1  0.20410000  0.58080000  0.74735000  1.0 -0.6220064986
O  O14  1  0.79590000  0.08080000  0.75265000  1.0 -0.6220064986
O  O15  1  0.79590000  0.41920000  0.25265000  1.0 -0.6220064986
O  O16  1  0.20410000  0.91920000  0.24735000  1.0 -0.6220064986
O  O17  1  0.86180000  0.69450000  0.86877000  1.0 -0.5707401413
O  O18  1  0.13820000  0.19450000  0.63123000  1.0 -0.5707401413
O  O19  1  0.13820000  0.30550000  0.13123000  1.0 -0.5707401413
O  O20  1  0.86180000  0.80550000  0.36877000  1.0 -0.5707401413
O  O21  1  0.80313000  0.28110000  0.88821000  1.0 -0.5082924593
O  O22  1  0.19687000  0.78110000  0.61179000  1.0 -0.5082924593
O  O23  1  0.19687000  0.71890000  0.11179000  1.0 -0.5082924593
O  O24  1  0.80313000  0.21890000  0.38821000  1.0 -0.5082924593
