# DDEC6 charges by PACMAN v1.1 (https://github.com/mtap-research/PACMAN-charge/)
data_LIGHIW_FSR_pacman
_symmetry_space_group_name_H-M   'P 1'
_cell_length_a   22.82000000
_cell_length_b   22.82000000
_cell_length_c   11.85430000
_cell_angle_alpha   90.00000000
_cell_angle_beta   90.00000000
_cell_angle_gamma   120.00000000
_symmetry_Int_Tables_number   1
_chemical_formula_structural   Ti2C24O7
_chemical_formula_sum   'Ti12 C144 O42'
_cell_volume   5346.10920333
_cell_formula_units_Z   6
loop_
 _symmetry_equiv_pos_site_id
 _symmetry_equiv_pos_as_xyz
  1  'x, y, z'
loop_
 _atom_site_type_symbol
 _atom_site_label
 _atom_site_symmetry_multiplicity
 _atom_site_fract_x
 _atom_site_fract_y
 _atom_site_fract_z
 _atom_site_occupancy
 _atom_site_charge
Ti  Ti1  1  0.10202000  0.05101000  0.59835000  1.0 2.13565058
Ti  Ti2  1  0.05101000  0.10202000  0.09835000  1.0 2.13565058
Ti  Ti3  1  0.94899000  0.05101000  0.59835000  1.0 2.13565058
Ti  Ti4  1  0.89798000  0.94899000  0.09835000  1.0 2.13565058
Ti  Ti5  1  0.94899000  0.89798000  0.59835000  1.0 2.13565058
Ti  Ti6  1  0.05101000  0.94899000  0.09835000  1.0 2.13565058
Ti  Ti7  1  0.05101000  0.94899000  0.40165000  1.0 2.13565058
Ti  Ti8  1  0.10202000  0.05101000  0.90165000  1.0 2.13565058
Ti  Ti9  1  0.05101000  0.10202000  0.40165000  1.0 2.13565058
Ti  Ti10  1  0.94899000  0.05101000  0.90165000  1.0 2.13565058
Ti  Ti11  1  0.89798000  0.94899000  0.40165000  1.0 2.13565058
Ti  Ti12  1  0.94899000  0.89798000  0.90165000  1.0 2.13565058
C  C1  1  0.26187000  0.95775000  0.42672000  1.0 0.0382030906
C  C2  1  0.30412000  0.26187000  0.92672000  1.0 0.0382030906
C  C3  1  0.04225000  0.30412000  0.42672000  1.0 0.0382030906
C  C4  1  0.73813000  0.04225000  0.92672000  1.0 0.0382030906
C  C5  1  0.69588000  0.73813000  0.42672000  1.0 0.0382030906
C  C6  1  0.95775000  0.69588000  0.92672000  1.0 0.0382030906
C  C7  1  0.30412000  0.04225000  0.57328000  1.0 0.0382030906
C  C8  1  0.26187000  0.30412000  0.07328000  1.0 0.0382030906
C  C9  1  0.95775000  0.26187000  0.57328000  1.0 0.0382030906
C  C10  1  0.69588000  0.95775000  0.07328000  1.0 0.0382030906
C  C11  1  0.73813000  0.69588000  0.57328000  1.0 0.0382030906
C  C12  1  0.04225000  0.73813000  0.07328000  1.0 0.0382030906
C  C13  1  0.73813000  0.04225000  0.57328000  1.0 0.0382030906
C  C14  1  0.69588000  0.73813000  0.07328000  1.0 0.0382030906
C  C15  1  0.95775000  0.69588000  0.57328000  1.0 0.0382030906
C  C16  1  0.26187000  0.95775000  0.07328000  1.0 0.0382030906
C  C17  1  0.30412000  0.26187000  0.57328000  1.0 0.0382030906
C  C18  1  0.04225000  0.30412000  0.07328000  1.0 0.0382030906
C  C19  1  0.69588000  0.95775000  0.42672000  1.0 0.0382030906
C  C20  1  0.73813000  0.69588000  0.92672000  1.0 0.0382030906
C  C21  1  0.04225000  0.73813000  0.42672000  1.0 0.0382030906
C  C22  1  0.30412000  0.04225000  0.92672000  1.0 0.0382030906
C  C23  1  0.26187000  0.30412000  0.42672000  1.0 0.0382030906
C  C24  1  0.95775000  0.26187000  0.92672000  1.0 0.0382030906
C  C25  1  0.32279000  0.95769000  0.42670000  1.0 -0.0061905134
C  C26  1  0.36510000  0.32279000  0.92670000  1.0 -0.0031727418
C  C27  1  0.04231000  0.36510000  0.42670000  1.0 -0.0061905134
C  C28  1  0.67721000  0.04231000  0.92670000  1.0 -0.0061905134
C  C29  1  0.63490000  0.67721000  0.42670000  1.0 -0.0061905134
C  C30  1  0.95769000  0.63490000  0.92670000  1.0 -0.0031727418
C  C31  1  0.36510000  0.04231000  0.57330000  1.0 -0.0061905134
C  C32  1  0.32279000  0.36510000  0.07330000  1.0 -0.0061905134
C  C33  1  0.95769000  0.32279000  0.57330000  1.0 -0.0061905134
C  C34  1  0.63490000  0.95769000  0.07330000  1.0 -0.0061905134
C  C35  1  0.67721000  0.63490000  0.57330000  1.0 -0.0061905134
C  C36  1  0.04231000  0.67721000  0.07330000  1.0 -0.0061905134
C  C37  1  0.67721000  0.04231000  0.57330000  1.0 -0.0061905134
C  C38  1  0.63490000  0.67721000  0.07330000  1.0 -0.0061905134
C  C39  1  0.95769000  0.63490000  0.57330000  1.0 -0.0061905134
C  C40  1  0.32279000  0.95769000  0.07330000  1.0 -0.0061905134
C  C41  1  0.36510000  0.32279000  0.57330000  1.0 -0.0061905134
C  C42  1  0.04231000  0.36510000  0.07330000  1.0 -0.0061905134
C  C43  1  0.63490000  0.95769000  0.42670000  1.0 -0.0061905134
C  C44  1  0.67721000  0.63490000  0.92670000  1.0 -0.0061905134
C  C45  1  0.04231000  0.67721000  0.42670000  1.0 -0.0061905134
C  C46  1  0.36510000  0.04231000  0.92670000  1.0 -0.0031727418
C  C47  1  0.32279000  0.36510000  0.42670000  1.0 -0.0061905134
C  C48  1  0.95769000  0.32279000  0.92670000  1.0 -0.0031727418
C  C49  1  0.44183000  0.94505000  0.54662000  1.0 0.0176883452
C  C50  1  0.49678000  0.44183000  0.04662000  1.0 0.0176883452
C  C51  1  0.05495000  0.49678000  0.54662000  1.0 0.0176883452
C  C52  1  0.55817000  0.05495000  0.04662000  1.0 0.0176883452
C  C53  1  0.50322000  0.55817000  0.54662000  1.0 0.0176883452
C  C54  1  0.94505000  0.50322000  0.04662000  1.0 0.0176883452
C  C55  1  0.49678000  0.05495000  0.45338000  1.0 0.0176883452
C  C56  1  0.44183000  0.49678000  0.95338000  1.0 0.0147820406
C  C57  1  0.94505000  0.44183000  0.45338000  1.0 0.0176883452
C  C58  1  0.50322000  0.94505000  0.95338000  1.0 0.0176883452
C  C59  1  0.55817000  0.50322000  0.45338000  1.0 0.0176883452
C  C60  1  0.05495000  0.55817000  0.95338000  1.0 0.0176883452
C  C61  1  0.55817000  0.05495000  0.45338000  1.0 0.0176883452
C  C62  1  0.50322000  0.55817000  0.95338000  1.0 0.0176883452
C  C63  1  0.94505000  0.50322000  0.45338000  1.0 0.0176883452
C  C64  1  0.44183000  0.94505000  0.95338000  1.0 0.0176883452
C  C65  1  0.49678000  0.44183000  0.45338000  1.0 0.0176883452
C  C66  1  0.05495000  0.49678000  0.95338000  1.0 0.0176883452
C  C67  1  0.50322000  0.94505000  0.54662000  1.0 0.0176883452
C  C68  1  0.55817000  0.50322000  0.04662000  1.0 0.0176883452
C  C69  1  0.05495000  0.55817000  0.54662000  1.0 0.0176883452
C  C70  1  0.49678000  0.05495000  0.04662000  1.0 0.0176883452
C  C71  1  0.44183000  0.49678000  0.54662000  1.0 0.0176883452
C  C72  1  0.94505000  0.44183000  0.04662000  1.0 0.0176883452
C  C73  1  0.38016000  0.88700000  0.59802000  1.0 -0.020523152
C  C74  1  0.49316000  0.38016000  0.09802000  1.0 -0.020523152
C  C75  1  0.11300000  0.49316000  0.59802000  1.0 -0.020523152
C  C76  1  0.61984000  0.11300000  0.09802000  1.0 -0.020523152
C  C77  1  0.50684000  0.61984000  0.59802000  1.0 -0.0331792187
C  C78  1  0.88700000  0.50684000  0.09802000  1.0 -0.020523152
C  C79  1  0.49316000  0.11300000  0.40198000  1.0 -0.020523152
C  C80  1  0.38016000  0.49316000  0.90198000  1.0 -0.020523152
C  C81  1  0.88700000  0.38016000  0.40198000  1.0 -0.020523152
C  C82  1  0.50684000  0.88700000  0.90198000  1.0 -0.020523152
C  C83  1  0.61984000  0.50684000  0.40198000  1.0 -0.020523152
C  C84  1  0.11300000  0.61984000  0.90198000  1.0 -0.020523152
C  C85  1  0.61984000  0.11300000  0.40198000  1.0 -0.020523152
C  C86  1  0.50684000  0.61984000  0.90198000  1.0 -0.0331792187
C  C87  1  0.88700000  0.50684000  0.40198000  1.0 -0.020523152
C  C88  1  0.38016000  0.88700000  0.90198000  1.0 -0.020523152
C  C89  1  0.49316000  0.38016000  0.40198000  1.0 -0.020523152
C  C90  1  0.11300000  0.49316000  0.90198000  1.0 -0.020523152
C  C91  1  0.50684000  0.88700000  0.59802000  1.0 -0.020523152
C  C92  1  0.61984000  0.50684000  0.09802000  1.0 -0.020523152
C  C93  1  0.11300000  0.61984000  0.59802000  1.0 -0.020523152
C  C94  1  0.49316000  0.11300000  0.09802000  1.0 -0.020523152
C  C95  1  0.38016000  0.49316000  0.59802000  1.0 -0.020523152
C  C96  1  0.88700000  0.38016000  0.09802000  1.0 -0.020523152
C  C97  1  0.18780000  0.00000000  0.50000000  1.0 0.6541435966
C  C98  1  0.18780000  0.18780000  0.00000000  1.0 0.6541435966
C  C99  1  0.00000000  0.18780000  0.50000000  1.0 0.6541435966
C  C100  1  0.81220000  0.00000000  0.00000000  1.0 0.6541435966
C  C101  1  0.81220000  0.81220000  0.50000000  1.0 0.6541435966
C  C102  1  0.00000000  0.81220000  0.00000000  1.0 0.6541435966
C  C103  1  0.81220000  0.00000000  0.50000000  1.0 0.6541435966
C  C104  1  0.81220000  0.81220000  0.00000000  1.0 0.6541435966
C  C105  1  0.00000000  0.81220000  0.50000000  1.0 0.6541435966
C  C106  1  0.18780000  0.00000000  0.00000000  1.0 0.6541435966
C  C107  1  0.18780000  0.18780000  0.50000000  1.0 0.6541435966
C  C108  1  0.00000000  0.18780000  0.00000000  1.0 0.6541435966
C  C109  1  0.25206000  0.00000000  0.50000000  1.0 -0.0758276682
C  C110  1  0.25206000  0.25206000  0.00000000  1.0 -0.0745096335
C  C111  1  0.00000000  0.25206000  0.50000000  1.0 -0.0745096335
C  C112  1  0.74794000  0.00000000  0.00000000  1.0 -0.0758276682
C  C113  1  0.74794000  0.74794000  0.50000000  1.0 -0.0745096335
C  C114  1  0.00000000  0.74794000  0.00000000  1.0 -0.0745096335
C  C115  1  0.74794000  0.00000000  0.50000000  1.0 -0.0758276682
C  C116  1  0.74794000  0.74794000  0.00000000  1.0 -0.0745096335
C  C117  1  0.00000000  0.74794000  0.50000000  1.0 -0.0745096335
C  C118  1  0.25206000  0.00000000  0.00000000  1.0 -0.0758276682
C  C119  1  0.25206000  0.25206000  0.50000000  1.0 -0.0745096335
C  C120  1  0.00000000  0.25206000  0.00000000  1.0 -0.0745096335
C  C121  1  0.37440000  0.00000000  0.50000000  1.0 0.0699041723
C  C122  1  0.37440000  0.37440000  0.00000000  1.0 0.0699041723
C  C123  1  0.00000000  0.37440000  0.50000000  1.0 0.0699041723
C  C124  1  0.62560000  0.00000000  0.00000000  1.0 0.0699041723
C  C125  1  0.62560000  0.62560000  0.50000000  1.0 0.0699041723
C  C126  1  0.00000000  0.62560000  0.00000000  1.0 0.0699041723
C  C127  1  0.62560000  0.00000000  0.50000000  1.0 0.0699041723
C  C128  1  0.62560000  0.62560000  0.00000000  1.0 0.0699041723
C  C129  1  0.00000000  0.62560000  0.50000000  1.0 0.0699041723
C  C130  1  0.37440000  0.00000000  0.00000000  1.0 0.0699041723
C  C131  1  0.37440000  0.37440000  0.50000000  1.0 0.0699041723
C  C132  1  0.00000000  0.37440000  0.00000000  1.0 0.0699041723
C  C133  1  0.43859000  0.00000000  0.50000000  1.0 -0.0031727418
C  C134  1  0.43859000  0.43859000  0.00000000  1.0 -0.0031727418
C  C135  1  0.00000000  0.43859000  0.50000000  1.0 -0.0031727418
C  C136  1  0.56141000  0.00000000  0.00000000  1.0 -0.0031727418
C  C137  1  0.56141000  0.56141000  0.50000000  1.0 -0.0031727418
C  C138  1  0.00000000  0.56141000  0.00000000  1.0 -0.0031727418
C  C139  1  0.56141000  0.00000000  0.50000000  1.0 -0.0031727418
C  C140  1  0.56141000  0.56141000  0.00000000  1.0 -0.0031727418
C  C141  1  0.00000000  0.56141000  0.50000000  1.0 -0.0031727418
C  C142  1  0.43859000  0.00000000  0.00000000  1.0 -0.0031727418
C  C143  1  0.43859000  0.43859000  0.50000000  1.0 -0.0031727418
C  C144  1  0.00000000  0.43859000  0.00000000  1.0 -0.0031727418
O  O1  1  0.18562000  0.04412000  0.57976000  1.0 -0.6170749715
O  O2  1  0.14150000  0.18562000  0.07976000  1.0 -0.6170749715
O  O3  1  0.95588000  0.14150000  0.57976000  1.0 -0.6170749715
O  O4  1  0.81438000  0.95588000  0.07976000  1.0 -0.6170749715
O  O5  1  0.85850000  0.81438000  0.57976000  1.0 -0.6170749715
O  O6  1  0.04412000  0.85850000  0.07976000  1.0 -0.6170749715
O  O7  1  0.14150000  0.95588000  0.42024000  1.0 -0.6170749715
O  O8  1  0.18562000  0.14150000  0.92024000  1.0 -0.6170749715
O  O9  1  0.04412000  0.18562000  0.42024000  1.0 -0.6170749715
O  O10  1  0.85850000  0.04412000  0.92024000  1.0 -0.6170749715
O  O11  1  0.81438000  0.85850000  0.42024000  1.0 -0.6170749715
O  O12  1  0.95588000  0.81438000  0.92024000  1.0 -0.6170749715
O  O13  1  0.81438000  0.95588000  0.42024000  1.0 -0.6170749715
O  O14  1  0.85850000  0.81438000  0.92024000  1.0 -0.6170749715
O  O15  1  0.04412000  0.85850000  0.42024000  1.0 -0.6170749715
O  O16  1  0.18562000  0.04412000  0.92024000  1.0 -0.6170749715
O  O17  1  0.14150000  0.18562000  0.42024000  1.0 -0.6170749715
O  O18  1  0.95588000  0.14150000  0.92024000  1.0 -0.6170749715
O  O19  1  0.85850000  0.04412000  0.57976000  1.0 -0.6170749715
O  O20  1  0.81438000  0.85850000  0.07976000  1.0 -0.6170749715
O  O21  1  0.95588000  0.81438000  0.57976000  1.0 -0.6170749715
O  O22  1  0.14150000  0.95588000  0.07976000  1.0 -0.6170749715
O  O23  1  0.18562000  0.14150000  0.57976000  1.0 -0.6170749715
O  O24  1  0.04412000  0.18562000  0.07976000  1.0 -0.6170749715
O  O25  1  0.13646000  0.06823000  0.75000000  1.0 -0.9540098261
O  O26  1  0.06823000  0.13646000  0.25000000  1.0 -0.9567675989
O  O27  1  0.93177000  0.06823000  0.75000000  1.0 -0.9567675989
O  O28  1  0.86354000  0.93177000  0.25000000  1.0 -0.9567675989
O  O29  1  0.93177000  0.86354000  0.75000000  1.0 -0.9540098261
O  O30  1  0.06823000  0.93177000  0.25000000  1.0 -0.9567675989
O  O31  1  0.04362000  0.95638000  0.58370000  1.0 -1.1265124431
O  O32  1  0.08724000  0.04362000  0.08370000  1.0 -1.1265124431
O  O33  1  0.04362000  0.08724000  0.58370000  1.0 -1.1265124431
O  O34  1  0.95638000  0.04362000  0.08370000  1.0 -1.1265124431
O  O35  1  0.91276000  0.95638000  0.58370000  1.0 -1.1265124431
O  O36  1  0.95638000  0.91276000  0.08370000  1.0 -1.1265124431
O  O37  1  0.08724000  0.04362000  0.41630000  1.0 -1.1265124431
O  O38  1  0.04362000  0.08724000  0.91630000  1.0 -1.1265124431
O  O39  1  0.95638000  0.04362000  0.41630000  1.0 -1.1265124431
O  O40  1  0.91276000  0.95638000  0.91630000  1.0 -1.1265124431
O  O41  1  0.95638000  0.91276000  0.41630000  1.0 -1.1265124431
O  O42  1  0.04362000  0.95638000  0.91630000  1.0 -1.1265124431
