# DDEC6 charges by PACMAN v1.1 (https://github.com/mtap-research/PACMAN-charge/)
data_LIGJIW_ASR_pacman
_symmetry_space_group_name_H-M   'P 1'
_cell_length_a   11.63960000
_cell_length_b   11.75650000
_cell_length_c   13.00340000
_cell_angle_alpha   101.04000000
_cell_angle_beta   93.70800000
_cell_angle_gamma   114.40200000
_symmetry_Int_Tables_number   1
_chemical_formula_structural   Bi4H6C16N2O15
_chemical_formula_sum   'Bi8 H12 C32 N4 O30'
_cell_volume   1569.74067603
_cell_formula_units_Z   2
loop_
 _symmetry_equiv_pos_site_id
 _symmetry_equiv_pos_as_xyz
  1  'x, y, z'
loop_
 _atom_site_type_symbol
 _atom_site_label
 _atom_site_symmetry_multiplicity
 _atom_site_fract_x
 _atom_site_fract_y
 _atom_site_fract_z
 _atom_site_occupancy
 _atom_site_charge
Bi  Bi1  1  0.44418000  0.24300000  0.61480000  1.0 1.390113842
Bi  Bi2  1  0.70363000  0.46151000  0.84439000  1.0 1.3805778141
Bi  Bi3  1  0.37801000  0.41409000  0.87893000  1.0 1.3415105457
Bi  Bi4  1  0.55306000  0.58557000  0.63155000  1.0 1.4483425135
Bi  Bi5  1  0.55598000  0.75720000  0.38534000  1.0 1.4011607284
Bi  Bi6  1  0.29251000  0.53486000  0.15541000  1.0 1.390113842
Bi  Bi7  1  0.62141000  0.58581000  0.12199000  1.0 1.3475042695
Bi  Bi8  1  0.45024000  0.41709000  0.36933000  1.0 1.4483425135
H  H1  1  0.99129000  0.11147000  0.43555000  1.0 0.1219297712
H  H2  1  0.09942000  0.30573000  0.77128000  1.0 0.0809603932
H  H3  1  0.88586000  0.30504000  0.77302000  1.0 0.0892651605
H  H4  1  0.83432000  0.40444000  0.33567000  1.0 0.1219297712
H  H5  1  0.97660000  0.86878000  0.13327000  1.0 0.1005093719
H  H6  1  0.95606000  0.60745000  0.66754000  1.0 0.1100310847
H  H7  1  0.00816000  0.88815000  0.56444000  1.0 0.1219297712
H  H8  1  0.90065000  0.69442000  0.22865000  1.0 0.0809603932
H  H9  1  0.11386000  0.69437000  0.22717000  1.0 0.0892651605
H  H10  1  0.16519000  0.59457000  0.66183000  1.0 0.1100310847
H  H11  1  0.02293000  0.13085000  0.86424000  1.0 0.1005093719
H  H12  1  0.12010000  0.10358000  0.18462000  1.0 0.1100310847
C  C1  1  0.81675000  0.20802000  0.60664000  1.0 -0.0476749127
C  C2  1  0.84985000  0.15477000  0.51330000  1.0 0.0436411763
C  C3  1  0.96883000  0.15254000  0.51017000  1.0 -0.1182770689
C  C4  1  0.05964000  0.20884000  0.60299000  1.0 -0.0414131263
C  C5  1  0.02948000  0.26341000  0.69770000  1.0 -0.079987237
C  C6  1  0.90906000  0.26281000  0.69870000  1.0 -0.0994194111
C  C7  1  0.68441000  0.19790000  0.61412000  1.0 0.5596470947
C  C8  1  0.18787000  0.21328000  0.59760000  1.0 0.5596470947
C  C9  1  0.88002000  0.50606000  0.50201000  1.0 -0.0267705524
C  C10  1  0.97450000  0.55949000  0.59384000  1.0 -0.0994194111
C  C11  1  0.90653000  0.44804000  0.40797000  1.0 -0.14752667
C  C12  1  0.75221000  0.50847000  0.50158000  1.0 0.5952934141
C  C13  1  0.91789000  0.86434000  0.97098000  1.0 -0.0994194111
C  C14  1  0.93612000  0.94315000  0.89745000  1.0 0.0670849869
C  C15  1  0.98771000  0.92805000  0.07534000  1.0 -0.0869215389
C  C16  1  0.84141000  0.72498000  0.94499000  1.0 0.5384222085
C  C17  1  0.18338000  0.79201000  0.39328000  1.0 -0.0476749127
C  C18  1  0.14981000  0.84518000  0.48657000  1.0 0.0436411763
C  C19  1  0.03148000  0.84760000  0.48997000  1.0 -0.1182770689
C  C20  1  0.94014000  0.79100000  0.39685000  1.0 -0.0414131263
C  C21  1  0.97094000  0.73682000  0.30240000  1.0 -0.079987237
C  C22  1  0.09083000  0.73749000  0.30104000  1.0 -0.0994194111
C  C23  1  0.31564000  0.80196000  0.38585000  1.0 0.5596470947
C  C24  1  0.81194000  0.78661000  0.40218000  1.0 0.5596470947
C  C25  1  0.11988000  0.49288000  0.49724000  1.0 -0.079987237
C  C26  1  0.02320000  0.44132000  0.40717000  1.0 0.052700259
C  C27  1  0.09109000  0.55248000  0.59058000  1.0 -0.0869215389
C  C28  1  0.24810000  0.49095000  0.49821000  1.0 0.5918822998
C  C29  1  0.08016000  0.13458000  0.02846000  1.0 -0.0267705524
C  C30  1  0.06754000  0.05842000  0.10359000  1.0 -0.079987237
C  C31  1  0.01348000  0.07385000  0.92358000  1.0 -0.1571536397
C  C32  1  0.15869000  0.27381000  0.05487000  1.0 0.5384222085
N  N1  1  0.76007000  0.10458000  0.41292000  1.0 0.5139773006
N  N2  1  0.87697000  0.88512000  0.78433000  1.0 0.5191667194
N  N3  1  0.23999000  0.89542000  0.58699000  1.0 0.5191667194
N  N4  1  0.03315000  0.37143000  0.30337000  1.0 0.5267199988
O  O1  1  0.54138000  0.43151000  0.73657000  1.0 -0.9125108605
O  O2  1  0.46285000  0.39129000  0.53315000  1.0 -0.8483109956
O  O3  1  0.58126000  0.47901000  0.95029000  1.0 -0.8403520768
O  O4  1  0.59106000  0.09084000  0.59974000  1.0 -0.5310784464
O  O5  1  0.67664000  0.30775000  0.64155000  1.0 -0.6467010861
O  O6  1  0.21558000  0.16215000  0.51371000  1.0 -0.541305769
O  O7  1  0.27404000  0.27445000  0.68308000  1.0 -0.6164054756
O  O8  1  0.76094000  0.01151000  0.34603000  1.0 -0.4175131803
O  O9  1  0.68893000  0.15824000  0.39873000  1.0 -0.3270971661
O  O10  1  0.73509000  0.56795000  0.58978000  1.0 -0.5792406088
O  O11  1  0.67251000  0.45349000  0.41507000  1.0 -0.589802671
O  O12  1  0.77761000  0.66608000  0.84618000  1.0 -0.5792406088
O  O13  1  0.83701000  0.65664000  0.01198000  1.0 -0.5792406088
O  O14  1  0.76396000  0.86641000  0.75712000  1.0 -0.4035135692
O  O15  1  0.94758000  0.86226000  0.72374000  1.0 -0.3553233331
O  O16  1  0.45908000  0.56914000  0.26341000  1.0 -0.9125108605
O  O17  1  0.53747000  0.60909000  0.46710000  1.0 -0.8403520768
O  O18  1  0.41966000  0.52030000  0.04983000  1.0 -0.8483109956
O  O19  1  0.40876000  0.90962000  0.39983000  1.0 -0.541305769
O  O20  1  0.32418000  0.69278000  0.35909000  1.0 -0.6297049408
O  O21  1  0.78433000  0.83810000  0.48576000  1.0 -0.5310784464
O  O22  1  0.72564000  0.72513000  0.31682000  1.0 -0.6164054756
O  O23  1  0.23917000  0.98849000  0.65385000  1.0 -0.4175131803
O  O24  1  0.31105000  0.84176000  0.60121000  1.0 -0.3373048788
O  O25  1  0.26648000  0.43222000  0.41023000  1.0 -0.5792406088
O  O26  1  0.32718000  0.54663000  0.58448000  1.0 -0.5792406088
O  O27  1  0.22618000  0.32951000  0.15186000  1.0 -0.5569723135
O  O28  1  0.16277000  0.34359000  0.98877000  1.0 -0.589802671
O  O29  1  0.00380000  0.25397000  0.28901000  1.0 -0.3270971661
O  O30  1  0.05710000  0.43380000  0.23160000  1.0 -0.4348275846
