# DDEC6 charges by PACMAN v1.1 (https://github.com/mtap-research/PACMAN-charge/)
data_LIHFUH_ASR_pacman
_symmetry_space_group_name_H-M   'P 1'
_cell_length_a   16.30760000
_cell_length_b   16.30760000
_cell_length_c   16.30760000
_cell_angle_alpha   60.00000000
_cell_angle_beta   60.00000000
_cell_angle_gamma   60.00000000
_symmetry_Int_Tables_number   1
_chemical_formula_structural   Zr3H36C42(S5O16)4
_chemical_formula_sum   'Zr6 H72 C84 S40 O128'
_cell_volume   3066.58603219
_cell_formula_units_Z   2
loop_
 _symmetry_equiv_pos_site_id
 _symmetry_equiv_pos_as_xyz
  1  'x, y, z'
loop_
 _atom_site_type_symbol
 _atom_site_label
 _atom_site_symmetry_multiplicity
 _atom_site_fract_x
 _atom_site_fract_y
 _atom_site_fract_z
 _atom_site_occupancy
 _atom_site_charge
Zr  Zr1  1  0.10711000  0.89289000  0.10711000  1.0 2.0622848793
Zr  Zr2  1  0.89289000  0.10711000  0.89289000  1.0 2.0622848793
Zr  Zr3  1  0.10711000  0.10711000  0.89289000  1.0 2.0622848793
Zr  Zr4  1  0.89289000  0.89289000  0.10711000  1.0 2.0622848793
Zr  Zr5  1  0.89289000  0.10711000  0.10711000  1.0 2.0622848793
Zr  Zr6  1  0.10711000  0.89289000  0.89289000  1.0 2.0622848793
H  H1  1  0.85700000  0.66500000  0.30100000  1.0 0.1051462499
H  H2  1  0.87700000  0.54700000  0.33500000  1.0 0.0861453767
H  H3  1  0.80500000  0.60500000  0.41500000  1.0 0.1150305444
H  H4  1  0.66500000  0.85700000  0.17700000  1.0 0.1051462499
H  H5  1  0.54700000  0.87700000  0.24100000  1.0 0.0861453767
H  H6  1  0.60500000  0.80500000  0.17500000  1.0 0.1150305444
H  H7  1  0.30100000  0.17700000  0.85700000  1.0 0.1051462499
H  H8  1  0.33500000  0.24100000  0.87700000  1.0 0.0861453767
H  H9  1  0.41500000  0.17500000  0.80500000  1.0 0.1150305444
H  H10  1  0.17700000  0.30100000  0.66500000  1.0 0.1051462499
H  H11  1  0.24100000  0.33500000  0.54700000  1.0 0.0861453767
H  H12  1  0.17500000  0.41500000  0.60500000  1.0 0.1150305444
H  H13  1  0.30100000  0.85700000  0.66500000  1.0 0.1051462499
H  H14  1  0.33500000  0.87700000  0.54700000  1.0 0.0861453767
H  H15  1  0.41500000  0.80500000  0.60500000  1.0 0.1150305444
H  H16  1  0.17700000  0.66500000  0.85700000  1.0 0.1051462499
H  H17  1  0.24100000  0.54700000  0.87700000  1.0 0.0861453767
H  H18  1  0.17500000  0.60500000  0.80500000  1.0 0.1150305444
H  H19  1  0.85700000  0.30100000  0.17700000  1.0 0.1051462499
H  H20  1  0.87700000  0.33500000  0.24100000  1.0 0.0861453767
H  H21  1  0.80500000  0.41500000  0.17500000  1.0 0.1150305444
H  H22  1  0.66500000  0.17700000  0.30100000  1.0 0.1051462499
H  H23  1  0.54700000  0.24100000  0.33500000  1.0 0.0861453767
H  H24  1  0.60500000  0.17500000  0.41500000  1.0 0.1150305444
H  H25  1  0.66500000  0.30100000  0.85700000  1.0 0.1051462499
H  H26  1  0.54700000  0.33500000  0.87700000  1.0 0.0861453767
H  H27  1  0.60500000  0.41500000  0.80500000  1.0 0.1150305444
H  H28  1  0.85700000  0.17700000  0.66500000  1.0 0.1051462499
H  H29  1  0.87700000  0.24100000  0.54700000  1.0 0.0861453767
H  H30  1  0.80500000  0.17500000  0.60500000  1.0 0.1150305444
H  H31  1  0.17700000  0.85700000  0.30100000  1.0 0.1051462499
H  H32  1  0.24100000  0.87700000  0.33500000  1.0 0.0861453767
H  H33  1  0.17500000  0.80500000  0.41500000  1.0 0.1150305444
H  H34  1  0.30100000  0.66500000  0.17700000  1.0 0.1051462499
H  H35  1  0.33500000  0.54700000  0.24100000  1.0 0.0861453767
H  H36  1  0.41500000  0.60500000  0.17500000  1.0 0.1150305444
H  H37  1  0.66500000  0.85700000  0.30100000  1.0 0.1051462499
H  H38  1  0.54700000  0.87700000  0.33500000  1.0 0.0861453767
H  H39  1  0.60500000  0.80500000  0.41500000  1.0 0.1150305444
H  H40  1  0.85700000  0.66500000  0.17700000  1.0 0.1051462499
H  H41  1  0.87700000  0.54700000  0.24100000  1.0 0.0861453767
H  H42  1  0.80500000  0.60500000  0.17500000  1.0 0.1150305444
H  H43  1  0.17700000  0.30100000  0.85700000  1.0 0.1051462499
H  H44  1  0.24100000  0.33500000  0.87700000  1.0 0.0861453767
H  H45  1  0.17500000  0.41500000  0.80500000  1.0 0.1150305444
H  H46  1  0.30100000  0.17700000  0.66500000  1.0 0.1051462499
H  H47  1  0.33500000  0.24100000  0.54700000  1.0 0.0861453767
H  H48  1  0.41500000  0.17500000  0.60500000  1.0 0.1150305444
H  H49  1  0.85700000  0.30100000  0.66500000  1.0 0.1051462499
H  H50  1  0.87700000  0.33500000  0.54700000  1.0 0.0861453767
H  H51  1  0.80500000  0.41500000  0.60500000  1.0 0.1150305444
H  H52  1  0.66500000  0.17700000  0.85700000  1.0 0.1051462499
H  H53  1  0.54700000  0.24100000  0.87700000  1.0 0.0861453767
H  H54  1  0.60500000  0.17500000  0.80500000  1.0 0.1150305444
H  H55  1  0.30100000  0.85700000  0.17700000  1.0 0.1051462499
H  H56  1  0.33500000  0.87700000  0.24100000  1.0 0.0861453767
H  H57  1  0.41500000  0.80500000  0.17500000  1.0 0.1150305444
H  H58  1  0.17700000  0.66500000  0.30100000  1.0 0.1051462499
H  H59  1  0.24100000  0.54700000  0.33500000  1.0 0.0861453767
H  H60  1  0.17500000  0.60500000  0.41500000  1.0 0.1150305444
H  H61  1  0.30100000  0.66500000  0.85700000  1.0 0.1051462499
H  H62  1  0.33500000  0.54700000  0.87700000  1.0 0.0861453767
H  H63  1  0.41500000  0.60500000  0.80500000  1.0 0.1150305444
H  H64  1  0.17700000  0.85700000  0.66500000  1.0 0.1051462499
H  H65  1  0.24100000  0.87700000  0.54700000  1.0 0.0861453767
H  H66  1  0.17500000  0.80500000  0.60500000  1.0 0.1150305444
H  H67  1  0.85700000  0.17700000  0.30100000  1.0 0.1051462499
H  H68  1  0.87700000  0.24100000  0.33500000  1.0 0.0861453767
H  H69  1  0.80500000  0.17500000  0.41500000  1.0 0.1150305444
H  H70  1  0.66500000  0.30100000  0.17700000  1.0 0.1051462499
H  H71  1  0.54700000  0.33500000  0.24100000  1.0 0.0861453767
H  H72  1  0.60500000  0.41500000  0.17500000  1.0 0.1150305444
C  C1  1  0.86580000  0.59980000  0.35580000  1.0 -0.2286758492
C  C2  1  0.95370000  0.57430000  0.38130000  1.0 -0.1198840971
C  C3  1  0.59980000  0.86580000  0.17860000  1.0 -0.2286758492
C  C4  1  0.57430000  0.95370000  0.09070000  1.0 -0.1198840971
C  C5  1  0.35580000  0.17860000  0.86580000  1.0 -0.2286758492
C  C6  1  0.38130000  0.09070000  0.95370000  1.0 -0.1198840971
C  C7  1  0.17860000  0.35580000  0.59980000  1.0 -0.2286758492
C  C8  1  0.09070000  0.38130000  0.57430000  1.0 -0.1198840971
C  C9  1  0.35580000  0.86580000  0.59980000  1.0 -0.2286758492
C  C10  1  0.38130000  0.95370000  0.57430000  1.0 -0.1198840971
C  C11  1  0.17860000  0.59980000  0.86580000  1.0 -0.2286758492
C  C12  1  0.09070000  0.57430000  0.95370000  1.0 -0.1198840971
C  C13  1  0.86580000  0.35580000  0.17860000  1.0 -0.2286758492
C  C14  1  0.95370000  0.38130000  0.09070000  1.0 -0.1198840971
C  C15  1  0.59980000  0.17860000  0.35580000  1.0 -0.2286758492
C  C16  1  0.57430000  0.09070000  0.38130000  1.0 -0.1198840971
C  C17  1  0.59980000  0.35580000  0.86580000  1.0 -0.2286758492
C  C18  1  0.57430000  0.38130000  0.95370000  1.0 -0.1198840971
C  C19  1  0.86580000  0.17860000  0.59980000  1.0 -0.2286758492
C  C20  1  0.95370000  0.09070000  0.57430000  1.0 -0.1198840971
C  C21  1  0.17860000  0.86580000  0.35580000  1.0 -0.2286758492
C  C22  1  0.09070000  0.95370000  0.38130000  1.0 -0.1198840971
C  C23  1  0.35580000  0.59980000  0.17860000  1.0 -0.2286758492
C  C24  1  0.38130000  0.57430000  0.09070000  1.0 -0.1198840971
C  C25  1  0.59980000  0.86580000  0.35580000  1.0 -0.2286758492
C  C26  1  0.57430000  0.95370000  0.38130000  1.0 -0.1198840971
C  C27  1  0.86580000  0.59980000  0.17860000  1.0 -0.2286758492
C  C28  1  0.95370000  0.57430000  0.09070000  1.0 -0.1198840971
C  C29  1  0.17860000  0.35580000  0.86580000  1.0 -0.2286758492
C  C30  1  0.09070000  0.38130000  0.95370000  1.0 -0.1198840971
C  C31  1  0.35580000  0.17860000  0.59980000  1.0 -0.2286758492
C  C32  1  0.38130000  0.09070000  0.57430000  1.0 -0.1198840971
C  C33  1  0.86580000  0.35580000  0.59980000  1.0 -0.2286758492
C  C34  1  0.95370000  0.38130000  0.57430000  1.0 -0.1198840971
C  C35  1  0.59980000  0.17860000  0.86580000  1.0 -0.2286758492
C  C36  1  0.57430000  0.09070000  0.95370000  1.0 -0.1198840971
C  C37  1  0.35580000  0.86580000  0.17860000  1.0 -0.2286758492
C  C38  1  0.38130000  0.95370000  0.09070000  1.0 -0.1198840971
C  C39  1  0.17860000  0.59980000  0.35580000  1.0 -0.2286758492
C  C40  1  0.09070000  0.57430000  0.38130000  1.0 -0.1198840971
C  C41  1  0.35580000  0.59980000  0.86580000  1.0 -0.2286758492
C  C42  1  0.38130000  0.57430000  0.95370000  1.0 -0.1198840971
C  C43  1  0.17860000  0.86580000  0.59980000  1.0 -0.2286758492
C  C44  1  0.09070000  0.95370000  0.57430000  1.0 -0.1198840971
C  C45  1  0.86580000  0.17860000  0.35580000  1.0 -0.2286758492
C  C46  1  0.95370000  0.09070000  0.38130000  1.0 -0.1198840971
C  C47  1  0.59980000  0.35580000  0.17860000  1.0 -0.2286758492
C  C48  1  0.57430000  0.38130000  0.09070000  1.0 -0.1198840971
C  C49  1  0.00200000  0.73560000  0.26040000  1.0 0.2381341618
C  C50  1  0.02020000  0.63060000  0.32900000  1.0 0.0099693962
C  C51  1  0.73560000  0.00200000  0.00200000  1.0 0.2381341618
C  C52  1  0.63060000  0.02020000  0.02020000  1.0 0.0099693962
C  C53  1  0.26040000  0.00200000  0.00200000  1.0 0.2381341618
C  C54  1  0.32900000  0.02020000  0.02020000  1.0 0.0099693962
C  C55  1  0.00200000  0.26040000  0.73560000  1.0 0.2381341618
C  C56  1  0.02020000  0.32900000  0.63060000  1.0 0.0099693962
C  C57  1  0.26040000  0.00200000  0.73560000  1.0 0.2381341618
C  C58  1  0.32900000  0.02020000  0.63060000  1.0 0.0099693962
C  C59  1  0.00200000  0.73560000  0.00200000  1.0 0.2381341618
C  C60  1  0.02020000  0.63060000  0.02020000  1.0 0.0099693962
C  C61  1  0.00200000  0.26040000  0.00200000  1.0 0.2381341618
C  C62  1  0.02020000  0.32900000  0.02020000  1.0 0.0099693962
C  C63  1  0.73560000  0.00200000  0.26040000  1.0 0.2381341618
C  C64  1  0.63060000  0.02020000  0.32900000  1.0 0.0099693962
C  C65  1  0.73560000  0.26040000  0.00200000  1.0 0.2381341618
C  C66  1  0.63060000  0.32900000  0.02020000  1.0 0.0099693962
C  C67  1  0.00200000  0.00200000  0.73560000  1.0 0.2381341618
C  C68  1  0.02020000  0.02020000  0.63060000  1.0 0.0099693962
C  C69  1  0.00200000  0.00200000  0.26040000  1.0 0.2381341618
C  C70  1  0.02020000  0.02020000  0.32900000  1.0 0.0099693962
C  C71  1  0.26040000  0.73560000  0.00200000  1.0 0.2381341618
C  C72  1  0.32900000  0.63060000  0.02020000  1.0 0.0099693962
C  C73  1  0.98140000  0.48140000  0.48140000  1.0 -0.1483542523
C  C74  1  0.48140000  0.98140000  0.05580000  1.0 -0.1483542523
C  C75  1  0.48140000  0.05580000  0.98140000  1.0 -0.1483542523
C  C76  1  0.05580000  0.48140000  0.48140000  1.0 -0.1483542523
C  C77  1  0.48140000  0.98140000  0.48140000  1.0 -0.1483542523
C  C78  1  0.05580000  0.48140000  0.98140000  1.0 -0.1483542523
C  C79  1  0.98140000  0.48140000  0.05580000  1.0 -0.1483542523
C  C80  1  0.48140000  0.05580000  0.48140000  1.0 -0.1483542523
C  C81  1  0.48140000  0.48140000  0.98140000  1.0 -0.1483542523
C  C82  1  0.98140000  0.05580000  0.48140000  1.0 -0.1483542523
C  C83  1  0.05580000  0.98140000  0.48140000  1.0 -0.1483542523
C  C84  1  0.48140000  0.48140000  0.05580000  1.0 -0.1483542523
S  S1  1  0.92090000  0.58370000  0.38830000  1.0 0.165424543
S  S2  1  0.58370000  0.92090000  0.10710000  1.0 0.1641365931
S  S3  1  0.38830000  0.10710000  0.92090000  1.0 0.1641365931
S  S4  1  0.10710000  0.38830000  0.58370000  1.0 0.1641365931
S  S5  1  0.38830000  0.92090000  0.58370000  1.0 0.1641365931
S  S6  1  0.10710000  0.58370000  0.92090000  1.0 0.1641365931
S  S7  1  0.92090000  0.38830000  0.10710000  1.0 0.165424543
S  S8  1  0.58370000  0.10710000  0.38830000  1.0 0.1641365931
S  S9  1  0.58370000  0.38830000  0.92090000  1.0 0.1641365931
S  S10  1  0.92090000  0.10710000  0.58370000  1.0 0.1641365931
S  S11  1  0.10710000  0.92090000  0.38830000  1.0 0.1641365931
S  S12  1  0.38830000  0.58370000  0.10710000  1.0 0.1641365931
S  S13  1  0.58370000  0.92090000  0.38830000  1.0 0.1641365931
S  S14  1  0.92090000  0.58370000  0.10710000  1.0 0.165424543
S  S15  1  0.10710000  0.38830000  0.92090000  1.0 0.1641365931
S  S16  1  0.38830000  0.10710000  0.58370000  1.0 0.1641365931
S  S17  1  0.92090000  0.38830000  0.58370000  1.0 0.1641365931
S  S18  1  0.58370000  0.10710000  0.92090000  1.0 0.1641365931
S  S19  1  0.38830000  0.92090000  0.10710000  1.0 0.1641365931
S  S20  1  0.10710000  0.58370000  0.38830000  1.0 0.1641365931
S  S21  1  0.38830000  0.58370000  0.92090000  1.0 0.1641365931
S  S22  1  0.10710000  0.92090000  0.58370000  1.0 0.1641365931
S  S23  1  0.92090000  0.10710000  0.38830000  1.0 0.1641365931
S  S24  1  0.58370000  0.38830000  0.10710000  1.0 0.1641365931
S  S25  1  0.25260000  0.35200000  0.04340000  1.0 0.399378476
S  S26  1  0.35200000  0.25260000  0.35200000  1.0 0.399378476
S  S27  1  0.04340000  0.35200000  0.25260000  1.0 0.399378476
S  S28  1  0.35200000  0.04340000  0.35200000  1.0 0.399378476
S  S29  1  0.04340000  0.25260000  0.35200000  1.0 0.399378476
S  S30  1  0.35200000  0.35200000  0.25260000  1.0 0.399378476
S  S31  1  0.25260000  0.04340000  0.35200000  1.0 0.399378476
S  S32  1  0.35200000  0.35200000  0.04340000  1.0 0.399378476
S  S33  1  0.35200000  0.04340000  0.25260000  1.0 0.399378476
S  S34  1  0.25260000  0.35200000  0.35200000  1.0 0.399378476
S  S35  1  0.35200000  0.25260000  0.04340000  1.0 0.399378476
S  S36  1  0.04340000  0.35200000  0.35200000  1.0 0.399378476
S  S37  1  0.14120000  0.57640000  0.14120000  1.0 0.3461932713
S  S38  1  0.57640000  0.14120000  0.14120000  1.0 0.3447584832
S  S39  1  0.14120000  0.14120000  0.14120000  1.0 0.3461932713
S  S40  1  0.14120000  0.14120000  0.57640000  1.0 0.3447584832
O  O1  1  0.06130000  0.75970000  0.24370000  1.0 -0.4281916793
O  O2  1  0.75970000  0.06130000  0.93530000  1.0 -0.4281916793
O  O3  1  0.24370000  0.93530000  0.06130000  1.0 -0.4281916793
O  O4  1  0.93530000  0.24370000  0.75970000  1.0 -0.4281916793
O  O5  1  0.24370000  0.06130000  0.75970000  1.0 -0.4281916793
O  O6  1  0.93530000  0.75970000  0.06130000  1.0 -0.4281916793
O  O7  1  0.06130000  0.24370000  0.93530000  1.0 -0.4281916793
O  O8  1  0.75970000  0.93530000  0.24370000  1.0 -0.4281916793
O  O9  1  0.75970000  0.24370000  0.06130000  1.0 -0.4281916793
O  O10  1  0.06130000  0.93530000  0.75970000  1.0 -0.4281916793
O  O11  1  0.93530000  0.06130000  0.24370000  1.0 -0.4281916793
O  O12  1  0.24370000  0.75970000  0.93530000  1.0 -0.4281916793
O  O13  1  0.75970000  0.06130000  0.24370000  1.0 -0.4281916793
O  O14  1  0.06130000  0.75970000  0.93530000  1.0 -0.4281916793
O  O15  1  0.93530000  0.24370000  0.06130000  1.0 -0.4281916793
O  O16  1  0.24370000  0.93530000  0.75970000  1.0 -0.4281916793
O  O17  1  0.06130000  0.24370000  0.75970000  1.0 -0.4281916793
O  O18  1  0.75970000  0.93530000  0.06130000  1.0 -0.4281916793
O  O19  1  0.24370000  0.06130000  0.93530000  1.0 -0.4281916793
O  O20  1  0.93530000  0.75970000  0.24370000  1.0 -0.4281916793
O  O21  1  0.24370000  0.75970000  0.06130000  1.0 -0.4281916793
O  O22  1  0.93530000  0.06130000  0.75970000  1.0 -0.4281916793
O  O23  1  0.06130000  0.93530000  0.24370000  1.0 -0.4281916793
O  O24  1  0.75970000  0.24370000  0.93530000  1.0 -0.4281916793
O  O25  1  0.18690000  0.93770000  0.93770000  1.0 -0.8354317224
O  O26  1  0.93770000  0.18690000  0.93770000  1.0 -0.8354317224
O  O27  1  0.93770000  0.93770000  0.18690000  1.0 -0.8344030654
O  O28  1  0.93770000  0.93770000  0.93770000  1.0 -0.8344030654
O  O29  1  0.05010000  0.05010000  0.05010000  1.0 -0.9558542347
O  O30  1  0.05010000  0.05010000  0.84970000  1.0 -0.9558542347
O  O31  1  0.05010000  0.84970000  0.05010000  1.0 -0.9558542347
O  O32  1  0.84970000  0.05010000  0.05010000  1.0 -0.9558542347
O  O33  1  0.19040000  0.29340000  0.12360000  1.0 -0.1104554063
O  O34  1  0.21060000  0.45860000  0.02340000  1.0 -0.220424808
O  O35  1  0.12900000  0.55500000  0.07300000  1.0 0.0099693962
O  O36  1  0.05300000  0.63300000  0.20100000  1.0 0.1026877636
O  O37  1  0.29340000  0.19040000  0.39260000  1.0 -0.1104554063
O  O38  1  0.45860000  0.21060000  0.30740000  1.0 -0.220424808
O  O39  1  0.55500000  0.12900000  0.24300000  1.0 0.0099693962
O  O40  1  0.63300000  0.05300000  0.11300000  1.0 0.1026877636
O  O41  1  0.12360000  0.39260000  0.19040000  1.0 -0.1104554063
O  O42  1  0.02340000  0.30740000  0.21060000  1.0 -0.220424808
O  O43  1  0.07300000  0.24300000  0.12900000  1.0 0.0099693962
O  O44  1  0.20100000  0.11300000  0.05300000  1.0 0.1026877636
O  O45  1  0.39260000  0.12360000  0.29340000  1.0 -0.1104554063
O  O46  1  0.30740000  0.02340000  0.45860000  1.0 -0.220424808
O  O47  1  0.24300000  0.07300000  0.55500000  1.0 0.0099693962
O  O48  1  0.11300000  0.20100000  0.63300000  1.0 0.1051462499
O  O49  1  0.12360000  0.19040000  0.29340000  1.0 -0.1104554063
O  O50  1  0.02340000  0.21060000  0.45860000  1.0 -0.220424808
O  O51  1  0.07300000  0.12900000  0.55500000  1.0 0.0099693962
O  O52  1  0.20100000  0.05300000  0.63300000  1.0 0.1026877636
O  O53  1  0.39260000  0.29340000  0.19040000  1.0 -0.1104554063
O  O54  1  0.30740000  0.45860000  0.21060000  1.0 -0.220424808
O  O55  1  0.24300000  0.55500000  0.12900000  1.0 0.0099693962
O  O56  1  0.11300000  0.63300000  0.05300000  1.0 0.1026877636
O  O57  1  0.19040000  0.12360000  0.39260000  1.0 -0.1104554063
O  O58  1  0.21060000  0.02340000  0.30740000  1.0 -0.220424808
O  O59  1  0.12900000  0.07300000  0.24300000  1.0 0.0099693962
O  O60  1  0.05300000  0.20100000  0.11300000  1.0 0.1026877636
O  O61  1  0.29340000  0.39260000  0.12360000  1.0 -0.1104554063
O  O62  1  0.45860000  0.30740000  0.02340000  1.0 -0.220424808
O  O63  1  0.55500000  0.24300000  0.07300000  1.0 0.0099693962
O  O64  1  0.63300000  0.11300000  0.20100000  1.0 0.1026877636
O  O65  1  0.29340000  0.12360000  0.19040000  1.0 -0.1104554063
O  O66  1  0.45860000  0.02340000  0.21060000  1.0 -0.220424808
O  O67  1  0.55500000  0.07300000  0.12900000  1.0 0.0099693962
O  O68  1  0.63300000  0.20100000  0.05300000  1.0 0.1026877636
O  O69  1  0.19040000  0.39260000  0.29340000  1.0 -0.1104554063
O  O70  1  0.21060000  0.30740000  0.45860000  1.0 -0.220424808
O  O71  1  0.12900000  0.24300000  0.55500000  1.0 0.0099693962
O  O72  1  0.05300000  0.11300000  0.63300000  1.0 0.1026877636
O  O73  1  0.39260000  0.19040000  0.12360000  1.0 -0.1104554063
O  O74  1  0.30740000  0.21060000  0.02340000  1.0 -0.220424808
O  O75  1  0.24300000  0.12900000  0.07300000  1.0 0.0099693962
O  O76  1  0.11300000  0.05300000  0.20100000  1.0 0.1026877636
O  O77  1  0.12360000  0.29340000  0.39260000  1.0 -0.1104554063
O  O78  1  0.02340000  0.45860000  0.30740000  1.0 -0.220424808
O  O79  1  0.07300000  0.55500000  0.24300000  1.0 0.0099693962
O  O80  1  0.20100000  0.63300000  0.11300000  1.0 0.1026877636
O  O81  1  0.29340000  0.19040000  0.12360000  1.0 -0.1104554063
O  O82  1  0.45860000  0.21060000  0.02340000  1.0 -0.220424808
O  O83  1  0.55500000  0.12900000  0.07300000  1.0 0.0099693962
O  O84  1  0.63300000  0.05300000  0.20100000  1.0 0.1026877636
O  O85  1  0.19040000  0.29340000  0.39260000  1.0 -0.1104554063
O  O86  1  0.21060000  0.45860000  0.30740000  1.0 -0.220424808
O  O87  1  0.12900000  0.55500000  0.24300000  1.0 0.0099693962
O  O88  1  0.05300000  0.63300000  0.11300000  1.0 0.1026877636
O  O89  1  0.39260000  0.12360000  0.19040000  1.0 -0.1104554063
O  O90  1  0.30740000  0.02340000  0.21060000  1.0 -0.220424808
O  O91  1  0.24300000  0.07300000  0.12900000  1.0 0.0099693962
O  O92  1  0.11300000  0.20100000  0.05300000  1.0 0.1026877636
O  O93  1  0.12360000  0.39260000  0.29340000  1.0 -0.1104554063
O  O94  1  0.02340000  0.30740000  0.45860000  1.0 -0.220424808
O  O95  1  0.07300000  0.24300000  0.55500000  1.0 0.0099693962
O  O96  1  0.20100000  0.11300000  0.63300000  1.0 0.1026877636
O  O97  1  0.19040000  0.12360000  0.29340000  1.0 -0.1104554063
O  O98  1  0.21060000  0.02340000  0.45860000  1.0 -0.220424808
O  O99  1  0.12900000  0.07300000  0.55500000  1.0 0.0099693962
O  O100  1  0.05300000  0.20100000  0.63300000  1.0 0.1026877636
O  O101  1  0.29340000  0.39260000  0.19040000  1.0 -0.1104554063
O  O102  1  0.45860000  0.30740000  0.21060000  1.0 -0.220424808
O  O103  1  0.55500000  0.24300000  0.12900000  1.0 0.0099693962
O  O104  1  0.63300000  0.11300000  0.05300000  1.0 0.1026877636
O  O105  1  0.12360000  0.19040000  0.39260000  1.0 -0.1104554063
O  O106  1  0.02340000  0.21060000  0.30740000  1.0 -0.220424808
O  O107  1  0.07300000  0.12900000  0.24300000  1.0 0.0099693962
O  O108  1  0.20100000  0.05300000  0.11300000  1.0 0.1026877636
O  O109  1  0.39260000  0.29340000  0.12360000  1.0 -0.1104554063
O  O110  1  0.30740000  0.45860000  0.02340000  1.0 -0.220424808
O  O111  1  0.24300000  0.55500000  0.07300000  1.0 0.0099693962
O  O112  1  0.11300000  0.63300000  0.20100000  1.0 0.1026877636
O  O113  1  0.12360000  0.29340000  0.19040000  1.0 -0.1104554063
O  O114  1  0.02340000  0.45860000  0.21060000  1.0 -0.220424808
O  O115  1  0.07300000  0.55500000  0.12900000  1.0 0.0099693962
O  O116  1  0.20100000  0.63300000  0.05300000  1.0 0.1026877636
O  O117  1  0.39260000  0.19040000  0.29340000  1.0 -0.1104554063
O  O118  1  0.30740000  0.21060000  0.45860000  1.0 -0.220424808
O  O119  1  0.24300000  0.12900000  0.55500000  1.0 0.0099693962
O  O120  1  0.11300000  0.05300000  0.63300000  1.0 0.1026877636
O  O121  1  0.19040000  0.39260000  0.12360000  1.0 -0.1104554063
O  O122  1  0.21060000  0.30740000  0.02340000  1.0 -0.220424808
O  O123  1  0.12900000  0.24300000  0.07300000  1.0 0.0099693962
O  O124  1  0.05300000  0.11300000  0.20100000  1.0 0.1026877636
O  O125  1  0.29340000  0.12360000  0.39260000  1.0 -0.1104554063
O  O126  1  0.45860000  0.02340000  0.30740000  1.0 -0.220424808
O  O127  1  0.55500000  0.07300000  0.24300000  1.0 0.0099693962
O  O128  1  0.63300000  0.20100000  0.11300000  1.0 0.1026877636
