# DDEC6 charges by PACMAN v1.1 (https://github.com/mtap-research/PACMAN-charge/)
data_LIHKAQ_ASR_pacman
_symmetry_space_group_name_H-M   'P 1'
_cell_length_a   8.36123000
_cell_length_b   8.36123000
_cell_length_c   18.13500000
_cell_angle_alpha   90.00000000
_cell_angle_beta   90.00000000
_cell_angle_gamma   133.84100000
_symmetry_Int_Tables_number   1
_chemical_formula_structural   InP2H3CO9
_chemical_formula_sum   'In4 P8 H12 C4 O36'
_cell_volume   914.43451819
_cell_formula_units_Z   4
loop_
 _symmetry_equiv_pos_site_id
 _symmetry_equiv_pos_as_xyz
  1  'x, y, z'
loop_
 _atom_site_type_symbol
 _atom_site_label
 _atom_site_symmetry_multiplicity
 _atom_site_fract_x
 _atom_site_fract_y
 _atom_site_fract_z
 _atom_site_occupancy
 _atom_site_charge
In  In1  1  0.66471000  0.33529000  0.42689000  1.0 1.2605979339
In  In2  1  0.33529000  0.66471000  0.92689000  1.0 1.2605979339
In  In3  1  0.66471000  0.33529000  0.07311000  1.0 1.2605979339
In  In4  1  0.33529000  0.66471000  0.57311000  1.0 1.2605979339
P  P1  1  0.83590000  0.16410000  0.54248000  1.0 0.5683808819
P  P2  1  0.16410000  0.83590000  0.04248000  1.0 0.5683808819
P  P3  1  0.83590000  0.16410000  0.95752000  1.0 0.5683808819
P  P4  1  0.16410000  0.83590000  0.45752000  1.0 0.5683808819
P  P5  1  0.77090000  0.44530000  0.25000000  1.0 0.3800511257
P  P6  1  0.22910000  0.55470000  0.75000000  1.0 0.3800511257
P  P7  1  0.55470000  0.22910000  0.25000000  1.0 0.3800511257
P  P8  1  0.44530000  0.77090000  0.75000000  1.0 0.3800511257
H  H1  1  0.76050000  0.23950000  0.58470000  1.0 0.1878723548
H  H2  1  0.23950000  0.76050000  0.08470000  1.0 0.184145768
H  H3  1  0.76050000  0.23950000  0.91530000  1.0 0.1878723548
H  H4  1  0.23950000  0.76050000  0.41530000  1.0 0.184145768
H  H5  1  0.97890000  0.67390000  0.25000000  1.0 -0.1060829751
H  H6  1  0.02110000  0.32610000  0.75000000  1.0 -0.1060829751
H  H7  1  0.32610000  0.02110000  0.25000000  1.0 -0.1060829751
H  H8  1  0.67390000  0.97890000  0.75000000  1.0 -0.1060829751
H  H9  1  0.92380000  0.07620000  0.52470000  1.0 0.0927879408
H  H10  1  0.07620000  0.92380000  0.02470000  1.0 0.0927879408
H  H11  1  0.92380000  0.07620000  0.97530000  1.0 0.0927879408
H  H12  1  0.07620000  0.92380000  0.47530000  1.0 0.0927879408
C  C1  1  0.47610000  0.52390000  0.46180000  1.0 0.4613934354
C  C2  1  0.52390000  0.47610000  0.96180000  1.0 0.4613934354
C  C3  1  0.47610000  0.52390000  0.03820000  1.0 0.4613934354
C  C4  1  0.52390000  0.47610000  0.53820000  1.0 0.4613934354
O  O1  1  0.79050000  0.20950000  0.46900000  1.0 -0.6661463632
O  O2  1  0.20950000  0.79050000  0.96900000  1.0 -0.6661463632
O  O3  1  0.79050000  0.20950000  0.03100000  1.0 -0.6661463632
O  O4  1  0.20950000  0.79050000  0.53100000  1.0 -0.6661463632
O  O5  1  0.05610000  0.31750000  0.56960000  1.0 -0.1966574991
O  O6  1  0.94390000  0.68250000  0.06960000  1.0 -0.1966574991
O  O7  1  0.68250000  0.94390000  0.93040000  1.0 -0.1966574991
O  O8  1  0.31750000  0.05610000  0.43040000  1.0 -0.1936252519
O  O9  1  0.94390000  0.68250000  0.43040000  1.0 -0.1936252519
O  O10  1  0.05610000  0.31750000  0.93040000  1.0 -0.1966574991
O  O11  1  0.31750000  0.05610000  0.06960000  1.0 -0.1966574991
O  O12  1  0.68250000  0.94390000  0.56960000  1.0 -0.1966574991
O  O13  1  0.70550000  0.29450000  0.31720000  1.0 -0.4794507317
O  O14  1  0.29450000  0.70550000  0.81720000  1.0 -0.4794507317
O  O15  1  0.70550000  0.29450000  0.18280000  1.0 -0.4794507317
O  O16  1  0.29450000  0.70550000  0.68280000  1.0 -0.4794507317
O  O17  1  0.64140000  0.50660000  0.25000000  1.0 -0.0737972848
O  O18  1  0.35860000  0.49340000  0.75000000  1.0 -0.0760956659
O  O19  1  0.49340000  0.35860000  0.25000000  1.0 -0.0737972848
O  O20  1  0.50660000  0.64140000  0.75000000  1.0 -0.0760956659
O  O21  1  0.52150000  0.47850000  0.40540000  1.0 -0.4461141407
O  O22  1  0.47850000  0.52150000  0.90540000  1.0 -0.4461141407
O  O23  1  0.52150000  0.47850000  0.09460000  1.0 -0.4461141407
O  O24  1  0.47850000  0.52150000  0.59460000  1.0 -0.4461141407
O  O25  1  0.39450000  0.60550000  0.46230000  1.0 -0.4794507317
O  O26  1  0.60550000  0.39450000  0.96230000  1.0 -0.4794507317
O  O27  1  0.39450000  0.60550000  0.03770000  1.0 -0.4794507317
O  O28  1  0.60550000  0.39450000  0.53770000  1.0 -0.4794507317
O  O29  1  0.01150000  0.36090000  0.58660000  1.0 -0.1526150435
O  O30  1  0.98850000  0.63910000  0.08660000  1.0 -0.1526150435
O  O31  1  0.63910000  0.98850000  0.91340000  1.0 -0.1526150435
O  O32  1  0.36090000  0.01150000  0.41340000  1.0 -0.1526150435
O  O33  1  0.98850000  0.63910000  0.41340000  1.0 -0.1526150435
O  O34  1  0.01150000  0.36090000  0.91340000  1.0 -0.1526150435
O  O35  1  0.36090000  0.01150000  0.08660000  1.0 -0.1526150435
O  O36  1  0.63910000  0.98850000  0.58660000  1.0 -0.1526150435
