# DDEC6 charges by PACMAN v1.1 (https://github.com/mtap-research/PACMAN-charge/)
data_LIJGUJ_FSR_pacman
_symmetry_space_group_name_H-M   'P 1'
_cell_length_a   21.37310000
_cell_length_b   21.37310000
_cell_length_c   21.37310000
_cell_angle_alpha   132.78600000
_cell_angle_beta   132.49600000
_cell_angle_gamma   69.21880000
_symmetry_Int_Tables_number   1
_chemical_formula_structural   ZnC22S2(NO)4
_chemical_formula_sum   'Zn8 C176 S16 N32 O32'
_cell_volume   5184.55893368
_cell_formula_units_Z   8
loop_
 _symmetry_equiv_pos_site_id
 _symmetry_equiv_pos_as_xyz
  1  'x, y, z'
loop_
 _atom_site_type_symbol
 _atom_site_label
 _atom_site_symmetry_multiplicity
 _atom_site_fract_x
 _atom_site_fract_y
 _atom_site_fract_z
 _atom_site_occupancy
 _atom_site_charge
Zn  Zn1  1  0.34754000  0.10933000  0.13187000  1.0 0.8608729269
Zn  Zn2  1  0.21337000  0.22039000  0.23932000  1.0 0.869096982
Zn  Zn3  1  0.65246000  0.78433000  0.76179000  1.0 0.8608729269
Zn  Zn4  1  0.78663000  0.02595000  0.00702000  1.0 0.869096982
Zn  Zn5  1  0.97746000  0.60933000  0.26179000  1.0 0.8608729269
Zn  Zn6  1  0.98107000  0.72039000  0.50702000  1.0 0.869096982
Zn  Zn7  1  0.02254000  0.28433000  0.63187000  1.0 0.8608729269
Zn  Zn8  1  0.01893000  0.52595000  0.73932000  1.0 0.869096982
C  C1  1  0.22540000  0.02587000  0.09247000  1.0 0.6173635299
C  C2  1  0.34219000  0.30591000  0.29168000  1.0 0.6173635299
C  C3  1  0.20498000  0.18034000  0.01370000  1.0 0.2120476409
C  C4  1  0.16199000  0.03829000  0.91770000  1.0 0.2378331913
C  C5  1  0.18303000  0.93908000  0.03103000  1.0 -0.0531284747
C  C6  1  0.40006000  0.39033000  0.37217000  1.0 -0.0675008961
C  C7  1  0.12458000  0.18468000  0.93930000  1.0 -0.1089701032
C  C8  1  0.07908000  0.03578000  0.83810000  1.0 -0.1007010272
C  C9  1  0.20505000  0.86395000  0.97110000  1.0 -0.0291432746
C  C10  1  0.12085000  0.93285000  0.03120000  1.0 0.0146223667
C  C11  1  0.38825000  0.46685000  0.44560000  1.0 -0.0169866586
C  C12  1  0.46994000  0.39274000  0.38100000  1.0 -0.0073271599
C  C13  1  0.05927000  0.11192000  0.85015000  1.0 0.1099417806
C  C14  1  0.16535000  0.78395000  0.91160000  1.0 -0.0169866586
C  C15  1  0.08331000  0.85181000  0.97430000  1.0 -0.0073271599
C  C16  1  0.44750000  0.54367000  0.52897000  1.0 -0.0073271599
C  C17  1  0.52801000  0.46951000  0.46210000  1.0 -0.0005524488
C  C18  1  0.97236000  0.11316000  0.76820000  1.0 0.1211720991
C  C19  1  0.07703000  0.29373000  0.12390000  1.0 0.2491881972
C  C20  1  0.02994000  0.15124000  0.02130000  1.0 0.2120476409
C  C21  1  0.10493000  0.77683000  0.91390000  1.0 -0.0392707193
C  C22  1  0.51754000  0.54514000  0.53780000  1.0 -0.0392707193
C  C23  1  0.99809000  0.30029000  0.04860000  1.0 -0.1007010272
C  C24  1  0.94837000  0.15197000  0.94240000  1.0 -0.1007010272
C  C25  1  0.06626000  0.68906000  0.85380000  1.0 0.5863305007
C  C26  1  0.58038000  0.62928000  0.62790000  1.0 0.573943543
C  C27  1  0.82259000  0.07845000  0.61134000  1.0 0.0600661856
C  C28  1  0.86905000  0.15915000  0.68130000  1.0 0.0600661856
C  C29  1  0.93179000  0.22743000  0.95616000  1.0 0.1099417806
C  C30  1  0.84503000  0.22942000  0.87361000  1.0 0.1354400801
C  C31  1  0.71955000  0.12215000  0.52140000  1.0 0.1328290353
C  C32  1  0.63357000  0.12047000  0.43430000  1.0 0.1099417806
C  C33  1  0.71733000  0.26673000  0.76640000  1.0 0.0446396122
C  C34  1  0.71065000  0.18375000  0.72710000  1.0 0.0480285711
C  C35  1  0.61800000  0.18760000  0.43120000  1.0 -0.1719022517
C  C36  1  0.56709000  0.05009000  0.35240000  1.0 -0.1089701032
C  C37  1  0.53618000  0.18088000  0.34610000  1.0 0.2491881972
C  C38  1  0.48746000  0.04896000  0.27030000  1.0 0.2378331913
C  C39  1  0.58410000  0.22117000  0.61933000  1.0 0.1328290353
C  C40  1  0.49832000  0.22112000  0.53420000  1.0 0.1211720991
C  C41  1  0.48038000  0.29618000  0.54560000  1.0 -0.0948129867
C  C42  1  0.43341000  0.14801000  0.44060000  1.0 -0.1761495417
C  C43  1  0.40037000  0.29397000  0.46360000  1.0 0.1921128954
C  C44  1  0.35426000  0.15256000  0.36330000  1.0 0.2491881972
C  C45  1  0.77460000  0.86707000  0.80047000  1.0 0.6173635299
C  C46  1  0.65781000  0.94949000  0.96372000  1.0 0.6173635299
C  C47  1  0.79502000  0.80872000  0.97536000  1.0 0.2120476409
C  C48  1  0.83801000  0.75571000  0.87630000  1.0 0.2378331913
C  C49  1  0.81697000  0.84800000  0.75605000  1.0 -0.0531284747
C  C50  1  0.59994000  0.97211000  0.99027000  1.0 -0.0675008961
C  C51  1  0.87542000  0.81472000  0.06010000  1.0 -0.1089701032
C  C52  1  0.92092000  0.75902000  0.95670000  1.0 -0.1007010272
C  C53  1  0.79495000  0.76605000  0.65890000  1.0 -0.0291432746
C  C54  1  0.87915000  0.91035000  0.81200000  1.0 0.0146223667
C  C55  1  0.61175000  0.05735000  0.07860000  1.0 -0.0169866586
C  C56  1  0.53006000  0.91106000  0.92280000  1.0 -0.0073271599
C  C57  1  0.94073000  0.79088000  0.05265000  1.0 0.1099417806
C  C58  1  0.83465000  0.74625000  0.61860000  1.0 -0.0169866586
C  C59  1  0.91669000  0.89099000  0.76850000  1.0 -0.0073271599
C  C60  1  0.55250000  0.08147000  0.09617000  1.0 -0.0073271599
C  C61  1  0.47199000  0.93409000  0.94150000  1.0 0.0011864578
C  C62  1  0.02764000  0.79584000  0.14080000  1.0 0.1211720991
C  C63  1  0.92297000  0.04687000  0.21670000  1.0 0.2491881972
C  C64  1  0.97006000  0.99136000  0.12130000  1.0 0.2120476409
C  C65  1  0.89507000  0.80897000  0.67190000  1.0 -0.0392707193
C  C66  1  0.48246000  0.02026000  0.02760000  1.0 -0.0392707193
C  C67  1  0.00191000  0.05051000  0.30220000  1.0 -0.1007010272
C  C68  1  0.05163000  0.99403000  0.20360000  1.0 -0.1007010272
C  C69  1  0.93374000  0.78754000  0.62280000  1.0 0.5863305007
C  C70  1  0.41962000  0.04752000  0.04890000  1.0 0.573943543
C  C71  1  0.17741000  0.78875000  0.25586000  1.0 0.0600661856
C  C72  1  0.13095000  0.81225000  0.29010000  1.0 0.0600661856
C  C73  1  0.06821000  0.02437000  0.29564000  1.0 0.1099417806
C  C74  1  0.15497000  0.02858000  0.38439000  1.0 0.1354400801
C  C75  1  0.28045000  0.80185000  0.40260000  1.0 0.1328290353
C  C76  1  0.36643000  0.80073000  0.48690000  1.0 0.1099417806
C  C77  1  0.28267000  0.04907000  0.54940000  1.0 0.0480285711
C  C78  1  0.28935000  0.01645000  0.47310000  1.0 0.0480285711
C  C79  1  0.38200000  0.81320000  0.56960000  1.0 -0.1719022517
C  C80  1  0.43291000  0.78531000  0.48300000  1.0 -0.1089701032
C  C81  1  0.46382000  0.80992000  0.64470000  1.0 0.2491881972
C  C82  1  0.51254000  0.78284000  0.56150000  1.0 0.2378331913
C  C83  1  0.41590000  0.03523000  0.63707000  1.0 0.1328290353
C  C84  1  0.50168000  0.03588000  0.72280000  1.0 0.1211720991
C  C85  1  0.51962000  0.06522000  0.81580000  1.0 -0.0948129867
C  C86  1  0.56659000  0.00719000  0.71460000  1.0 -0.1761495417
C  C87  1  0.59963000  0.06323000  0.89360000  1.0 0.1921128954
C  C88  1  0.64574000  0.00904000  0.79830000  1.0 0.2491881972
C  C89  1  0.93340000  0.52587000  0.30047000  1.0 0.6173635299
C  C90  1  0.01423000  0.80591000  0.46372000  1.0 0.6173635299
C  C91  1  0.16664000  0.68034000  0.47536000  1.0 0.2120476409
C  C92  1  0.12059000  0.53829000  0.37630000  1.0 0.2378331913
C  C93  1  0.90805000  0.43908000  0.25605000  1.0 -0.0531284747
C  C94  1  0.01816000  0.89033000  0.49027000  1.0 -0.0675008961
C  C95  1  0.24538000  0.68468000  0.56010000  1.0 -0.1089701032
C  C96  1  0.19768000  0.53578000  0.45670000  1.0 -0.1007010272
C  C97  1  0.89285000  0.36395000  0.15890000  1.0 -0.0291432746
C  C98  1  0.90165000  0.43285000  0.31200000  1.0 0.0146223667
C  C99  1  0.02125000  0.96685000  0.57860000  1.0 -0.0169866586
C  C100  1  0.01174000  0.89274000  0.42280000  1.0 -0.0073271599
C  C101  1  0.26177000  0.61192000  0.55265000  1.0 0.1099417806
C  C102  1  0.87235000  0.28395000  0.11860000  1.0 -0.0169866586
C  C103  1  0.87751000  0.35181000  0.26850000  1.0 -0.0073271599
C  C104  1  0.01470000  0.04367000  0.59617000  1.0 -0.0073271599
C  C105  1  0.00741000  0.96951000  0.44150000  1.0 0.0011864578
C  C106  1  0.34496000  0.61316000  0.64080000  1.0 0.1211720991
C  C107  1  0.16983000  0.79373000  0.71670000  1.0 0.2491881972
C  C108  1  0.12994000  0.65124000  0.62130000  1.0 0.2120476409
C  C109  1  0.86293000  0.27683000  0.17190000  1.0 -0.0392707193
C  C110  1  0.00734000  0.04514000  0.52760000  1.0 -0.0392707193
C  C111  1  0.25169000  0.80029000  0.80220000  1.0 -0.1007010272
C  C112  1  0.20957000  0.65197000  0.70360000  1.0 -0.1007010272
C  C113  1  0.83526000  0.18906000  0.12280000  1.0 0.584954607
C  C114  1  0.00138000  0.12928000  0.54890000  1.0 0.573943543
C  C115  1  0.46711000  0.57845000  0.75586000  1.0 0.0600661856
C  C116  1  0.47785000  0.65915000  0.79010000  1.0 0.0600661856
C  C117  1  0.27127000  0.72743000  0.79564000  1.0 0.1099417806
C  C118  1  0.35581000  0.72942000  0.88439000  1.0 0.1354400801
C  C119  1  0.60075000  0.62215000  0.90260000  1.0 0.1328290353
C  C120  1  0.68617000  0.62047000  0.98690000  1.0 0.1099417806
C  C121  1  0.50033000  0.76673000  0.04940000  1.0 0.0480285711
C  C122  1  0.45665000  0.68375000  0.97310000  1.0 0.0480285711
C  C123  1  0.75640000  0.68760000  0.06960000  1.0 -0.1719022517
C  C124  1  0.69769000  0.55009000  0.98300000  1.0 -0.1089701032
C  C125  1  0.83478000  0.68088000  0.14470000  1.0 0.2491881972
C  C126  1  0.77866000  0.54896000  0.06150000  1.0 0.2378331913
C  C127  1  0.60184000  0.72117000  0.13707000  1.0 0.1328290353
C  C128  1  0.68692000  0.72112000  0.22280000  1.0 0.1211720991
C  C129  1  0.75058000  0.79618000  0.31580000  1.0 -0.0948129867
C  C130  1  0.70741000  0.64801000  0.21460000  1.0 -0.1761495417
C  C131  1  0.83037000  0.79397000  0.39360000  1.0 0.1921128954
C  C132  1  0.78926000  0.65256000  0.29830000  1.0 0.2491881972
C  C133  1  0.06660000  0.36707000  0.59247000  1.0 0.6173635299
C  C134  1  0.98577000  0.44949000  0.79168000  1.0 0.6173635299
C  C135  1  0.83336000  0.30872000  0.51370000  1.0 0.2120476409
C  C136  1  0.87941000  0.25571000  0.41770000  1.0 0.2378331913
C  C137  1  0.09195000  0.34800000  0.53103000  1.0 -0.0531284747
C  C138  1  0.98184000  0.47211000  0.87217000  1.0 -0.0675008961
C  C139  1  0.75462000  0.31472000  0.43930000  1.0 -0.1089701032
C  C140  1  0.80232000  0.25902000  0.33810000  1.0 -0.1007010272
C  C141  1  0.10715000  0.26605000  0.47110000  1.0 -0.0291432746
C  C142  1  0.09835000  0.41035000  0.53120000  1.0 0.0146223667
C  C143  1  0.97875000  0.55735000  0.94560000  1.0 -0.0169866586
C  C144  1  0.98826000  0.41106000  0.88100000  1.0 -0.0073271599
C  C145  1  0.73823000  0.29088000  0.35015000  1.0 0.1099417806
C  C146  1  0.12765000  0.24625000  0.41160000  1.0 -0.0169866586
C  C147  1  0.12249000  0.39099000  0.47430000  1.0 -0.0073271599
C  C148  1  0.98530000  0.58147000  0.02897000  1.0 -0.0073271599
C  C149  1  0.99259000  0.43409000  0.96210000  1.0 0.0011864578
C  C150  1  0.65504000  0.29584000  0.26820000  1.0 0.1211720991
C  C151  1  0.83017000  0.54687000  0.62390000  1.0 0.2491881972
C  C152  1  0.87006000  0.49136000  0.52130000  1.0 0.2120476409
C  C153  1  0.13707000  0.30897000  0.41390000  1.0 -0.0392707193
C  C154  1  0.99266000  0.52026000  0.03780000  1.0 -0.0392707193
C  C155  1  0.74831000  0.55051000  0.54860000  1.0 -0.1007010272
C  C156  1  0.79043000  0.49403000  0.44240000  1.0 -0.1007010272
C  C157  1  0.16474000  0.28754000  0.35380000  1.0 0.5863305007
C  C158  1  0.99862000  0.54752000  0.12790000  1.0 0.573943543
C  C159  1  0.53289000  0.28875000  0.11134000  1.0 0.0600661856
C  C160  1  0.52215000  0.31225000  0.18130000  1.0 0.0600661856
C  C161  1  0.72873000  0.52437000  0.45616000  1.0 0.1099417806
C  C162  1  0.64419000  0.52858000  0.37361000  1.0 0.1354400801
C  C163  1  0.39925000  0.30185000  0.02140000  1.0 0.1328290353
C  C164  1  0.31383000  0.30073000  0.93430000  1.0 0.1099417806
C  C165  1  0.49967000  0.54907000  0.26640000  1.0 0.0480285711
C  C166  1  0.54335000  0.51645000  0.22710000  1.0 0.0480285711
C  C167  1  0.24360000  0.31320000  0.93120000  1.0 -0.1719022517
C  C168  1  0.30231000  0.28531000  0.85240000  1.0 -0.1089701032
C  C169  1  0.16522000  0.30992000  0.84610000  1.0 0.2491881972
C  C170  1  0.22134000  0.28284000  0.77030000  1.0 0.2378331913
C  C171  1  0.39816000  0.53523000  0.11933000  1.0 0.1328290353
C  C172  1  0.31308000  0.53588000  0.03420000  1.0 0.1211720991
C  C173  1  0.24942000  0.56522000  0.04560000  1.0 -0.0948129867
C  C174  1  0.29259000  0.50719000  0.94060000  1.0 -0.1719022517
C  C175  1  0.16963000  0.56323000  0.96360000  1.0 0.1921128954
C  C176  1  0.21074000  0.50904000  0.86330000  1.0 0.2491881972
S  S1  1  0.88814000  0.02283000  0.65965000  1.0 0.0995654839
S  S2  1  0.80279000  0.21353000  0.63112000  1.0 0.0836266304
S  S3  1  0.82091000  0.32405000  0.88844000  1.0 0.0995654839
S  S4  1  0.60773000  0.12626000  0.60433000  1.0 0.0894025092
S  S5  1  0.11186000  0.77151000  0.13469000  1.0 0.0995654839
S  S6  1  0.19721000  0.82833000  0.41074000  1.0 0.0836266304
S  S7  1  0.17909000  0.06753000  0.50314000  1.0 0.0995654839
S  S8  1  0.39227000  0.99660000  0.51853000  1.0 0.0894025092
S  S9  1  0.36318000  0.52283000  0.63469000  1.0 0.0995654839
S  S10  1  0.58241000  0.71353000  0.91074000  1.0 0.0836266304
S  S11  1  0.43561000  0.82405000  0.00314000  1.0 0.0995654839
S  S12  1  0.52193000  0.62626000  0.01853000  1.0 0.0995654839
S  S13  1  0.63682000  0.27151000  0.15965000  1.0 0.0995654839
S  S14  1  0.41759000  0.32833000  0.13112000  1.0 0.0894025092
S  S15  1  0.56439000  0.56753000  0.38844000  1.0 0.0995654839
S  S16  1  0.47807000  0.49660000  0.10433000  1.0 0.0995654839
N  N1  1  0.22456000  0.10958000  0.00582000  1.0 -0.1573042509
N  N2  1  0.47099000  0.11278000  0.26541000  1.0 -0.1761495417
N  N3  1  0.09335000  0.22189000  0.11260000  1.0 -0.1532594611
N  N4  1  0.33713000  0.22302000  0.37173000  1.0 -0.1719022517
N  N5  1  0.95301000  0.18023000  0.77020000  1.0 -0.2833655079
N  N6  1  0.73838000  0.05678000  0.52120000  1.0 -0.2940102046
N  N7  1  0.78233000  0.16162000  0.78719000  1.0 -0.2940102046
N  N8  1  0.64656000  0.28936000  0.70712000  1.0 -0.2833655079
N  N9  1  0.77544000  0.78126000  0.88502000  1.0 -0.1573042509
N  N10  1  0.52901000  0.79442000  0.64179000  1.0 -0.1719022517
N  N11  1  0.90665000  0.01925000  0.12854000  1.0 -0.1532594611
N  N12  1  0.66287000  0.03460000  0.88589000  1.0 -0.1719022517
N  N13  1  0.04699000  0.81719000  0.22722000  1.0 -0.2833655079
N  N14  1  0.26162000  0.78282000  0.31840000  1.0 -0.2940102046
N  N15  1  0.21767000  0.00486000  0.37929000  1.0 -0.2940102046
N  N16  1  0.35344000  0.06056000  0.64280000  1.0 -0.2833655079
N  N17  1  0.10376000  0.60958000  0.38502000  1.0 -0.1573042509
N  N18  1  0.84737000  0.61278000  0.14179000  1.0 -0.1719022517
N  N19  1  0.10929000  0.72189000  0.62854000  1.0 -0.1532594611
N  N20  1  0.85129000  0.72302000  0.38589000  1.0 -0.1719022517
N  N21  1  0.41003000  0.68023000  0.72722000  1.0 -0.2833655079
N  N22  1  0.53558000  0.55678000  0.81840000  1.0 -0.2940102046
N  N23  1  0.37443000  0.66162000  0.87929000  1.0 -0.2940102046
N  N24  1  0.58224000  0.78936000  0.14280000  1.0 -0.2833655079
N  N25  1  0.89624000  0.28126000  0.50582000  1.0 -0.1573042509
N  N26  1  0.15263000  0.29442000  0.76541000  1.0 -0.1761495417
N  N27  1  0.89071000  0.51925000  0.61260000  1.0 -0.1532594611
N  N28  1  0.14871000  0.53460000  0.87173000  1.0 -0.1719022517
N  N29  1  0.58997000  0.31719000  0.27020000  1.0 -0.2833655079
N  N30  1  0.46442000  0.28282000  0.02120000  1.0 -0.2958257024
N  N31  1  0.62557000  0.50486000  0.28719000  1.0 -0.2940102046
N  N32  1  0.41776000  0.56056000  0.20712000  1.0 -0.2833655079
O  O1  1  0.29258000  0.02720000  0.10628000  1.0 -0.5712826525
O  O2  1  0.36758000  0.23897000  0.24799000  1.0 -0.5590698681
O  O3  1  0.36970000  0.99173000  0.00847000  1.0 -0.5590698681
O  O4  1  0.42227000  0.12789000  0.11258000  1.0 -0.5444405501
O  O5  1  0.19112000  0.08962000  0.12490000  1.0 -0.5712826525
O  O6  1  0.27346000  0.30903000  0.27717000  1.0 -0.5712826525
O  O7  1  0.15643000  0.20742000  0.27951000  1.0 -0.5590698681
O  O8  1  0.19578000  0.34569000  0.37709000  1.0 -0.5516646629
O  O9  1  0.70742000  0.81370000  0.73462000  1.0 -0.5712826525
O  O10  1  0.63242000  0.88041000  0.87139000  1.0 -0.5590698681
O  O11  1  0.63030000  0.63877000  0.62203000  1.0 -0.5590698681
O  O12  1  0.57773000  0.69031000  0.70562000  1.0 -0.5444405501
O  O13  1  0.80888000  0.93378000  0.89850000  1.0 -0.5712826525
O  O14  1  0.72654000  0.00371000  0.03557000  1.0 -0.5712826525
O  O15  1  0.84357000  0.12308000  0.05099000  1.0 -0.5516646629
O  O16  1  0.80422000  0.18131000  0.14991000  1.0 -0.5516646629
O  O17  1  0.92092000  0.52720000  0.23462000  1.0 -0.5712826525
O  O18  1  0.99098000  0.73897000  0.37139000  1.0 -0.5590698681
O  O19  1  0.98326000  0.49173000  0.12203000  1.0 -0.5590698681
O  O20  1  0.01531000  0.62789000  0.20562000  1.0 -0.5516646629
O  O21  1  0.96472000  0.58962000  0.39850000  1.0 -0.5712826525
O  O22  1  0.03186000  0.80903000  0.53557000  1.0 -0.5712826525
O  O23  1  0.92791000  0.70742000  0.55099000  1.0 -0.5590698681
O  O24  1  0.96860000  0.84569000  0.64991000  1.0 -0.5516646629
O  O25  1  0.07908000  0.31370000  0.60628000  1.0 -0.5712826525
O  O26  1  0.00902000  0.38041000  0.74799000  1.0 -0.5590698681
O  O27  1  0.01674000  0.13877000  0.50847000  1.0 -0.5590698681
O  O28  1  0.98469000  0.19031000  0.61258000  1.0 -0.5516646629
O  O29  1  0.03528000  0.43378000  0.62490000  1.0 -0.5712826525
O  O30  1  0.96814000  0.50371000  0.77717000  1.0 -0.5712826525
O  O31  1  0.07209000  0.62308000  0.77951000  1.0 -0.5590698681
O  O32  1  0.03140000  0.68131000  0.87709000  1.0 -0.5516646629
