# DDEC6 charges by PACMAN v1.1 (https://github.com/mtap-research/PACMAN-charge/)
data_LIKBAL_ASR_pacman
_symmetry_space_group_name_H-M   'P 1'
_cell_length_a   8.80200000
_cell_length_b   14.58400000
_cell_length_c   19.84700000
_cell_angle_alpha   82.70200000
_cell_angle_beta   79.86200000
_cell_angle_gamma   84.42900000
_symmetry_Int_Tables_number   1
_chemical_formula_structural   Ni4H25C42(NO7)2
_chemical_formula_sum   'Ni8 H50 C84 N4 O28'
_cell_volume   2480.33679608
_cell_formula_units_Z   2
loop_
 _symmetry_equiv_pos_site_id
 _symmetry_equiv_pos_as_xyz
  1  'x, y, z'
loop_
 _atom_site_type_symbol
 _atom_site_label
 _atom_site_symmetry_multiplicity
 _atom_site_fract_x
 _atom_site_fract_y
 _atom_site_fract_z
 _atom_site_occupancy
 _atom_site_charge
Ni  Ni1  1  0.54681000  0.43626000  0.11773000  1.0 0.9864393782
Ni  Ni2  1  0.88432000  0.42246000  0.20067000  1.0 0.9530350875
Ni  Ni3  1  0.55229000  0.49397000  0.25289000  1.0 0.9685891878
Ni  Ni4  1  0.45859000  0.26824000  0.22172000  1.0 0.9530350875
Ni  Ni5  1  0.45319000  0.56374000  0.88227000  1.0 0.9864393782
Ni  Ni6  1  0.11568000  0.57754000  0.79933000  1.0 0.9530350875
Ni  Ni7  1  0.44771000  0.50603000  0.74711000  1.0 0.9685891878
Ni  Ni8  1  0.54141000  0.73176000  0.77828000  1.0 0.9530350875
H  H1  1  0.72700000  0.55340000  0.14030000  1.0 0.3910719466
H  H2  1  0.31990000  0.42880000  0.21860000  1.0 0.4041596066
H  H3  1  0.64700000  0.99530000  0.09110000  1.0 0.1292009731
H  H4  1  0.73700000  0.10710000  0.50300000  1.0 0.1235065706
H  H5  1  0.60300000  0.15000000  0.10570000  1.0 0.1235065706
H  H6  1  0.11370000  0.81970000  0.01930000  1.0 0.1235065706
H  H7  1  0.64330000  0.15320000  0.40240000  1.0 0.1292009731
H  H8  1  0.19340000  0.71510000  0.23880000  1.0 0.1126766216
H  H9  1  0.72220000  0.87370000  0.90650000  1.0 0.1235065706
H  H10  1  0.31690000  0.71260000  0.03620000  1.0 0.1292009731
H  H11  1  0.99070000  0.82330000  0.22110000  1.0 0.1292009731
H  H12  1  0.04980000  0.98710000  0.15900000  1.0 0.1292009731
H  H13  1  0.92360000  0.44500000  0.65910000  1.0 0.1292009731
H  H14  1  0.81340000  0.34850000  0.60030000  1.0 0.1292009731
H  H15  1  0.97650000  0.33290000  0.47230000  1.0 0.1292009731
H  H16  1  0.87110000  0.38130000  0.37450000  1.0 0.1235065706
H  H17  1  0.66880000  0.65300000  0.04680000  1.0 0.1235065706
H  H18  1  0.00670000  0.13990000  0.17470000  1.0 0.1292009731
H  H19  1  0.29700000  0.26770000  0.66030000  1.0 0.1292009731
H  H20  1  0.19080000  0.16960000  0.60050000  1.0 0.1380253855
H  H21  1  0.03430000  0.01230000  0.56110000  1.0 0.1380253855
H  H22  1  0.81140000  0.95040000  0.98640000  1.0 0.1235065706
H  H23  1  0.75570000  0.72750000  0.12550000  1.0 0.1380253855
H  H24  1  0.59520000  0.04170000  0.72490000  1.0 0.1292009731
H  H25  1  0.70090000  0.17220000  0.66110000  1.0 0.1380253855
H  H26  1  0.27300000  0.44660000  0.85970000  1.0 0.3910719466
H  H27  1  0.68010000  0.57120000  0.78140000  1.0 0.4041596066
H  H28  1  0.35300000  0.00470000  0.90890000  1.0 0.1292009731
H  H29  1  0.26300000  0.89290000  0.49700000  1.0 0.1235065706
H  H30  1  0.39700000  0.85000000  0.89430000  1.0 0.1235065706
H  H31  1  0.88630000  0.18030000  0.98070000  1.0 0.1235065706
H  H32  1  0.35670000  0.84680000  0.59760000  1.0 0.1292009731
H  H33  1  0.80660000  0.28490000  0.76120000  1.0 0.1126766216
H  H34  1  0.27780000  0.12630000  0.09350000  1.0 0.1235065706
H  H35  1  0.68310000  0.28740000  0.96380000  1.0 0.1292009731
H  H36  1  0.00930000  0.17670000  0.77890000  1.0 0.1292009731
H  H37  1  0.95020000  0.01290000  0.84100000  1.0 0.1292009731
H  H38  1  0.07640000  0.55500000  0.34090000  1.0 0.1292009731
H  H39  1  0.18660000  0.65150000  0.39970000  1.0 0.1292009731
H  H40  1  0.02350000  0.66710000  0.52770000  1.0 0.1292009731
H  H41  1  0.12890000  0.61870000  0.62550000  1.0 0.1235065706
H  H42  1  0.33120000  0.34700000  0.95320000  1.0 0.1235065706
H  H43  1  0.99330000  0.86010000  0.82530000  1.0 0.1292009731
H  H44  1  0.70300000  0.73230000  0.33970000  1.0 0.1292009731
H  H45  1  0.80920000  0.83040000  0.39950000  1.0 0.1380253855
H  H46  1  0.96570000  0.98770000  0.43890000  1.0 0.1380253855
H  H47  1  0.18860000  0.04960000  0.01360000  1.0 0.1235065706
H  H48  1  0.24430000  0.27250000  0.87450000  1.0 0.1380253855
H  H49  1  0.40480000  0.95830000  0.27510000  1.0 0.1292009731
H  H50  1  0.29910000  0.82780000  0.33890000  1.0 0.1380253855
C  C1  1  0.80790000  0.16200000  0.13790000  1.0 -0.037525526
C  C2  1  0.77900000  0.26360000  0.14570000  1.0 0.600118072
C  C3  1  0.67970000  0.30410000  0.31530000  1.0 0.600118072
C  C4  1  0.02580000  0.82650000  0.11830000  1.0 0.1698754271
C  C5  1  0.85940000  0.97640000  0.11870000  1.0 0.1815774403
C  C6  1  0.87060000  0.10480000  0.60300000  1.0 0.1698754271
C  C7  1  0.72150000  0.02540000  0.10590000  1.0 -0.1887598064
C  C8  1  0.81000000  0.84360000  0.06010000  1.0 0.1698754271
C  C9  1  0.76540000  0.16260000  0.47730000  1.0 -0.1982637036
C  C10  1  0.26900000  0.69680000  0.13940000  1.0 -0.0294925401
C  C11  1  0.75300000  0.94840000  0.67840000  1.0 -0.0294925401
C  C12  1  0.86460000  0.21570000  0.50100000  1.0 0.2124774914
C  C13  1  0.74710000  0.27280000  0.37720000  1.0 -0.0611335177
C  C14  1  0.64990000  0.70010000  0.91420000  1.0 0.5786776951
C  C15  1  0.69470000  0.11740000  0.11480000  1.0 -0.0713558089
C  C16  1  0.38190000  0.61630000  0.15420000  1.0 0.5786776951
C  C17  1  0.67210000  0.86570000  0.71710000  1.0 0.5585837972
C  C18  1  0.12700000  0.79640000  0.06390000  1.0 -0.1799529333
C  C19  1  0.70860000  0.19040000  0.41690000  1.0 -0.0713558089
C  C20  1  0.11490000  0.36480000  0.66870000  1.0 -0.0294925401
C  C21  1  0.17470000  0.73400000  0.19420000  1.0 -0.0904460233
C  C22  1  0.18320000  0.42570000  0.71120000  1.0 0.5786776951
C  C23  1  0.69820000  0.75220000  0.96700000  1.0 -0.0197232745
C  C24  1  0.73420000  0.84310000  0.94960000  1.0 -0.0904460233
C  C25  1  0.24850000  0.73210000  0.07390000  1.0 -0.0713558089
C  C26  1  0.05330000  0.79870000  0.18380000  1.0 -0.1887598064
C  C27  1  0.96160000  0.02050000  0.14650000  1.0 -0.1887598064
C  C28  1  0.97630000  0.38880000  0.64860000  1.0 -0.0825744372
C  C29  1  0.91050000  0.33170000  0.61250000  1.0 -0.1887598064
C  C30  1  0.98950000  0.25080000  0.59520000  1.0 0.1698754271
C  C31  1  0.90650000  0.29710000  0.45970000  1.0 -0.1887598064
C  C32  1  0.84510000  0.32530000  0.39990000  1.0 -0.0713558089
C  C33  1  0.70300000  0.71200000  0.03360000  1.0 -0.0904460233
C  C34  1  0.93620000  0.11170000  0.15590000  1.0 -0.0713558089
C  C35  1  0.88050000  0.93950000  0.63080000  1.0 -0.0294925401
C  C36  1  0.19880000  0.28300000  0.64900000  1.0 -0.0904460233
C  C37  1  0.13660000  0.22460000  0.61280000  1.0 -0.1887598064
C  C38  1  0.94370000  0.01810000  0.59290000  1.0 -0.2133887101
C  C39  1  0.78900000  0.88880000  0.99740000  1.0 -0.1887598064
C  C40  1  0.75570000  0.75550000  0.08070000  1.0 -0.1703435321
C  C41  1  0.68250000  0.03570000  0.69120000  1.0 -0.0904460233
C  C42  1  0.74550000  0.11350000  0.65260000  1.0 -0.1887598064
C  C43  1  0.19210000  0.83800000  0.86210000  1.0 -0.037525526
C  C44  1  0.22100000  0.73640000  0.85430000  1.0 0.600118072
C  C45  1  0.32030000  0.69590000  0.68470000  1.0 0.600118072
C  C46  1  0.97420000  0.17350000  0.88170000  1.0 0.1698754271
C  C47  1  0.14060000  0.02360000  0.88130000  1.0 0.1815774403
C  C48  1  0.12940000  0.89520000  0.39700000  1.0 0.1698754271
C  C49  1  0.27850000  0.97460000  0.89410000  1.0 -0.1887598064
C  C50  1  0.19000000  0.15640000  0.93990000  1.0 0.1815774403
C  C51  1  0.23460000  0.83740000  0.52270000  1.0 -0.1982637036
C  C52  1  0.73100000  0.30320000  0.86060000  1.0 -0.0294925401
C  C53  1  0.24700000  0.05160000  0.32160000  1.0 -0.0294925401
C  C54  1  0.13540000  0.78430000  0.49900000  1.0 0.2124774914
C  C55  1  0.25290000  0.72720000  0.62280000  1.0 -0.0611335177
C  C56  1  0.35010000  0.29990000  0.08580000  1.0 0.5786776951
C  C57  1  0.30530000  0.88260000  0.88520000  1.0 -0.0713558089
C  C58  1  0.61810000  0.38370000  0.84580000  1.0 0.5786776951
C  C59  1  0.32790000  0.13430000  0.28290000  1.0 0.5585837972
C  C60  1  0.87300000  0.20360000  0.93610000  1.0 -0.1799529333
C  C61  1  0.29140000  0.80960000  0.58310000  1.0 -0.0713558089
C  C62  1  0.88510000  0.63520000  0.33130000  1.0 -0.0294925401
C  C63  1  0.82530000  0.26600000  0.80580000  1.0 -0.0904460233
C  C64  1  0.81680000  0.57430000  0.28880000  1.0 0.5786776951
C  C65  1  0.30180000  0.24780000  0.03300000  1.0 -0.0197232745
C  C66  1  0.26580000  0.15690000  0.05040000  1.0 -0.0904460233
C  C67  1  0.75150000  0.26790000  0.92610000  1.0 -0.0713558089
C  C68  1  0.94670000  0.20130000  0.81620000  1.0 -0.1887598064
C  C69  1  0.03840000  0.97950000  0.85350000  1.0 -0.1887598064
C  C70  1  0.02370000  0.61120000  0.35140000  1.0 -0.0825744372
C  C71  1  0.08950000  0.66830000  0.38750000  1.0 -0.1887598064
C  C72  1  0.01050000  0.74920000  0.40480000  1.0 0.1698754271
C  C73  1  0.09350000  0.70290000  0.54030000  1.0 -0.1887598064
C  C74  1  0.15490000  0.67470000  0.60010000  1.0 -0.0713558089
C  C75  1  0.29700000  0.28800000  0.96640000  1.0 -0.0904460233
C  C76  1  0.06380000  0.88830000  0.84410000  1.0 -0.0713558089
C  C77  1  0.11950000  0.06050000  0.36920000  1.0 -0.0294925401
C  C78  1  0.80120000  0.71700000  0.35100000  1.0 -0.0904460233
C  C79  1  0.86340000  0.77540000  0.38720000  1.0 -0.1887598064
C  C80  1  0.05630000  0.98190000  0.40710000  1.0 -0.2133887101
C  C81  1  0.21100000  0.11120000  0.00260000  1.0 -0.1887598064
C  C82  1  0.24430000  0.24450000  0.91930000  1.0 -0.1703435321
C  C83  1  0.31750000  0.96430000  0.30880000  1.0 -0.0904460233
C  C84  1  0.25450000  0.88650000  0.34740000  1.0 -0.1887598064
N  N1  1  0.88880000  0.88260000  0.10540000  1.0 -0.1799529333
N  N2  1  0.92470000  0.18710000  0.56020000  1.0 -0.1703435321
N  N3  1  0.11120000  0.11740000  0.89460000  1.0 -0.1799529333
N  N4  1  0.07530000  0.81290000  0.43980000  1.0 -0.1703435321
O  O1  1  0.70810000  0.38390000  0.28290000  1.0 -0.601153015
O  O2  1  0.70370000  0.49110000  0.16200000  1.0 -0.9062411178
O  O3  1  0.63750000  0.30160000  0.14220000  1.0 -0.6086878169
O  O4  1  0.42950000  0.40670000  0.21500000  1.0 -0.8805995572
O  O5  1  0.42510000  0.56370000  0.10610000  1.0 -0.5606812227
O  O6  1  0.59600000  0.62250000  0.93350000  1.0 -0.5409941364
O  O7  1  0.67270000  0.73670000  0.85270000  1.0 -0.5481704264
O  O8  1  0.32800000  0.42010000  0.70740000  1.0 -0.5481704264
O  O9  1  0.55300000  0.87580000  0.76100000  1.0 -0.5302052487
O  O10  1  0.88830000  0.30670000  0.15430000  1.0 -0.5302052487
O  O11  1  0.72800000  0.78460000  0.70440000  1.0 -0.5409941364
O  O12  1  0.42160000  0.60490000  0.21170000  1.0 -0.5481704264
O  O13  1  0.58680000  0.25330000  0.29860000  1.0 -0.519694953
O  O14  1  0.08190000  0.47340000  0.74750000  1.0 -0.5668982256
O  O15  1  0.29190000  0.61610000  0.71710000  1.0 -0.601153015
O  O16  1  0.29630000  0.50890000  0.83800000  1.0 -0.9062411178
O  O17  1  0.36250000  0.69840000  0.85780000  1.0 -0.6086878169
O  O18  1  0.57050000  0.59330000  0.78500000  1.0 -0.8805995572
O  O19  1  0.57490000  0.43630000  0.89390000  1.0 -0.5606812227
O  O20  1  0.40400000  0.37750000  0.06650000  1.0 -0.5409941364
O  O21  1  0.32730000  0.26330000  0.14730000  1.0 -0.5481704264
O  O22  1  0.67200000  0.57990000  0.29260000  1.0 -0.5481704264
O  O23  1  0.44700000  0.12420000  0.23900000  1.0 -0.5302052487
O  O24  1  0.11170000  0.69330000  0.84570000  1.0 -0.5302052487
O  O25  1  0.27200000  0.21540000  0.29560000  1.0 -0.5409941364
O  O26  1  0.57840000  0.39510000  0.78830000  1.0 -0.5481704264
O  O27  1  0.41320000  0.74670000  0.70140000  1.0 -0.519694953
O  O28  1  0.91810000  0.52660000  0.25250000  1.0 -0.5668982256
