# DDEC6 charges by PACMAN v1.1 (https://github.com/mtap-research/PACMAN-charge/)
data_LIKDOA_ASR_pacman
_symmetry_space_group_name_H-M   'P 1'
_cell_length_a   23.77060000
_cell_length_b   23.77060000
_cell_length_c   23.77060000
_cell_angle_alpha   60.00000000
_cell_angle_beta   60.00000000
_cell_angle_gamma   60.00000000
_symmetry_Int_Tables_number   1
_chemical_formula_structural   Cu3(C8O3)4
_chemical_formula_sum   'Cu12 C128 O48'
_cell_volume   9497.41541112
_cell_formula_units_Z   4
loop_
 _symmetry_equiv_pos_site_id
 _symmetry_equiv_pos_as_xyz
  1  'x, y, z'
loop_
 _atom_site_type_symbol
 _atom_site_label
 _atom_site_symmetry_multiplicity
 _atom_site_fract_x
 _atom_site_fract_y
 _atom_site_fract_z
 _atom_site_occupancy
 _atom_site_charge
Cu  Cu1  1  0.50000000  0.94768000  0.05232000  1.0 0.8704751956
Cu  Cu2  1  0.94768000  0.50000000  0.50000000  1.0 0.8704751956
Cu  Cu3  1  0.05232000  0.50000000  0.50000000  1.0 0.8704751956
Cu  Cu4  1  0.50000000  0.05232000  0.94768000  1.0 0.8898488012
Cu  Cu5  1  0.05232000  0.50000000  0.94768000  1.0 0.8704751956
Cu  Cu6  1  0.50000000  0.94768000  0.50000000  1.0 0.8898488012
Cu  Cu7  1  0.50000000  0.05232000  0.50000000  1.0 0.8898488012
Cu  Cu8  1  0.94768000  0.50000000  0.05232000  1.0 0.8898488012
Cu  Cu9  1  0.94768000  0.05232000  0.50000000  1.0 0.8898488012
Cu  Cu10  1  0.50000000  0.50000000  0.94768000  1.0 0.8704751956
Cu  Cu11  1  0.50000000  0.50000000  0.05232000  1.0 0.8704751956
Cu  Cu12  1  0.05232000  0.94768000  0.50000000  1.0 0.8898488012
C  C1  1  0.48460000  0.94240000  0.94240000  1.0 0.6389221477
C  C2  1  0.94240000  0.48460000  0.63060000  1.0 0.6389221477
C  C3  1  0.94240000  0.63060000  0.48460000  1.0 0.6389221477
C  C4  1  0.63060000  0.94240000  0.94240000  1.0 0.6389221477
C  C5  1  0.94240000  0.48460000  0.94240000  1.0 0.6389221477
C  C6  1  0.63060000  0.94240000  0.48460000  1.0 0.6389221477
C  C7  1  0.48460000  0.94240000  0.63060000  1.0 0.6389221477
C  C8  1  0.94240000  0.63060000  0.94240000  1.0 0.6389221477
C  C9  1  0.94240000  0.94240000  0.48460000  1.0 0.6389221477
C  C10  1  0.48460000  0.63060000  0.94240000  1.0 0.6389221477
C  C11  1  0.63060000  0.48460000  0.94240000  1.0 0.6389221477
C  C12  1  0.94240000  0.94240000  0.63060000  1.0 0.6389221477
C  C13  1  0.51540000  0.05760000  0.36940000  1.0 0.6389221477
C  C14  1  0.05760000  0.51540000  0.05760000  1.0 0.6389221477
C  C15  1  0.05760000  0.36940000  0.05760000  1.0 0.6389221477
C  C16  1  0.36940000  0.05760000  0.51540000  1.0 0.6389221477
C  C17  1  0.05760000  0.51540000  0.36940000  1.0 0.6389221477
C  C18  1  0.36940000  0.05760000  0.05760000  1.0 0.6389221477
C  C19  1  0.51540000  0.05760000  0.05760000  1.0 0.6389221477
C  C20  1  0.05760000  0.36940000  0.51540000  1.0 0.6389221477
C  C21  1  0.05760000  0.05760000  0.36940000  1.0 0.6389221477
C  C22  1  0.51540000  0.36940000  0.05760000  1.0 0.6389221477
C  C23  1  0.36940000  0.51540000  0.05760000  1.0 0.6389221477
C  C24  1  0.05760000  0.05760000  0.51540000  1.0 0.6389221477
C  C25  1  0.47908000  0.90800000  0.90800000  1.0 -0.1168478913
C  C26  1  0.90800000  0.47908000  0.70492000  1.0 -0.1168478913
C  C27  1  0.90800000  0.70492000  0.47908000  1.0 -0.1168478913
C  C28  1  0.70492000  0.90800000  0.90800000  1.0 -0.1168478913
C  C29  1  0.90800000  0.47908000  0.90800000  1.0 -0.1168478913
C  C30  1  0.70492000  0.90800000  0.47908000  1.0 -0.1168478913
C  C31  1  0.47908000  0.90800000  0.70492000  1.0 -0.1143985016
C  C32  1  0.90800000  0.70492000  0.90800000  1.0 -0.1168478913
C  C33  1  0.90800000  0.90800000  0.47908000  1.0 -0.1143985016
C  C34  1  0.47908000  0.70492000  0.90800000  1.0 -0.1168478913
C  C35  1  0.70492000  0.47908000  0.90800000  1.0 -0.1168478913
C  C36  1  0.90800000  0.90800000  0.70492000  1.0 -0.1143985016
C  C37  1  0.52092000  0.09200000  0.29508000  1.0 -0.1168478913
C  C38  1  0.09200000  0.52092000  0.09200000  1.0 -0.1168478913
C  C39  1  0.09200000  0.29508000  0.09200000  1.0 -0.1168478913
C  C40  1  0.29508000  0.09200000  0.52092000  1.0 -0.1168478913
C  C41  1  0.09200000  0.52092000  0.29508000  1.0 -0.1168478913
C  C42  1  0.29508000  0.09200000  0.09200000  1.0 -0.1168478913
C  C43  1  0.52092000  0.09200000  0.09200000  1.0 -0.1168478913
C  C44  1  0.09200000  0.29508000  0.52092000  1.0 -0.1168478913
C  C45  1  0.09200000  0.09200000  0.29508000  1.0 -0.1168478913
C  C46  1  0.52092000  0.29508000  0.09200000  1.0 -0.1168478913
C  C47  1  0.29508000  0.52092000  0.09200000  1.0 -0.1168478913
C  C48  1  0.09200000  0.09200000  0.52092000  1.0 -0.1168478913
C  C49  1  0.47447000  0.94513000  0.84027000  1.0 -0.0005874462
C  C50  1  0.94513000  0.47447000  0.74013000  1.0 0.0019236915
C  C51  1  0.84027000  0.74013000  0.47447000  1.0 0.0019236915
C  C52  1  0.74013000  0.84027000  0.94513000  1.0 0.0019236915
C  C53  1  0.84027000  0.47447000  0.94513000  1.0 0.0019236915
C  C54  1  0.74013000  0.94513000  0.47447000  1.0 0.0019236915
C  C55  1  0.47447000  0.84027000  0.74013000  1.0 -0.0005874462
C  C56  1  0.94513000  0.74013000  0.84027000  1.0 -0.0005874462
C  C57  1  0.94513000  0.84027000  0.47447000  1.0 0.0019236915
C  C58  1  0.47447000  0.74013000  0.94513000  1.0 0.0019236915
C  C59  1  0.74013000  0.47447000  0.84027000  1.0 0.0019236915
C  C60  1  0.84027000  0.94513000  0.74013000  1.0 0.0019236915
C  C61  1  0.52553000  0.05487000  0.25987000  1.0 0.0019236915
C  C62  1  0.05487000  0.52553000  0.15973000  1.0 0.0019236915
C  C63  1  0.15973000  0.25987000  0.05487000  1.0 0.0019236915
C  C64  1  0.25987000  0.15973000  0.52553000  1.0 0.0019236915
C  C65  1  0.15973000  0.52553000  0.25987000  1.0 0.0019236915
C  C66  1  0.25987000  0.05487000  0.15973000  1.0 0.0019236915
C  C67  1  0.52553000  0.15973000  0.05487000  1.0 0.0019236915
C  C68  1  0.05487000  0.25987000  0.52553000  1.0 -0.0005874462
C  C69  1  0.05487000  0.15973000  0.25987000  1.0 0.0019236915
C  C70  1  0.52553000  0.25987000  0.15973000  1.0 0.0019236915
C  C71  1  0.25987000  0.52553000  0.05487000  1.0 -0.0005874462
C  C72  1  0.15973000  0.05487000  0.52553000  1.0 0.0019236915
C  C73  1  0.52553000  0.05487000  0.15973000  1.0 0.0019236915
C  C74  1  0.05487000  0.52553000  0.25987000  1.0 0.0019236915
C  C75  1  0.15973000  0.25987000  0.52553000  1.0 -0.0005874462
C  C76  1  0.25987000  0.15973000  0.05487000  1.0 0.0019236915
C  C77  1  0.15973000  0.52553000  0.05487000  1.0 -0.0005874462
C  C78  1  0.25987000  0.05487000  0.52553000  1.0 0.0019236915
C  C79  1  0.52553000  0.15973000  0.25987000  1.0 0.0019236915
C  C80  1  0.05487000  0.25987000  0.15973000  1.0 0.0019236915
C  C81  1  0.05487000  0.15973000  0.52553000  1.0 0.0019236915
C  C82  1  0.52553000  0.25987000  0.05487000  1.0 0.0019236915
C  C83  1  0.25987000  0.52553000  0.15973000  1.0 0.0019236915
C  C84  1  0.15973000  0.05487000  0.25987000  1.0 0.0019236915
C  C85  1  0.47447000  0.94513000  0.74013000  1.0 0.0019236915
C  C86  1  0.94513000  0.47447000  0.84027000  1.0 0.0019236915
C  C87  1  0.84027000  0.74013000  0.94513000  1.0 0.0019236915
C  C88  1  0.74013000  0.84027000  0.47447000  1.0 -0.0005874462
C  C89  1  0.84027000  0.47447000  0.74013000  1.0 0.0019236915
C  C90  1  0.74013000  0.94513000  0.84027000  1.0 -0.0005874462
C  C91  1  0.47447000  0.84027000  0.94513000  1.0 -0.0005874462
C  C92  1  0.94513000  0.74013000  0.47447000  1.0 0.0019236915
C  C93  1  0.94513000  0.84027000  0.74013000  1.0 -0.0005874462
C  C94  1  0.47447000  0.74013000  0.84027000  1.0 -0.0005874462
C  C95  1  0.74013000  0.47447000  0.94513000  1.0 0.0019236915
C  C96  1  0.84027000  0.94513000  0.47447000  1.0 0.0019236915
C  C97  1  0.47460000  0.90980000  0.80780000  1.0 0.0571732312
C  C98  1  0.90980000  0.47460000  0.80780000  1.0 0.0538803229
C  C99  1  0.80780000  0.80780000  0.47460000  1.0 0.0571732312
C  C100  1  0.80780000  0.80780000  0.90980000  1.0 0.0538803229
C  C101  1  0.80780000  0.47460000  0.90980000  1.0 0.0538803229
C  C102  1  0.80780000  0.90980000  0.47460000  1.0 0.0571732312
C  C103  1  0.47460000  0.80780000  0.80780000  1.0 0.0571732312
C  C104  1  0.90980000  0.80780000  0.80780000  1.0 0.0571732312
C  C105  1  0.90980000  0.80780000  0.47460000  1.0 0.0571732312
C  C106  1  0.47460000  0.80780000  0.90980000  1.0 0.0538803229
C  C107  1  0.80780000  0.47460000  0.80780000  1.0 0.0538803229
C  C108  1  0.80780000  0.90980000  0.80780000  1.0 0.0571732312
C  C109  1  0.52540000  0.09020000  0.19220000  1.0 0.0538803229
C  C110  1  0.09020000  0.52540000  0.19220000  1.0 0.0538803229
C  C111  1  0.19220000  0.19220000  0.09020000  1.0 0.0538803229
C  C112  1  0.19220000  0.19220000  0.52540000  1.0 0.0538803229
C  C113  1  0.19220000  0.52540000  0.19220000  1.0 0.0538803229
C  C114  1  0.19220000  0.09020000  0.19220000  1.0 0.0538803229
C  C115  1  0.52540000  0.19220000  0.09020000  1.0 0.0538803229
C  C116  1  0.09020000  0.19220000  0.52540000  1.0 0.0538803229
C  C117  1  0.09020000  0.19220000  0.19220000  1.0 0.0538803229
C  C118  1  0.52540000  0.19220000  0.19220000  1.0 0.0538803229
C  C119  1  0.19220000  0.52540000  0.09020000  1.0 0.0538803229
C  C120  1  0.19220000  0.09020000  0.52540000  1.0 0.0538803229
C  C121  1  0.46980000  0.84340000  0.84340000  1.0 0.0571732312
C  C122  1  0.84340000  0.46980000  0.84340000  1.0 0.0571732312
C  C123  1  0.84340000  0.84340000  0.46980000  1.0 0.0571732312
C  C124  1  0.84340000  0.84340000  0.84340000  1.0 0.0571732312
C  C125  1  0.53020000  0.15660000  0.15660000  1.0 0.0571732312
C  C126  1  0.15660000  0.53020000  0.15660000  1.0 0.0571732312
C  C127  1  0.15660000  0.15660000  0.15660000  1.0 0.0571732312
C  C128  1  0.15660000  0.15660000  0.53020000  1.0 0.0571732312
O  O1  1  0.48396000  0.91584000  0.00536000  1.0 -0.5194758709
O  O2  1  0.91584000  0.48396000  0.59484000  1.0 -0.5194758709
O  O3  1  0.00536000  0.59484000  0.48396000  1.0 -0.5194758709
O  O4  1  0.59484000  0.00536000  0.91584000  1.0 -0.5194758709
O  O5  1  0.00536000  0.48396000  0.91584000  1.0 -0.5194758709
O  O6  1  0.59484000  0.91584000  0.48396000  1.0 -0.5194758709
O  O7  1  0.48396000  0.00536000  0.59484000  1.0 -0.5194758709
O  O8  1  0.91584000  0.59484000  0.00536000  1.0 -0.5194758709
O  O9  1  0.91584000  0.00536000  0.48396000  1.0 -0.5194758709
O  O10  1  0.48396000  0.59484000  0.91584000  1.0 -0.5194758709
O  O11  1  0.59484000  0.48396000  0.00536000  1.0 -0.5194758709
O  O12  1  0.00536000  0.91584000  0.59484000  1.0 -0.5194758709
O  O13  1  0.51604000  0.08416000  0.40516000  1.0 -0.5194758709
O  O14  1  0.08416000  0.51604000  0.99464000  1.0 -0.5194758709
O  O15  1  0.99464000  0.40516000  0.08416000  1.0 -0.5194758709
O  O16  1  0.40516000  0.99464000  0.51604000  1.0 -0.5194758709
O  O17  1  0.99464000  0.51604000  0.40516000  1.0 -0.5194758709
O  O18  1  0.40516000  0.08416000  0.99464000  1.0 -0.5194758709
O  O19  1  0.51604000  0.99464000  0.08416000  1.0 -0.5194758709
O  O20  1  0.08416000  0.40516000  0.51604000  1.0 -0.5194758709
O  O21  1  0.08416000  0.99464000  0.40516000  1.0 -0.5194758709
O  O22  1  0.51604000  0.40516000  0.99464000  1.0 -0.5194758709
O  O23  1  0.40516000  0.51604000  0.08416000  1.0 -0.5194758709
O  O24  1  0.99464000  0.08416000  0.51604000  1.0 -0.5194758709
O  O25  1  0.51604000  0.08416000  0.99464000  1.0 -0.5194758709
O  O26  1  0.08416000  0.51604000  0.40516000  1.0 -0.5194758709
O  O27  1  0.99464000  0.40516000  0.51604000  1.0 -0.5194758709
O  O28  1  0.40516000  0.99464000  0.08416000  1.0 -0.5194758709
O  O29  1  0.99464000  0.51604000  0.08416000  1.0 -0.5194758709
O  O30  1  0.40516000  0.08416000  0.51604000  1.0 -0.5194758709
O  O31  1  0.51604000  0.99464000  0.40516000  1.0 -0.5194758709
O  O32  1  0.08416000  0.40516000  0.99464000  1.0 -0.5194758709
O  O33  1  0.08416000  0.99464000  0.51604000  1.0 -0.5194758709
O  O34  1  0.51604000  0.40516000  0.08416000  1.0 -0.5194758709
O  O35  1  0.40516000  0.51604000  0.99464000  1.0 -0.5194758709
O  O36  1  0.99464000  0.08416000  0.40516000  1.0 -0.5194758709
O  O37  1  0.48396000  0.91584000  0.59484000  1.0 -0.5194758709
O  O38  1  0.91584000  0.48396000  0.00536000  1.0 -0.5194758709
O  O39  1  0.00536000  0.59484000  0.91584000  1.0 -0.5194758709
O  O40  1  0.59484000  0.00536000  0.48396000  1.0 -0.5194758709
O  O41  1  0.00536000  0.48396000  0.59484000  1.0 -0.5194758709
O  O42  1  0.59484000  0.91584000  0.00536000  1.0 -0.5194758709
O  O43  1  0.48396000  0.00536000  0.91584000  1.0 -0.5194758709
O  O44  1  0.91584000  0.59484000  0.48396000  1.0 -0.5194758709
O  O45  1  0.91584000  0.00536000  0.59484000  1.0 -0.5194758709
O  O46  1  0.48396000  0.59484000  0.00536000  1.0 -0.5194758709
O  O47  1  0.59484000  0.48396000  0.91584000  1.0 -0.5194758709
O  O48  1  0.00536000  0.91584000  0.48396000  1.0 -0.5194758709
