# DDEC6 charges by PACMAN v1.1 (https://github.com/mtap-research/PACMAN-charge/)
data_LIKDUI_ASR_pacman
_symmetry_space_group_name_H-M   'P 1'
_cell_length_a   13.79880000
_cell_length_b   13.79880000
_cell_length_c   11.92200000
_cell_angle_alpha   90.00000000
_cell_angle_beta   90.00000000
_cell_angle_gamma   149.23500000
_symmetry_Int_Tables_number   1
_chemical_formula_structural   ScH33C28N4O9
_chemical_formula_sum   'Sc2 H66 C56 N8 O18'
_cell_volume   1161.16177311
_cell_formula_units_Z   2
loop_
 _symmetry_equiv_pos_site_id
 _symmetry_equiv_pos_as_xyz
  1  'x, y, z'
loop_
 _atom_site_type_symbol
 _atom_site_label
 _atom_site_symmetry_multiplicity
 _atom_site_fract_x
 _atom_site_fract_y
 _atom_site_fract_z
 _atom_site_occupancy
 _atom_site_charge
Sc  Sc1  1  0.00000000  0.50000000  0.50000000  1.0 1.6760544659
Sc  Sc2  1  0.50000000  0.00000000  0.50000000  1.0 1.6760544659
H  H1  1  0.38489000  0.80553000  0.14386000  1.0 0.1489384279
H  H2  1  0.11511000  0.69447000  0.14386000  1.0 0.1489384279
H  H3  1  0.69447000  0.11511000  0.85614000  1.0 0.1489384279
H  H4  1  0.80553000  0.38489000  0.85614000  1.0 0.1489384279
H  H5  1  0.61511000  0.19447000  0.85614000  1.0 0.1489384279
H  H6  1  0.88489000  0.30553000  0.85614000  1.0 0.1489384279
H  H7  1  0.30553000  0.88489000  0.14386000  1.0 0.1489384279
H  H8  1  0.19447000  0.61511000  0.14386000  1.0 0.1489384279
H  H9  1  0.54725000  0.96493000  0.05712000  1.0 0.0637251393
H  H10  1  0.95275000  0.53507000  0.05712000  1.0 0.0637251393
H  H11  1  0.53507000  0.95275000  0.94288000  1.0 0.0637251393
H  H12  1  0.96493000  0.54725000  0.94288000  1.0 0.0637251393
H  H13  1  0.45275000  0.03507000  0.94288000  1.0 0.0637251393
H  H14  1  0.04725000  0.46493000  0.94288000  1.0 0.0637251393
H  H15  1  0.46493000  0.04725000  0.05712000  1.0 0.0637251393
H  H16  1  0.03507000  0.45275000  0.05712000  1.0 0.0637251393
H  H17  1  0.38706000  0.75252000  0.02873000  1.0 0.0819375545
H  H18  1  0.11293000  0.74748000  0.02873000  1.0 0.0819375545
H  H19  1  0.74749000  0.11293000  0.97127000  1.0 0.0819375545
H  H20  1  0.75252000  0.38707000  0.97127000  1.0 0.0819375545
H  H21  1  0.61294000  0.24749000  0.97127000  1.0 0.0819375545
H  H22  1  0.88706000  0.25251000  0.97127000  1.0 0.0819375545
H  H23  1  0.25251000  0.88706000  0.02873000  1.0 0.0819375545
H  H24  1  0.24749000  0.61294000  0.02873000  1.0 0.0819375545
H  H25  1  0.19533000  0.75773000  0.86633000  1.0 0.0992910371
H  H26  1  0.30467000  0.74227000  0.86633000  1.0 0.0992910371
H  H27  1  0.74227000  0.30467000  0.13367000  1.0 0.0992910371
H  H28  1  0.75773000  0.19533000  0.13367000  1.0 0.0992910371
H  H29  1  0.80467000  0.24227000  0.13367000  1.0 0.0992910371
H  H30  1  0.69533000  0.25773000  0.13367000  1.0 0.0992910371
H  H31  1  0.25773000  0.69533000  0.86633000  1.0 0.0992910371
H  H32  1  0.24227000  0.80467000  0.86633000  1.0 0.0992910371
H  H33  1  0.35715000  0.81918000  0.85936000  1.0 0.0819375545
H  H34  1  0.14286000  0.68083000  0.85936000  1.0 0.0819375545
H  H35  1  0.68083000  0.14286000  0.14064000  1.0 0.0819375545
H  H36  1  0.81918000  0.35714000  0.14064000  1.0 0.0819375545
H  H37  1  0.64285000  0.18083000  0.14064000  1.0 0.0819375545
H  H38  1  0.85715000  0.31918000  0.14064000  1.0 0.0819375545
H  H39  1  0.31917000  0.85715000  0.85936000  1.0 0.0819375545
H  H40  1  0.18083000  0.64286000  0.85936000  1.0 0.0819375545
H  H41  1  0.40746000  0.97170000  0.87950000  1.0 0.029911007
H  H42  1  0.09254000  0.52830000  0.87950000  1.0 0.029911007
H  H43  1  0.52830000  0.09254000  0.12050000  1.0 0.029911007
H  H44  1  0.97170000  0.40746000  0.12050000  1.0 0.029911007
H  H45  1  0.59254000  0.02830000  0.12050000  1.0 0.029911007
H  H46  1  0.90746000  0.47170000  0.12050000  1.0 0.029911007
H  H47  1  0.47170000  0.90746000  0.87950000  1.0 0.029911007
H  H48  1  0.02830000  0.59254000  0.87950000  1.0 0.029911007
H  H49  1  0.40263000  0.14527000  0.74245000  1.0 0.1272159966
H  H50  1  0.09737000  0.35473000  0.74245000  1.0 0.1272159966
H  H51  1  0.35473000  0.09737000  0.25755000  1.0 0.1272159966
H  H52  1  0.14527000  0.40263000  0.25755000  1.0 0.1272159966
H  H53  1  0.59737000  0.85473000  0.25755000  1.0 0.1272159966
H  H54  1  0.90263000  0.64527000  0.25755000  1.0 0.1272159966
H  H55  1  0.64527000  0.90263000  0.74245000  1.0 0.1272159966
H  H56  1  0.85473000  0.59737000  0.74245000  1.0 0.1272159966
H  H57  1  0.33787000  0.20971000  0.87162000  1.0 0.1211500943
H  H58  1  0.16213000  0.29029000  0.87162000  1.0 0.1211500943
H  H59  1  0.29029000  0.16213000  0.12838000  1.0 0.1211500943
H  H60  1  0.20971000  0.33787000  0.12838000  1.0 0.1211500943
H  H61  1  0.66213000  0.79029000  0.12838000  1.0 0.1211500943
H  H62  1  0.83787000  0.70971000  0.12838000  1.0 0.1211500943
H  H63  1  0.70971000  0.83787000  0.87162000  1.0 0.1211500943
H  H64  1  0.79029000  0.66213000  0.87162000  1.0 0.1211500943
H  H65  1  0.25000000  0.75000000  0.34760000  1.0 0.5103346587
H  H66  1  0.75000000  0.25000000  0.65240000  1.0 0.5103346587
C  C1  1  0.18600000  0.77400000  0.08400000  1.0 0.1211500943
C  C2  1  0.31400000  0.72600000  0.08400000  1.0 0.1211500943
C  C3  1  0.72600000  0.31400000  0.91600000  1.0 0.1272159966
C  C4  1  0.77400000  0.18600000  0.91600000  1.0 0.1272159966
C  C5  1  0.81400000  0.22600000  0.91600000  1.0 0.1272159966
C  C6  1  0.68600000  0.27400000  0.91600000  1.0 0.1272159966
C  C7  1  0.27400000  0.68600000  0.08400000  1.0 0.1211500943
C  C8  1  0.22600000  0.81400000  0.08400000  1.0 0.1211500943
C  C9  1  0.41900000  0.84100000  0.06600000  1.0 -0.0902002889
C  C10  1  0.08100000  0.65900000  0.06600000  1.0 -0.0902002889
C  C11  1  0.65900000  0.08100000  0.93400000  1.0 -0.0902002889
C  C12  1  0.84100000  0.41900000  0.93400000  1.0 -0.0902002889
C  C13  1  0.58100000  0.15900000  0.93400000  1.0 -0.0902002889
C  C14  1  0.91900000  0.34100000  0.93400000  1.0 -0.0902002889
C  C15  1  0.34100000  0.91900000  0.06600000  1.0 -0.0902002889
C  C16  1  0.15900000  0.58100000  0.06600000  1.0 -0.0902002889
C  C17  1  0.31700000  0.84300000  0.89500000  1.0 -0.1117699284
C  C18  1  0.18300000  0.65700000  0.89500000  1.0 -0.1117699284
C  C19  1  0.65700000  0.18300000  0.10500000  1.0 -0.1117699284
C  C20  1  0.84300000  0.31700000  0.10500000  1.0 -0.1117699284
C  C21  1  0.68300000  0.15700000  0.10500000  1.0 -0.1117699284
C  C22  1  0.81700000  0.34300000  0.10500000  1.0 -0.1117699284
C  C23  1  0.34300000  0.81700000  0.89500000  1.0 -0.1117699284
C  C24  1  0.15700000  0.68300000  0.89500000  1.0 -0.1117699284
C  C25  1  0.13540000  0.86460000  0.72890000  1.0 -0.1117699284
C  C26  1  0.36460000  0.63540000  0.72890000  1.0 -0.1117699284
C  C27  1  0.63540000  0.36460000  0.27110000  1.0 -0.1117699284
C  C28  1  0.86460000  0.13540000  0.27110000  1.0 -0.1117699284
C  C29  1  0.01700000  0.98300000  0.96580000  1.0 -0.0793827406
C  C30  1  0.48300000  0.51700000  0.96580000  1.0 -0.0793827406
C  C31  1  0.51700000  0.48300000  0.03420000  1.0 -0.0793827406
C  C32  1  0.98300000  0.01700000  0.03420000  1.0 -0.0793827406
C  C33  1  0.17730000  0.82270000  0.64530000  1.0 0.4941454411
C  C34  1  0.32270000  0.67730000  0.64530000  1.0 0.4941454411
C  C35  1  0.67730000  0.32270000  0.35470000  1.0 0.4941454411
C  C36  1  0.82270000  0.17730000  0.35470000  1.0 0.4941454411
C  C37  1  0.05740000  0.94260000  0.88500000  1.0 0.1272159966
C  C38  1  0.44260000  0.55740000  0.88500000  1.0 0.1272159966
C  C39  1  0.55740000  0.44260000  0.11500000  1.0 0.1272159966
C  C40  1  0.94260000  0.05740000  0.11500000  1.0 0.1272159966
C  C41  1  0.27950000  0.04790000  0.76830000  1.0 -0.1997571621
C  C42  1  0.22050000  0.45210000  0.76830000  1.0 -0.2052703171
C  C43  1  0.45210000  0.22050000  0.23170000  1.0 -0.1997571621
C  C44  1  0.04790000  0.27950000  0.23170000  1.0 -0.2052703171
C  C45  1  0.72050000  0.95210000  0.23170000  1.0 -0.1997571621
C  C46  1  0.77950000  0.54790000  0.23170000  1.0 -0.1997571621
C  C47  1  0.54790000  0.77950000  0.76830000  1.0 -0.1997571621
C  C48  1  0.95210000  0.72050000  0.76830000  1.0 -0.1997571621
C  C49  1  0.24060000  0.08660000  0.84570000  1.0 -0.1997571621
C  C50  1  0.25940000  0.41340000  0.84570000  1.0 -0.1997571621
C  C51  1  0.41340000  0.25940000  0.15430000  1.0 -0.1997571621
C  C52  1  0.08660000  0.24060000  0.15430000  1.0 -0.1997571621
C  C53  1  0.75940000  0.91340000  0.15430000  1.0 -0.1997571621
C  C54  1  0.74060000  0.58660000  0.15430000  1.0 -0.1997571621
C  C55  1  0.58660000  0.74060000  0.84570000  1.0 -0.1997571621
C  C56  1  0.91340000  0.75940000  0.84570000  1.0 -0.1997571621
N  N1  1  0.30440000  0.81760000  0.01600000  1.0 0.1365077526
N  N2  1  0.19560000  0.68240000  0.01600000  1.0 0.1365077526
N  N3  1  0.68240000  0.19560000  0.98400000  1.0 0.1365077526
N  N4  1  0.81760000  0.30440000  0.98400000  1.0 0.1365077526
N  N5  1  0.69560000  0.18240000  0.98400000  1.0 0.1365077526
N  N6  1  0.80440000  0.31760000  0.98400000  1.0 0.1365077526
N  N7  1  0.31760000  0.80440000  0.01600000  1.0 0.1365077526
N  N8  1  0.18240000  0.69560000  0.01600000  1.0 0.1365077526
O  O1  1  0.19500000  0.78500000  0.18800000  1.0 -0.3306725554
O  O2  1  0.30500000  0.71500000  0.18800000  1.0 -0.3306725554
O  O3  1  0.71500000  0.30500000  0.81200000  1.0 -0.3306725554
O  O4  1  0.78500000  0.19500000  0.81200000  1.0 -0.3306725554
O  O5  1  0.80500000  0.21500000  0.81200000  1.0 -0.3306725554
O  O6  1  0.69500000  0.28500000  0.81200000  1.0 -0.3306725554
O  O7  1  0.28500000  0.69500000  0.18800000  1.0 -0.3306725554
O  O8  1  0.21500000  0.80500000  0.18800000  1.0 -0.3306725554
O  O9  1  0.25000000  0.75000000  0.42100000  1.0 -0.9727678418
O  O10  1  0.75000000  0.25000000  0.57900000  1.0 -0.9727678418
O  O11  1  0.04270000  0.65510000  0.61230000  1.0 -0.5997719287
O  O12  1  0.45730000  0.84490000  0.61230000  1.0 -0.5997719287
O  O13  1  0.84490000  0.45730000  0.38770000  1.0 -0.5997719287
O  O14  1  0.65510000  0.04270000  0.38770000  1.0 -0.5997719287
O  O15  1  0.95730000  0.34490000  0.38770000  1.0 -0.5997719287
O  O16  1  0.54270000  0.15510000  0.38770000  1.0 -0.5997719287
O  O17  1  0.15510000  0.54270000  0.61230000  1.0 -0.5997719287
O  O18  1  0.34490000  0.95730000  0.61230000  1.0 -0.5997719287
