# DDEC6 charges by PACMAN v1.1 (https://github.com/mtap-research/PACMAN-charge/)
data_LIKDOC_FSR_pacman
_symmetry_space_group_name_H-M   'P 1'
_cell_length_a   13.79110000
_cell_length_b   13.79110000
_cell_length_c   11.87900000
_cell_angle_alpha   90.00000000
_cell_angle_beta   90.00000000
_cell_angle_gamma   149.07600000
_symmetry_Int_Tables_number   1
_chemical_formula_structural   ScH37C28N4O9
_chemical_formula_sum   'Sc2 H74 C56 N8 O18'
_cell_volume   1161.06584487
_cell_formula_units_Z   2
loop_
 _symmetry_equiv_pos_site_id
 _symmetry_equiv_pos_as_xyz
  1  'x, y, z'
loop_
 _atom_site_type_symbol
 _atom_site_label
 _atom_site_symmetry_multiplicity
 _atom_site_fract_x
 _atom_site_fract_y
 _atom_site_fract_z
 _atom_site_occupancy
 _atom_site_charge
Sc  Sc1  1  0.00000000  0.50000000  0.50000000  1.0 1.6244227178
Sc  Sc2  1  0.50000000  0.00000000  0.50000000  1.0 1.6244227178
H  H1  1  0.40141000  0.14385000  0.74215000  1.0 0.1251866258
H  H2  1  0.09859000  0.35615000  0.74215000  1.0 0.1251866258
H  H3  1  0.35615000  0.09859000  0.25785000  1.0 0.1251866258
H  H4  1  0.14385000  0.40141000  0.25785000  1.0 0.1245493777
H  H5  1  0.59859000  0.85615000  0.25785000  1.0 0.1245493777
H  H6  1  0.90141000  0.64385000  0.25785000  1.0 0.1245493777
H  H7  1  0.64385000  0.90141000  0.74215000  1.0 0.1251866258
H  H8  1  0.85615000  0.59859000  0.74215000  1.0 0.1251866258
H  H9  1  0.33805000  0.20931000  0.87135000  1.0 0.1111427587
H  H10  1  0.16195000  0.29069000  0.87135000  1.0 0.1111427587
H  H11  1  0.29069000  0.16195000  0.12865000  1.0 0.1111427587
H  H12  1  0.20931000  0.33805000  0.12865000  1.0 0.1111427587
H  H13  1  0.66195000  0.79069000  0.12865000  1.0 0.1111427587
H  H14  1  0.83805000  0.70931000  0.12865000  1.0 0.1111427587
H  H15  1  0.70931000  0.83805000  0.87135000  1.0 0.1111427587
H  H16  1  0.79069000  0.66195000  0.87135000  1.0 0.1111427587
H  H17  1  0.25000000  0.75000000  0.34440000  1.0 0.5266979224
H  H18  1  0.75000000  0.25000000  0.65560000  1.0 0.5266979224
H  H19  1  0.67805000  0.32479000  0.93477000  1.0 0.0708633698
H  H20  1  0.82195000  0.17521000  0.93477000  1.0 0.0708633698
H  H21  1  0.82479000  0.17805000  0.93477000  1.0 0.0708633698
H  H22  1  0.67521000  0.32195000  0.93477000  1.0 0.0708633698
H  H23  1  0.73273000  0.31215000  0.12223000  1.0 0.0612456153
H  H24  1  0.76727000  0.18785000  0.12223000  1.0 0.0612456153
H  H25  1  0.81215000  0.23273000  0.12223000  1.0 0.0612456153
H  H26  1  0.68785000  0.26727000  0.12223000  1.0 0.0612456153
H  H27  1  0.78826000  0.25098000  0.14129000  1.0 0.0612456153
H  H28  1  0.71174000  0.24902000  0.14129000  1.0 0.0612456153
H  H29  1  0.75098000  0.28826000  0.14129000  1.0 0.0612456153
H  H30  1  0.74902000  0.21174000  0.14129000  1.0 0.0612456153
H  H31  1  0.57678000  0.09776000  0.12070000  1.0 0.0395640805
H  H32  1  0.92322000  0.40224000  0.12070000  1.0 0.0395640805
H  H33  1  0.59776000  0.07678000  0.12070000  1.0 0.0395640805
H  H34  1  0.90224000  0.42322000  0.12070000  1.0 0.0395640805
H  H35  1  0.74813000  0.10487000  0.98845000  1.0 0.0478088408
H  H36  1  0.75187000  0.39513000  0.98845000  1.0 0.0478088408
H  H37  1  0.60488000  0.24813000  0.98845000  1.0 0.0478088408
H  H38  1  0.89512000  0.25188000  0.98845000  1.0 0.0478088408
H  H39  1  0.92969000  0.30925000  0.93848000  1.0 0.0612456153
H  H40  1  0.57031000  0.19075000  0.93848000  1.0 0.0612456153
H  H41  1  0.80925000  0.42969000  0.93848000  1.0 0.0612456153
H  H42  1  0.69075000  0.07031000  0.93848000  1.0 0.0612456153
H  H43  1  0.74669000  0.14383000  0.86500000  1.0 0.1111427587
H  H44  1  0.75331000  0.35617000  0.86500000  1.0 0.1111427587
H  H45  1  0.64383000  0.24669000  0.86500000  1.0 0.1111427587
H  H46  1  0.85617000  0.25331000  0.86500000  1.0 0.1111427587
H  H47  1  0.17521000  0.82195000  0.06523000  1.0 0.0708633698
H  H48  1  0.32479000  0.67805000  0.06523000  1.0 0.0708633698
H  H49  1  0.32195000  0.67521000  0.06523000  1.0 0.0708633698
H  H50  1  0.17805000  0.82479000  0.06523000  1.0 0.0708633698
H  H51  1  0.18785000  0.76727000  0.87777000  1.0 0.0612456153
H  H52  1  0.31215000  0.73273000  0.87777000  1.0 0.0612456153
H  H53  1  0.26727000  0.68785000  0.87777000  1.0 0.0612456153
H  H54  1  0.23273000  0.81215000  0.87777000  1.0 0.0612456153
H  H55  1  0.24902000  0.71174000  0.85871000  1.0 0.0612456153
H  H56  1  0.25098000  0.78826000  0.85871000  1.0 0.0612456153
H  H57  1  0.21174000  0.74902000  0.85871000  1.0 0.0612456153
H  H58  1  0.28826000  0.75098000  0.85871000  1.0 0.0612456153
H  H59  1  0.40224000  0.92322000  0.87930000  1.0 0.0395640805
H  H60  1  0.09776000  0.57678000  0.87930000  1.0 0.0395640805
H  H61  1  0.42322000  0.90224000  0.87930000  1.0 0.0395640805
H  H62  1  0.07678000  0.59776000  0.87930000  1.0 0.0395640805
H  H63  1  0.39513000  0.75187000  0.01155000  1.0 0.0478088408
H  H64  1  0.10487000  0.74813000  0.01155000  1.0 0.0478088408
H  H65  1  0.25187000  0.89512000  0.01155000  1.0 0.0478088408
H  H66  1  0.24813000  0.60488000  0.01155000  1.0 0.0478088408
H  H67  1  0.19075000  0.57031000  0.06152000  1.0 0.0612456153
H  H68  1  0.30925000  0.92969000  0.06152000  1.0 0.0612456153
H  H69  1  0.07031000  0.69075000  0.06152000  1.0 0.0612456153
H  H70  1  0.42969000  0.80925000  0.06152000  1.0 0.0612456153
H  H71  1  0.35617000  0.75331000  0.13500000  1.0 0.1111427587
H  H72  1  0.14383000  0.74669000  0.13500000  1.0 0.1111427587
H  H73  1  0.25331000  0.85617000  0.13500000  1.0 0.1111427587
H  H74  1  0.24669000  0.64383000  0.13500000  1.0 0.1111427587
C  C1  1  0.13570000  0.86430000  0.72840000  1.0 -0.0988501013
C  C2  1  0.36430000  0.63570000  0.72840000  1.0 -0.0988501013
C  C3  1  0.63570000  0.36430000  0.27160000  1.0 -0.0988501013
C  C4  1  0.86430000  0.13570000  0.27160000  1.0 -0.0988501013
C  C5  1  0.01700000  0.98300000  0.96610000  1.0 -0.0619201387
C  C6  1  0.48300000  0.51700000  0.96610000  1.0 -0.0619201387
C  C7  1  0.51700000  0.48300000  0.03390000  1.0 -0.0619201387
C  C8  1  0.98300000  0.01700000  0.03390000  1.0 -0.0619201387
C  C9  1  0.17760000  0.82240000  0.64430000  1.0 0.4682275541
C  C10  1  0.32240000  0.67760000  0.64430000  1.0 0.4682275541
C  C11  1  0.67760000  0.32240000  0.35570000  1.0 0.4682275541
C  C12  1  0.82240000  0.17760000  0.35570000  1.0 0.4682275541
C  C13  1  0.05730000  0.94270000  0.88550000  1.0 0.1245493777
C  C14  1  0.44270000  0.55730000  0.88550000  1.0 0.1245493777
C  C15  1  0.55730000  0.44270000  0.11450000  1.0 0.1245493777
C  C16  1  0.94270000  0.05730000  0.11450000  1.0 0.1245493777
C  C17  1  0.27872000  0.04708000  0.76820000  1.0 -0.190979681
C  C18  1  0.22128000  0.45292000  0.76820000  1.0 -0.190979681
C  C19  1  0.45292000  0.22128000  0.23180000  1.0 -0.190979681
C  C20  1  0.04708000  0.27872000  0.23180000  1.0 -0.190979681
C  C21  1  0.72128000  0.95292000  0.23180000  1.0 -0.190979681
C  C22  1  0.77872000  0.54708000  0.23180000  1.0 -0.190979681
C  C23  1  0.54708000  0.77872000  0.76820000  1.0 -0.190979681
C  C24  1  0.95292000  0.72128000  0.76820000  1.0 -0.190979681
C  C25  1  0.24093000  0.08647000  0.84550000  1.0 -0.190979681
C  C26  1  0.25907000  0.41353000  0.84550000  1.0 -0.190979681
C  C27  1  0.41353000  0.25907000  0.15450000  1.0 -0.190979681
C  C28  1  0.08647000  0.24093000  0.15450000  1.0 -0.190979681
C  C29  1  0.75907000  0.91353000  0.15450000  1.0 -0.190979681
C  C30  1  0.74093000  0.58647000  0.15450000  1.0 -0.190979681
C  C31  1  0.58647000  0.74093000  0.84550000  1.0 -0.190979681
C  C32  1  0.91353000  0.75907000  0.84550000  1.0 -0.190979681
C  C33  1  0.69570000  0.27830000  0.90500000  1.0 0.0708633698
C  C34  1  0.80430000  0.22170000  0.90500000  1.0 0.0708633698
C  C35  1  0.77830000  0.19570000  0.90500000  1.0 0.0708633698
C  C36  1  0.72170000  0.30430000  0.90500000  1.0 0.0708633698
C  C37  1  0.70500000  0.22300000  0.10150000  1.0 -0.0619201387
C  C38  1  0.79500000  0.27700000  0.10150000  1.0 -0.0619201387
C  C39  1  0.72300000  0.20500000  0.10150000  1.0 -0.0619201387
C  C40  1  0.77700000  0.29500000  0.10150000  1.0 -0.0619201387
C  C41  1  0.79480000  0.19520000  0.94000000  1.0 -0.0313403709
C  C42  1  0.70520000  0.30480000  0.94000000  1.0 -0.0313403709
C  C43  1  0.69520000  0.29480000  0.94000000  1.0 -0.0313403709
C  C44  1  0.80480000  0.20520000  0.94000000  1.0 -0.0313403709
C  C45  1  0.22170000  0.80430000  0.09500000  1.0 0.0708633698
C  C46  1  0.27830000  0.69570000  0.09500000  1.0 0.0708633698
C  C47  1  0.30430000  0.72170000  0.09500000  1.0 0.0708633698
C  C48  1  0.19570000  0.77830000  0.09500000  1.0 0.0708633698
C  C49  1  0.27700000  0.79500000  0.89850000  1.0 -0.0619201387
C  C50  1  0.22300000  0.70500000  0.89850000  1.0 -0.0619201387
C  C51  1  0.29500000  0.77700000  0.89850000  1.0 -0.0619201387
C  C52  1  0.20500000  0.72300000  0.89850000  1.0 -0.0619201387
C  C53  1  0.30480000  0.70520000  0.06000000  1.0 -0.0313403709
C  C54  1  0.19520000  0.79480000  0.06000000  1.0 -0.0313403709
C  C55  1  0.20520000  0.80480000  0.06000000  1.0 -0.0313403709
C  C56  1  0.29480000  0.69520000  0.06000000  1.0 -0.0313403709
N  N1  1  0.73220000  0.23380000  0.98050000  1.0 -0.145607356
N  N2  1  0.76780000  0.26620000  0.98050000  1.0 -0.145607356
N  N3  1  0.73380000  0.23220000  0.98050000  1.0 -0.145607356
N  N4  1  0.76620000  0.26780000  0.98050000  1.0 -0.145607356
N  N5  1  0.26620000  0.76780000  0.01950000  1.0 -0.145607356
N  N6  1  0.23380000  0.73220000  0.01950000  1.0 -0.145607356
N  N7  1  0.26780000  0.76620000  0.01950000  1.0 -0.145607356
N  N8  1  0.23220000  0.73380000  0.01950000  1.0 -0.145607356
O  O1  1  0.25000000  0.75000000  0.41810000  1.0 -0.8436002248
O  O2  1  0.75000000  0.25000000  0.58190000  1.0 -0.8436002248
O  O3  1  0.04331000  0.65509000  0.61130000  1.0 -0.5400744789
O  O4  1  0.45669000  0.84491000  0.61130000  1.0 -0.5400744789
O  O5  1  0.84491000  0.45669000  0.38870000  1.0 -0.5400744789
O  O6  1  0.65509000  0.04331000  0.38870000  1.0 -0.5400744789
O  O7  1  0.95669000  0.34491000  0.38870000  1.0 -0.5400744789
O  O8  1  0.54331000  0.15509000  0.38870000  1.0 -0.5400744789
O  O9  1  0.15509000  0.54331000  0.61130000  1.0 -0.5400744789
O  O10  1  0.34491000  0.95669000  0.61130000  1.0 -0.5400744789
O  O11  1  0.68260000  0.25740000  0.80200000  1.0 -0.1420514249
O  O12  1  0.81740000  0.24260000  0.80200000  1.0 -0.1420514249
O  O13  1  0.75740000  0.18260000  0.80200000  1.0 -0.1420514249
O  O14  1  0.74260000  0.31740000  0.80200000  1.0 -0.1420514249
O  O15  1  0.24260000  0.81740000  0.19800000  1.0 -0.1420514249
O  O16  1  0.25740000  0.68260000  0.19800000  1.0 -0.1420514249
O  O17  1  0.31740000  0.74260000  0.19800000  1.0 -0.1420514249
O  O18  1  0.18260000  0.75740000  0.19800000  1.0 -0.1420514249
