# DDEC6 charges by PACMAN v1.1 (https://github.com/mtap-research/PACMAN-charge/)
data_LIKGUJ_ASR_pacman
_symmetry_space_group_name_H-M   'P 1'
_cell_length_a   21.09350000
_cell_length_b   21.09350000
_cell_length_c   21.09350000
_cell_angle_alpha   60.00000000
_cell_angle_beta   60.00000000
_cell_angle_gamma   60.00000000
_symmetry_Int_Tables_number   1
_chemical_formula_structural   Cu9(C19O9)4
_chemical_formula_sum   'Cu18 C152 O72'
_cell_volume   6636.37538831
_cell_formula_units_Z   2
loop_
 _symmetry_equiv_pos_site_id
 _symmetry_equiv_pos_as_xyz
  1  'x, y, z'
loop_
 _atom_site_type_symbol
 _atom_site_label
 _atom_site_symmetry_multiplicity
 _atom_site_fract_x
 _atom_site_fract_y
 _atom_site_fract_z
 _atom_site_occupancy
 _atom_site_charge
Cu  Cu1  1  0.50000000  0.50000000  0.00000000  1.0 0.5905414028
Cu  Cu2  1  0.00000000  0.00000000  0.50000000  1.0 0.5905414028
Cu  Cu3  1  0.00000000  0.50000000  0.50000000  1.0 0.5905414028
Cu  Cu4  1  0.50000000  0.00000000  0.00000000  1.0 0.5905414028
Cu  Cu5  1  0.50000000  0.00000000  0.50000000  1.0 0.5905414028
Cu  Cu6  1  0.00000000  0.50000000  0.00000000  1.0 0.5905414028
Cu  Cu7  1  0.61230000  0.38770000  0.00000000  1.0 0.8449607097
Cu  Cu8  1  0.38770000  0.61230000  0.00000000  1.0 0.8479762023
Cu  Cu9  1  0.00000000  0.00000000  0.61230000  1.0 0.8479762023
Cu  Cu10  1  0.00000000  0.00000000  0.38770000  1.0 0.8479762023
Cu  Cu11  1  0.00000000  0.61230000  0.38770000  1.0 0.8313065572
Cu  Cu12  1  0.00000000  0.38770000  0.61230000  1.0 0.8479762023
Cu  Cu13  1  0.61230000  0.00000000  0.00000000  1.0 0.8313065572
Cu  Cu14  1  0.38770000  0.00000000  0.00000000  1.0 0.8313065572
Cu  Cu15  1  0.38770000  0.00000000  0.61230000  1.0 0.8479762023
Cu  Cu16  1  0.61230000  0.00000000  0.38770000  1.0 0.8449607097
Cu  Cu17  1  0.00000000  0.61230000  0.00000000  1.0 0.8479762023
Cu  Cu18  1  0.00000000  0.38770000  0.00000000  1.0 0.8479762023
C  C1  1  0.48760000  0.38720000  0.97540000  1.0 0.3112397554
C  C2  1  0.38720000  0.48760000  0.14980000  1.0 0.3112397554
C  C3  1  0.97540000  0.14980000  0.48760000  1.0 0.3112397554
C  C4  1  0.14980000  0.97540000  0.38720000  1.0 0.3112397554
C  C5  1  0.97540000  0.48760000  0.38720000  1.0 0.3112397554
C  C6  1  0.14980000  0.38720000  0.48760000  1.0 0.3112397554
C  C7  1  0.48760000  0.97540000  0.14980000  1.0 0.3112397554
C  C8  1  0.38720000  0.14980000  0.97540000  1.0 0.3112397554
C  C9  1  0.38720000  0.97540000  0.48760000  1.0 0.3112397554
C  C10  1  0.48760000  0.14980000  0.38720000  1.0 0.3112397554
C  C11  1  0.14980000  0.48760000  0.97540000  1.0 0.3112397554
C  C12  1  0.97540000  0.38720000  0.14980000  1.0 0.3112397554
C  C13  1  0.51240000  0.61280000  0.85020000  1.0 0.3112397554
C  C14  1  0.61280000  0.51240000  0.02460000  1.0 0.3112397554
C  C15  1  0.02460000  0.85020000  0.61280000  1.0 0.3112397554
C  C16  1  0.85020000  0.02460000  0.51240000  1.0 0.3112397554
C  C17  1  0.02460000  0.51240000  0.85020000  1.0 0.3112397554
C  C18  1  0.85020000  0.61280000  0.02460000  1.0 0.3112397554
C  C19  1  0.51240000  0.02460000  0.61280000  1.0 0.3112397554
C  C20  1  0.61280000  0.85020000  0.51240000  1.0 0.3112397554
C  C21  1  0.61280000  0.02460000  0.85020000  1.0 0.3112397554
C  C22  1  0.51240000  0.85020000  0.02460000  1.0 0.3112397554
C  C23  1  0.85020000  0.51240000  0.61280000  1.0 0.3112397554
C  C24  1  0.02460000  0.61280000  0.51240000  1.0 0.3112397554
C  C25  1  0.51240000  0.61280000  0.02460000  1.0 0.3112397554
C  C26  1  0.61280000  0.51240000  0.85020000  1.0 0.3112397554
C  C27  1  0.02460000  0.85020000  0.51240000  1.0 0.3112397554
C  C28  1  0.85020000  0.02460000  0.61280000  1.0 0.3155203961
C  C29  1  0.02460000  0.51240000  0.61280000  1.0 0.3112397554
C  C30  1  0.85020000  0.61280000  0.51240000  1.0 0.3112397554
C  C31  1  0.51240000  0.02460000  0.85020000  1.0 0.3112397554
C  C32  1  0.61280000  0.85020000  0.02460000  1.0 0.3112397554
C  C33  1  0.61280000  0.02460000  0.51240000  1.0 0.3112397554
C  C34  1  0.51240000  0.85020000  0.61280000  1.0 0.3112397554
C  C35  1  0.85020000  0.51240000  0.02460000  1.0 0.3112397554
C  C36  1  0.02460000  0.61280000  0.85020000  1.0 0.3112397554
C  C37  1  0.48760000  0.38720000  0.14980000  1.0 0.3112397554
C  C38  1  0.38720000  0.48760000  0.97540000  1.0 0.3112397554
C  C39  1  0.97540000  0.14980000  0.38720000  1.0 0.3112397554
C  C40  1  0.14980000  0.97540000  0.48760000  1.0 0.3112397554
C  C41  1  0.97540000  0.48760000  0.14980000  1.0 0.3112397554
C  C42  1  0.14980000  0.38720000  0.97540000  1.0 0.3112397554
C  C43  1  0.48760000  0.97540000  0.38720000  1.0 0.3112397554
C  C44  1  0.38720000  0.14980000  0.48760000  1.0 0.3112397554
C  C45  1  0.38720000  0.97540000  0.14980000  1.0 0.3112397554
C  C46  1  0.48760000  0.14980000  0.97540000  1.0 0.3112397554
C  C47  1  0.14980000  0.48760000  0.38720000  1.0 0.3112397554
C  C48  1  0.97540000  0.38720000  0.48760000  1.0 0.3112397554
C  C49  1  0.48900000  0.26400000  0.98300000  1.0 0.0094313182
C  C50  1  0.26400000  0.48900000  0.26400000  1.0 0.0094313182
C  C51  1  0.98300000  0.26400000  0.48900000  1.0 0.0094313182
C  C52  1  0.26400000  0.98300000  0.26400000  1.0 0.0094313182
C  C53  1  0.98300000  0.48900000  0.26400000  1.0 0.0094313182
C  C54  1  0.26400000  0.26400000  0.48900000  1.0 0.0094313182
C  C55  1  0.48900000  0.98300000  0.26400000  1.0 0.0094313182
C  C56  1  0.26400000  0.26400000  0.98300000  1.0 0.0094313182
C  C57  1  0.26400000  0.98300000  0.48900000  1.0 0.0094313182
C  C58  1  0.48900000  0.26400000  0.26400000  1.0 0.0094313182
C  C59  1  0.26400000  0.48900000  0.98300000  1.0 0.0094313182
C  C60  1  0.98300000  0.26400000  0.26400000  1.0 0.0094313182
C  C61  1  0.51100000  0.73600000  0.73600000  1.0 0.0094313182
C  C62  1  0.73600000  0.51100000  0.01700000  1.0 0.0094313182
C  C63  1  0.01700000  0.73600000  0.73600000  1.0 0.0094313182
C  C64  1  0.73600000  0.01700000  0.51100000  1.0 0.0094313182
C  C65  1  0.01700000  0.51100000  0.73600000  1.0 0.0094313182
C  C66  1  0.73600000  0.73600000  0.01700000  1.0 0.0094313182
C  C67  1  0.51100000  0.01700000  0.73600000  1.0 0.0094313182
C  C68  1  0.73600000  0.73600000  0.51100000  1.0 0.0094313182
C  C69  1  0.73600000  0.01700000  0.73600000  1.0 0.0094313182
C  C70  1  0.51100000  0.73600000  0.01700000  1.0 0.0094313182
C  C71  1  0.73600000  0.51100000  0.73600000  1.0 0.0094313182
C  C72  1  0.01700000  0.73600000  0.51100000  1.0 0.0094313182
C  C73  1  0.45240000  0.34500000  0.97180000  1.0 -0.0435482658
C  C74  1  0.34500000  0.45240000  0.23080000  1.0 -0.0435482658
C  C75  1  0.97180000  0.23080000  0.45240000  1.0 -0.0435482658
C  C76  1  0.23080000  0.97180000  0.34500000  1.0 -0.0435482658
C  C77  1  0.97180000  0.45240000  0.34500000  1.0 -0.0435482658
C  C78  1  0.23080000  0.34500000  0.45240000  1.0 -0.0435482658
C  C79  1  0.45240000  0.97180000  0.23080000  1.0 -0.0435482658
C  C80  1  0.34500000  0.23080000  0.97180000  1.0 -0.0435482658
C  C81  1  0.34500000  0.97180000  0.45240000  1.0 -0.0435482658
C  C82  1  0.45240000  0.23080000  0.34500000  1.0 -0.0435482658
C  C83  1  0.23080000  0.45240000  0.97180000  1.0 -0.0435482658
C  C84  1  0.97180000  0.34500000  0.23080000  1.0 -0.0435482658
C  C85  1  0.54760000  0.65500000  0.76920000  1.0 -0.0435482658
C  C86  1  0.65500000  0.54760000  0.02820000  1.0 -0.0435482658
C  C87  1  0.02820000  0.76920000  0.65500000  1.0 -0.0435482658
C  C88  1  0.76920000  0.02820000  0.54760000  1.0 -0.0435482658
C  C89  1  0.02820000  0.54760000  0.76920000  1.0 -0.0435482658
C  C90  1  0.76920000  0.65500000  0.02820000  1.0 -0.0435482658
C  C91  1  0.54760000  0.02820000  0.65500000  1.0 -0.0435482658
C  C92  1  0.65500000  0.76920000  0.54760000  1.0 -0.0435482658
C  C93  1  0.65500000  0.02820000  0.76920000  1.0 -0.0435482658
C  C94  1  0.54760000  0.76920000  0.02820000  1.0 -0.0435482658
C  C95  1  0.76920000  0.54760000  0.65500000  1.0 -0.0435482658
C  C96  1  0.02820000  0.65500000  0.54760000  1.0 -0.0435482658
C  C97  1  0.54760000  0.65500000  0.02820000  1.0 -0.0435482658
C  C98  1  0.65500000  0.54760000  0.76920000  1.0 -0.0435482658
C  C99  1  0.02820000  0.76920000  0.54760000  1.0 -0.0435482658
C  C100  1  0.76920000  0.02820000  0.65500000  1.0 -0.0435482658
C  C101  1  0.02820000  0.54760000  0.65500000  1.0 -0.0435482658
C  C102  1  0.76920000  0.65500000  0.54760000  1.0 -0.0435482658
C  C103  1  0.54760000  0.02820000  0.76920000  1.0 -0.0435482658
C  C104  1  0.65500000  0.76920000  0.02820000  1.0 -0.0435482658
C  C105  1  0.65500000  0.02820000  0.54760000  1.0 -0.0435482658
C  C106  1  0.54760000  0.76920000  0.65500000  1.0 -0.0435482658
C  C107  1  0.76920000  0.54760000  0.02820000  1.0 -0.0435482658
C  C108  1  0.02820000  0.65500000  0.76920000  1.0 -0.0435482658
C  C109  1  0.45240000  0.34500000  0.23080000  1.0 -0.0435482658
C  C110  1  0.34500000  0.45240000  0.97180000  1.0 -0.0435482658
C  C111  1  0.97180000  0.23080000  0.34500000  1.0 -0.0435482658
C  C112  1  0.23080000  0.97180000  0.45240000  1.0 -0.0435482658
C  C113  1  0.97180000  0.45240000  0.23080000  1.0 -0.0435482658
C  C114  1  0.23080000  0.34500000  0.97180000  1.0 -0.0435482658
C  C115  1  0.45240000  0.97180000  0.34500000  1.0 -0.0435482658
C  C116  1  0.34500000  0.23080000  0.45240000  1.0 -0.0435482658
C  C117  1  0.34500000  0.97180000  0.23080000  1.0 -0.0435482658
C  C118  1  0.45240000  0.23080000  0.97180000  1.0 -0.0435482658
C  C119  1  0.23080000  0.45240000  0.34500000  1.0 -0.0435482658
C  C120  1  0.97180000  0.34500000  0.45240000  1.0 -0.0435482658
C  C121  1  0.38320000  0.38320000  0.96720000  1.0 0.0237213475
C  C122  1  0.38320000  0.38320000  0.26640000  1.0 0.025313333
C  C123  1  0.96720000  0.26640000  0.38320000  1.0 0.0237213475
C  C124  1  0.26640000  0.96720000  0.38320000  1.0 0.025313333
C  C125  1  0.96720000  0.38320000  0.38320000  1.0 0.0237213475
C  C126  1  0.26640000  0.38320000  0.38320000  1.0 0.025313333
C  C127  1  0.38320000  0.96720000  0.26640000  1.0 0.025313333
C  C128  1  0.38320000  0.26640000  0.96720000  1.0 0.0237213475
C  C129  1  0.38320000  0.96720000  0.38320000  1.0 0.025313333
C  C130  1  0.38320000  0.26640000  0.38320000  1.0 0.0237213475
C  C131  1  0.26640000  0.38320000  0.96720000  1.0 0.0237213475
C  C132  1  0.96720000  0.38320000  0.26640000  1.0 0.0237213475
C  C133  1  0.61680000  0.61680000  0.73360000  1.0 0.025313333
C  C134  1  0.61680000  0.61680000  0.03280000  1.0 0.0237213475
C  C135  1  0.03280000  0.73360000  0.61680000  1.0 0.025313333
C  C136  1  0.73360000  0.03280000  0.61680000  1.0 0.0237213475
C  C137  1  0.03280000  0.61680000  0.73360000  1.0 0.025313333
C  C138  1  0.73360000  0.61680000  0.03280000  1.0 0.0237213475
C  C139  1  0.61680000  0.03280000  0.61680000  1.0 0.0237213475
C  C140  1  0.61680000  0.73360000  0.61680000  1.0 0.0237213475
C  C141  1  0.61680000  0.03280000  0.73360000  1.0 0.0237213475
C  C142  1  0.61680000  0.73360000  0.03280000  1.0 0.0237213475
C  C143  1  0.73360000  0.61680000  0.61680000  1.0 0.0237213475
C  C144  1  0.03280000  0.61680000  0.61680000  1.0 0.025313333
C  C145  1  0.34220000  0.34220000  0.97340000  1.0 0.1011945043
C  C146  1  0.34220000  0.34220000  0.34220000  1.0 0.1011945043
C  C147  1  0.97340000  0.34220000  0.34220000  1.0 0.1011945043
C  C148  1  0.34220000  0.97340000  0.34220000  1.0 0.1011945043
C  C149  1  0.65780000  0.65780000  0.65780000  1.0 0.1011945043
C  C150  1  0.65780000  0.65780000  0.02660000  1.0 0.1011945043
C  C151  1  0.02660000  0.65780000  0.65780000  1.0 0.1011945043
C  C152  1  0.65780000  0.02660000  0.65780000  1.0 0.1011945043
O  O1  1  0.56280000  0.35640000  0.98120000  1.0 -0.4704432205
O  O2  1  0.35640000  0.56280000  0.09960000  1.0 -0.4704432205
O  O3  1  0.98120000  0.09960000  0.56280000  1.0 -0.4704432205
O  O4  1  0.09960000  0.98120000  0.35640000  1.0 -0.4704432205
O  O5  1  0.98120000  0.56280000  0.35640000  1.0 -0.4704432205
O  O6  1  0.09960000  0.35640000  0.56280000  1.0 -0.4704432205
O  O7  1  0.56280000  0.98120000  0.09960000  1.0 -0.4704432205
O  O8  1  0.35640000  0.09960000  0.98120000  1.0 -0.4704432205
O  O9  1  0.35640000  0.98120000  0.56280000  1.0 -0.4704432205
O  O10  1  0.56280000  0.09960000  0.35640000  1.0 -0.4704432205
O  O11  1  0.09960000  0.56280000  0.98120000  1.0 -0.4704432205
O  O12  1  0.98120000  0.35640000  0.09960000  1.0 -0.4704432205
O  O13  1  0.43720000  0.64360000  0.90040000  1.0 -0.4704432205
O  O14  1  0.64360000  0.43720000  0.01880000  1.0 -0.4704432205
O  O15  1  0.01880000  0.90040000  0.64360000  1.0 -0.4704432205
O  O16  1  0.90040000  0.01880000  0.43720000  1.0 -0.4704432205
O  O17  1  0.01880000  0.43720000  0.90040000  1.0 -0.4704432205
O  O18  1  0.90040000  0.64360000  0.01880000  1.0 -0.4704432205
O  O19  1  0.43720000  0.01880000  0.64360000  1.0 -0.4704432205
O  O20  1  0.64360000  0.90040000  0.43720000  1.0 -0.4704432205
O  O21  1  0.64360000  0.01880000  0.90040000  1.0 -0.4704432205
O  O22  1  0.43720000  0.90040000  0.01880000  1.0 -0.4704432205
O  O23  1  0.90040000  0.43720000  0.64360000  1.0 -0.4704432205
O  O24  1  0.01880000  0.64360000  0.43720000  1.0 -0.4704432205
O  O25  1  0.43720000  0.64360000  0.01880000  1.0 -0.4704432205
O  O26  1  0.64360000  0.43720000  0.90040000  1.0 -0.4704432205
O  O27  1  0.01880000  0.90040000  0.43720000  1.0 -0.4704432205
O  O28  1  0.90040000  0.01880000  0.64360000  1.0 -0.4704432205
O  O29  1  0.01880000  0.43720000  0.64360000  1.0 -0.4704432205
O  O30  1  0.90040000  0.64360000  0.43720000  1.0 -0.4704432205
O  O31  1  0.43720000  0.01880000  0.90040000  1.0 -0.4704432205
O  O32  1  0.64360000  0.90040000  0.01880000  1.0 -0.4704432205
O  O33  1  0.64360000  0.01880000  0.43720000  1.0 -0.4704432205
O  O34  1  0.43720000  0.90040000  0.64360000  1.0 -0.4704432205
O  O35  1  0.90040000  0.43720000  0.01880000  1.0 -0.4704432205
O  O36  1  0.01880000  0.64360000  0.90040000  1.0 -0.4704432205
O  O37  1  0.56280000  0.35640000  0.09960000  1.0 -0.4704432205
O  O38  1  0.35640000  0.56280000  0.98120000  1.0 -0.4704432205
O  O39  1  0.98120000  0.09960000  0.35640000  1.0 -0.4704432205
O  O40  1  0.09960000  0.98120000  0.56280000  1.0 -0.4704432205
O  O41  1  0.98120000  0.56280000  0.09960000  1.0 -0.4704432205
O  O42  1  0.09960000  0.35640000  0.98120000  1.0 -0.4704432205
O  O43  1  0.56280000  0.98120000  0.35640000  1.0 -0.4704432205
O  O44  1  0.35640000  0.09960000  0.56280000  1.0 -0.4704432205
O  O45  1  0.35640000  0.98120000  0.09960000  1.0 -0.4704432205
O  O46  1  0.56280000  0.09960000  0.98120000  1.0 -0.4704432205
O  O47  1  0.09960000  0.56280000  0.35640000  1.0 -0.4704432205
O  O48  1  0.98120000  0.35640000  0.56280000  1.0 -0.4704432205
O  O49  1  0.45630000  0.45630000  0.98230000  1.0 -0.2312549877
O  O50  1  0.45630000  0.45630000  0.10510000  1.0 -0.2312549877
O  O51  1  0.98230000  0.10510000  0.45630000  1.0 -0.2312549877
O  O52  1  0.10510000  0.98230000  0.45630000  1.0 -0.2312549877
O  O53  1  0.98230000  0.45630000  0.45630000  1.0 -0.2312549877
O  O54  1  0.10510000  0.45630000  0.45630000  1.0 -0.2312549877
O  O55  1  0.45630000  0.98230000  0.10510000  1.0 -0.2312549877
O  O56  1  0.45630000  0.10510000  0.98230000  1.0 -0.2312549877
O  O57  1  0.45630000  0.98230000  0.45630000  1.0 -0.2312549877
O  O58  1  0.45630000  0.10510000  0.45630000  1.0 -0.2312549877
O  O59  1  0.10510000  0.45630000  0.98230000  1.0 -0.2312549877
O  O60  1  0.98230000  0.45630000  0.10510000  1.0 -0.2312549877
O  O61  1  0.54370000  0.54370000  0.89490000  1.0 -0.2312549877
O  O62  1  0.54370000  0.54370000  0.01770000  1.0 -0.2312549877
O  O63  1  0.01770000  0.89490000  0.54370000  1.0 -0.2312549877
O  O64  1  0.89490000  0.01770000  0.54370000  1.0 -0.2358036436
O  O65  1  0.01770000  0.54370000  0.89490000  1.0 -0.2312549877
O  O66  1  0.89490000  0.54370000  0.01770000  1.0 -0.2312549877
O  O67  1  0.54370000  0.01770000  0.54370000  1.0 -0.2312549877
O  O68  1  0.54370000  0.89490000  0.54370000  1.0 -0.2312549877
O  O69  1  0.54370000  0.01770000  0.89490000  1.0 -0.2312549877
O  O70  1  0.54370000  0.89490000  0.01770000  1.0 -0.2312549877
O  O71  1  0.89490000  0.54370000  0.54370000  1.0 -0.2312549877
O  O72  1  0.01770000  0.54370000  0.54370000  1.0 -0.2312549877
