# DDEC6 charges by PACMAN v1.1 (https://github.com/mtap-research/PACMAN-charge/)
data_LIKWOU_FSR_pacman
_symmetry_space_group_name_H-M   'P 1'
_cell_length_a   17.90360000
_cell_length_b   17.90360000
_cell_length_c   13.28400000
_cell_angle_alpha   90.00000000
_cell_angle_beta   90.00000000
_cell_angle_gamma   120.00000000
_symmetry_Int_Tables_number   1
_chemical_formula_structural   SrCu6H24C24(N2O9)3
_chemical_formula_sum   'Sr2 Cu12 H48 C48 N12 O54'
_cell_volume   3687.56964473
_cell_formula_units_Z   2
loop_
 _symmetry_equiv_pos_site_id
 _symmetry_equiv_pos_as_xyz
  1  'x, y, z'
loop_
 _atom_site_type_symbol
 _atom_site_label
 _atom_site_symmetry_multiplicity
 _atom_site_fract_x
 _atom_site_fract_y
 _atom_site_fract_z
 _atom_site_occupancy
 _atom_site_charge
Sr  Sr1  1  0.33333333  0.66666667  0.19950000  1.0 1.4570888102
Sr  Sr2  1  0.66666667  0.33333333  0.69950000  1.0 1.4570888102
Cu  Cu1  1  0.42810000  0.56011000  0.32348000  1.0 0.8855041384
Cu  Cu2  1  0.42192000  0.55468000  0.07255000  1.0 0.8695028444
Cu  Cu3  1  0.13201000  0.57190000  0.32348000  1.0 0.8855041384
Cu  Cu4  1  0.13276000  0.57808000  0.07255000  1.0 0.8695028444
Cu  Cu5  1  0.43989000  0.86799000  0.32348000  1.0 0.8855041384
Cu  Cu6  1  0.44532000  0.86724000  0.07255000  1.0 0.8695028444
Cu  Cu7  1  0.57190000  0.43989000  0.82348000  1.0 0.8855041384
Cu  Cu8  1  0.57808000  0.44532000  0.57255000  1.0 0.8695028444
Cu  Cu9  1  0.86799000  0.42810000  0.82348000  1.0 0.8855041384
Cu  Cu10  1  0.86724000  0.42192000  0.57255000  1.0 0.8695028444
Cu  Cu11  1  0.56011000  0.13201000  0.82348000  1.0 0.8855041384
Cu  Cu12  1  0.55468000  0.13276000  0.57255000  1.0 0.8695028444
H  H1  1  0.47940000  0.31000000  0.04530000  1.0 0.1130694643
H  H2  1  0.58490000  0.71230000  0.91140000  1.0 0.1208766743
H  H3  1  0.50930000  0.72590000  0.76620000  1.0 0.0923090609
H  H4  1  0.49900000  0.63250000  0.75810000  1.0 0.1130694643
H  H5  1  0.34520000  0.19250000  0.98230000  1.0 0.0840084672
H  H6  1  0.33430000  0.27470000  0.00050000  1.0 0.1130694643
H  H7  1  0.38480000  0.67340000  0.78360000  1.0 0.312398535
H  H8  1  0.30350000  0.19340000  0.84390000  1.0 0.3412538191
H  H9  1  0.83060000  0.52060000  0.04530000  1.0 0.1130694643
H  H10  1  0.12740000  0.41510000  0.91140000  1.0 0.1208766743
H  H11  1  0.21660000  0.49070000  0.76620000  1.0 0.0923090609
H  H12  1  0.13350000  0.50100000  0.75810000  1.0 0.1130694643
H  H13  1  0.84730000  0.65480000  0.98230000  1.0 0.0840084672
H  H14  1  0.94040000  0.66570000  0.00050000  1.0 0.1130694643
H  H15  1  0.28860000  0.61520000  0.78360000  1.0 0.312398535
H  H16  1  0.88990000  0.69650000  0.84390000  1.0 0.3412538191
H  H17  1  0.69000000  0.16940000  0.04530000  1.0 0.1130694643
H  H18  1  0.28770000  0.87260000  0.91140000  1.0 0.1208766743
H  H19  1  0.27410000  0.78340000  0.76620000  1.0 0.0923090609
H  H20  1  0.36750000  0.86650000  0.75810000  1.0 0.1130694643
H  H21  1  0.80750000  0.15270000  0.98230000  1.0 0.0840084672
H  H22  1  0.72530000  0.05960000  0.00050000  1.0 0.1130694643
H  H23  1  0.32660000  0.71140000  0.78360000  1.0 0.312398535
H  H24  1  0.80660000  0.11010000  0.84390000  1.0 0.3412538191
H  H25  1  0.52060000  0.69000000  0.54530000  1.0 0.1130694643
H  H26  1  0.41510000  0.28770000  0.41140000  1.0 0.1208766743
H  H27  1  0.49070000  0.27410000  0.26620000  1.0 0.0923090609
H  H28  1  0.50100000  0.36750000  0.25810000  1.0 0.1130694643
H  H29  1  0.65480000  0.80750000  0.48230000  1.0 0.0840084672
H  H30  1  0.66570000  0.72530000  0.50050000  1.0 0.1130694643
H  H31  1  0.61520000  0.32660000  0.28360000  1.0 0.312398535
H  H32  1  0.69650000  0.80660000  0.34390000  1.0 0.3412538191
H  H33  1  0.16940000  0.47940000  0.54530000  1.0 0.1130694643
H  H34  1  0.87260000  0.58490000  0.41140000  1.0 0.1208766743
H  H35  1  0.78340000  0.50930000  0.26620000  1.0 0.0923090609
H  H36  1  0.86650000  0.49900000  0.25810000  1.0 0.1130694643
H  H37  1  0.15270000  0.34520000  0.48230000  1.0 0.0840084672
H  H38  1  0.05960000  0.33430000  0.50050000  1.0 0.1130694643
H  H39  1  0.71140000  0.38480000  0.28360000  1.0 0.312398535
H  H40  1  0.11010000  0.30350000  0.34390000  1.0 0.3412538191
H  H41  1  0.31000000  0.83060000  0.54530000  1.0 0.1130694643
H  H42  1  0.71230000  0.12740000  0.41140000  1.0 0.1208766743
H  H43  1  0.72590000  0.21660000  0.26620000  1.0 0.0923090609
H  H44  1  0.63250000  0.13350000  0.25810000  1.0 0.1130694643
H  H45  1  0.19250000  0.84730000  0.48230000  1.0 0.0840084672
H  H46  1  0.27470000  0.94040000  0.50050000  1.0 0.1130694643
H  H47  1  0.67340000  0.28860000  0.28360000  1.0 0.312398535
H  H48  1  0.19340000  0.88990000  0.34390000  1.0 0.3412538191
C  C1  1  0.51520000  0.53840000  0.91760000  1.0 0.3657182872
C  C2  1  0.47410000  0.45310000  0.97740000  1.0 0.3849435866
C  C3  1  0.46430000  0.30970000  0.97270000  1.0 -0.0468829373
C  C4  1  0.51010000  0.27380000  0.90830000  1.0 0.597935003
C  C5  1  0.48800000  0.72190000  0.99280000  1.0 0.5708204329
C  C6  1  0.52050000  0.67830000  0.91450000  1.0 -0.0468829373
C  C7  1  0.48080000  0.66780000  0.79700000  1.0 -0.0096828017
C  C8  1  0.36320000  0.25140000  0.95780000  1.0 -0.0096828017
C  C9  1  0.02320000  0.48480000  0.91760000  1.0 0.3649844944
C  C10  1  0.97900000  0.52590000  0.97740000  1.0 0.385547322
C  C11  1  0.84540000  0.53570000  0.97270000  1.0 -0.0468829373
C  C12  1  0.76370000  0.48990000  0.90830000  1.0 0.597935003
C  C13  1  0.23390000  0.51200000  0.99280000  1.0 0.5708204329
C  C14  1  0.15780000  0.47950000  0.91450000  1.0 -0.0468829373
C  C15  1  0.18700000  0.51920000  0.79700000  1.0 -0.0096828017
C  C16  1  0.88820000  0.63680000  0.95780000  1.0 -0.0096828017
C  C17  1  0.46160000  0.97680000  0.91760000  1.0 0.3657182872
C  C18  1  0.54690000  0.02100000  0.97740000  1.0 0.3849435866
C  C19  1  0.69030000  0.15460000  0.97270000  1.0 -0.0468829373
C  C20  1  0.72620000  0.23630000  0.90830000  1.0 0.597935003
C  C21  1  0.27810000  0.76610000  0.99280000  1.0 0.5708204329
C  C22  1  0.32170000  0.84220000  0.91450000  1.0 -0.0468829373
C  C23  1  0.33220000  0.81300000  0.79700000  1.0 -0.0096828017
C  C24  1  0.74860000  0.11180000  0.95780000  1.0 -0.0096828017
C  C25  1  0.48480000  0.46160000  0.41760000  1.0 0.3649844944
C  C26  1  0.52590000  0.54690000  0.47740000  1.0 0.385547322
C  C27  1  0.53570000  0.69030000  0.47270000  1.0 -0.0468829373
C  C28  1  0.48990000  0.72620000  0.40830000  1.0 0.597935003
C  C29  1  0.51200000  0.27810000  0.49280000  1.0 0.5708204329
C  C30  1  0.47950000  0.32170000  0.41450000  1.0 -0.0468829373
C  C31  1  0.51920000  0.33220000  0.29700000  1.0 -0.0096828017
C  C32  1  0.63680000  0.74860000  0.45780000  1.0 -0.0096828017
C  C33  1  0.97680000  0.51520000  0.41760000  1.0 0.3649844944
C  C34  1  0.02100000  0.47410000  0.47740000  1.0 0.385547322
C  C35  1  0.15460000  0.46430000  0.47270000  1.0 -0.0468829373
C  C36  1  0.23630000  0.51010000  0.40830000  1.0 0.597935003
C  C37  1  0.76610000  0.48800000  0.49280000  1.0 0.5708204329
C  C38  1  0.84220000  0.52050000  0.41450000  1.0 -0.0468829373
C  C39  1  0.81300000  0.48080000  0.29700000  1.0 -0.0096828017
C  C40  1  0.11180000  0.36320000  0.45780000  1.0 -0.0096828017
C  C41  1  0.53840000  0.02320000  0.41760000  1.0 0.3649844944
C  C42  1  0.45310000  0.97900000  0.47740000  1.0 0.385547322
C  C43  1  0.30970000  0.84540000  0.47270000  1.0 -0.0468829373
C  C44  1  0.27380000  0.76370000  0.40830000  1.0 0.597935003
C  C45  1  0.72190000  0.23390000  0.49280000  1.0 0.5708204329
C  C46  1  0.67830000  0.15780000  0.41450000  1.0 -0.0468829373
C  C47  1  0.66780000  0.18700000  0.29700000  1.0 -0.0096828017
C  C48  1  0.25140000  0.88820000  0.45780000  1.0 -0.0096828017
N  N1  1  0.49540000  0.39950000  0.93790000  1.0 -0.4210448246
N  N2  1  0.49400000  0.59240000  0.95420000  1.0 -0.4113344431
N  N3  1  0.90410000  0.50460000  0.93790000  1.0 -0.4210448246
N  N4  1  0.09840000  0.50600000  0.95420000  1.0 -0.4113344431
N  N5  1  0.60050000  0.09590000  0.93790000  1.0 -0.4210448246
N  N6  1  0.40760000  0.90160000  0.95420000  1.0 -0.4113344431
N  N7  1  0.50460000  0.60050000  0.43790000  1.0 -0.4210448246
N  N8  1  0.50600000  0.40760000  0.45420000  1.0 -0.4113344431
N  N9  1  0.09590000  0.49540000  0.43790000  1.0 -0.4210448246
N  N10  1  0.90160000  0.49400000  0.45420000  1.0 -0.4113344431
N  N11  1  0.39950000  0.90410000  0.43790000  1.0 -0.4210448246
N  N12  1  0.59240000  0.09840000  0.45420000  1.0 -0.4113344431
O  O1  1  0.36350000  0.53400000  0.19950000  1.0 -0.7755229752
O  O2  1  0.56450000  0.54970000  0.84120000  1.0 -0.4463913024
O  O3  1  0.55700000  0.32190000  0.83580000  1.0 -0.5396549219
O  O4  1  0.42860000  0.44590000  0.05340000  1.0 -0.4336185337
O  O5  1  0.50690000  0.79600000  0.97900000  1.0 -0.4845036447
O  O6  1  0.44160000  0.67690000  0.06810000  1.0 -0.5396549219
O  O7  1  0.49720000  0.19810000  0.92910000  1.0 -0.5396549219
O  O8  1  0.39700000  0.63400000  0.78400000  1.0 -0.3727313608
O  O9  1  0.33450000  0.24550000  0.85970000  1.0 -0.3727313608
O  O10  1  0.17050000  0.63650000  0.19950000  1.0 -0.7755229752
O  O11  1  0.98520000  0.43550000  0.84120000  1.0 -0.4463913024
O  O12  1  0.76490000  0.44300000  0.83580000  1.0 -0.5396549219
O  O13  1  0.01730000  0.57140000  0.05340000  1.0 -0.4336185337
O  O14  1  0.28910000  0.49310000  0.97900000  1.0 -0.4845036447
O  O15  1  0.23530000  0.55840000  0.06810000  1.0 -0.5396549219
O  O16  1  0.70090000  0.50280000  0.92910000  1.0 -0.5396549219
O  O17  1  0.23700000  0.60300000  0.78400000  1.0 -0.3727313608
O  O18  1  0.91100000  0.66550000  0.85970000  1.0 -0.3727313608
O  O19  1  0.46600000  0.82950000  0.19950000  1.0 -0.7755229752
O  O20  1  0.45030000  0.01480000  0.84120000  1.0 -0.4463913024
O  O21  1  0.67810000  0.23510000  0.83580000  1.0 -0.5396549219
O  O22  1  0.55410000  0.98270000  0.05340000  1.0 -0.4336185337
O  O23  1  0.20400000  0.71090000  0.97900000  1.0 -0.4845036447
O  O24  1  0.32310000  0.76470000  0.06810000  1.0 -0.5396549219
O  O25  1  0.80190000  0.29910000  0.92910000  1.0 -0.5396549219
O  O26  1  0.36600000  0.76300000  0.78400000  1.0 -0.3727313608
O  O27  1  0.75450000  0.08900000  0.85970000  1.0 -0.3727313608
O  O28  1  0.63650000  0.46600000  0.69950000  1.0 -0.7755229752
O  O29  1  0.43550000  0.45030000  0.34120000  1.0 -0.4463913024
O  O30  1  0.44300000  0.67810000  0.33580000  1.0 -0.5396549219
O  O31  1  0.57140000  0.55410000  0.55340000  1.0 -0.4336185337
O  O32  1  0.49310000  0.20400000  0.47900000  1.0 -0.4851883531
O  O33  1  0.55840000  0.32310000  0.56810000  1.0 -0.5396549219
O  O34  1  0.50280000  0.80190000  0.42910000  1.0 -0.5396549219
O  O35  1  0.60300000  0.36600000  0.28400000  1.0 -0.3727313608
O  O36  1  0.66550000  0.75450000  0.35970000  1.0 -0.3727313608
O  O37  1  0.82950000  0.36350000  0.69950000  1.0 -0.7755229752
O  O38  1  0.01480000  0.56450000  0.34120000  1.0 -0.4463913024
O  O39  1  0.23510000  0.55700000  0.33580000  1.0 -0.5396549219
O  O40  1  0.98270000  0.42860000  0.55340000  1.0 -0.4336185337
O  O41  1  0.71090000  0.50690000  0.47900000  1.0 -0.4845036447
O  O42  1  0.76470000  0.44160000  0.56810000  1.0 -0.5396549219
O  O43  1  0.29910000  0.49720000  0.42910000  1.0 -0.5396549219
O  O44  1  0.76300000  0.39700000  0.28400000  1.0 -0.3727313608
O  O45  1  0.08900000  0.33450000  0.35970000  1.0 -0.3727313608
O  O46  1  0.53400000  0.17050000  0.69950000  1.0 -0.7755229752
O  O47  1  0.54970000  0.98520000  0.34120000  1.0 -0.4463913024
O  O48  1  0.32190000  0.76490000  0.33580000  1.0 -0.5396549219
O  O49  1  0.44590000  0.01730000  0.55340000  1.0 -0.4336185337
O  O50  1  0.79600000  0.28910000  0.47900000  1.0 -0.4845036447
O  O51  1  0.67690000  0.23530000  0.56810000  1.0 -0.5396549219
O  O52  1  0.19810000  0.70090000  0.42910000  1.0 -0.5396549219
O  O53  1  0.63400000  0.23700000  0.28400000  1.0 -0.3727313608
O  O54  1  0.24550000  0.91100000  0.35970000  1.0 -0.3727313608
