# DDEC6 charges by PACMAN v1.1 (https://github.com/mtap-research/PACMAN-charge/)
data_LIKWIO_ASR_pacman
_symmetry_space_group_name_H-M   'P 1'
_cell_length_a   17.91510000
_cell_length_b   17.91510000
_cell_length_c   12.74480000
_cell_angle_alpha   90.00000000
_cell_angle_beta   90.00000000
_cell_angle_gamma   120.00000000
_symmetry_Int_Tables_number   1
_chemical_formula_structural   SrCu6H36C30(N2O9)3
_chemical_formula_sum   'Sr2 Cu12 H72 C60 N12 O54'
_cell_volume   3542.43695397
_cell_formula_units_Z   2
loop_
 _symmetry_equiv_pos_site_id
 _symmetry_equiv_pos_as_xyz
  1  'x, y, z'
loop_
 _atom_site_type_symbol
 _atom_site_label
 _atom_site_symmetry_multiplicity
 _atom_site_fract_x
 _atom_site_fract_y
 _atom_site_fract_z
 _atom_site_occupancy
 _atom_site_charge
Sr  Sr1  1  0.66666667  0.33333333  0.85070000  1.0 1.4433522679
Sr  Sr2  1  0.33333333  0.66666667  0.35070000  1.0 1.4433522679
Cu  Cu1  1  0.55659000  0.13452000  0.72116000  1.0 0.8276193
Cu  Cu2  1  0.55935000  0.13476000  0.97869000  1.0 0.8757647432
Cu  Cu3  1  0.57793000  0.44341000  0.72116000  1.0 0.8276193
Cu  Cu4  1  0.57541000  0.44065000  0.97869000  1.0 0.8757647432
Cu  Cu5  1  0.86548000  0.42207000  0.72116000  1.0 0.8276193
Cu  Cu6  1  0.86524000  0.42459000  0.97869000  1.0 0.8735163219
Cu  Cu7  1  0.44341000  0.86548000  0.22116000  1.0 0.8276193
Cu  Cu8  1  0.44065000  0.86524000  0.47869000  1.0 0.8735163219
Cu  Cu9  1  0.42207000  0.55659000  0.22116000  1.0 0.8276193
Cu  Cu10  1  0.42459000  0.55935000  0.47869000  1.0 0.8735163219
Cu  Cu11  1  0.13452000  0.57793000  0.22116000  1.0 0.8276193
Cu  Cu12  1  0.13476000  0.57541000  0.47869000  1.0 0.8735163219
H  H1  1  0.71710000  0.11400000  0.59820000  1.0 0.1289414572
H  H2  1  0.30550000  0.85140000  0.69320000  1.0 0.1227716761
H  H3  1  0.67840000  0.10680000  0.42200000  1.0 0.0839131817
H  H4  1  0.59170000  0.16160000  0.40060000  1.0 0.1501953627
H  H5  1  0.67860000  0.23340000  0.34580000  1.0 0.1501953627
H  H6  1  0.65480000  0.24890000  0.46170000  1.0 0.1390827901
H  H7  1  0.18950000  0.85310000  0.59990000  1.0 0.0839131817
H  H8  1  0.21260000  0.82740000  0.43090000  1.0 0.1501953627
H  H9  1  0.30370000  0.91440000  0.42470000  1.0 0.1289414572
H  H10  1  0.21660000  0.91860000  0.42680000  1.0 0.1501953627
H  H11  1  0.80940000  0.26690000  0.45310000  1.0 0.3626717783
H  H12  1  0.28410000  0.98340000  0.67200000  1.0 0.3705353868
H  H13  1  0.39690000  0.28290000  0.59820000  1.0 0.1289414572
H  H14  1  0.54590000  0.69450000  0.69320000  1.0 0.1227716761
H  H15  1  0.42840000  0.32160000  0.42200000  1.0 0.0839131817
H  H16  1  0.56990000  0.40830000  0.40060000  1.0 0.1501953627
H  H17  1  0.55480000  0.32140000  0.34580000  1.0 0.1501953627
H  H18  1  0.59410000  0.34520000  0.46170000  1.0 0.1390827901
H  H19  1  0.66360000  0.81050000  0.59990000  1.0 0.0839131817
H  H20  1  0.61480000  0.78740000  0.43090000  1.0 0.1501953627
H  H21  1  0.61070000  0.69630000  0.42470000  1.0 0.1289414572
H  H22  1  0.70200000  0.78340000  0.42680000  1.0 0.1501953627
H  H23  1  0.45750000  0.19060000  0.45310000  1.0 0.3626717783
H  H24  1  0.69930000  0.71590000  0.67200000  1.0 0.3705353868
H  H25  1  0.88600000  0.60310000  0.59820000  1.0 0.1289414572
H  H26  1  0.14860000  0.45410000  0.69320000  1.0 0.1227716761
H  H27  1  0.89320000  0.57160000  0.42200000  1.0 0.0839131817
H  H28  1  0.83840000  0.43010000  0.40060000  1.0 0.1501953627
H  H29  1  0.76660000  0.44520000  0.34580000  1.0 0.1501953627
H  H30  1  0.75110000  0.40590000  0.46170000  1.0 0.1390827901
H  H31  1  0.14690000  0.33640000  0.59990000  1.0 0.0839131817
H  H32  1  0.17260000  0.38520000  0.43090000  1.0 0.1501953627
H  H33  1  0.08560000  0.38930000  0.42470000  1.0 0.1289414572
H  H34  1  0.08140000  0.29800000  0.42680000  1.0 0.1501953627
H  H35  1  0.73310000  0.54250000  0.45310000  1.0 0.3626717783
H  H36  1  0.01660000  0.30070000  0.67200000  1.0 0.3705353868
H  H37  1  0.28290000  0.88600000  0.09820000  1.0 0.1289414572
H  H38  1  0.69450000  0.14860000  0.19320000  1.0 0.1227716761
H  H39  1  0.32160000  0.89320000  0.92200000  1.0 0.0839131817
H  H40  1  0.40830000  0.83840000  0.90060000  1.0 0.1501953627
H  H41  1  0.32140000  0.76660000  0.84580000  1.0 0.1501953627
H  H42  1  0.34520000  0.75110000  0.96170000  1.0 0.1390827901
H  H43  1  0.81050000  0.14690000  0.09990000  1.0 0.0839131817
H  H44  1  0.78740000  0.17260000  0.93090000  1.0 0.1501953627
H  H45  1  0.69630000  0.08560000  0.92470000  1.0 0.1289414572
H  H46  1  0.78340000  0.08140000  0.92680000  1.0 0.1501953627
H  H47  1  0.19060000  0.73310000  0.95310000  1.0 0.3626717783
H  H48  1  0.71590000  0.01660000  0.17200000  1.0 0.3705353868
H  H49  1  0.60310000  0.71710000  0.09820000  1.0 0.1289414572
H  H50  1  0.45410000  0.30550000  0.19320000  1.0 0.1227716761
H  H51  1  0.57160000  0.67840000  0.92200000  1.0 0.0839131817
H  H52  1  0.43010000  0.59170000  0.90060000  1.0 0.1501953627
H  H53  1  0.44520000  0.67860000  0.84580000  1.0 0.1501953627
H  H54  1  0.40590000  0.65480000  0.96170000  1.0 0.1390827901
H  H55  1  0.33640000  0.18950000  0.09990000  1.0 0.0839131817
H  H56  1  0.38520000  0.21260000  0.93090000  1.0 0.1501953627
H  H57  1  0.38930000  0.30370000  0.92470000  1.0 0.1289414572
H  H58  1  0.29800000  0.21660000  0.92680000  1.0 0.1501953627
H  H59  1  0.54250000  0.80940000  0.95310000  1.0 0.3626717783
H  H60  1  0.30070000  0.28410000  0.17200000  1.0 0.3705353868
H  H61  1  0.11400000  0.39690000  0.09820000  1.0 0.1289414572
H  H62  1  0.85140000  0.54590000  0.19320000  1.0 0.1227716761
H  H63  1  0.10680000  0.42840000  0.92200000  1.0 0.0839131817
H  H64  1  0.16160000  0.56990000  0.90060000  1.0 0.1501953627
H  H65  1  0.23340000  0.55480000  0.84580000  1.0 0.1501953627
H  H66  1  0.24890000  0.59410000  0.96170000  1.0 0.1390827901
H  H67  1  0.85310000  0.66360000  0.09990000  1.0 0.0839131817
H  H68  1  0.82740000  0.61480000  0.93090000  1.0 0.1501953627
H  H69  1  0.91440000  0.61070000  0.92470000  1.0 0.1289414572
H  H70  1  0.91860000  0.70200000  0.92680000  1.0 0.1501953627
H  H71  1  0.26690000  0.45750000  0.95310000  1.0 0.3626717783
H  H72  1  0.98340000  0.69930000  0.17200000  1.0 0.3705353868
C  C1  1  0.68810000  0.14670000  0.57560000  1.0 -0.079996348
C  C2  1  0.72210000  0.23150000  0.64420000  1.0 0.5806207515
C  C3  1  0.54260000  0.01890000  0.57480000  1.0 0.3452304162
C  C4  1  0.45550000  0.98180000  0.63000000  1.0 0.3705353868
C  C5  1  0.30920000  0.85720000  0.61510000  1.0 -0.079996348
C  C6  1  0.27460000  0.76910000  0.56310000  1.0 0.5806207515
C  C7  1  0.70010000  0.16370000  0.45790000  1.0 0.1928493022
C  C8  1  0.65210000  0.20560000  0.41250000  1.0 -0.4896479838
C  C9  1  0.24900000  0.89240000  0.57300000  1.0 0.1928493022
C  C10  1  0.24510000  0.88770000  0.45310000  1.0 -0.4575582239
C  C11  1  0.45860000  0.31190000  0.57560000  1.0 -0.079996348
C  C12  1  0.50940000  0.27790000  0.64420000  1.0 0.5806207515
C  C13  1  0.47630000  0.45740000  0.57480000  1.0 0.3446355022
C  C14  1  0.52630000  0.54450000  0.63000000  1.0 0.3705353868
C  C15  1  0.54800000  0.69080000  0.61510000  1.0 -0.079996348
C  C16  1  0.49450000  0.72540000  0.56310000  1.0 0.5806207515
C  C17  1  0.46360000  0.29990000  0.45790000  1.0 0.1951287098
C  C18  1  0.55350000  0.34790000  0.41250000  1.0 -0.4896479838
C  C19  1  0.64340000  0.75100000  0.57300000  1.0 0.1928493022
C  C20  1  0.64260000  0.75490000  0.45310000  1.0 -0.4575582239
C  C21  1  0.85330000  0.54140000  0.57560000  1.0 -0.079996348
C  C22  1  0.76850000  0.49060000  0.64420000  1.0 0.5806207515
C  C23  1  0.98110000  0.52370000  0.57480000  1.0 0.3446355022
C  C24  1  0.01820000  0.47370000  0.63000000  1.0 0.3705353868
C  C25  1  0.14280000  0.45200000  0.61510000  1.0 -0.079996348
C  C26  1  0.23090000  0.50550000  0.56310000  1.0 0.5806207515
C  C27  1  0.83630000  0.53640000  0.45790000  1.0 0.1928493022
C  C28  1  0.79440000  0.44650000  0.41250000  1.0 -0.4896479838
C  C29  1  0.10760000  0.35660000  0.57300000  1.0 0.1928493022
C  C30  1  0.11230000  0.35740000  0.45310000  1.0 -0.4575582239
C  C31  1  0.31190000  0.85330000  0.07560000  1.0 -0.079996348
C  C32  1  0.27790000  0.76850000  0.14420000  1.0 0.5806207515
C  C33  1  0.45740000  0.98110000  0.07480000  1.0 0.3446355022
C  C34  1  0.54450000  0.01820000  0.13000000  1.0 0.3705353868
C  C35  1  0.69080000  0.14280000  0.11510000  1.0 -0.079996348
C  C36  1  0.72540000  0.23090000  0.06310000  1.0 0.5806207515
C  C37  1  0.29990000  0.83630000  0.95790000  1.0 0.1928493022
C  C38  1  0.34790000  0.79440000  0.91250000  1.0 -0.4896479838
C  C39  1  0.75100000  0.10760000  0.07300000  1.0 0.1928493022
C  C40  1  0.75490000  0.11230000  0.95310000  1.0 -0.4575582239
C  C41  1  0.54140000  0.68810000  0.07560000  1.0 -0.079996348
C  C42  1  0.49060000  0.72210000  0.14420000  1.0 0.5806207515
C  C43  1  0.52370000  0.54260000  0.07480000  1.0 0.3446355022
C  C44  1  0.47370000  0.45550000  0.13000000  1.0 0.3705353868
C  C45  1  0.45200000  0.30920000  0.11510000  1.0 -0.079996348
C  C46  1  0.50550000  0.27460000  0.06310000  1.0 0.5806207515
C  C47  1  0.53640000  0.70010000  0.95790000  1.0 0.1928493022
C  C48  1  0.44650000  0.65210000  0.91250000  1.0 -0.4896479838
C  C49  1  0.35660000  0.24900000  0.07300000  1.0 0.1928493022
C  C50  1  0.35740000  0.24510000  0.95310000  1.0 -0.4575582239
C  C51  1  0.14670000  0.45860000  0.07560000  1.0 -0.079996348
C  C52  1  0.23150000  0.50940000  0.14420000  1.0 0.5806207515
C  C53  1  0.01890000  0.47630000  0.07480000  1.0 0.3446355022
C  C54  1  0.98180000  0.52630000  0.13000000  1.0 0.3705353868
C  C55  1  0.85720000  0.54800000  0.11510000  1.0 -0.079996348
C  C56  1  0.76910000  0.49450000  0.06310000  1.0 0.5806207515
C  C57  1  0.16370000  0.46360000  0.95790000  1.0 0.1928493022
C  C58  1  0.20560000  0.55350000  0.91250000  1.0 -0.4896479838
C  C59  1  0.89240000  0.64340000  0.07300000  1.0 0.1928493022
C  C60  1  0.88770000  0.64260000  0.95310000  1.0 -0.4575582239
N  N1  1  0.59520000  0.09630000  0.60020000  1.0 -0.3725170933
N  N2  1  0.39770000  0.90980000  0.58190000  1.0 -0.4096039179
N  N3  1  0.50110000  0.40480000  0.60020000  1.0 -0.3725170933
N  N4  1  0.51210000  0.60230000  0.58190000  1.0 -0.4096039179
N  N5  1  0.90370000  0.49890000  0.60020000  1.0 -0.3725170933
N  N6  1  0.09020000  0.48790000  0.58190000  1.0 -0.4096039179
N  N7  1  0.40480000  0.90370000  0.10020000  1.0 -0.3725170933
N  N8  1  0.60230000  0.09020000  0.08190000  1.0 -0.4096039179
N  N9  1  0.49890000  0.59520000  0.10020000  1.0 -0.3725170933
N  N10  1  0.48790000  0.39770000  0.08190000  1.0 -0.4096039179
N  N11  1  0.09630000  0.50110000  0.10020000  1.0 -0.3725170933
N  N12  1  0.90980000  0.51210000  0.08190000  1.0 -0.4096039179
O  O1  1  0.53400000  0.17380000  0.84930000  1.0 -0.7570379816
O  O2  1  0.67650000  0.23360000  0.71190000  1.0 -0.4896479838
O  O3  1  0.44790000  0.02220000  0.70320000  1.0 -0.4042261732
O  O4  1  0.32370000  0.76380000  0.48830000  1.0 -0.5561828656
O  O5  1  0.55230000  0.97510000  0.49850000  1.0 -0.4422498487
O  O6  1  0.20440000  0.70780000  0.58500000  1.0 -0.4677540852
O  O7  1  0.79890000  0.29030000  0.61940000  1.0 -0.5253169679
O  O8  1  0.79200000  0.21520000  0.43700000  1.0 -0.4988838973
O  O9  1  0.27400000  0.97900000  0.60700000  1.0 -0.4422498487
O  O10  1  0.63980000  0.46600000  0.84930000  1.0 -0.7498645328
O  O11  1  0.55710000  0.32350000  0.71190000  1.0 -0.4896479838
O  O12  1  0.57430000  0.55210000  0.70320000  1.0 -0.4042261732
O  O13  1  0.44010000  0.67630000  0.48830000  1.0 -0.5561828656
O  O14  1  0.42280000  0.44770000  0.49850000  1.0 -0.4422498487
O  O15  1  0.50340000  0.79560000  0.58500000  1.0 -0.4677540852
O  O16  1  0.49140000  0.20110000  0.61940000  1.0 -0.5241861604
O  O17  1  0.42320000  0.20800000  0.43700000  1.0 -0.4988838973
O  O18  1  0.70500000  0.72600000  0.60700000  1.0 -0.4422498487
O  O19  1  0.82620000  0.36020000  0.84930000  1.0 -0.7570379816
O  O20  1  0.76640000  0.44290000  0.71190000  1.0 -0.4896479838
O  O21  1  0.97780000  0.42570000  0.70320000  1.0 -0.4042261732
O  O22  1  0.23620000  0.55990000  0.48830000  1.0 -0.5561828656
O  O23  1  0.02490000  0.57720000  0.49850000  1.0 -0.4422498487
O  O24  1  0.29220000  0.49660000  0.58500000  1.0 -0.4677540852
O  O25  1  0.70970000  0.50860000  0.61940000  1.0 -0.5241861604
O  O26  1  0.78480000  0.57680000  0.43700000  1.0 -0.4988838973
O  O27  1  0.02100000  0.29500000  0.60700000  1.0 -0.4422498487
O  O28  1  0.46600000  0.82620000  0.34930000  1.0 -0.7498645328
O  O29  1  0.32350000  0.76640000  0.21190000  1.0 -0.4896479838
O  O30  1  0.55210000  0.97780000  0.20320000  1.0 -0.4042261732
O  O31  1  0.67630000  0.23620000  0.98830000  1.0 -0.5561828656
O  O32  1  0.44770000  0.02490000  0.99850000  1.0 -0.4422498487
O  O33  1  0.79560000  0.29220000  0.08500000  1.0 -0.4677540852
O  O34  1  0.20110000  0.70970000  0.11940000  1.0 -0.5241861604
O  O35  1  0.20800000  0.78480000  0.93700000  1.0 -0.4988838973
O  O36  1  0.72600000  0.02100000  0.10700000  1.0 -0.4422498487
O  O37  1  0.36020000  0.53400000  0.34930000  1.0 -0.7498645328
O  O38  1  0.44290000  0.67650000  0.21190000  1.0 -0.4896479838
O  O39  1  0.42570000  0.44790000  0.20320000  1.0 -0.4042261732
O  O40  1  0.55990000  0.32370000  0.98830000  1.0 -0.5561828656
O  O41  1  0.57720000  0.55230000  0.99850000  1.0 -0.4422498487
O  O42  1  0.49660000  0.20440000  0.08500000  1.0 -0.4677540852
O  O43  1  0.50860000  0.79890000  0.11940000  1.0 -0.5241861604
O  O44  1  0.57680000  0.79200000  0.93700000  1.0 -0.4988838973
O  O45  1  0.29500000  0.27400000  0.10700000  1.0 -0.4422498487
O  O46  1  0.17380000  0.63980000  0.34930000  1.0 -0.7498645328
O  O47  1  0.23360000  0.55710000  0.21190000  1.0 -0.4896479838
O  O48  1  0.02220000  0.57430000  0.20320000  1.0 -0.4042261732
O  O49  1  0.76380000  0.44010000  0.98830000  1.0 -0.5561828656
O  O50  1  0.97510000  0.42280000  0.99850000  1.0 -0.4422498487
O  O51  1  0.70780000  0.50340000  0.08500000  1.0 -0.4677540852
O  O52  1  0.29030000  0.49140000  0.11940000  1.0 -0.5241861604
O  O53  1  0.21520000  0.42320000  0.93700000  1.0 -0.4988838973
O  O54  1  0.97900000  0.70500000  0.10700000  1.0 -0.4422498487
