# DDEC6 charges by PACMAN v1.1 (https://github.com/mtap-research/PACMAN-charge/)
data_LIKWUA_ASR_pacman
_symmetry_space_group_name_H-M   'P 1'
_cell_length_a   17.89510000
_cell_length_b   17.89510000
_cell_length_c   12.92910000
_cell_angle_alpha   90.00000000
_cell_angle_beta   90.00000000
_cell_angle_gamma   120.00000000
_symmetry_Int_Tables_number   1
_chemical_formula_structural   SrLa3Cu6H12C24N6(ClO3)9
_chemical_formula_sum   'Sr2 La6 Cu12 H24 C48 N12 Cl18 O54'
_cell_volume   3585.64413984
_cell_formula_units_Z   2
loop_
 _symmetry_equiv_pos_site_id
 _symmetry_equiv_pos_as_xyz
  1  'x, y, z'
loop_
 _atom_site_type_symbol
 _atom_site_label
 _atom_site_symmetry_multiplicity
 _atom_site_fract_x
 _atom_site_fract_y
 _atom_site_fract_z
 _atom_site_occupancy
 _atom_site_charge
Sr  Sr1  1  0.66666667  0.33333333  0.63535000  1.0 1.4666212473
Sr  Sr2  1  0.33333333  0.66666667  0.13535000  1.0 1.4666212473
La  La1  1  0.32340000  0.98530000  0.63710000  1.0 1.6017440433
La  La2  1  0.66190000  0.67660000  0.63710000  1.0 1.6017440433
La  La3  1  0.01470000  0.33810000  0.63710000  1.0 1.6017440433
La  La4  1  0.67660000  0.01470000  0.13710000  1.0 1.6017440433
La  La5  1  0.33810000  0.32340000  0.13710000  1.0 1.6017440433
La  La6  1  0.98530000  0.66190000  0.13710000  1.0 1.6017440433
Cu  Cu1  1  0.55376000  0.13576000  0.50488000  1.0 0.8454702173
Cu  Cu2  1  0.55924000  0.13472000  0.76343000  1.0 0.8394585325
Cu  Cu3  1  0.58200000  0.44624000  0.50488000  1.0 0.8454702173
Cu  Cu4  1  0.57548000  0.44076000  0.76343000  1.0 0.8394585325
Cu  Cu5  1  0.86424000  0.41800000  0.50488000  1.0 0.8454702173
Cu  Cu6  1  0.86528000  0.42452000  0.76343000  1.0 0.8394585325
Cu  Cu7  1  0.44624000  0.86424000  0.00488000  1.0 0.8454702173
Cu  Cu8  1  0.44076000  0.86528000  0.26343000  1.0 0.8394585325
Cu  Cu9  1  0.41800000  0.55376000  0.00488000  1.0 0.8454702173
Cu  Cu10  1  0.42452000  0.55924000  0.26343000  1.0 0.8394585325
Cu  Cu11  1  0.13576000  0.58200000  0.00488000  1.0 0.8454702173
Cu  Cu12  1  0.13472000  0.57548000  0.26343000  1.0 0.8394585325
H  H1  1  0.69260000  0.16690000  0.98600000  1.0 0.1376277803
H  H2  1  0.29000000  0.87550000  0.84430000  1.0 0.1376277803
H  H3  1  0.71620000  0.03420000  0.78340000  1.0 0.3828604195
H  H4  1  0.33780000  0.71350000  0.72960000  1.0 0.2739975178
H  H5  1  0.47430000  0.30740000  0.98600000  1.0 0.1376277803
H  H6  1  0.58550000  0.71000000  0.84430000  1.0 0.1376277803
H  H7  1  0.31800000  0.28380000  0.78340000  1.0 0.3828604195
H  H8  1  0.37570000  0.66220000  0.72960000  1.0 0.2739975178
H  H9  1  0.83310000  0.52570000  0.98600000  1.0 0.1376277803
H  H10  1  0.12450000  0.41450000  0.84430000  1.0 0.1376277803
H  H11  1  0.96580000  0.68200000  0.78340000  1.0 0.3828604195
H  H12  1  0.28650000  0.62430000  0.72960000  1.0 0.2739975178
H  H13  1  0.30740000  0.83310000  0.48600000  1.0 0.1376277803
H  H14  1  0.71000000  0.12450000  0.34430000  1.0 0.1376277803
H  H15  1  0.28380000  0.96580000  0.28340000  1.0 0.3828604195
H  H16  1  0.66220000  0.28650000  0.22960000  1.0 0.2739975178
H  H17  1  0.52570000  0.69260000  0.48600000  1.0 0.1376277803
H  H18  1  0.41450000  0.29000000  0.34430000  1.0 0.1376277803
H  H19  1  0.68200000  0.71620000  0.28340000  1.0 0.3828604195
H  H20  1  0.62430000  0.33780000  0.22960000  1.0 0.2739975178
H  H21  1  0.16690000  0.47430000  0.48600000  1.0 0.1376277803
H  H22  1  0.87550000  0.58550000  0.34430000  1.0 0.1376277803
H  H23  1  0.03420000  0.31800000  0.28340000  1.0 0.3828604195
H  H24  1  0.71350000  0.37570000  0.22960000  1.0 0.2739975178
C  C1  1  0.28010000  0.76890000  0.92040000  1.0 0.5980030968
C  C2  1  0.69180000  0.15230000  0.91120000  1.0 -0.1028346445
C  C3  1  0.72580000  0.23620000  0.84400000  1.0 0.6170950208
C  C4  1  0.54610000  0.02060000  0.91360000  1.0 0.3997508087
C  C5  1  0.46130000  0.97720000  0.85360000  1.0 0.3997508087
C  C6  1  0.32340000  0.84440000  0.84820000  1.0 -0.0910973078
C  C7  1  0.74850000  0.11080000  0.89420000  1.0 0.128855504
C  C8  1  0.32640000  0.80640000  0.73760000  1.0 0.0863272683
C  C9  1  0.48880000  0.71990000  0.92040000  1.0 0.5980030968
C  C10  1  0.46050000  0.30820000  0.91120000  1.0 -0.1028346445
C  C11  1  0.51040000  0.27420000  0.84400000  1.0 0.6170950208
C  C12  1  0.47450000  0.45390000  0.91360000  1.0 0.3997508087
C  C13  1  0.51590000  0.53870000  0.85360000  1.0 0.3997508087
C  C14  1  0.52100000  0.67660000  0.84820000  1.0 -0.0910973078
C  C15  1  0.36230000  0.25150000  0.89420000  1.0 0.128855504
C  C16  1  0.48000000  0.67360000  0.73760000  1.0 0.0863272683
C  C17  1  0.23110000  0.51120000  0.92040000  1.0 0.5980030968
C  C18  1  0.84770000  0.53950000  0.91120000  1.0 -0.1028346445
C  C19  1  0.76380000  0.48960000  0.84400000  1.0 0.6170950208
C  C20  1  0.97940000  0.52550000  0.91360000  1.0 0.3997508087
C  C21  1  0.02280000  0.48410000  0.85360000  1.0 0.3997508087
C  C22  1  0.15560000  0.47900000  0.84820000  1.0 -0.0910973078
C  C23  1  0.88920000  0.63770000  0.89420000  1.0 0.128855504
C  C24  1  0.19360000  0.52000000  0.73760000  1.0 0.0863272683
C  C25  1  0.71990000  0.23110000  0.42040000  1.0 0.5980030968
C  C26  1  0.30820000  0.84770000  0.41120000  1.0 -0.1028346445
C  C27  1  0.27420000  0.76380000  0.34400000  1.0 0.6170950208
C  C28  1  0.45390000  0.97940000  0.41360000  1.0 0.3997508087
C  C29  1  0.53870000  0.02280000  0.35360000  1.0 0.3997508087
C  C30  1  0.67660000  0.15560000  0.34820000  1.0 -0.0910973078
C  C31  1  0.25150000  0.88920000  0.39420000  1.0 0.128855504
C  C32  1  0.67360000  0.19360000  0.23760000  1.0 0.0863272683
C  C33  1  0.51120000  0.28010000  0.42040000  1.0 0.5980030968
C  C34  1  0.53950000  0.69180000  0.41120000  1.0 -0.1028346445
C  C35  1  0.48960000  0.72580000  0.34400000  1.0 0.6170950208
C  C36  1  0.52550000  0.54610000  0.41360000  1.0 0.3997508087
C  C37  1  0.48410000  0.46130000  0.35360000  1.0 0.3997508087
C  C38  1  0.47900000  0.32340000  0.34820000  1.0 -0.0910973078
C  C39  1  0.63770000  0.74850000  0.39420000  1.0 0.128855504
C  C40  1  0.52000000  0.32640000  0.23760000  1.0 0.0863272683
C  C41  1  0.76890000  0.48880000  0.42040000  1.0 0.5980030968
C  C42  1  0.15230000  0.46050000  0.41120000  1.0 -0.1028346445
C  C43  1  0.23620000  0.51040000  0.34400000  1.0 0.6170950208
C  C44  1  0.02060000  0.47450000  0.41360000  1.0 0.3997508087
C  C45  1  0.97720000  0.51590000  0.35360000  1.0 0.3997508087
C  C46  1  0.84440000  0.52100000  0.34820000  1.0 -0.0910973078
C  C47  1  0.11080000  0.36230000  0.39420000  1.0 0.128855504
C  C48  1  0.80640000  0.48000000  0.23760000  1.0 0.0863272683
N  N1  1  0.40740000  0.90010000  0.88600000  1.0 -0.3712128526
N  N2  1  0.59890000  0.09510000  0.87570000  1.0 -0.3958028382
N  N3  1  0.49270000  0.59260000  0.88600000  1.0 -0.3712128526
N  N4  1  0.49620000  0.40110000  0.87570000  1.0 -0.3958028382
N  N5  1  0.09990000  0.50730000  0.88600000  1.0 -0.3712128526
N  N6  1  0.90490000  0.50380000  0.87570000  1.0 -0.3958028382
N  N7  1  0.59260000  0.09990000  0.38600000  1.0 -0.3712128526
N  N8  1  0.40110000  0.90490000  0.37570000  1.0 -0.3958028382
N  N9  1  0.50730000  0.40740000  0.38600000  1.0 -0.3712128526
N  N10  1  0.50380000  0.59890000  0.37570000  1.0 -0.3958028382
N  N11  1  0.90010000  0.49270000  0.38600000  1.0 -0.3712128526
N  N12  1  0.09510000  0.49620000  0.37570000  1.0 -0.3958028382
Cl  Cl1  1  0.15520000  0.84420000  0.64600000  1.0 -0.679225497
Cl  Cl2  1  0.37230000  0.17100000  0.63800000  1.0 -0.2282076156
Cl  Cl3  1  0.30100000  0.04000000  0.80550000  1.0 -0.4190532094
Cl  Cl4  1  0.68900000  0.84480000  0.64600000  1.0 -0.679225497
Cl  Cl5  1  0.79870000  0.62770000  0.63800000  1.0 -0.2282076156
Cl  Cl6  1  0.73900000  0.69900000  0.80550000  1.0 -0.4190532094
Cl  Cl7  1  0.15580000  0.31100000  0.64600000  1.0 -0.679225497
Cl  Cl8  1  0.82900000  0.20130000  0.63800000  1.0 -0.2282076156
Cl  Cl9  1  0.96000000  0.26100000  0.80550000  1.0 -0.4190532094
Cl  Cl10  1  0.84480000  0.15580000  0.14600000  1.0 -0.679225497
Cl  Cl11  1  0.62770000  0.82900000  0.13800000  1.0 -0.2282076156
Cl  Cl12  1  0.69900000  0.96000000  0.30550000  1.0 -0.4190532094
Cl  Cl13  1  0.31100000  0.15520000  0.14600000  1.0 -0.679225497
Cl  Cl14  1  0.20130000  0.37230000  0.13800000  1.0 -0.2282076156
Cl  Cl15  1  0.26100000  0.30100000  0.30550000  1.0 -0.4190532094
Cl  Cl16  1  0.84420000  0.68900000  0.14600000  1.0 -0.679225497
Cl  Cl17  1  0.17100000  0.79870000  0.13800000  1.0 -0.2282076156
Cl  Cl18  1  0.04000000  0.73900000  0.30550000  1.0 -0.4190532094
O  O1  1  0.53390000  0.17270000  0.63720000  1.0 -0.8036403384
O  O2  1  0.79860000  0.29670000  0.86890000  1.0 -0.5104951532
O  O3  1  0.45180000  0.01890000  0.77910000  1.0 -0.5104951532
O  O4  1  0.55520000  0.98030000  0.99030000  1.0 -0.5382067487
O  O5  1  0.20290000  0.71120000  0.90920000  1.0 -0.5006090428
O  O6  1  0.32450000  0.76520000  0.99860000  1.0 -0.5455063011
O  O7  1  0.67790000  0.23680000  0.77320000  1.0 -0.530528399
O  O8  1  0.74980000  0.08740000  0.79060000  1.0 -0.356849519
O  O9  1  0.37140000  0.76720000  0.73000000  1.0 -0.3528893367
O  O10  1  0.63880000  0.46610000  0.63720000  1.0 -0.8036403384
O  O11  1  0.49810000  0.20140000  0.86890000  1.0 -0.5104951532
O  O12  1  0.56710000  0.54820000  0.77910000  1.0 -0.5104951532
O  O13  1  0.42510000  0.44480000  0.99030000  1.0 -0.5382067487
O  O14  1  0.50830000  0.79710000  0.90920000  1.0 -0.5006090428
O  O15  1  0.44070000  0.67550000  0.99860000  1.0 -0.5455063011
O  O16  1  0.55890000  0.32210000  0.77320000  1.0 -0.530528399
O  O17  1  0.33760000  0.25020000  0.79060000  1.0 -0.356849519
O  O18  1  0.39580000  0.62860000  0.73000000  1.0 -0.3528893367
O  O19  1  0.82730000  0.36120000  0.63720000  1.0 -0.8036403384
O  O20  1  0.70330000  0.50190000  0.86890000  1.0 -0.5104951532
O  O21  1  0.98110000  0.43290000  0.77910000  1.0 -0.5104951532
O  O22  1  0.01970000  0.57490000  0.99030000  1.0 -0.5382067487
O  O23  1  0.28880000  0.49170000  0.90920000  1.0 -0.5006090428
O  O24  1  0.23480000  0.55930000  0.99860000  1.0 -0.5455063011
O  O25  1  0.76320000  0.44110000  0.77320000  1.0 -0.530528399
O  O26  1  0.91260000  0.66240000  0.79060000  1.0 -0.356849519
O  O27  1  0.23280000  0.60420000  0.73000000  1.0 -0.3528893367
O  O28  1  0.46610000  0.82730000  0.13720000  1.0 -0.8036403384
O  O29  1  0.20140000  0.70330000  0.36890000  1.0 -0.5104951532
O  O30  1  0.54820000  0.98110000  0.27910000  1.0 -0.5104951532
O  O31  1  0.44480000  0.01970000  0.49030000  1.0 -0.5382067487
O  O32  1  0.79710000  0.28880000  0.40920000  1.0 -0.5006090428
O  O33  1  0.67550000  0.23480000  0.49860000  1.0 -0.5455063011
O  O34  1  0.32210000  0.76320000  0.27320000  1.0 -0.530528399
O  O35  1  0.25020000  0.91260000  0.29060000  1.0 -0.356849519
O  O36  1  0.62860000  0.23280000  0.23000000  1.0 -0.3528893367
O  O37  1  0.36120000  0.53390000  0.13720000  1.0 -0.8036403384
O  O38  1  0.50190000  0.79860000  0.36890000  1.0 -0.5104951532
O  O39  1  0.43290000  0.45180000  0.27910000  1.0 -0.5104951532
O  O40  1  0.57490000  0.55520000  0.49030000  1.0 -0.5382067487
O  O41  1  0.49170000  0.20290000  0.40920000  1.0 -0.5006090428
O  O42  1  0.55930000  0.32450000  0.49860000  1.0 -0.5455063011
O  O43  1  0.44110000  0.67790000  0.27320000  1.0 -0.530528399
O  O44  1  0.66240000  0.74980000  0.29060000  1.0 -0.356849519
O  O45  1  0.60420000  0.37140000  0.23000000  1.0 -0.3528893367
O  O46  1  0.17270000  0.63880000  0.13720000  1.0 -0.8036403384
O  O47  1  0.29670000  0.49810000  0.36890000  1.0 -0.5104951532
O  O48  1  0.01890000  0.56710000  0.27910000  1.0 -0.5152266945
O  O49  1  0.98030000  0.42510000  0.49030000  1.0 -0.5382067487
O  O50  1  0.71120000  0.50830000  0.40920000  1.0 -0.5006090428
O  O51  1  0.76520000  0.44070000  0.49860000  1.0 -0.5455063011
O  O52  1  0.23680000  0.55890000  0.27320000  1.0 -0.530528399
O  O53  1  0.08740000  0.33760000  0.29060000  1.0 -0.356849519
O  O54  1  0.76720000  0.39580000  0.23000000  1.0 -0.3528893367
