# DDEC6 charges by PACMAN v1.1 (https://github.com/mtap-research/PACMAN-charge/)
data_LIKXEL_FSR_pacman
_symmetry_space_group_name_H-M   'P 1'
_cell_length_a   18.04500000
_cell_length_b   18.04500000
_cell_length_c   12.84100000
_cell_angle_alpha   90.00000000
_cell_angle_beta   90.00000000
_cell_angle_gamma   120.00000000
_symmetry_Int_Tables_number   1
_chemical_formula_structural   SrCe3Cu6H36C30(NO5)6
_chemical_formula_sum   'Sr2 Ce6 Cu12 H72 C60 N12 O60'
_cell_volume   3621.12277950
_cell_formula_units_Z   2
loop_
 _symmetry_equiv_pos_site_id
 _symmetry_equiv_pos_as_xyz
  1  'x, y, z'
loop_
 _atom_site_type_symbol
 _atom_site_label
 _atom_site_symmetry_multiplicity
 _atom_site_fract_x
 _atom_site_fract_y
 _atom_site_fract_z
 _atom_site_occupancy
 _atom_site_charge
Sr  Sr1  1  0.66666667  0.33333333  0.98850000  1.0 1.4556299624
Sr  Sr2  1  0.33333333  0.66666667  0.48850000  1.0 1.4556299624
Ce  Ce1  1  0.58310000  0.88780000  0.88600000  1.0 0.3816454389
Ce  Ce2  1  0.30470000  0.41690000  0.88600000  1.0 0.3816454389
Ce  Ce3  1  0.11220000  0.69530000  0.88600000  1.0 0.3816454389
Ce  Ce4  1  0.41690000  0.11220000  0.38600000  1.0 0.3816454389
Ce  Ce5  1  0.69530000  0.58310000  0.38600000  1.0 0.3816454389
Ce  Ce6  1  0.88780000  0.30470000  0.38600000  1.0 0.3816454389
Cu  Cu1  1  0.55850000  0.13385000  0.86052000  1.0 0.9230946081
Cu  Cu2  1  0.55557000  0.13499000  0.11804000  1.0 0.9086896357
Cu  Cu3  1  0.57535000  0.44150000  0.86052000  1.0 0.9230946081
Cu  Cu4  1  0.57942000  0.44443000  0.11804000  1.0 0.9086896357
Cu  Cu5  1  0.86615000  0.42465000  0.86052000  1.0 0.9230946081
Cu  Cu6  1  0.86501000  0.42058000  0.11804000  1.0 0.9086896357
Cu  Cu7  1  0.44150000  0.86615000  0.36052000  1.0 0.9230946081
Cu  Cu8  1  0.44443000  0.86501000  0.61804000  1.0 0.9086896357
Cu  Cu9  1  0.42465000  0.55850000  0.36052000  1.0 0.9230946081
Cu  Cu10  1  0.42058000  0.55557000  0.61804000  1.0 0.9086896357
Cu  Cu11  1  0.13385000  0.57535000  0.36052000  1.0 0.9230946081
Cu  Cu12  1  0.13499000  0.57942000  0.61804000  1.0 0.9086896357
H  H1  1  0.30590000  0.84690000  0.83090000  1.0 0.1204009133
H  H2  1  0.71990000  0.11800000  0.73530000  1.0 0.1323146326
H  H3  1  0.68040000  0.11110000  0.56050000  1.0 0.092408101
H  H4  1  0.81450000  0.25560000  0.62310000  1.0 0.350657395
H  H5  1  0.65820000  0.21540000  0.48140000  1.0 0.1433286148
H  H6  1  0.66440000  0.25840000  0.59250000  1.0 0.1475644598
H  H7  1  0.58700000  0.16420000  0.56830000  1.0 0.1475644598
H  H8  1  0.19810000  0.85930000  0.73150000  1.0 0.0561215036
H  H9  1  0.31570000  0.92480000  0.57940000  1.0 0.350657395
H  H10  1  0.24400000  0.00440000  0.72080000  1.0 0.1323146326
H  H11  1  0.34130000  0.02760000  0.73580000  1.0 0.1433286148
H  H12  1  0.27410000  0.98380000  0.82880000  1.0 0.1433286148
H  H13  1  0.54100000  0.69410000  0.83090000  1.0 0.1204009133
H  H14  1  0.39810000  0.28010000  0.73530000  1.0 0.1323146326
H  H15  1  0.43070000  0.31960000  0.56050000  1.0 0.092408101
H  H16  1  0.44110000  0.18550000  0.62310000  1.0 0.350657395
H  H17  1  0.55720000  0.34180000  0.48140000  1.0 0.1433286148
H  H18  1  0.59400000  0.33560000  0.59250000  1.0 0.1475644598
H  H19  1  0.57720000  0.41300000  0.56830000  1.0 0.1475644598
H  H20  1  0.66120000  0.80190000  0.73150000  1.0 0.0561215036
H  H21  1  0.60910000  0.68430000  0.57940000  1.0 0.350657395
H  H22  1  0.76040000  0.75600000  0.72080000  1.0 0.1323146326
H  H23  1  0.68630000  0.65870000  0.73580000  1.0 0.1433286148
H  H24  1  0.70970000  0.72590000  0.82880000  1.0 0.1433286148
H  H25  1  0.15310000  0.45900000  0.83090000  1.0 0.1204009133
H  H26  1  0.88200000  0.60190000  0.73530000  1.0 0.1323146326
H  H27  1  0.88890000  0.56930000  0.56050000  1.0 0.092408101
H  H28  1  0.74440000  0.55890000  0.62310000  1.0 0.350657395
H  H29  1  0.78460000  0.44280000  0.48140000  1.0 0.1433286148
H  H30  1  0.74160000  0.40600000  0.59250000  1.0 0.1475644598
H  H31  1  0.83580000  0.42280000  0.56830000  1.0 0.1475644598
H  H32  1  0.14070000  0.33880000  0.73150000  1.0 0.0561215036
H  H33  1  0.07520000  0.39090000  0.57940000  1.0 0.350657395
H  H34  1  0.99560000  0.23960000  0.72080000  1.0 0.1323146326
H  H35  1  0.97240000  0.31370000  0.73580000  1.0 0.1433286148
H  H36  1  0.01620000  0.29030000  0.82880000  1.0 0.1433286148
H  H37  1  0.69410000  0.15310000  0.33090000  1.0 0.1204009133
H  H38  1  0.28010000  0.88200000  0.23530000  1.0 0.1323146326
H  H39  1  0.31960000  0.88890000  0.06050000  1.0 0.092408101
H  H40  1  0.18550000  0.74440000  0.12310000  1.0 0.350657395
H  H41  1  0.34180000  0.78460000  0.98140000  1.0 0.1433286148
H  H42  1  0.33560000  0.74160000  0.09250000  1.0 0.1475644598
H  H43  1  0.41300000  0.83580000  0.06830000  1.0 0.1475644598
H  H44  1  0.80190000  0.14070000  0.23150000  1.0 0.0561215036
H  H45  1  0.68430000  0.07520000  0.07940000  1.0 0.350657395
H  H46  1  0.75600000  0.99560000  0.22080000  1.0 0.1323146326
H  H47  1  0.65870000  0.97240000  0.23580000  1.0 0.1433286148
H  H48  1  0.72590000  0.01620000  0.32880000  1.0 0.1433286148
H  H49  1  0.45900000  0.30590000  0.33090000  1.0 0.1204009133
H  H50  1  0.60190000  0.71990000  0.23530000  1.0 0.1323146326
H  H51  1  0.56930000  0.68040000  0.06050000  1.0 0.092408101
H  H52  1  0.55890000  0.81450000  0.12310000  1.0 0.350657395
H  H53  1  0.44280000  0.65820000  0.98140000  1.0 0.1433286148
H  H54  1  0.40600000  0.66440000  0.09250000  1.0 0.1475644598
H  H55  1  0.42280000  0.58700000  0.06830000  1.0 0.1475644598
H  H56  1  0.33880000  0.19810000  0.23150000  1.0 0.0561215036
H  H57  1  0.39090000  0.31570000  0.07940000  1.0 0.350657395
H  H58  1  0.23960000  0.24400000  0.22080000  1.0 0.1323146326
H  H59  1  0.31370000  0.34130000  0.23580000  1.0 0.1433286148
H  H60  1  0.29030000  0.27410000  0.32880000  1.0 0.1433286148
H  H61  1  0.84690000  0.54100000  0.33090000  1.0 0.1204009133
H  H62  1  0.11800000  0.39810000  0.23530000  1.0 0.1323146326
H  H63  1  0.11110000  0.43070000  0.06050000  1.0 0.092408101
H  H64  1  0.25560000  0.44110000  0.12310000  1.0 0.350657395
H  H65  1  0.21540000  0.55720000  0.98140000  1.0 0.1433286148
H  H66  1  0.25840000  0.59400000  0.09250000  1.0 0.1475644598
H  H67  1  0.16420000  0.57720000  0.06830000  1.0 0.1475644598
H  H68  1  0.85930000  0.66120000  0.23150000  1.0 0.0561215036
H  H69  1  0.92480000  0.60910000  0.07940000  1.0 0.350657395
H  H70  1  0.00440000  0.76040000  0.22080000  1.0 0.1323146326
H  H71  1  0.02760000  0.68630000  0.23580000  1.0 0.1433286148
H  H72  1  0.98380000  0.70970000  0.32880000  1.0 0.1433286148
C  C1  1  0.27620000  0.76930000  0.69550000  1.0 0.6082725105
C  C2  1  0.31250000  0.85600000  0.75390000  1.0 -0.1024851176
C  C3  1  0.45870000  0.98160000  0.76540000  1.0 0.350657395
C  C4  1  0.72330000  0.23170000  0.77680000  1.0 0.6082725105
C  C5  1  0.68770000  0.14750000  0.71460000  1.0 -0.1107616397
C  C6  1  0.54570000  0.01970000  0.71040000  1.0 0.350657395
C  C7  1  0.70040000  0.16680000  0.59720000  1.0 0.2108162272
C  C8  1  0.64790000  0.20450000  0.55630000  1.0 -0.5053103152
C  C9  1  0.25930000  0.89900000  0.71280000  1.0 0.1960103986
C  C10  1  0.28200000  0.98670000  0.75300000  1.0 -0.437925798
C  C11  1  0.49310000  0.72380000  0.69550000  1.0 0.6082725105
C  C12  1  0.54350000  0.68750000  0.75390000  1.0 -0.1024851176
C  C13  1  0.52290000  0.54130000  0.76540000  1.0 0.350657395
C  C14  1  0.50840000  0.27670000  0.77680000  1.0 0.6082725105
C  C15  1  0.45980000  0.31230000  0.71460000  1.0 -0.1107616397
C  C16  1  0.47400000  0.45430000  0.71040000  1.0 0.350657395
C  C17  1  0.46640000  0.29960000  0.59720000  1.0 0.2108162272
C  C18  1  0.55660000  0.35210000  0.55630000  1.0 -0.5053103152
C  C19  1  0.63970000  0.74070000  0.71280000  1.0 0.1960103986
C  C20  1  0.70470000  0.71800000  0.75300000  1.0 -0.437925798
C  C21  1  0.23070000  0.50690000  0.69550000  1.0 0.6082725105
C  C22  1  0.14400000  0.45650000  0.75390000  1.0 -0.1024851176
C  C23  1  0.01840000  0.47710000  0.76540000  1.0 0.350657395
C  C24  1  0.76830000  0.49160000  0.77680000  1.0 0.6082725105
C  C25  1  0.85250000  0.54020000  0.71460000  1.0 -0.1107616397
C  C26  1  0.98030000  0.52600000  0.71040000  1.0 0.350657395
C  C27  1  0.83320000  0.53360000  0.59720000  1.0 0.2108162272
C  C28  1  0.79550000  0.44340000  0.55630000  1.0 -0.5053103152
C  C29  1  0.10100000  0.36030000  0.71280000  1.0 0.1960103986
C  C30  1  0.01330000  0.29530000  0.75300000  1.0 -0.437925798
C  C31  1  0.72380000  0.23070000  0.19550000  1.0 0.6082725105
C  C32  1  0.68750000  0.14400000  0.25390000  1.0 -0.1024851176
C  C33  1  0.54130000  0.01840000  0.26540000  1.0 0.350657395
C  C34  1  0.27670000  0.76830000  0.27680000  1.0 0.6082725105
C  C35  1  0.31230000  0.85250000  0.21460000  1.0 -0.1107616397
C  C36  1  0.45430000  0.98030000  0.21040000  1.0 0.350657395
C  C37  1  0.29960000  0.83320000  0.09720000  1.0 0.2108162272
C  C38  1  0.35210000  0.79550000  0.05630000  1.0 -0.5053103152
C  C39  1  0.74070000  0.10100000  0.21280000  1.0 0.1960103986
C  C40  1  0.71800000  0.01330000  0.25300000  1.0 -0.437925798
C  C41  1  0.50690000  0.27620000  0.19550000  1.0 0.6082725105
C  C42  1  0.45650000  0.31250000  0.25390000  1.0 -0.1024851176
C  C43  1  0.47710000  0.45870000  0.26540000  1.0 0.350657395
C  C44  1  0.49160000  0.72330000  0.27680000  1.0 0.6082725105
C  C45  1  0.54020000  0.68770000  0.21460000  1.0 -0.1107616397
C  C46  1  0.52600000  0.54570000  0.21040000  1.0 0.350657395
C  C47  1  0.53360000  0.70040000  0.09720000  1.0 0.2108162272
C  C48  1  0.44340000  0.64790000  0.05630000  1.0 -0.5053103152
C  C49  1  0.36030000  0.25930000  0.21280000  1.0 0.1960103986
C  C50  1  0.29530000  0.28200000  0.25300000  1.0 -0.437925798
C  C51  1  0.76930000  0.49310000  0.19550000  1.0 0.6082725105
C  C52  1  0.85600000  0.54350000  0.25390000  1.0 -0.1024851176
C  C53  1  0.98160000  0.52290000  0.26540000  1.0 0.350657395
C  C54  1  0.23170000  0.50840000  0.27680000  1.0 0.6082725105
C  C55  1  0.14750000  0.45980000  0.21460000  1.0 -0.1107616397
C  C56  1  0.01970000  0.47400000  0.21040000  1.0 0.350657395
C  C57  1  0.16680000  0.46640000  0.09720000  1.0 0.2108162272
C  C58  1  0.20450000  0.55660000  0.05630000  1.0 -0.5044699731
C  C59  1  0.89900000  0.63970000  0.21280000  1.0 0.1960103986
C  C60  1  0.98670000  0.70470000  0.25300000  1.0 -0.437925798
N  N1  1  0.40240000  0.90890000  0.72540000  1.0 -0.363195958
N  N2  1  0.59950000  0.09510000  0.74590000  1.0 -0.3708312633
N  N3  1  0.50650000  0.59760000  0.72540000  1.0 -0.363195958
N  N4  1  0.49560000  0.40050000  0.74590000  1.0 -0.3708312633
N  N5  1  0.09110000  0.49350000  0.72540000  1.0 -0.363195958
N  N6  1  0.90490000  0.50440000  0.74590000  1.0 -0.3708312633
N  N7  1  0.59760000  0.09110000  0.22540000  1.0 -0.363195958
N  N8  1  0.40050000  0.90490000  0.24590000  1.0 -0.3708312633
N  N9  1  0.49350000  0.40240000  0.22540000  1.0 -0.363195958
N  N10  1  0.50440000  0.59950000  0.24590000  1.0 -0.3708312633
N  N11  1  0.90890000  0.50650000  0.22540000  1.0 -0.363195958
N  N12  1  0.09510000  0.49560000  0.24590000  1.0 -0.3708312633
O  O1  1  0.53380000  0.17390000  0.98840000  1.0 -0.6521978798
O  O2  1  0.32530000  0.76560000  0.62440000  1.0 -0.5301090104
O  O3  1  0.67610000  0.23440000  0.85030000  1.0 -0.5380030396
O  O4  1  0.79620000  0.29250000  0.75630000  1.0 -0.5221131566
O  O5  1  0.55640000  0.97500000  0.64170000  1.0 -0.4107986115
O  O6  1  0.45120000  0.02010000  0.84640000  1.0 -0.4023225429
O  O7  1  0.20520000  0.70880000  0.71960000  1.0 -0.5728293878
O  O8  1  0.79060000  0.22070000  0.57410000  1.0 -0.5221131566
O  O9  1  0.26430000  0.90170000  0.59790000  1.0 -0.4203454676
O  O10  1  0.60080000  0.03850000  0.99300000  1.0 -0.5221131566
O  O11  1  0.64010000  0.46620000  0.98840000  1.0 -0.6521978798
O  O12  1  0.44030000  0.67470000  0.62440000  1.0 -0.5301090104
O  O13  1  0.55830000  0.32390000  0.85030000  1.0 -0.5380030396
O  O14  1  0.49630000  0.20380000  0.75630000  1.0 -0.5221131566
O  O15  1  0.41860000  0.44360000  0.64170000  1.0 -0.4107986115
O  O16  1  0.56890000  0.54880000  0.84640000  1.0 -0.4023225429
O  O17  1  0.50360000  0.79480000  0.71960000  1.0 -0.5728293878
O  O18  1  0.43010000  0.20940000  0.57410000  1.0 -0.5221131566
O  O19  1  0.63740000  0.73570000  0.59790000  1.0 -0.4203454676
O  O20  1  0.43770000  0.39920000  0.99300000  1.0 -0.5221131566
O  O21  1  0.82610000  0.35990000  0.98840000  1.0 -0.6521978798
O  O22  1  0.23440000  0.55970000  0.62440000  1.0 -0.5301090104
O  O23  1  0.76560000  0.44170000  0.85030000  1.0 -0.5380030396
O  O24  1  0.70750000  0.50370000  0.75630000  1.0 -0.5221131566
O  O25  1  0.02500000  0.58140000  0.64170000  1.0 -0.4107986115
O  O26  1  0.97990000  0.43110000  0.84640000  1.0 -0.4023225429
O  O27  1  0.29120000  0.49640000  0.71960000  1.0 -0.5728293878
O  O28  1  0.77930000  0.56990000  0.57410000  1.0 -0.5221131566
O  O29  1  0.09830000  0.36260000  0.59790000  1.0 -0.4203454676
O  O30  1  0.96150000  0.56230000  0.99300000  1.0 -0.5221131566
O  O31  1  0.46620000  0.82610000  0.48840000  1.0 -0.6521978798
O  O32  1  0.67470000  0.23440000  0.12440000  1.0 -0.5301090104
O  O33  1  0.32390000  0.76560000  0.35030000  1.0 -0.5380030396
O  O34  1  0.20380000  0.70750000  0.25630000  1.0 -0.5221131566
O  O35  1  0.44360000  0.02500000  0.14170000  1.0 -0.4107986115
O  O36  1  0.54880000  0.97990000  0.34640000  1.0 -0.4023225429
O  O37  1  0.79480000  0.29120000  0.21960000  1.0 -0.5728293878
O  O38  1  0.20940000  0.77930000  0.07410000  1.0 -0.5221131566
O  O39  1  0.73570000  0.09830000  0.09790000  1.0 -0.4203454676
O  O40  1  0.39920000  0.96150000  0.49300000  1.0 -0.5221131566
O  O41  1  0.35990000  0.53380000  0.48840000  1.0 -0.6521978798
O  O42  1  0.55970000  0.32530000  0.12440000  1.0 -0.5301090104
O  O43  1  0.44170000  0.67610000  0.35030000  1.0 -0.5380030396
O  O44  1  0.50370000  0.79620000  0.25630000  1.0 -0.5221131566
O  O45  1  0.58140000  0.55640000  0.14170000  1.0 -0.4107986115
O  O46  1  0.43110000  0.45120000  0.34640000  1.0 -0.4023225429
O  O47  1  0.49640000  0.20520000  0.21960000  1.0 -0.5728293878
O  O48  1  0.56990000  0.79060000  0.07410000  1.0 -0.5221131566
O  O49  1  0.36260000  0.26430000  0.09790000  1.0 -0.4203454676
O  O50  1  0.56230000  0.60080000  0.49300000  1.0 -0.5221131566
O  O51  1  0.17390000  0.64010000  0.48840000  1.0 -0.6521978798
O  O52  1  0.76560000  0.44030000  0.12440000  1.0 -0.5301090104
O  O53  1  0.23440000  0.55830000  0.35030000  1.0 -0.5380030396
O  O54  1  0.29250000  0.49630000  0.25630000  1.0 -0.5221131566
O  O55  1  0.97500000  0.41860000  0.14170000  1.0 -0.4107986115
O  O56  1  0.02010000  0.56890000  0.34640000  1.0 -0.4023225429
O  O57  1  0.70880000  0.50360000  0.21960000  1.0 -0.5728293878
O  O58  1  0.22070000  0.43010000  0.07410000  1.0 -0.5221131566
O  O59  1  0.90170000  0.63740000  0.09790000  1.0 -0.4203454676
O  O60  1  0.03850000  0.43770000  0.49300000  1.0 -0.5221131566
