# DDEC6 charges by PACMAN v1.1 (https://github.com/mtap-research/PACMAN-charge/)
data_LIKXOV_ASR_pacman
_symmetry_space_group_name_H-M   'P 1'
_cell_length_a   17.90120000
_cell_length_b   17.90120000
_cell_length_c   12.99000000
_cell_angle_alpha   90.00000000
_cell_angle_beta   90.00000000
_cell_angle_gamma   120.00000000
_symmetry_Int_Tables_number   1
_chemical_formula_structural   SrDy3Cu6H24C24N6(ClO3)9
_chemical_formula_sum   'Sr2 Dy6 Cu12 H48 C48 N12 Cl18 O54'
_cell_volume   3604.99006517
_cell_formula_units_Z   2
loop_
 _symmetry_equiv_pos_site_id
 _symmetry_equiv_pos_as_xyz
  1  'x, y, z'
loop_
 _atom_site_type_symbol
 _atom_site_label
 _atom_site_symmetry_multiplicity
 _atom_site_fract_x
 _atom_site_fract_y
 _atom_site_fract_z
 _atom_site_occupancy
 _atom_site_charge
Sr  Sr1  1  0.33333333  0.66666667  0.07383000  1.0 1.4613707474
Sr  Sr2  1  0.66666667  0.33333333  0.57383000  1.0 1.4613707474
Dy  Dy1  1  0.68180000  0.01760000  0.07510000  1.0 1.6812964491
Dy  Dy2  1  0.33580000  0.31820000  0.07510000  1.0 1.6812964491
Dy  Dy3  1  0.98240000  0.66420000  0.07510000  1.0 1.6812964491
Dy  Dy4  1  0.31820000  0.98240000  0.57510000  1.0 1.6812964491
Dy  Dy5  1  0.66420000  0.68180000  0.57510000  1.0 1.6812964491
Dy  Dy6  1  0.01760000  0.33580000  0.57510000  1.0 1.6812964491
Cu  Cu1  1  0.44078000  0.86604000  0.20057000  1.0 0.8458284549
Cu  Cu2  1  0.44563000  0.86523000  0.94433000  1.0 0.8560610027
Cu  Cu3  1  0.42526000  0.55922000  0.20057000  1.0 0.8458284549
Cu  Cu4  1  0.41960000  0.55437000  0.94433000  1.0 0.8560610027
Cu  Cu5  1  0.13396000  0.57474000  0.20057000  1.0 0.8458284549
Cu  Cu6  1  0.13477000  0.58040000  0.94433000  1.0 0.8560610027
Cu  Cu7  1  0.55922000  0.13396000  0.70057000  1.0 0.8458284549
Cu  Cu8  1  0.55437000  0.13477000  0.44433000  1.0 0.8560610027
Cu  Cu9  1  0.57474000  0.44078000  0.70057000  1.0 0.8458284549
Cu  Cu10  1  0.58040000  0.44563000  0.44433000  1.0 0.8560610027
Cu  Cu11  1  0.86604000  0.42526000  0.70057000  1.0 0.8458284549
Cu  Cu12  1  0.86523000  0.41960000  0.44433000  1.0 0.8560610027
H  H1  1  0.31150000  0.83230000  0.42600000  1.0 0.1128657559
H  H2  1  0.71290000  0.12640000  0.28520000  1.0 0.1282260007
H  H3  1  0.19430000  0.84910000  0.35480000  1.0 0.1128657559
H  H4  1  0.27580000  0.94230000  0.37600000  1.0 0.0661133514
H  H5  1  0.22590000  0.86980000  0.19220000  1.0 0.3493227275
H  H6  1  0.73320000  0.23150000  0.14990000  1.0 0.0953752807
H  H7  1  0.64490000  0.14400000  0.12690000  1.0 0.0634336583
H  H8  1  0.66800000  0.28740000  0.17930000  1.0 0.2896001748
H  H9  1  0.52080000  0.68850000  0.42600000  1.0 0.1128657559
H  H10  1  0.41350000  0.28710000  0.28520000  1.0 0.1282260007
H  H11  1  0.65480000  0.80570000  0.35480000  1.0 0.1128657559
H  H12  1  0.66650000  0.72420000  0.37600000  1.0 0.0661133514
H  H13  1  0.64390000  0.77410000  0.19220000  1.0 0.3493227275
H  H14  1  0.49830000  0.26680000  0.14990000  1.0 0.0953752807
H  H15  1  0.49910000  0.35510000  0.12690000  1.0 0.0634336583
H  H16  1  0.61940000  0.33200000  0.17930000  1.0 0.2896001748
H  H17  1  0.16770000  0.47920000  0.42600000  1.0 0.1128657559
H  H18  1  0.87360000  0.58650000  0.28520000  1.0 0.1282260007
H  H19  1  0.15090000  0.34520000  0.35480000  1.0 0.1128657559
H  H20  1  0.05770000  0.33350000  0.37600000  1.0 0.0661133514
H  H21  1  0.13020000  0.35610000  0.19220000  1.0 0.3493227275
H  H22  1  0.76850000  0.50170000  0.14990000  1.0 0.0953752807
H  H23  1  0.85600000  0.50090000  0.12690000  1.0 0.0634336583
H  H24  1  0.71260000  0.38060000  0.17930000  1.0 0.2896001748
H  H25  1  0.68850000  0.16770000  0.92600000  1.0 0.1128657559
H  H26  1  0.28710000  0.87360000  0.78520000  1.0 0.1282260007
H  H27  1  0.80570000  0.15090000  0.85480000  1.0 0.1128657559
H  H28  1  0.72420000  0.05770000  0.87600000  1.0 0.0661133514
H  H29  1  0.77410000  0.13020000  0.69220000  1.0 0.3493227275
H  H30  1  0.26680000  0.76850000  0.64990000  1.0 0.0953752807
H  H31  1  0.35510000  0.85600000  0.62690000  1.0 0.0634336583
H  H32  1  0.33200000  0.71260000  0.67930000  1.0 0.2896001748
H  H33  1  0.47920000  0.31150000  0.92600000  1.0 0.1128657559
H  H34  1  0.58650000  0.71290000  0.78520000  1.0 0.1282260007
H  H35  1  0.34520000  0.19430000  0.85480000  1.0 0.1128657559
H  H36  1  0.33350000  0.27580000  0.87600000  1.0 0.0661133514
H  H37  1  0.35610000  0.22590000  0.69220000  1.0 0.3493227275
H  H38  1  0.50170000  0.73320000  0.64990000  1.0 0.0953752807
H  H39  1  0.50090000  0.64490000  0.62690000  1.0 0.0634336583
H  H40  1  0.38060000  0.66800000  0.67930000  1.0 0.2896001748
H  H41  1  0.83230000  0.52080000  0.92600000  1.0 0.1128657559
H  H42  1  0.12640000  0.41350000  0.78520000  1.0 0.1282260007
H  H43  1  0.84910000  0.65480000  0.85480000  1.0 0.1128657559
H  H44  1  0.94230000  0.66650000  0.87600000  1.0 0.0661133514
H  H45  1  0.86980000  0.64390000  0.69220000  1.0 0.3493227275
H  H46  1  0.23150000  0.49830000  0.64990000  1.0 0.0953752807
H  H47  1  0.14400000  0.49910000  0.62690000  1.0 0.0634336583
H  H48  1  0.28740000  0.61940000  0.67930000  1.0 0.2896001748
C  C1  1  0.45470000  0.97830000  0.35350000  1.0 0.3993045252
C  C2  1  0.53980000  0.02180000  0.29340000  1.0 0.3993045252
C  C3  1  0.27660000  0.76420000  0.28310000  1.0 0.5876618735
C  C4  1  0.31230000  0.84710000  0.35160000  1.0 -0.0221004608
C  C5  1  0.72080000  0.23250000  0.35910000  1.0 0.5876618735
C  C6  1  0.67860000  0.15650000  0.28830000  1.0 -0.0637258404
C  C7  1  0.25390000  0.89030000  0.33220000  1.0 -0.0143165515
C  C8  1  0.67390000  0.19280000  0.17560000  1.0 0.0634336583
C  C9  1  0.52360000  0.54530000  0.35350000  1.0 0.3993045252
C  C10  1  0.48200000  0.46020000  0.29340000  1.0 0.3993045252
C  C11  1  0.48760000  0.72340000  0.28310000  1.0 0.5876618735
C  C12  1  0.53480000  0.68770000  0.35160000  1.0 -0.0221004608
C  C13  1  0.51170000  0.27920000  0.35910000  1.0 0.5876618735
C  C14  1  0.47790000  0.32140000  0.28830000  1.0 -0.0637258404
C  C15  1  0.63640000  0.74610000  0.33220000  1.0 -0.0143165515
C  C16  1  0.51890000  0.32610000  0.17560000  1.0 0.0634336583
C  C17  1  0.02170000  0.47640000  0.35350000  1.0 0.3993045252
C  C18  1  0.97820000  0.51800000  0.29340000  1.0 0.3993045252
C  C19  1  0.23580000  0.51240000  0.28310000  1.0 0.5876618735
C  C20  1  0.15290000  0.46520000  0.35160000  1.0 -0.0221004608
C  C21  1  0.76750000  0.48830000  0.35910000  1.0 0.5876618735
C  C22  1  0.84350000  0.52210000  0.28830000  1.0 -0.0637258404
C  C23  1  0.10970000  0.36360000  0.33220000  1.0 -0.0143165515
C  C24  1  0.80720000  0.48110000  0.17560000  1.0 0.0634336583
C  C25  1  0.54530000  0.02170000  0.85350000  1.0 0.3993045252
C  C26  1  0.46020000  0.97820000  0.79340000  1.0 0.3993045252
C  C27  1  0.72340000  0.23580000  0.78310000  1.0 0.5876618735
C  C28  1  0.68770000  0.15290000  0.85160000  1.0 -0.0221004608
C  C29  1  0.27920000  0.76750000  0.85910000  1.0 0.5876618735
C  C30  1  0.32140000  0.84350000  0.78830000  1.0 -0.0637258404
C  C31  1  0.74610000  0.10970000  0.83220000  1.0 -0.0143165515
C  C32  1  0.32610000  0.80720000  0.67560000  1.0 0.0634336583
C  C33  1  0.47640000  0.45470000  0.85350000  1.0 0.3993045252
C  C34  1  0.51800000  0.53980000  0.79340000  1.0 0.3993045252
C  C35  1  0.51240000  0.27660000  0.78310000  1.0 0.5876618735
C  C36  1  0.46520000  0.31230000  0.85160000  1.0 -0.0221004608
C  C37  1  0.48830000  0.72080000  0.85910000  1.0 0.5876618735
C  C38  1  0.52210000  0.67860000  0.78830000  1.0 -0.0637258404
C  C39  1  0.36360000  0.25390000  0.83220000  1.0 -0.0143165515
C  C40  1  0.48110000  0.67390000  0.67560000  1.0 0.0634336583
C  C41  1  0.97830000  0.52360000  0.85350000  1.0 0.3993045252
C  C42  1  0.02180000  0.48200000  0.79340000  1.0 0.3993045252
C  C43  1  0.76420000  0.48760000  0.78310000  1.0 0.5876618735
C  C44  1  0.84710000  0.53480000  0.85160000  1.0 -0.0221004608
C  C45  1  0.23250000  0.51170000  0.85910000  1.0 0.5876618735
C  C46  1  0.15650000  0.47790000  0.78830000  1.0 -0.0637258404
C  C47  1  0.89030000  0.63640000  0.83220000  1.0 -0.0143165515
C  C48  1  0.19280000  0.51890000  0.67560000  1.0 0.0634336583
N  N1  1  0.40000000  0.90260000  0.31660000  1.0 -0.38180222
N  N2  1  0.59170000  0.09810000  0.32690000  1.0 -0.3722663113
N  N3  1  0.50260000  0.60000000  0.31660000  1.0 -0.38180222
N  N4  1  0.50640000  0.40830000  0.32690000  1.0 -0.3722663113
N  N5  1  0.09740000  0.49740000  0.31660000  1.0 -0.38180222
N  N6  1  0.90190000  0.49360000  0.32690000  1.0 -0.3722663113
N  N7  1  0.60000000  0.09740000  0.81660000  1.0 -0.38180222
N  N8  1  0.40830000  0.90190000  0.82690000  1.0 -0.3722663113
N  N9  1  0.49740000  0.40000000  0.81660000  1.0 -0.38180222
N  N10  1  0.49360000  0.59170000  0.82690000  1.0 -0.3722663113
N  N11  1  0.90260000  0.50260000  0.81660000  1.0 -0.38180222
N  N12  1  0.09810000  0.50640000  0.82690000  1.0 -0.3722663113
Cl  Cl1  1  0.84720000  0.16830000  0.08500000  1.0 -0.6136694142
Cl  Cl2  1  0.66000000  0.93700000  0.23900000  1.0 -0.491829275
Cl  Cl3  1  0.79900000  0.99300000  0.00400000  1.0 -0.5509221542
Cl  Cl4  1  0.32110000  0.15280000  0.08500000  1.0 -0.6136694142
Cl  Cl5  1  0.27700000  0.34000000  0.23900000  1.0 -0.491829275
Cl  Cl6  1  0.19400000  0.20100000  0.00400000  1.0 -0.5509221542
Cl  Cl7  1  0.83170000  0.67890000  0.08500000  1.0 -0.6136694142
Cl  Cl8  1  0.06300000  0.72300000  0.23900000  1.0 -0.491829275
Cl  Cl9  1  0.00700000  0.80600000  0.00400000  1.0 -0.5509221542
Cl  Cl10  1  0.15280000  0.83170000  0.58500000  1.0 -0.6136694142
Cl  Cl11  1  0.34000000  0.06300000  0.73900000  1.0 -0.491829275
Cl  Cl12  1  0.20100000  0.00700000  0.50400000  1.0 -0.5509221542
Cl  Cl13  1  0.67890000  0.84720000  0.58500000  1.0 -0.6136694142
Cl  Cl14  1  0.72300000  0.66000000  0.73900000  1.0 -0.491829275
Cl  Cl15  1  0.80600000  0.79900000  0.50400000  1.0 -0.5509221542
Cl  Cl16  1  0.16830000  0.32110000  0.58500000  1.0 -0.6136694142
Cl  Cl17  1  0.93700000  0.27700000  0.73900000  1.0 -0.491829275
Cl  Cl18  1  0.99300000  0.19400000  0.50400000  1.0 -0.5509221542
O  O1  1  0.46570000  0.82750000  0.07330000  1.0 -0.8436155805
O  O2  1  0.32080000  0.76370000  0.21060000  1.0 -0.5092761273
O  O3  1  0.20160000  0.70410000  0.30440000  1.0 -0.5015435853
O  O4  1  0.54880000  0.98090000  0.21750000  1.0 -0.5092761273
O  O5  1  0.44580000  0.01830000  0.42810000  1.0 -0.5092761273
O  O6  1  0.67480000  0.23490000  0.43550000  1.0 -0.5439808158
O  O7  1  0.79640000  0.29030000  0.34500000  1.0 -0.5015435853
O  O8  1  0.25080000  0.91430000  0.22900000  1.0 -0.348167237
O  O9  1  0.63300000  0.23440000  0.17900000  1.0 -0.348167237
O  O10  1  0.36180000  0.53430000  0.07330000  1.0 -0.8436155805
O  O11  1  0.44290000  0.67920000  0.21060000  1.0 -0.5092761273
O  O12  1  0.50250000  0.79840000  0.30440000  1.0 -0.5015435853
O  O13  1  0.43210000  0.45120000  0.21750000  1.0 -0.5092761273
O  O14  1  0.57250000  0.55420000  0.42810000  1.0 -0.5092761273
O  O15  1  0.56010000  0.32520000  0.43550000  1.0 -0.5439808158
O  O16  1  0.49390000  0.20360000  0.34500000  1.0 -0.5015435853
O  O17  1  0.66350000  0.74920000  0.22900000  1.0 -0.348167237
O  O18  1  0.60140000  0.36700000  0.17900000  1.0 -0.348167237
O  O19  1  0.17250000  0.63820000  0.07330000  1.0 -0.8436155805
O  O20  1  0.23630000  0.55710000  0.21060000  1.0 -0.5092761273
O  O21  1  0.29590000  0.49750000  0.30440000  1.0 -0.5015435853
O  O22  1  0.01910000  0.56790000  0.21750000  1.0 -0.5092761273
O  O23  1  0.98170000  0.42750000  0.42810000  1.0 -0.5092761273
O  O24  1  0.76510000  0.43990000  0.43550000  1.0 -0.5439808158
O  O25  1  0.70970000  0.50610000  0.34500000  1.0 -0.5015435853
O  O26  1  0.08570000  0.33650000  0.22900000  1.0 -0.348167237
O  O27  1  0.76560000  0.39860000  0.17900000  1.0 -0.348167237
O  O28  1  0.53430000  0.17250000  0.57330000  1.0 -0.8436155805
O  O29  1  0.67920000  0.23630000  0.71060000  1.0 -0.5092761273
O  O30  1  0.79840000  0.29590000  0.80440000  1.0 -0.5015435853
O  O31  1  0.45120000  0.01910000  0.71750000  1.0 -0.5092761273
O  O32  1  0.55420000  0.98170000  0.92810000  1.0 -0.5092761273
O  O33  1  0.32520000  0.76510000  0.93550000  1.0 -0.5439808158
O  O34  1  0.20360000  0.70970000  0.84500000  1.0 -0.5015435853
O  O35  1  0.74920000  0.08570000  0.72900000  1.0 -0.348167237
O  O36  1  0.36700000  0.76560000  0.67900000  1.0 -0.348167237
O  O37  1  0.63820000  0.46570000  0.57330000  1.0 -0.8436155805
O  O38  1  0.55710000  0.32080000  0.71060000  1.0 -0.5092761273
O  O39  1  0.49750000  0.20160000  0.80440000  1.0 -0.5015435853
O  O40  1  0.56790000  0.54880000  0.71750000  1.0 -0.5092761273
O  O41  1  0.42750000  0.44580000  0.92810000  1.0 -0.5092761273
O  O42  1  0.43990000  0.67480000  0.93550000  1.0 -0.5439808158
O  O43  1  0.50610000  0.79640000  0.84500000  1.0 -0.5015435853
O  O44  1  0.33650000  0.25080000  0.72900000  1.0 -0.348167237
O  O45  1  0.39860000  0.63300000  0.67900000  1.0 -0.348167237
O  O46  1  0.82750000  0.36180000  0.57330000  1.0 -0.8436155805
O  O47  1  0.76370000  0.44290000  0.71060000  1.0 -0.5092761273
O  O48  1  0.70410000  0.50250000  0.80440000  1.0 -0.5015435853
O  O49  1  0.98090000  0.43210000  0.71750000  1.0 -0.5092761273
O  O50  1  0.01830000  0.57250000  0.92810000  1.0 -0.5092761273
O  O51  1  0.23490000  0.56010000  0.93550000  1.0 -0.5439808158
O  O52  1  0.29030000  0.49390000  0.84500000  1.0 -0.5015435853
O  O53  1  0.91430000  0.66350000  0.72900000  1.0 -0.348167237
O  O54  1  0.23440000  0.60140000  0.67900000  1.0 -0.348167237
