# DDEC6 charges by PACMAN v1.1 (https://github.com/mtap-research/PACMAN-charge/)
data_LIKXAH_FSR_pacman
_symmetry_space_group_name_H-M   'P 1'
_cell_length_a   18.09710000
_cell_length_b   18.09710000
_cell_length_c   12.84790000
_cell_angle_alpha   90.00000000
_cell_angle_beta   90.00000000
_cell_angle_gamma   120.00000000
_symmetry_Int_Tables_number   1
_chemical_formula_structural   SrLa3Cu6H36C30N6(ClO3)9
_chemical_formula_sum   'Sr2 La6 Cu12 H72 C60 N12 Cl18 O54'
_cell_volume   3644.01999883
_cell_formula_units_Z   2
loop_
 _symmetry_equiv_pos_site_id
 _symmetry_equiv_pos_as_xyz
  1  'x, y, z'
loop_
 _atom_site_type_symbol
 _atom_site_label
 _atom_site_symmetry_multiplicity
 _atom_site_fract_x
 _atom_site_fract_y
 _atom_site_fract_z
 _atom_site_occupancy
 _atom_site_charge
Sr  Sr1  1  0.66666667  0.33333333  0.29990000  1.0 1.4686710006
Sr  Sr2  1  0.33333333  0.66666667  0.79990000  1.0 1.4686710006
La  La1  1  0.31900000  0.26630000  0.20560000  1.0 1.2485561735
La  La2  1  0.94730000  0.68100000  0.20560000  1.0 1.2389561063
La  La3  1  0.73370000  0.05270000  0.20560000  1.0 1.2389561063
La  La4  1  0.68100000  0.73370000  0.70560000  1.0 1.2389561063
La  La5  1  0.05270000  0.31900000  0.70560000  1.0 1.2389561063
La  La6  1  0.26630000  0.94730000  0.70560000  1.0 1.2389561063
Cu  Cu1  1  0.58004000  0.13524000  0.17021000  1.0 0.8124087221
Cu  Cu2  1  0.57589000  0.13382000  0.42835000  1.0 0.876226402
Cu  Cu3  1  0.55520000  0.41996000  0.17021000  1.0 0.8124087221
Cu  Cu4  1  0.55793000  0.42411000  0.42835000  1.0 0.876226402
Cu  Cu5  1  0.86476000  0.44480000  0.17021000  1.0 0.8124087221
Cu  Cu6  1  0.86618000  0.44207000  0.42835000  1.0 0.876226402
Cu  Cu7  1  0.41996000  0.86476000  0.67021000  1.0 0.8124087221
Cu  Cu8  1  0.42411000  0.86618000  0.92835000  1.0 0.876226402
Cu  Cu9  1  0.44480000  0.58004000  0.67021000  1.0 0.8124087221
Cu  Cu10  1  0.44207000  0.57589000  0.92835000  1.0 0.876226402
Cu  Cu11  1  0.13524000  0.55520000  0.67021000  1.0 0.8124087221
Cu  Cu12  1  0.13382000  0.55793000  0.92835000  1.0 0.876226402
H  H1  1  0.45860000  0.15030000  0.95730000  1.0 0.1362663077
H  H2  1  0.60180000  0.88170000  0.05170000  1.0 0.1133723076
H  H3  1  0.56770000  0.88990000  0.23000000  1.0 0.0346080392
H  H4  1  0.24100000  0.00200000  0.07220000  1.0 0.1606305705
H  H5  1  0.31300000  0.97790000  0.04680000  1.0 0.1606305705
H  H6  1  0.28800000  0.02610000  0.96160000  1.0 0.1336318594
H  H7  1  0.40600000  0.75150000  0.18260000  1.0 0.1606305705
H  H8  1  0.42820000  0.84000000  0.23650000  1.0 0.1606305705
H  H9  1  0.44020000  0.77060000  0.30000000  1.0 0.151387564
H  H10  1  0.38310000  0.07040000  0.21850000  1.0 0.3805812961
H  H11  1  0.59890000  0.79610000  0.26790000  1.0 0.3635051614
H  H12  1  0.33940000  0.14160000  0.05810000  1.0 0.1336318594
H  H13  1  0.69170000  0.54140000  0.95730000  1.0 0.1362663077
H  H14  1  0.27990000  0.39820000  0.05170000  1.0 0.1133723076
H  H15  1  0.32220000  0.43230000  0.23000000  1.0 0.0346080392
H  H16  1  0.76100000  0.75900000  0.07220000  1.0 0.1606305705
H  H17  1  0.66490000  0.68700000  0.04680000  1.0 0.1606305705
H  H18  1  0.73810000  0.71200000  0.96160000  1.0 0.1336318594
H  H19  1  0.34550000  0.59400000  0.18260000  1.0 0.1606305705
H  H20  1  0.41180000  0.57180000  0.23650000  1.0 0.1606305705
H  H21  1  0.33040000  0.55980000  0.30000000  1.0 0.151387564
H  H22  1  0.68730000  0.61690000  0.21850000  1.0 0.3805812961
H  H23  1  0.19720000  0.40110000  0.26790000  1.0 0.3635051614
H  H24  1  0.80220000  0.66060000  0.05810000  1.0 0.1336318594
H  H25  1  0.84970000  0.30830000  0.95730000  1.0 0.1362663077
H  H26  1  0.11830000  0.72010000  0.05170000  1.0 0.1133723076
H  H27  1  0.11010000  0.67780000  0.23000000  1.0 0.0346080392
H  H28  1  0.99800000  0.23900000  0.07220000  1.0 0.1606305705
H  H29  1  0.02210000  0.33510000  0.04680000  1.0 0.1606305705
H  H30  1  0.97390000  0.26190000  0.96160000  1.0 0.1336318594
H  H31  1  0.24850000  0.65450000  0.18260000  1.0 0.1606305705
H  H32  1  0.16000000  0.58820000  0.23650000  1.0 0.1606305705
H  H33  1  0.22940000  0.66960000  0.30000000  1.0 0.151387564
H  H34  1  0.92960000  0.31270000  0.21850000  1.0 0.3805812961
H  H35  1  0.20390000  0.80280000  0.26790000  1.0 0.3635051614
H  H36  1  0.85840000  0.19780000  0.05810000  1.0 0.1336318594
H  H37  1  0.54140000  0.84970000  0.45730000  1.0 0.1362663077
H  H38  1  0.39820000  0.11830000  0.55170000  1.0 0.1133723076
H  H39  1  0.43230000  0.11010000  0.73000000  1.0 0.0346080392
H  H40  1  0.75900000  0.99800000  0.57220000  1.0 0.1606305705
H  H41  1  0.68700000  0.02210000  0.54680000  1.0 0.1606305705
H  H42  1  0.71200000  0.97390000  0.46160000  1.0 0.1336318594
H  H43  1  0.59400000  0.24850000  0.68260000  1.0 0.1606305705
H  H44  1  0.57180000  0.16000000  0.73650000  1.0 0.1606305705
H  H45  1  0.55980000  0.22940000  0.80000000  1.0 0.151387564
H  H46  1  0.61690000  0.92960000  0.71850000  1.0 0.3805812961
H  H47  1  0.40110000  0.20390000  0.76790000  1.0 0.3635051614
H  H48  1  0.66060000  0.85840000  0.55810000  1.0 0.1336318594
H  H49  1  0.30830000  0.45860000  0.45730000  1.0 0.1362663077
H  H50  1  0.72010000  0.60180000  0.55170000  1.0 0.1133723076
H  H51  1  0.67780000  0.56770000  0.73000000  1.0 0.0346080392
H  H52  1  0.23900000  0.24100000  0.57220000  1.0 0.1606305705
H  H53  1  0.33510000  0.31300000  0.54680000  1.0 0.1606305705
H  H54  1  0.26190000  0.28800000  0.46160000  1.0 0.1336318594
H  H55  1  0.65450000  0.40600000  0.68260000  1.0 0.1606305705
H  H56  1  0.58820000  0.42820000  0.73650000  1.0 0.1606305705
H  H57  1  0.66960000  0.44020000  0.80000000  1.0 0.151387564
H  H58  1  0.31270000  0.38310000  0.71850000  1.0 0.3805812961
H  H59  1  0.80280000  0.59890000  0.76790000  1.0 0.3635051614
H  H60  1  0.19780000  0.33940000  0.55810000  1.0 0.1336318594
H  H61  1  0.15030000  0.69170000  0.45730000  1.0 0.1362663077
H  H62  1  0.88170000  0.27990000  0.55170000  1.0 0.1133723076
H  H63  1  0.88990000  0.32220000  0.73000000  1.0 0.0346080392
H  H64  1  0.00200000  0.76100000  0.57220000  1.0 0.1606305705
H  H65  1  0.97790000  0.66490000  0.54680000  1.0 0.1606305705
H  H66  1  0.02610000  0.73810000  0.46160000  1.0 0.1336318594
H  H67  1  0.75150000  0.34550000  0.68260000  1.0 0.1606305705
H  H68  1  0.84000000  0.41180000  0.73650000  1.0 0.1606305705
H  H69  1  0.77060000  0.33040000  0.80000000  1.0 0.151387564
H  H70  1  0.07040000  0.68730000  0.71850000  1.0 0.3805812961
H  H71  1  0.79610000  0.19720000  0.76790000  1.0 0.3635051614
H  H72  1  0.14160000  0.80220000  0.55810000  1.0 0.1336318594
C  C1  1  0.52600000  0.98070000  0.07530000  1.0 0.3723012871
C  C2  1  0.47750000  0.01980000  0.02030000  1.0 0.3723012871
C  C3  1  0.45680000  0.14230000  0.03450000  1.0 -0.0630997949
C  C4  1  0.50770000  0.23050000  0.08970000  1.0 0.5615545875
C  C5  1  0.54020000  0.85150000  0.07200000  1.0 -0.0821734675
C  C6  1  0.49170000  0.76810000  0.00800000  1.0 0.6128524906
C  C7  1  0.35840000  0.10010000  0.07700000  1.0 0.1891441635
C  C8  1  0.53240000  0.83440000  0.19330000  1.0 0.2104584343
C  C9  1  0.29520000  0.02040000  0.03600000  1.0 -0.444122745
C  C10  1  0.44440000  0.79590000  0.23130000  1.0 -0.4904167586
C  C11  1  0.45470000  0.47400000  0.07530000  1.0 0.3723012871
C  C12  1  0.54230000  0.52250000  0.02030000  1.0 0.3723012871
C  C13  1  0.68550000  0.54320000  0.03450000  1.0 -0.0630997949
C  C14  1  0.72280000  0.49230000  0.08970000  1.0 0.5615545875
C  C15  1  0.31130000  0.45980000  0.07200000  1.0 -0.0821734675
C  C16  1  0.27640000  0.50830000  0.00800000  1.0 0.6128524906
C  C17  1  0.74170000  0.64160000  0.07700000  1.0 0.1891441635
C  C18  1  0.30200000  0.46760000  0.19330000  1.0 0.2104584343
C  C19  1  0.72520000  0.70480000  0.03600000  1.0 -0.444122745
C  C20  1  0.35150000  0.55560000  0.23130000  1.0 -0.4904167586
C  C21  1  0.01930000  0.54530000  0.07530000  1.0 0.3723012871
C  C22  1  0.98020000  0.45770000  0.02030000  1.0 0.3723012871
C  C23  1  0.85770000  0.31450000  0.03450000  1.0 -0.0630997949
C  C24  1  0.76950000  0.27720000  0.08970000  1.0 0.5615545875
C  C25  1  0.14850000  0.68870000  0.07200000  1.0 -0.0821734675
C  C26  1  0.23190000  0.72360000  0.00800000  1.0 0.6128524906
C  C27  1  0.89990000  0.25830000  0.07700000  1.0 0.1891441635
C  C28  1  0.16560000  0.69800000  0.19330000  1.0 0.2104584343
C  C29  1  0.97960000  0.27480000  0.03600000  1.0 -0.444122745
C  C30  1  0.20410000  0.64850000  0.23130000  1.0 -0.4904167586
C  C31  1  0.47400000  0.01930000  0.57530000  1.0 0.3723012871
C  C32  1  0.52250000  0.98020000  0.52030000  1.0 0.3723012871
C  C33  1  0.54320000  0.85770000  0.53450000  1.0 -0.0630997949
C  C34  1  0.49230000  0.76950000  0.58970000  1.0 0.5615545875
C  C35  1  0.45980000  0.14850000  0.57200000  1.0 -0.0821734675
C  C36  1  0.50830000  0.23190000  0.50800000  1.0 0.6128524906
C  C37  1  0.64160000  0.89990000  0.57700000  1.0 0.1891441635
C  C38  1  0.46760000  0.16560000  0.69330000  1.0 0.2104584343
C  C39  1  0.70480000  0.97960000  0.53600000  1.0 -0.444122745
C  C40  1  0.55560000  0.20410000  0.73130000  1.0 -0.4904167586
C  C41  1  0.54530000  0.52600000  0.57530000  1.0 0.3723012871
C  C42  1  0.45770000  0.47750000  0.52030000  1.0 0.3723012871
C  C43  1  0.31450000  0.45680000  0.53450000  1.0 -0.0630997949
C  C44  1  0.27720000  0.50770000  0.58970000  1.0 0.5615545875
C  C45  1  0.68870000  0.54020000  0.57200000  1.0 -0.0821734675
C  C46  1  0.72360000  0.49170000  0.50800000  1.0 0.6128524906
C  C47  1  0.25830000  0.35840000  0.57700000  1.0 0.1891441635
C  C48  1  0.69800000  0.53240000  0.69330000  1.0 0.2104584343
C  C49  1  0.27480000  0.29520000  0.53600000  1.0 -0.444122745
C  C50  1  0.64850000  0.44440000  0.73130000  1.0 -0.4904167586
C  C51  1  0.98070000  0.45470000  0.57530000  1.0 0.3723012871
C  C52  1  0.01980000  0.54230000  0.52030000  1.0 0.3723012871
C  C53  1  0.14230000  0.68550000  0.53450000  1.0 -0.0630997949
C  C54  1  0.23050000  0.72280000  0.58970000  1.0 0.5615545875
C  C55  1  0.85150000  0.31130000  0.57200000  1.0 -0.0821734675
C  C56  1  0.76810000  0.27640000  0.50800000  1.0 0.6128524906
C  C57  1  0.10010000  0.74170000  0.57700000  1.0 0.1891441635
C  C58  1  0.83440000  0.30200000  0.69330000  1.0 0.2104584343
C  C59  1  0.02040000  0.72520000  0.53600000  1.0 -0.444122745
C  C60  1  0.79590000  0.35150000  0.73130000  1.0 -0.4904167586
N  N1  1  0.49200000  0.08990000  0.06130000  1.0 -0.3801598582
N  N2  1  0.50190000  0.90360000  0.04060000  1.0 -0.3987243259
N  N3  1  0.59790000  0.50800000  0.06130000  1.0 -0.3801598582
N  N4  1  0.40170000  0.49810000  0.04060000  1.0 -0.3987243259
N  N5  1  0.91010000  0.40210000  0.06130000  1.0 -0.3801598582
N  N6  1  0.09640000  0.59830000  0.04060000  1.0 -0.3987243259
N  N7  1  0.50800000  0.91010000  0.56130000  1.0 -0.3801598582
N  N8  1  0.49810000  0.09640000  0.54060000  1.0 -0.3987243259
N  N9  1  0.40210000  0.49200000  0.56130000  1.0 -0.3801598582
N  N10  1  0.59830000  0.50190000  0.54060000  1.0 -0.3987243259
N  N11  1  0.08990000  0.59790000  0.56130000  1.0 -0.3801598582
N  N12  1  0.90360000  0.40170000  0.54060000  1.0 -0.3987243259
Cl  Cl1  1  0.30300000  0.15500000  0.07600000  1.0 -0.1932199208
Cl  Cl2  1  0.14850000  0.25230000  0.20800000  1.0 -0.6785106792
Cl  Cl3  1  0.36950000  0.20620000  0.32280000  1.0 -0.3181850149
Cl  Cl4  1  0.85200000  0.69700000  0.07600000  1.0 -0.1932199208
Cl  Cl5  1  0.10380000  0.85150000  0.20800000  1.0 -0.6785106792
Cl  Cl6  1  0.83670000  0.63050000  0.32280000  1.0 -0.3181850149
Cl  Cl7  1  0.84500000  0.14800000  0.07600000  1.0 -0.1932199208
Cl  Cl8  1  0.74770000  0.89620000  0.20800000  1.0 -0.6785106792
Cl  Cl9  1  0.79380000  0.16330000  0.32280000  1.0 -0.3181850149
Cl  Cl10  1  0.69700000  0.84500000  0.57600000  1.0 -0.1932199208
Cl  Cl11  1  0.85150000  0.74770000  0.70800000  1.0 -0.6785106792
Cl  Cl12  1  0.63050000  0.79380000  0.82280000  1.0 -0.3181850149
Cl  Cl13  1  0.14800000  0.30300000  0.57600000  1.0 -0.1932199208
Cl  Cl14  1  0.89620000  0.14850000  0.70800000  1.0 -0.6785106792
Cl  Cl15  1  0.16330000  0.36950000  0.82280000  1.0 -0.3181850149
Cl  Cl16  1  0.15500000  0.85200000  0.57600000  1.0 -0.1932199208
Cl  Cl17  1  0.25230000  0.10380000  0.70800000  1.0 -0.6785106792
Cl  Cl18  1  0.20620000  0.83670000  0.82280000  1.0 -0.3181850149
O  O1  1  0.64030000  0.17410000  0.29740000  1.0 -0.7952403062
O  O2  1  0.58200000  0.02440000  0.14650000  1.0 -0.5191996961
O  O3  1  0.55870000  0.23330000  0.16230000  1.0 -0.5191996961
O  O4  1  0.49780000  0.28910000  0.07100000  1.0 -0.479495489
O  O5  1  0.43200000  0.97960000  0.94260000  1.0 -0.4622261757
O  O6  1  0.43960000  0.76450000  0.93670000  1.0 -0.5712526077
O  O7  1  0.50490000  0.70700000  0.03360000  1.0 -0.5191996961
O  O8  1  0.35870000  0.09710000  0.19900000  1.0 -0.4500667039
O  O9  1  0.56900000  0.77940000  0.21370000  1.0 -0.4689208899
O  O10  1  0.53380000  0.35970000  0.29740000  1.0 -0.7883194202
O  O11  1  0.44240000  0.41800000  0.14650000  1.0 -0.514524185
O  O12  1  0.67460000  0.44130000  0.16230000  1.0 -0.5191996961
O  O13  1  0.79130000  0.50220000  0.07100000  1.0 -0.479495489
O  O14  1  0.54760000  0.56800000  0.94260000  1.0 -0.4622261757
O  O15  1  0.32490000  0.56040000  0.93670000  1.0 -0.5712526077
O  O16  1  0.20210000  0.49510000  0.03360000  1.0 -0.5191996961
O  O17  1  0.73840000  0.64130000  0.19900000  1.0 -0.4500667039
O  O18  1  0.21040000  0.43100000  0.21370000  1.0 -0.4689208899
O  O19  1  0.82590000  0.46620000  0.29740000  1.0 -0.7883194202
O  O20  1  0.97560000  0.55760000  0.14650000  1.0 -0.5191996961
O  O21  1  0.76670000  0.32540000  0.16230000  1.0 -0.5191996961
O  O22  1  0.71090000  0.20870000  0.07100000  1.0 -0.479495489
O  O23  1  0.02040000  0.45240000  0.94260000  1.0 -0.4622261757
O  O24  1  0.23550000  0.67510000  0.93670000  1.0 -0.5712526077
O  O25  1  0.29300000  0.79790000  0.03360000  1.0 -0.5191996961
O  O26  1  0.90290000  0.26160000  0.19900000  1.0 -0.4500667039
O  O27  1  0.22060000  0.78960000  0.21370000  1.0 -0.4689208899
O  O28  1  0.35970000  0.82590000  0.79740000  1.0 -0.7883194202
O  O29  1  0.41800000  0.97560000  0.64650000  1.0 -0.5191996961
O  O30  1  0.44130000  0.76670000  0.66230000  1.0 -0.5191996961
O  O31  1  0.50220000  0.71090000  0.57100000  1.0 -0.479495489
O  O32  1  0.56800000  0.02040000  0.44260000  1.0 -0.4622261757
O  O33  1  0.56040000  0.23550000  0.43670000  1.0 -0.5712526077
O  O34  1  0.49510000  0.29300000  0.53360000  1.0 -0.5191996961
O  O35  1  0.64130000  0.90290000  0.69900000  1.0 -0.4500667039
O  O36  1  0.43100000  0.22060000  0.71370000  1.0 -0.4689208899
O  O37  1  0.46620000  0.64030000  0.79740000  1.0 -0.7883194202
O  O38  1  0.55760000  0.58200000  0.64650000  1.0 -0.5191996961
O  O39  1  0.32540000  0.55870000  0.66230000  1.0 -0.5191996961
O  O40  1  0.20870000  0.49780000  0.57100000  1.0 -0.479495489
O  O41  1  0.45240000  0.43200000  0.44260000  1.0 -0.4622261757
O  O42  1  0.67510000  0.43960000  0.43670000  1.0 -0.5712526077
O  O43  1  0.79790000  0.50490000  0.53360000  1.0 -0.5191996961
O  O44  1  0.26160000  0.35870000  0.69900000  1.0 -0.4500667039
O  O45  1  0.78960000  0.56900000  0.71370000  1.0 -0.4689208899
O  O46  1  0.17410000  0.53380000  0.79740000  1.0 -0.7883194202
O  O47  1  0.02440000  0.44240000  0.64650000  1.0 -0.5191996961
O  O48  1  0.23330000  0.67460000  0.66230000  1.0 -0.5191996961
O  O49  1  0.28910000  0.79130000  0.57100000  1.0 -0.479495489
O  O50  1  0.97960000  0.54760000  0.44260000  1.0 -0.4622261757
O  O51  1  0.76450000  0.32490000  0.43670000  1.0 -0.5712526077
O  O52  1  0.70700000  0.20210000  0.53360000  1.0 -0.5191996961
O  O53  1  0.09710000  0.73840000  0.69900000  1.0 -0.4500667039
O  O54  1  0.77940000  0.21040000  0.71370000  1.0 -0.4689208899
