# DDEC6 charges by PACMAN v1.1 (https://github.com/mtap-research/PACMAN-charge/)
data_LIKXUB_FSR_pacman
_symmetry_space_group_name_H-M   'P 1'
_cell_length_a   18.03600000
_cell_length_b   18.03600000
_cell_length_c   12.82400000
_cell_angle_alpha   90.00000000
_cell_angle_beta   90.00000000
_cell_angle_gamma   120.00000000
_symmetry_Int_Tables_number   1
_chemical_formula_structural   SrDy3Cu6H36C30N6(Cl3O10)3
_chemical_formula_sum   'Sr2 Dy6 Cu12 H72 C60 N12 Cl18 O60'
_cell_volume   3612.72242045
_cell_formula_units_Z   2
loop_
 _symmetry_equiv_pos_site_id
 _symmetry_equiv_pos_as_xyz
  1  'x, y, z'
loop_
 _atom_site_type_symbol
 _atom_site_label
 _atom_site_symmetry_multiplicity
 _atom_site_fract_x
 _atom_site_fract_y
 _atom_site_fract_z
 _atom_site_occupancy
 _atom_site_charge
Sr  Sr1  1  0.66666667  0.33333333  0.02730000  1.0 1.46685967
Sr  Sr2  1  0.33333333  0.66666667  0.52730000  1.0 1.46685967
Dy  Dy1  1  0.30600000  0.03200000  0.13800000  1.0 1.6409577444
Dy  Dy2  1  0.72600000  0.69400000  0.13800000  1.0 1.6409577444
Dy  Dy3  1  0.96800000  0.27400000  0.13800000  1.0 1.6409577444
Dy  Dy4  1  0.69400000  0.96800000  0.63800000  1.0 1.6409577444
Dy  Dy5  1  0.27400000  0.30600000  0.63800000  1.0 1.6409577444
Dy  Dy6  1  0.03200000  0.72600000  0.63800000  1.0 1.6409577444
Cu  Cu1  1  0.57743000  0.44203000  0.15717000  1.0 0.9014880672
Cu  Cu2  1  0.57963000  0.44459000  0.89678000  1.0 0.8297353997
Cu  Cu3  1  0.86460000  0.42257000  0.15717000  1.0 0.9014880672
Cu  Cu4  1  0.86496000  0.42037000  0.89678000  1.0 0.8297353997
Cu  Cu5  1  0.55797000  0.13540000  0.15717000  1.0 0.9014880672
Cu  Cu6  1  0.55541000  0.13504000  0.89678000  1.0 0.8297353997
Cu  Cu7  1  0.42257000  0.55797000  0.65717000  1.0 0.9014880672
Cu  Cu8  1  0.42037000  0.55541000  0.39678000  1.0 0.8297353997
Cu  Cu9  1  0.13540000  0.57743000  0.65717000  1.0 0.9014880672
Cu  Cu10  1  0.13504000  0.57963000  0.39678000  1.0 0.8297353997
Cu  Cu11  1  0.44203000  0.86460000  0.65717000  1.0 0.9014880672
Cu  Cu12  1  0.44459000  0.86496000  0.39678000  1.0 0.8297353997
H  H1  1  0.45250000  0.30070000  0.37090000  1.0 0.1340478673
H  H2  1  0.59780000  0.71320000  0.27570000  1.0 0.1194538265
H  H3  1  0.32770000  0.28550000  0.27030000  1.0 0.1139164681
H  H4  1  0.24320000  0.13640000  0.25810000  1.0 0.1387414976
H  H5  1  0.29290000  0.16830000  0.36670000  1.0 0.1896286423
H  H6  1  0.32660000  0.12880000  0.27950000  1.0 0.0708686364
H  H7  1  0.57430000  0.68300000  0.10430000  1.0 0.0423050314
H  H8  1  0.57220000  0.79990000  0.03850000  1.0 0.1340478673
H  H9  1  0.63460000  0.82000000  0.13630000  1.0 0.1778173262
H  H10  1  0.54440000  0.81560000  0.15120000  1.0 0.1594343945
H  H11  1  0.38070000  0.30560000  0.11350000  1.0 0.3766647294
H  H12  1  0.46070000  0.65890000  0.01740000  1.0 0.3590220823
H  H13  1  0.84820000  0.54750000  0.37090000  1.0 0.1340478673
H  H14  1  0.11540000  0.40220000  0.27570000  1.0 0.1194538265
H  H15  1  0.95780000  0.67230000  0.27030000  1.0 0.1139164681
H  H16  1  0.89320000  0.75680000  0.25810000  1.0 0.1387414976
H  H17  1  0.87540000  0.70710000  0.36670000  1.0 0.1896286423
H  H18  1  0.80220000  0.67340000  0.27950000  1.0 0.0708686364
H  H19  1  0.10870000  0.42570000  0.10430000  1.0 0.0423050314
H  H20  1  0.22770000  0.42780000  0.03850000  1.0 0.1340478673
H  H21  1  0.18540000  0.36540000  0.13630000  1.0 0.1778173262
H  H22  1  0.27120000  0.45560000  0.15120000  1.0 0.1594343945
H  H23  1  0.92490000  0.61930000  0.11350000  1.0 0.3766647294
H  H24  1  0.19820000  0.53930000  0.01740000  1.0 0.3590220823
H  H25  1  0.69930000  0.15180000  0.37090000  1.0 0.1387414976
H  H26  1  0.28680000  0.88460000  0.27570000  1.0 0.1194538265
H  H27  1  0.71450000  0.04220000  0.27030000  1.0 0.1139164681
H  H28  1  0.86360000  0.10680000  0.25810000  1.0 0.1387414976
H  H29  1  0.83170000  0.12460000  0.36670000  1.0 0.1896286423
H  H30  1  0.87120000  0.19780000  0.27950000  1.0 0.0708686364
H  H31  1  0.31700000  0.89130000  0.10430000  1.0 0.0423050314
H  H32  1  0.20010000  0.77230000  0.03850000  1.0 0.1340478673
H  H33  1  0.18000000  0.81460000  0.13630000  1.0 0.1778173262
H  H34  1  0.18440000  0.72880000  0.15120000  1.0 0.1594343945
H  H35  1  0.69440000  0.07510000  0.11350000  1.0 0.3766647294
H  H36  1  0.34110000  0.80180000  0.01740000  1.0 0.3590220823
H  H37  1  0.54750000  0.69930000  0.87090000  1.0 0.1387414976
H  H38  1  0.40220000  0.28680000  0.77570000  1.0 0.1194538265
H  H39  1  0.67230000  0.71450000  0.77030000  1.0 0.1139164681
H  H40  1  0.75680000  0.86360000  0.75810000  1.0 0.1387414976
H  H41  1  0.70710000  0.83170000  0.86670000  1.0 0.1896286423
H  H42  1  0.67340000  0.87120000  0.77950000  1.0 0.0708686364
H  H43  1  0.42570000  0.31700000  0.60430000  1.0 0.0423050314
H  H44  1  0.42780000  0.20010000  0.53850000  1.0 0.1340478673
H  H45  1  0.36540000  0.18000000  0.63630000  1.0 0.1778173262
H  H46  1  0.45560000  0.18440000  0.65120000  1.0 0.1594343945
H  H47  1  0.61930000  0.69440000  0.61350000  1.0 0.3766647294
H  H48  1  0.53930000  0.34110000  0.51740000  1.0 0.3590220823
H  H49  1  0.15180000  0.45250000  0.87090000  1.0 0.1387414976
H  H50  1  0.88460000  0.59780000  0.77570000  1.0 0.1194538265
H  H51  1  0.04220000  0.32770000  0.77030000  1.0 0.1139164681
H  H52  1  0.10680000  0.24320000  0.75810000  1.0 0.1387414976
H  H53  1  0.12460000  0.29290000  0.86670000  1.0 0.1896286423
H  H54  1  0.19780000  0.32660000  0.77950000  1.0 0.0708686364
H  H55  1  0.89130000  0.57430000  0.60430000  1.0 0.0423050314
H  H56  1  0.77230000  0.57220000  0.53850000  1.0 0.1340478673
H  H57  1  0.81460000  0.63460000  0.63630000  1.0 0.1778173262
H  H58  1  0.72880000  0.54440000  0.65120000  1.0 0.1594343945
H  H59  1  0.07510000  0.38070000  0.61350000  1.0 0.3766647294
H  H60  1  0.80180000  0.46070000  0.51740000  1.0 0.3590220823
H  H61  1  0.30070000  0.84820000  0.87090000  1.0 0.1387414976
H  H62  1  0.71320000  0.11540000  0.77570000  1.0 0.1194538265
H  H63  1  0.28550000  0.95780000  0.77030000  1.0 0.1139164681
H  H64  1  0.13640000  0.89320000  0.75810000  1.0 0.1387414976
H  H65  1  0.16830000  0.87540000  0.86670000  1.0 0.1896286423
H  H66  1  0.12880000  0.80220000  0.77950000  1.0 0.0708686364
H  H67  1  0.68300000  0.10870000  0.60430000  1.0 0.0423050314
H  H68  1  0.79990000  0.22770000  0.53850000  1.0 0.1340478673
H  H69  1  0.82000000  0.18540000  0.63630000  1.0 0.1778173262
H  H70  1  0.81560000  0.27120000  0.65120000  1.0 0.1594343945
H  H71  1  0.30560000  0.92490000  0.61350000  1.0 0.3766647294
H  H72  1  0.65890000  0.19820000  0.51740000  1.0 0.3590220823
C  C1  1  0.50430000  0.27300000  0.23550000  1.0 0.5729642227
C  C2  1  0.45180000  0.30740000  0.29350000  1.0 -0.0798818306
C  C3  1  0.46960000  0.45290000  0.30900000  1.0 0.4103772357
C  C4  1  0.51950000  0.54170000  0.25220000  1.0 0.3339012578
C  C5  1  0.48830000  0.71990000  0.31610000  1.0 0.6124699428
C  C6  1  0.53660000  0.68260000  0.25290000  1.0 -0.0419903805
C  C7  1  0.35600000  0.25330000  0.24500000  1.0 0.2184365257
C  C8  1  0.30000000  0.16400000  0.29200000  1.0 -0.4839819059
C  C9  1  0.53420000  0.69990000  0.13590000  1.0 0.1976049606
C  C10  1  0.57470000  0.79140000  0.11370000  1.0 -0.4887373731
C  C11  1  0.76870000  0.49570000  0.23550000  1.0 0.5729642227
C  C12  1  0.85560000  0.54820000  0.29350000  1.0 -0.0798818306
C  C13  1  0.98330000  0.53040000  0.30900000  1.0 0.4103772357
C  C14  1  0.02220000  0.48050000  0.25220000  1.0 0.3339012578
C  C15  1  0.23160000  0.51170000  0.31610000  1.0 0.6124699428
C  C16  1  0.14600000  0.46340000  0.25290000  1.0 -0.0419903805
C  C17  1  0.89730000  0.64400000  0.24500000  1.0 0.2184365257
C  C18  1  0.86400000  0.70000000  0.29200000  1.0 -0.4839819059
C  C19  1  0.16570000  0.46580000  0.13590000  1.0 0.1976049606
C  C20  1  0.21670000  0.42530000  0.11370000  1.0 -0.4887373731
C  C21  1  0.72700000  0.23130000  0.23550000  1.0 0.5729642227
C  C22  1  0.69260000  0.14440000  0.29350000  1.0 -0.0798818306
C  C23  1  0.54710000  0.01670000  0.30900000  1.0 0.4103772357
C  C24  1  0.45830000  0.97780000  0.25220000  1.0 0.3339012578
C  C25  1  0.28010000  0.76840000  0.31610000  1.0 0.6124699428
C  C26  1  0.31740000  0.85400000  0.25290000  1.0 -0.0419903805
C  C27  1  0.74670000  0.10270000  0.24500000  1.0 0.2184365257
C  C28  1  0.83600000  0.13600000  0.29200000  1.0 -0.4839819059
C  C29  1  0.30010000  0.83430000  0.13590000  1.0 0.1976049606
C  C30  1  0.20860000  0.78330000  0.11370000  1.0 -0.4887373731
C  C31  1  0.49570000  0.72700000  0.73550000  1.0 0.5729642227
C  C32  1  0.54820000  0.69260000  0.79350000  1.0 -0.0798818306
C  C33  1  0.53040000  0.54710000  0.80900000  1.0 0.4103772357
C  C34  1  0.48050000  0.45830000  0.75220000  1.0 0.3339012578
C  C35  1  0.51170000  0.28010000  0.81610000  1.0 0.6124699428
C  C36  1  0.46340000  0.31740000  0.75290000  1.0 -0.0419903805
C  C37  1  0.64400000  0.74670000  0.74500000  1.0 0.2184365257
C  C38  1  0.70000000  0.83600000  0.79200000  1.0 -0.4887373731
C  C39  1  0.46580000  0.30010000  0.63590000  1.0 0.1976049606
C  C40  1  0.42530000  0.20860000  0.61370000  1.0 -0.4887373731
C  C41  1  0.23130000  0.50430000  0.73550000  1.0 0.5729642227
C  C42  1  0.14440000  0.45180000  0.79350000  1.0 -0.0798818306
C  C43  1  0.01670000  0.46960000  0.80900000  1.0 0.4103772357
C  C44  1  0.97780000  0.51950000  0.75220000  1.0 0.3339012578
C  C45  1  0.76840000  0.48830000  0.81610000  1.0 0.6124699428
C  C46  1  0.85400000  0.53660000  0.75290000  1.0 -0.0419903805
C  C47  1  0.10270000  0.35600000  0.74500000  1.0 0.2184365257
C  C48  1  0.13600000  0.30000000  0.79200000  1.0 -0.4839819059
C  C49  1  0.83430000  0.53420000  0.63590000  1.0 0.1976049606
C  C50  1  0.78330000  0.57470000  0.61370000  1.0 -0.4887373731
C  C51  1  0.27300000  0.76870000  0.73550000  1.0 0.5729642227
C  C52  1  0.30740000  0.85560000  0.79350000  1.0 -0.0798818306
C  C53  1  0.45290000  0.98330000  0.80900000  1.0 0.4103772357
C  C54  1  0.54170000  0.02220000  0.75220000  1.0 0.3339012578
C  C55  1  0.71990000  0.23160000  0.81610000  1.0 0.6124699428
C  C56  1  0.68260000  0.14600000  0.75290000  1.0 -0.0419903805
C  C57  1  0.25330000  0.89730000  0.74500000  1.0 0.2184365257
C  C58  1  0.16400000  0.86400000  0.79200000  1.0 -0.4887373731
C  C59  1  0.69990000  0.16570000  0.63590000  1.0 0.1976049606
C  C60  1  0.79140000  0.21670000  0.61370000  1.0 -0.4887373731
N  N1  1  0.49310000  0.40180000  0.26030000  1.0 -0.4407201395
N  N2  1  0.50110000  0.59680000  0.27970000  1.0 -0.2962107247
N  N3  1  0.90870000  0.50690000  0.26030000  1.0 -0.4407201395
N  N4  1  0.09570000  0.49890000  0.27970000  1.0 -0.2962107247
N  N5  1  0.59820000  0.09130000  0.26030000  1.0 -0.4407201395
N  N6  1  0.40320000  0.90430000  0.27970000  1.0 -0.2962107247
N  N7  1  0.50690000  0.59820000  0.76030000  1.0 -0.4407201395
N  N8  1  0.49890000  0.40320000  0.77970000  1.0 -0.2962107247
N  N9  1  0.09130000  0.49310000  0.76030000  1.0 -0.4407201395
N  N10  1  0.90430000  0.50110000  0.77970000  1.0 -0.2962107247
N  N11  1  0.40180000  0.90870000  0.76030000  1.0 -0.4407201395
N  N12  1  0.59680000  0.09570000  0.77970000  1.0 -0.2962107247
Cl  Cl1  1  0.36600000  0.16600000  0.04900000  1.0 -0.2364493296
Cl  Cl2  1  0.19200000  0.06900000  0.09500000  1.0 -0.3641448782
Cl  Cl3  1  0.23000000  0.98700000  0.31200000  1.0 -0.4962546364
Cl  Cl4  1  0.80000000  0.63400000  0.04900000  1.0 -0.2364493296
Cl  Cl5  1  0.87700000  0.80800000  0.09500000  1.0 -0.3641448782
Cl  Cl6  1  0.75700000  0.77000000  0.31200000  1.0 -0.4962546364
Cl  Cl7  1  0.83400000  0.20000000  0.04900000  1.0 -0.2364493296
Cl  Cl8  1  0.93100000  0.12300000  0.09500000  1.0 -0.3641448782
Cl  Cl9  1  0.01300000  0.24300000  0.31200000  1.0 -0.4962546364
Cl  Cl10  1  0.63400000  0.83400000  0.54900000  1.0 -0.2364493296
Cl  Cl11  1  0.80800000  0.93100000  0.59500000  1.0 -0.3641448782
Cl  Cl12  1  0.77000000  0.01300000  0.81200000  1.0 -0.4962546364
Cl  Cl13  1  0.20000000  0.36600000  0.54900000  1.0 -0.2364493296
Cl  Cl14  1  0.12300000  0.19200000  0.59500000  1.0 -0.3641448782
Cl  Cl15  1  0.24300000  0.23000000  0.81200000  1.0 -0.4962546364
Cl  Cl16  1  0.16600000  0.80000000  0.54900000  1.0 -0.2364493296
Cl  Cl17  1  0.06900000  0.87700000  0.59500000  1.0 -0.3654885576
Cl  Cl18  1  0.98700000  0.75700000  0.81200000  1.0 -0.4962546364
O  O1  1  0.74500000  0.84200000  0.10600000  1.0 -0.6288864971
O  O2  1  0.64030000  0.46580000  0.02400000  1.0 -0.7837851808
O  O3  1  0.55930000  0.32530000  0.16500000  1.0 -0.5516692783
O  O4  1  0.58000000  0.55240000  0.17490000  1.0 -0.6288864971
O  O5  1  0.49500000  0.20560000  0.25760000  1.0 -0.4533284416
O  O6  1  0.42580000  0.44560000  0.37930000  1.0 -0.4060682143
O  O7  1  0.44150000  0.67680000  0.38970000  1.0 -0.5216957614
O  O8  1  0.50780000  0.79790000  0.29620000  1.0 -0.5216957614
O  O9  1  0.34900000  0.25500000  0.13500000  1.0 -0.3484129096
O  O10  1  0.45400000  0.64700000  0.08120000  1.0 -0.4533284416
O  O11  1  0.09700000  0.25500000  0.10600000  1.0 -0.6288864971
O  O12  1  0.82550000  0.35970000  0.02400000  1.0 -0.7915089414
O  O13  1  0.76600000  0.44070000  0.16500000  1.0 -0.5516692783
O  O14  1  0.97240000  0.42000000  0.17490000  1.0 -0.6288864971
O  O15  1  0.71060000  0.50500000  0.25760000  1.0 -0.4533284416
O  O16  1  0.01980000  0.57420000  0.37930000  1.0 -0.4060682143
O  O17  1  0.23530000  0.55850000  0.38970000  1.0 -0.5216957614
O  O18  1  0.29010000  0.49220000  0.29620000  1.0 -0.5216957614
O  O19  1  0.90600000  0.65100000  0.13500000  1.0 -0.3484129096
O  O20  1  0.19300000  0.54600000  0.08120000  1.0 -0.4533284416
O  O21  1  0.15800000  0.90300000  0.10600000  1.0 -0.6239986852
O  O22  1  0.53420000  0.17450000  0.02400000  1.0 -0.7837851808
O  O23  1  0.67470000  0.23400000  0.16500000  1.0 -0.5516692783
O  O24  1  0.44760000  0.02760000  0.17490000  1.0 -0.6288864971
O  O25  1  0.79440000  0.28940000  0.25760000  1.0 -0.4533284416
O  O26  1  0.55440000  0.98020000  0.37930000  1.0 -0.4060682143
O  O27  1  0.32320000  0.76470000  0.38970000  1.0 -0.5216957614
O  O28  1  0.20210000  0.70990000  0.29620000  1.0 -0.5216957614
O  O29  1  0.74500000  0.09400000  0.13500000  1.0 -0.3484129096
O  O30  1  0.35300000  0.80700000  0.08120000  1.0 -0.4533284416
O  O31  1  0.25500000  0.15800000  0.60600000  1.0 -0.6239986852
O  O32  1  0.35970000  0.53420000  0.52400000  1.0 -0.7837851808
O  O33  1  0.44070000  0.67470000  0.66500000  1.0 -0.5516692783
O  O34  1  0.42000000  0.44760000  0.67490000  1.0 -0.6288864971
O  O35  1  0.50500000  0.79440000  0.75760000  1.0 -0.4533284416
O  O36  1  0.57420000  0.55440000  0.87930000  1.0 -0.4060682143
O  O37  1  0.55850000  0.32320000  0.88970000  1.0 -0.5216957614
O  O38  1  0.49220000  0.20210000  0.79620000  1.0 -0.5216957614
O  O39  1  0.65100000  0.74500000  0.63500000  1.0 -0.3484129096
O  O40  1  0.54600000  0.35300000  0.58120000  1.0 -0.4533284416
O  O41  1  0.90300000  0.74500000  0.60600000  1.0 -0.6239986852
O  O42  1  0.17450000  0.64030000  0.52400000  1.0 -0.7837851808
O  O43  1  0.23400000  0.55930000  0.66500000  1.0 -0.5516692783
O  O44  1  0.02760000  0.58000000  0.67490000  1.0 -0.6288864971
O  O45  1  0.28940000  0.49500000  0.75760000  1.0 -0.4533284416
O  O46  1  0.98020000  0.42580000  0.87930000  1.0 -0.4060682143
O  O47  1  0.76470000  0.44150000  0.88970000  1.0 -0.5216957614
O  O48  1  0.70990000  0.50780000  0.79620000  1.0 -0.5216957614
O  O49  1  0.09400000  0.34900000  0.63500000  1.0 -0.3484129096
O  O50  1  0.80700000  0.45400000  0.58120000  1.0 -0.4533284416
O  O51  1  0.84200000  0.09700000  0.60600000  1.0 -0.6239986852
O  O52  1  0.46580000  0.82550000  0.52400000  1.0 -0.7837851808
O  O53  1  0.32530000  0.76600000  0.66500000  1.0 -0.5516692783
O  O54  1  0.55240000  0.97240000  0.67490000  1.0 -0.6288864971
O  O55  1  0.20560000  0.71060000  0.75760000  1.0 -0.4533284416
O  O56  1  0.44560000  0.01980000  0.87930000  1.0 -0.4060682143
O  O57  1  0.67680000  0.23530000  0.88970000  1.0 -0.5216957614
O  O58  1  0.79790000  0.29010000  0.79620000  1.0 -0.5216957614
O  O59  1  0.25500000  0.90600000  0.63500000  1.0 -0.3484129096
O  O60  1  0.64700000  0.19300000  0.58120000  1.0 -0.4533284416
