# DDEC6 charges by PACMAN v1.1 (https://github.com/mtap-research/PACMAN-charge/)
data_LIKYAI_FSR_pacman
_symmetry_space_group_name_H-M   'P 1'
_cell_length_a   17.89360000
_cell_length_b   17.89360000
_cell_length_c   12.94290000
_cell_angle_alpha   90.00000000
_cell_angle_beta   90.00000000
_cell_angle_gamma   120.00000000
_symmetry_Int_Tables_number   1
_chemical_formula_structural   SrEr3Cu6H6C24N6(ClO11)3
_chemical_formula_sum   'Sr2 Er6 Cu12 H12 C48 N12 Cl6 O66'
_cell_volume   3588.86958493
_cell_formula_units_Z   2
loop_
 _symmetry_equiv_pos_site_id
 _symmetry_equiv_pos_as_xyz
  1  'x, y, z'
loop_
 _atom_site_type_symbol
 _atom_site_label
 _atom_site_symmetry_multiplicity
 _atom_site_fract_x
 _atom_site_fract_y
 _atom_site_fract_z
 _atom_site_occupancy
 _atom_site_charge
Sr  Sr1  1  0.33333333  0.66666667  0.84990000  1.0 1.4754166507
Sr  Sr2  1  0.66666667  0.33333333  0.34990000  1.0 1.4754166507
Er  Er1  1  0.98480000  0.32180000  0.84990000  1.0 1.7799506091
Er  Er2  1  0.33700000  0.01520000  0.84990000  1.0 1.7799506091
Er  Er3  1  0.67820000  0.66300000  0.84990000  1.0 1.7799506091
Er  Er4  1  0.01520000  0.67820000  0.34990000  1.0 1.7799506091
Er  Er5  1  0.66300000  0.98480000  0.34990000  1.0 1.7799506091
Er  Er6  1  0.32180000  0.33700000  0.34990000  1.0 1.7799506091
Cu  Cu1  1  0.13481000  0.55926000  0.72161000  1.0 0.8668833279
Cu  Cu2  1  0.13553000  0.55350000  0.98007000  1.0 0.8875753187
Cu  Cu3  1  0.42445000  0.86519000  0.72161000  1.0 0.8668833279
Cu  Cu4  1  0.41797000  0.86447000  0.98007000  1.0 0.8875753187
Cu  Cu5  1  0.44074000  0.57555000  0.72161000  1.0 0.8668833279
Cu  Cu6  1  0.44650000  0.58203000  0.98007000  1.0 0.8875753187
Cu  Cu7  1  0.86519000  0.44074000  0.22161000  1.0 0.8668833279
Cu  Cu8  1  0.86447000  0.44650000  0.48007000  1.0 0.8875753187
Cu  Cu9  1  0.57555000  0.13481000  0.22161000  1.0 0.8668833279
Cu  Cu10  1  0.58203000  0.13553000  0.48007000  1.0 0.8875753187
Cu  Cu11  1  0.55926000  0.42445000  0.22161000  1.0 0.8668833279
Cu  Cu12  1  0.55350000  0.41797000  0.48007000  1.0 0.8875753187
H  H1  1  0.87670000  0.29090000  0.64040000  1.0 0.1317417078
H  H2  1  0.16650000  0.69140000  0.50170000  1.0 0.1607019954
H  H3  1  0.41420000  0.12330000  0.64040000  1.0 0.1317417078
H  H4  1  0.52490000  0.83350000  0.50170000  1.0 0.1607019954
H  H5  1  0.70910000  0.58580000  0.64040000  1.0 0.1317417078
H  H6  1  0.30860000  0.47510000  0.50170000  1.0 0.1607019954
H  H7  1  0.12330000  0.70910000  0.14040000  1.0 0.1317417078
H  H8  1  0.83350000  0.30860000  0.00170000  1.0 0.1607019954
H  H9  1  0.58580000  0.87670000  0.14040000  1.0 0.1317417078
H  H10  1  0.47510000  0.16650000  0.00170000  1.0 0.1607019954
H  H11  1  0.29090000  0.41420000  0.14040000  1.0 0.1317417078
H  H12  1  0.69140000  0.52490000  0.00170000  1.0 0.1607019954
C  C1  1  0.84480000  0.32350000  0.63810000  1.0 -0.1313144288
C  C2  1  0.76800000  0.27930000  0.56270000  1.0 0.6269816759
C  C3  1  0.23630000  0.72540000  0.63930000  1.0 0.6269816759
C  C4  1  0.15290000  0.69150000  0.57660000  1.0 -0.1240753255
C  C5  1  0.97790000  0.46060000  0.63260000  1.0 0.4278441372
C  C6  1  0.02120000  0.54600000  0.57150000  1.0 0.4278441372
C  C7  1  0.11060000  0.74850000  0.59200000  1.0 0.5496477389
C  C8  1  0.80950000  0.32490000  0.74630000  1.0 0.6380561295
C  C9  1  0.47870000  0.15520000  0.63810000  1.0 -0.1313144288
C  C10  1  0.51130000  0.23200000  0.56270000  1.0 0.6269816759
C  C11  1  0.48910000  0.76370000  0.63930000  1.0 0.6269816759
C  C12  1  0.53860000  0.84710000  0.57660000  1.0 -0.1240753255
C  C13  1  0.48270000  0.02210000  0.63260000  1.0 0.4278441372
C  C14  1  0.52480000  0.97880000  0.57150000  1.0 0.4278441372
C  C15  1  0.63790000  0.88940000  0.59200000  1.0 0.5496477389
C  C16  1  0.51540000  0.19050000  0.74630000  1.0 0.6380561295
C  C17  1  0.67650000  0.52130000  0.63810000  1.0 -0.1313144288
C  C18  1  0.72070000  0.48870000  0.56270000  1.0 0.6269816759
C  C19  1  0.27460000  0.51090000  0.63930000  1.0 0.6269816759
C  C20  1  0.30850000  0.46140000  0.57660000  1.0 -0.1240753255
C  C21  1  0.53940000  0.51730000  0.63260000  1.0 0.4278441372
C  C22  1  0.45400000  0.47520000  0.57150000  1.0 0.4278441372
C  C23  1  0.25150000  0.36210000  0.59200000  1.0 0.5496477389
C  C24  1  0.67510000  0.48460000  0.74630000  1.0 0.6380561295
C  C25  1  0.15520000  0.67650000  0.13810000  1.0 -0.1313144288
C  C26  1  0.23200000  0.72070000  0.06270000  1.0 0.6269816759
C  C27  1  0.76370000  0.27460000  0.13930000  1.0 0.6269816759
C  C28  1  0.84710000  0.30850000  0.07660000  1.0 -0.1240753255
C  C29  1  0.02210000  0.53940000  0.13260000  1.0 0.4278441372
C  C30  1  0.97880000  0.45400000  0.07150000  1.0 0.4278441372
C  C31  1  0.88940000  0.25150000  0.09200000  1.0 0.5496477389
C  C32  1  0.19050000  0.67510000  0.24630000  1.0 0.6380561295
C  C33  1  0.52130000  0.84480000  0.13810000  1.0 -0.1313144288
C  C34  1  0.48870000  0.76800000  0.06270000  1.0 0.6269816759
C  C35  1  0.51090000  0.23630000  0.13930000  1.0 0.6269816759
C  C36  1  0.46140000  0.15290000  0.07660000  1.0 -0.1240753255
C  C37  1  0.51730000  0.97790000  0.13260000  1.0 0.4278441372
C  C38  1  0.47520000  0.02120000  0.07150000  1.0 0.4278441372
C  C39  1  0.36210000  0.11060000  0.09200000  1.0 0.5496477389
C  C40  1  0.48460000  0.80950000  0.24630000  1.0 0.6380561295
C  C41  1  0.32350000  0.47870000  0.13810000  1.0 -0.1313144288
C  C42  1  0.27930000  0.51130000  0.06270000  1.0 0.6269816759
C  C43  1  0.72540000  0.48910000  0.13930000  1.0 0.6269816759
C  C44  1  0.69150000  0.53860000  0.07660000  1.0 -0.1240753255
C  C45  1  0.46060000  0.48270000  0.13260000  1.0 0.4278441372
C  C46  1  0.54600000  0.52480000  0.07150000  1.0 0.4278441372
C  C47  1  0.74850000  0.63790000  0.09200000  1.0 0.5496477389
C  C48  1  0.32490000  0.51540000  0.24630000  1.0 0.6380561295
N  N1  1  0.09590000  0.60110000  0.61100000  1.0 -0.3554752267
N  N2  1  0.90040000  0.40910000  0.60100000  1.0 -0.350609337
N  N3  1  0.50520000  0.90410000  0.61100000  1.0 -0.3554752267
N  N4  1  0.50870000  0.09960000  0.60100000  1.0 -0.350609337
N  N5  1  0.39890000  0.49480000  0.61100000  1.0 -0.3554752267
N  N6  1  0.59090000  0.49130000  0.60100000  1.0 -0.350609337
N  N7  1  0.90410000  0.39890000  0.11100000  1.0 -0.3554752267
N  N8  1  0.09960000  0.59090000  0.10100000  1.0 -0.350609337
N  N9  1  0.49480000  0.09590000  0.11100000  1.0 -0.3554752267
N  N10  1  0.49130000  0.90040000  0.10100000  1.0 -0.350609337
N  N11  1  0.60110000  0.50520000  0.11100000  1.0 -0.3554752267
N  N12  1  0.40910000  0.50870000  0.10100000  1.0 -0.350609337
Cl  Cl1  1  0.85100000  0.15000000  0.83500000  1.0 -0.7550552584
Cl  Cl2  1  0.29900000  0.14900000  0.83500000  1.0 -0.7550552584
Cl  Cl3  1  0.85000000  0.70100000  0.83500000  1.0 -0.7550552584
Cl  Cl4  1  0.14900000  0.85000000  0.33500000  1.0 -0.7550552584
Cl  Cl5  1  0.70100000  0.85100000  0.33500000  1.0 -0.7550552584
Cl  Cl6  1  0.15000000  0.29900000  0.33500000  1.0 -0.7550552584
O  O1  1  0.17300000  0.53430000  0.84990000  1.0 -0.8570456899
O  O2  1  0.23690000  0.67780000  0.71140000  1.0 -0.5184613761
O  O3  1  0.29650000  0.79860000  0.61610000  1.0 -0.5184613761
O  O4  1  0.70980000  0.20230000  0.57570000  1.0 -0.5003500081
O  O5  1  0.76500000  0.32430000  0.48660000  1.0 -0.5294341797
O  O6  1  0.01920000  0.45220000  0.70580000  1.0 -0.5184613761
O  O7  1  0.98020000  0.55540000  0.49460000  1.0 -0.53516675
O  O8  1  0.08430000  0.74740000  0.70000000  1.0 -0.298422674
O  O9  1  0.75980000  0.36390000  0.74900000  1.0 -0.3815541016
O  O10  1  0.86300000  0.34200000  0.83800000  1.0 -0.7793355084
O  O11  1  0.02430000  0.73030000  0.56000000  1.0 -0.4654062785
O  O12  1  0.36130000  0.82700000  0.84990000  1.0 -0.8570456899
O  O13  1  0.44090000  0.76310000  0.71140000  1.0 -0.5184613761
O  O14  1  0.50210000  0.70350000  0.61610000  1.0 -0.5184613761
O  O15  1  0.49250000  0.29020000  0.57570000  1.0 -0.5003500081
O  O16  1  0.55930000  0.23500000  0.48660000  1.0 -0.5294341797
O  O17  1  0.43300000  0.98080000  0.70580000  1.0 -0.5184613761
O  O18  1  0.57520000  0.01980000  0.49460000  1.0 -0.5294341797
O  O19  1  0.66310000  0.91570000  0.70000000  1.0 -0.298422674
O  O20  1  0.60410000  0.24020000  0.74900000  1.0 -0.3815541016
O  O21  1  0.47900000  0.13700000  0.83800000  1.0 -0.7793355084
O  O22  1  0.70600000  0.97570000  0.56000000  1.0 -0.4654062785
O  O23  1  0.46570000  0.63870000  0.84990000  1.0 -0.8570456899
O  O24  1  0.32220000  0.55910000  0.71140000  1.0 -0.5184613761
O  O25  1  0.20140000  0.49790000  0.61610000  1.0 -0.5184613761
O  O26  1  0.79770000  0.50750000  0.57570000  1.0 -0.5003500081
O  O27  1  0.67570000  0.44070000  0.48660000  1.0 -0.5294341797
O  O28  1  0.54780000  0.56700000  0.70580000  1.0 -0.5184613761
O  O29  1  0.44460000  0.42480000  0.49460000  1.0 -0.53516675
O  O30  1  0.25260000  0.33690000  0.70000000  1.0 -0.298422674
O  O31  1  0.63610000  0.39590000  0.74900000  1.0 -0.3815541016
O  O32  1  0.65800000  0.52100000  0.83800000  1.0 -0.7793355084
O  O33  1  0.26970000  0.29400000  0.56000000  1.0 -0.4654062785
O  O34  1  0.82700000  0.46570000  0.34990000  1.0 -0.8570456899
O  O35  1  0.76310000  0.32220000  0.21140000  1.0 -0.5184613761
O  O36  1  0.70350000  0.20140000  0.11610000  1.0 -0.5184613761
O  O37  1  0.29020000  0.79770000  0.07570000  1.0 -0.5003500081
O  O38  1  0.23500000  0.67570000  0.98660000  1.0 -0.5294341797
O  O39  1  0.98080000  0.54780000  0.20580000  1.0 -0.5184613761
O  O40  1  0.01980000  0.44460000  0.99460000  1.0 -0.53516675
O  O41  1  0.91570000  0.25260000  0.20000000  1.0 -0.2937874294
O  O42  1  0.24020000  0.63610000  0.24900000  1.0 -0.3815541016
O  O43  1  0.13700000  0.65800000  0.33800000  1.0 -0.7793355084
O  O44  1  0.97570000  0.26970000  0.06000000  1.0 -0.4654062785
O  O45  1  0.63870000  0.17300000  0.34990000  1.0 -0.8570456899
O  O46  1  0.55910000  0.23690000  0.21140000  1.0 -0.5184613761
O  O47  1  0.49790000  0.29650000  0.11610000  1.0 -0.5184613761
O  O48  1  0.50750000  0.70980000  0.07570000  1.0 -0.5003500081
O  O49  1  0.44070000  0.76500000  0.98660000  1.0 -0.5294341797
O  O50  1  0.56700000  0.01920000  0.20580000  1.0 -0.5184613761
O  O51  1  0.42480000  0.98020000  0.99460000  1.0 -0.53516675
O  O52  1  0.33690000  0.08430000  0.20000000  1.0 -0.298422674
O  O53  1  0.39590000  0.75980000  0.24900000  1.0 -0.3815541016
O  O54  1  0.52100000  0.86300000  0.33800000  1.0 -0.7793355084
O  O55  1  0.29400000  0.02430000  0.06000000  1.0 -0.4654062785
O  O56  1  0.53430000  0.36130000  0.34990000  1.0 -0.8570456899
O  O57  1  0.67780000  0.44090000  0.21140000  1.0 -0.5184613761
O  O58  1  0.79860000  0.50210000  0.11610000  1.0 -0.5184613761
O  O59  1  0.20230000  0.49250000  0.07570000  1.0 -0.5003500081
O  O60  1  0.32430000  0.55930000  0.98660000  1.0 -0.5294341797
O  O61  1  0.45220000  0.43300000  0.20580000  1.0 -0.5184613761
O  O62  1  0.55540000  0.57520000  0.99460000  1.0 -0.53516675
O  O63  1  0.74740000  0.66310000  0.20000000  1.0 -0.2937874294
O  O64  1  0.36390000  0.60410000  0.24900000  1.0 -0.3815541016
O  O65  1  0.34200000  0.47900000  0.33800000  1.0 -0.7793355084
O  O66  1  0.73030000  0.70600000  0.06000000  1.0 -0.4647199906
