# DDEC6 charges by PACMAN v1.1 (https://github.com/mtap-research/PACMAN-charge/)
data_LIMRUY_ASR_pacman
_symmetry_space_group_name_H-M   'P 1'
_cell_length_a   10.04770000
_cell_length_b   10.94150000
_cell_length_c   25.72600000
_cell_angle_alpha   90.00000000
_cell_angle_beta   90.00000000
_cell_angle_gamma   90.00000000
_symmetry_Int_Tables_number   1
_chemical_formula_structural   ZrC21N3O16
_chemical_formula_sum   'Zr4 C84 N12 O64'
_cell_volume   2828.23693508
_cell_formula_units_Z   4
loop_
 _symmetry_equiv_pos_site_id
 _symmetry_equiv_pos_as_xyz
  1  'x, y, z'
loop_
 _atom_site_type_symbol
 _atom_site_label
 _atom_site_symmetry_multiplicity
 _atom_site_fract_x
 _atom_site_fract_y
 _atom_site_fract_z
 _atom_site_occupancy
 _atom_site_charge
Zr  Zr1  1  0.50000000  0.74400000  0.62270000  1.0 1.1319050561
Zr  Zr2  1  0.00000000  0.24400000  0.12270000  1.0 1.1364591292
Zr  Zr3  1  0.50000000  0.24400000  0.37730000  1.0 1.1319050561
Zr  Zr4  1  0.00000000  0.74400000  0.87730000  1.0 1.1319050561
C  C1  1  0.14900000  0.64500000  0.79100000  1.0 0.1273306583
C  C2  1  0.35100000  0.14500000  0.29100000  1.0 0.1273306583
C  C3  1  0.85100000  0.14500000  0.20900000  1.0 0.1273306583
C  C4  1  0.64900000  0.64500000  0.70900000  1.0 0.1273306583
C  C5  1  0.22500000  0.64200000  0.74700000  1.0 -0.2371924424
C  C6  1  0.27500000  0.14200000  0.24700000  1.0 -0.2371924424
C  C7  1  0.77500000  0.14200000  0.25300000  1.0 -0.2371924424
C  C8  1  0.72500000  0.64200000  0.75300000  1.0 -0.2371924424
C  C9  1  0.26600000  0.74700000  0.72530000  1.0 0.3297978437
C  C10  1  0.23400000  0.24700000  0.22530000  1.0 0.3297978437
C  C11  1  0.73400000  0.24700000  0.27470000  1.0 0.3297978437
C  C12  1  0.76600000  0.74700000  0.77470000  1.0 0.3297978437
C  C13  1  0.23300000  0.85500000  0.74700000  1.0 -0.1972958909
C  C14  1  0.26700000  0.35500000  0.24700000  1.0 -0.1972958909
C  C15  1  0.76700000  0.35500000  0.25300000  1.0 -0.1972958909
C  C16  1  0.73300000  0.85500000  0.75300000  1.0 -0.1972958909
C  C17  1  0.15700000  0.85900000  0.79000000  1.0 0.1273306583
C  C18  1  0.34300000  0.35900000  0.29000000  1.0 0.1273306583
C  C19  1  0.84300000  0.35900000  0.21000000  1.0 0.1273306583
C  C20  1  0.65700000  0.85900000  0.71000000  1.0 0.1273306583
C  C21  1  0.10000000  0.53600000  0.81600000  1.0 0.5423131159
C  C22  1  0.40000000  0.03600000  0.31600000  1.0 0.5423131159
C  C23  1  0.90000000  0.03600000  0.18400000  1.0 0.5423131159
C  C24  1  0.60000000  0.53600000  0.68400000  1.0 0.5423131159
C  C25  1  0.11000000  0.96200000  0.81900000  1.0 0.4989319912
C  C26  1  0.39000000  0.46200000  0.31900000  1.0 0.4989319912
C  C27  1  0.89000000  0.46200000  0.18100000  1.0 0.4989319912
C  C28  1  0.61000000  0.96200000  0.68100000  1.0 0.4989319912
C  C29  1  0.64300000  0.85900000  0.53800000  1.0 -0.1663613224
C  C30  1  0.85700000  0.35900000  0.03800000  1.0 -0.1663613224
C  C31  1  0.35700000  0.35900000  0.46200000  1.0 -0.1663613224
C  C32  1  0.14300000  0.85900000  0.96200000  1.0 -0.1663613224
C  C33  1  0.65900000  0.94500000  0.49300000  1.0 -0.0528066948
C  C34  1  0.84100000  0.44500000  0.99300000  1.0 -0.0528066948
C  C35  1  0.34100000  0.44500000  0.50700000  1.0 -0.0528066948
C  C36  1  0.15900000  0.94500000  0.00700000  1.0 -0.0528066948
C  C37  1  0.54300000  0.02000000  0.47500000  1.0 0.1802795774
C  C38  1  0.95700000  0.52000000  0.97500000  1.0 0.1802795774
C  C39  1  0.45700000  0.52000000  0.52500000  1.0 0.1802795774
C  C40  1  0.04300000  0.02000000  0.02500000  1.0 0.1802795774
C  C41  1  0.41100000  0.00900000  0.50100000  1.0 -0.0123708851
C  C42  1  0.08900000  0.50900000  0.00100000  1.0 -0.0123708851
C  C43  1  0.58900000  0.50900000  0.49900000  1.0 -0.0123708851
C  C44  1  0.91100000  0.00900000  0.99900000  1.0 -0.0123708851
C  C45  1  0.39500000  0.92300000  0.54600000  1.0 0.2476644761
C  C46  1  0.10500000  0.42300000  0.04600000  1.0 0.2476644761
C  C47  1  0.60500000  0.42300000  0.45400000  1.0 0.2476644761
C  C48  1  0.89500000  0.92300000  0.95400000  1.0 0.2476644761
C  C49  1  0.74500000  0.78200000  0.56000000  1.0 0.3114581179
C  C50  1  0.75500000  0.28200000  0.06000000  1.0 0.3114581179
C  C51  1  0.25500000  0.28200000  0.44000000  1.0 0.3114581179
C  C52  1  0.24500000  0.78200000  0.94000000  1.0 0.3114581179
C  C53  1  0.27900000  0.89700000  0.57800000  1.0 0.4266668033
C  C54  1  0.22100000  0.39700000  0.07800000  1.0 0.424752014
C  C55  1  0.72100000  0.39700000  0.42200000  1.0 0.4266668033
C  C56  1  0.77900000  0.89700000  0.92200000  1.0 0.4266668033
C  C57  1  0.35300000  0.12400000  0.46000000  1.0 -0.1256611214
C  C58  1  0.14700000  0.62400000  0.96000000  1.0 -0.1256611214
C  C59  1  0.64700000  0.62400000  0.54000000  1.0 -0.1256611214
C  C60  1  0.85300000  0.12400000  0.04000000  1.0 -0.1256611214
C  C61  1  0.33500000  0.03600000  0.50400000  1.0 -0.0571704505
C  C62  1  0.16500000  0.53600000  0.00400000  1.0 -0.0571704505
C  C63  1  0.66500000  0.53600000  0.49600000  1.0 -0.0571704505
C  C64  1  0.83500000  0.03600000  0.99600000  1.0 -0.0571704505
C  C65  1  0.45200000  0.96500000  0.52400000  1.0 0.1802795774
C  C66  1  0.04800000  0.46500000  0.02400000  1.0 0.1802795774
C  C67  1  0.54800000  0.46500000  0.47600000  1.0 0.1802795774
C  C68  1  0.95200000  0.96500000  0.97600000  1.0 0.1802795774
C  C69  1  0.58600000  0.98100000  0.50000000  1.0 -0.0173241314
C  C70  1  0.91400000  0.48100000  0.00000000  1.0 -0.0173241314
C  C71  1  0.41400000  0.48100000  0.50000000  1.0 -0.0173241314
C  C72  1  0.08600000  0.98100000  0.00000000  1.0 -0.0173241314
C  C73  1  0.60400000  0.06800000  0.45600000  1.0 0.2381289398
C  C74  1  0.89600000  0.56800000  0.95600000  1.0 0.2381289398
C  C75  1  0.39600000  0.56800000  0.54400000  1.0 0.2381289398
C  C76  1  0.10400000  0.06800000  0.04400000  1.0 0.2381289398
C  C77  1  0.25100000  0.20000000  0.43700000  1.0 0.3114581179
C  C78  1  0.24900000  0.70000000  0.93700000  1.0 0.3114581179
C  C79  1  0.74900000  0.70000000  0.56300000  1.0 0.3114581179
C  C80  1  0.75100000  0.20000000  0.06300000  1.0 0.3114581179
C  C81  1  0.72200000  0.10000000  0.42700000  1.0 0.3161669146
C  C82  1  0.77800000  0.60000000  0.92700000  1.0 0.3161669146
C  C83  1  0.27800000  0.60000000  0.57300000  1.0 0.3161669146
C  C84  1  0.22200000  0.10000000  0.07300000  1.0 0.3114581179
N  N1  1  0.11900000  0.75300000  0.81000000  1.0 -0.3581031987
N  N2  1  0.38100000  0.25300000  0.31000000  1.0 -0.3581031987
N  N3  1  0.88100000  0.25300000  0.19000000  1.0 -0.3581031987
N  N4  1  0.61900000  0.75300000  0.69000000  1.0 -0.3581031987
N  N5  1  0.51200000  0.85800000  0.56000000  1.0 -0.0844436614
N  N6  1  0.98800000  0.35800000  0.06000000  1.0 -0.0844436614
N  N7  1  0.48800000  0.35800000  0.44000000  1.0 -0.0844436614
N  N8  1  0.01200000  0.85800000  0.94000000  1.0 -0.0858835706
N  N9  1  0.48600000  0.13000000  0.44100000  1.0 -0.0714576013
N  N10  1  0.01400000  0.63000000  0.94100000  1.0 -0.0714576013
N  N11  1  0.51400000  0.63000000  0.55900000  1.0 -0.0714576013
N  N12  1  0.98600000  0.13000000  0.05900000  1.0 -0.0714576013
O  O1  1  0.02000000  0.54000000  0.85300000  1.0 -0.5109335014
O  O2  1  0.48000000  0.04000000  0.35300000  1.0 -0.5109335014
O  O3  1  0.98000000  0.04000000  0.14700000  1.0 -0.5109335014
O  O4  1  0.52000000  0.54000000  0.64700000  1.0 -0.5109335014
O  O5  1  0.03000000  0.95000000  0.85600000  1.0 -0.2880103046
O  O6  1  0.47000000  0.45000000  0.35600000  1.0 -0.2880103046
O  O7  1  0.97000000  0.45000000  0.14400000  1.0 -0.2880103046
O  O8  1  0.53000000  0.95000000  0.64400000  1.0 -0.2880103046
O  O9  1  0.14000000  0.43300000  0.80100000  1.0 -0.3490286896
O  O10  1  0.36000000  0.93300000  0.30100000  1.0 -0.3490286896
O  O11  1  0.86000000  0.93300000  0.19900000  1.0 -0.3490286896
O  O12  1  0.64000000  0.43300000  0.69900000  1.0 -0.3490286896
O  O13  1  0.15000000  0.06700000  0.80900000  1.0 -0.3087620268
O  O14  1  0.35000000  0.56700000  0.30900000  1.0 -0.3087620268
O  O15  1  0.85000000  0.56700000  0.19100000  1.0 -0.3087620268
O  O16  1  0.65000000  0.06700000  0.69100000  1.0 -0.3087620268
O  O17  1  0.34200000  0.74400000  0.68200000  1.0 -0.3392491767
O  O18  1  0.15800000  0.24400000  0.18200000  1.0 -0.3392491767
O  O19  1  0.65800000  0.24400000  0.31800000  1.0 -0.3392491767
O  O20  1  0.84200000  0.74400000  0.81800000  1.0 -0.3392491767
O  O21  1  0.71800000  0.71000000  0.60000000  1.0 -0.0173241314
O  O22  1  0.78200000  0.21000000  0.10000000  1.0 -0.0173241314
O  O23  1  0.28200000  0.21000000  0.40000000  1.0 -0.0173241314
O  O24  1  0.21800000  0.71000000  0.90000000  1.0 -0.0173241314
O  O25  1  0.86600000  0.78000000  0.54000000  1.0 -0.0714576013
O  O26  1  0.63400000  0.28000000  0.04000000  1.0 -0.0714576013
O  O27  1  0.13400000  0.28000000  0.46000000  1.0 -0.0714576013
O  O28  1  0.36600000  0.78000000  0.96000000  1.0 -0.0714576013
O  O29  1  0.29000000  0.83000000  0.61900000  1.0 -0.1972958909
O  O30  1  0.21000000  0.33000000  0.11900000  1.0 -0.1972958909
O  O31  1  0.71000000  0.33000000  0.38100000  1.0 -0.1972958909
O  O32  1  0.79000000  0.83000000  0.88100000  1.0 -0.1972958909
O  O33  1  0.16300000  0.94000000  0.56500000  1.0 -0.4020617136
O  O34  1  0.33700000  0.44000000  0.06500000  1.0 -0.4020617136
O  O35  1  0.83700000  0.44000000  0.43500000  1.0 -0.4020617136
O  O36  1  0.66300000  0.94000000  0.93500000  1.0 -0.4020617136
O  O37  1  0.55800000  0.09800000  0.43400000  1.0 -0.0173241314
O  O38  1  0.94200000  0.59800000  0.93400000  1.0 -0.0173241314
O  O39  1  0.44200000  0.59800000  0.56600000  1.0 -0.0173241314
O  O40  1  0.05800000  0.09800000  0.06600000  1.0 -0.0173241314
O  O41  1  0.92100000  0.95000000  0.82100000  1.0 -0.2880103046
O  O42  1  0.57900000  0.45000000  0.32100000  1.0 -0.2880103046
O  O43  1  0.07900000  0.45000000  0.17900000  1.0 -0.2880103046
O  O44  1  0.42100000  0.95000000  0.67900000  1.0 -0.2880103046
O  O45  1  0.28000000  0.27000000  0.39800000  1.0 -0.0528066948
O  O46  1  0.22000000  0.77000000  0.89800000  1.0 -0.0528066948
O  O47  1  0.72000000  0.77000000  0.60200000  1.0 -0.0528066948
O  O48  1  0.78000000  0.27000000  0.10200000  1.0 -0.0528066948
O  O49  1  0.12800000  0.19000000  0.45500000  1.0 -0.0714576013
O  O50  1  0.37200000  0.69000000  0.95500000  1.0 -0.0714576013
O  O51  1  0.87200000  0.69000000  0.54500000  1.0 -0.0714576013
O  O52  1  0.62800000  0.19000000  0.04500000  1.0 -0.0714576013
O  O53  1  0.71400000  0.17000000  0.38500000  1.0 -0.2308287749
O  O54  1  0.78600000  0.67000000  0.88500000  1.0 -0.2308287749
O  O55  1  0.28600000  0.67000000  0.61500000  1.0 -0.2308287749
O  O56  1  0.21400000  0.17000000  0.11500000  1.0 -0.2308287749
O  O57  1  0.83900000  0.05000000  0.44100000  1.0 -0.4317256639
O  O58  1  0.66100000  0.55000000  0.94100000  1.0 -0.4317256639
O  O59  1  0.16100000  0.55000000  0.55900000  1.0 -0.4317256639
O  O60  1  0.33900000  0.05000000  0.05900000  1.0 -0.4317256639
O  O61  1  0.43500000  0.88500000  0.56400000  1.0 -0.0123708851
O  O62  1  0.06500000  0.38500000  0.06400000  1.0 -0.0123708851
O  O63  1  0.56500000  0.38500000  0.43600000  1.0 -0.0123708851
O  O64  1  0.93500000  0.88500000  0.93600000  1.0 -0.0123708851
