# DDEC6 charges by PACMAN v1.1 (https://github.com/mtap-research/PACMAN-charge/)
data_LIMSAF_FSR_pacman
_symmetry_space_group_name_H-M   'P 1'
_cell_length_a   10.21910000
_cell_length_b   10.33210000
_cell_length_c   26.14000000
_cell_angle_alpha   90.00000000
_cell_angle_beta   90.00000000
_cell_angle_gamma   90.00000000
_symmetry_Int_Tables_number   1
_chemical_formula_structural   ZrC21(NO5)3
_chemical_formula_sum   'Zr4 C84 N12 O60'
_cell_volume   2759.98570770
_cell_formula_units_Z   4
loop_
 _symmetry_equiv_pos_site_id
 _symmetry_equiv_pos_as_xyz
  1  'x, y, z'
loop_
 _atom_site_type_symbol
 _atom_site_label
 _atom_site_symmetry_multiplicity
 _atom_site_fract_x
 _atom_site_fract_y
 _atom_site_fract_z
 _atom_site_occupancy
 _atom_site_charge
Zr  Zr1  1  0.50000000  0.74000000  0.62340000  1.0 1.0984167202
Zr  Zr2  1  0.00000000  0.24000000  0.12340000  1.0 1.0984167202
Zr  Zr3  1  0.50000000  0.24000000  0.37660000  1.0 1.0984167202
Zr  Zr4  1  0.00000000  0.74000000  0.87660000  1.0 1.0946273748
C  C1  1  0.15000000  0.62700000  0.78900000  1.0 0.1222877149
C  C2  1  0.35000000  0.12700000  0.28900000  1.0 0.1222877149
C  C3  1  0.85000000  0.12700000  0.21100000  1.0 0.1222877149
C  C4  1  0.65000000  0.62700000  0.71100000  1.0 0.1222877149
C  C5  1  0.22600000  0.62900000  0.74000000  1.0 -0.202782208
C  C6  1  0.27400000  0.12900000  0.24000000  1.0 -0.202782208
C  C7  1  0.77400000  0.12900000  0.26000000  1.0 -0.202782208
C  C8  1  0.72600000  0.62900000  0.76000000  1.0 -0.202782208
C  C9  1  0.26500000  0.75500000  0.71800000  1.0 0.3444667403
C  C10  1  0.23500000  0.25500000  0.21800000  1.0 0.3456246301
C  C11  1  0.73500000  0.25500000  0.28200000  1.0 0.3456246301
C  C12  1  0.76500000  0.75500000  0.78200000  1.0 0.3456246301
C  C13  1  0.22900000  0.87800000  0.74300000  1.0 -0.2328145745
C  C14  1  0.27100000  0.37800000  0.24300000  1.0 -0.2328145745
C  C15  1  0.77100000  0.37800000  0.25700000  1.0 -0.2328145745
C  C16  1  0.72900000  0.87800000  0.75700000  1.0 -0.2328145745
C  C17  1  0.15300000  0.87600000  0.79200000  1.0 0.0933081899
C  C18  1  0.34700000  0.37600000  0.29200000  1.0 0.0933081899
C  C19  1  0.84700000  0.37600000  0.20800000  1.0 0.0954740737
C  C20  1  0.65300000  0.87600000  0.70800000  1.0 0.0933081899
C  C21  1  0.10000000  0.51400000  0.81600000  1.0 0.5646118466
C  C22  1  0.40000000  0.01400000  0.31600000  1.0 0.5646118466
C  C23  1  0.90000000  0.01400000  0.18400000  1.0 0.5646118466
C  C24  1  0.60000000  0.51400000  0.68400000  1.0 0.5646118466
C  C25  1  0.11000000  0.98000000  0.82300000  1.0 0.5233528559
C  C26  1  0.39000000  0.48000000  0.32300000  1.0 0.5233528559
C  C27  1  0.89000000  0.48000000  0.17700000  1.0 0.5233528559
C  C28  1  0.61000000  0.98000000  0.67700000  1.0 0.5233528559
C  C29  1  0.64500000  0.85000000  0.54000000  1.0 -0.0427313754
C  C30  1  0.85500000  0.35000000  0.04000000  1.0 -0.0427313754
C  C31  1  0.35500000  0.35000000  0.46000000  1.0 -0.0427313754
C  C32  1  0.14500000  0.85000000  0.96000000  1.0 -0.0427313754
C  C33  1  0.66500000  0.94200000  0.49600000  1.0 -0.0965321467
C  C34  1  0.83500000  0.44200000  0.99600000  1.0 -0.0900890547
C  C35  1  0.33500000  0.44200000  0.50400000  1.0 -0.0965321467
C  C36  1  0.16500000  0.94200000  0.00400000  1.0 -0.0965321467
C  C37  1  0.55500000  0.02900000  0.47900000  1.0 0.1912018676
C  C38  1  0.94500000  0.52900000  0.97900000  1.0 0.1912018676
C  C39  1  0.44500000  0.52900000  0.52100000  1.0 0.1912018676
C  C40  1  0.05500000  0.02900000  0.02100000  1.0 0.1912018676
C  C41  1  0.42600000  0.02400000  0.50600000  1.0 -0.0286418302
C  C42  1  0.07400000  0.52400000  0.00600000  1.0 -0.0286418302
C  C43  1  0.57400000  0.52400000  0.49400000  1.0 -0.0286418302
C  C44  1  0.92600000  0.02400000  0.99400000  1.0 -0.0286418302
C  C45  1  0.40600000  0.93200000  0.55000000  1.0 0.2276579403
C  C46  1  0.09400000  0.43200000  0.05000000  1.0 0.2276579403
C  C47  1  0.59400000  0.43200000  0.45000000  1.0 0.2276579403
C  C48  1  0.90600000  0.93200000  0.95000000  1.0 0.2276579403
C  C49  1  0.73900000  0.76000000  0.56100000  1.0 0.3577604574
C  C50  1  0.76100000  0.26000000  0.06100000  1.0 0.3577604574
C  C51  1  0.26100000  0.26000000  0.43900000  1.0 0.3577604574
C  C52  1  0.23900000  0.76000000  0.93900000  1.0 0.3577604574
C  C53  1  0.29200000  0.91000000  0.58100000  1.0 0.4521867279
C  C54  1  0.20800000  0.41000000  0.08100000  1.0 0.4521867279
C  C55  1  0.70800000  0.41000000  0.41900000  1.0 0.4521867279
C  C56  1  0.79200000  0.91000000  0.91900000  1.0 0.4521867279
C  C57  1  0.35200000  0.13100000  0.46000000  1.0 -0.0195382451
C  C58  1  0.14800000  0.63100000  0.96000000  1.0 -0.0195382451
C  C59  1  0.64800000  0.63100000  0.54000000  1.0 -0.0195382451
C  C60  1  0.85200000  0.13100000  0.04000000  1.0 -0.0195382451
C  C61  1  0.33200000  0.04500000  0.50500000  1.0 -0.1107966753
C  C62  1  0.16800000  0.54500000  0.00500000  1.0 -0.1107966753
C  C63  1  0.66800000  0.54500000  0.49500000  1.0 -0.1107966753
C  C64  1  0.83200000  0.04500000  0.99500000  1.0 -0.1107966753
C  C65  1  0.44100000  0.96000000  0.52400000  1.0 0.1912018676
C  C66  1  0.05900000  0.46000000  0.02400000  1.0 0.1912018676
C  C67  1  0.55900000  0.46000000  0.47600000  1.0 0.1912018676
C  C68  1  0.94100000  0.96000000  0.97600000  1.0 0.1912018676
C  C69  1  0.57100000  0.96200000  0.49700000  1.0 -0.0115019074
C  C70  1  0.92900000  0.46200000  0.99700000  1.0 -0.0115019074
C  C71  1  0.42900000  0.46200000  0.50300000  1.0 -0.0115019074
C  C72  1  0.07100000  0.96200000  0.00300000  1.0 -0.0115019074
C  C73  1  0.59100000  0.04800000  0.45100000  1.0 0.2276579403
C  C74  1  0.90900000  0.54800000  0.95100000  1.0 0.2276579403
C  C75  1  0.40900000  0.54800000  0.54900000  1.0 0.2276579403
C  C76  1  0.09100000  0.04800000  0.04900000  1.0 0.2276579403
C  C77  1  0.26000000  0.22000000  0.43700000  1.0 0.3577604574
C  C78  1  0.24000000  0.72000000  0.93700000  1.0 0.3577604574
C  C79  1  0.74000000  0.72000000  0.56300000  1.0 0.3577604574
C  C80  1  0.76000000  0.22000000  0.06300000  1.0 0.3577604574
C  C81  1  0.70500000  0.07000000  0.42000000  1.0 0.4643177533
C  C82  1  0.79500000  0.57000000  0.92000000  1.0 0.4655447845
C  C83  1  0.29500000  0.57000000  0.58000000  1.0 0.4643177533
C  C84  1  0.20500000  0.07000000  0.08000000  1.0 0.4643177533
N  N1  1  0.12400000  0.75000000  0.80800000  1.0 -0.4677044134
N  N2  1  0.37600000  0.25000000  0.30800000  1.0 -0.4677044134
N  N3  1  0.87600000  0.25000000  0.19200000  1.0 -0.4677044134
N  N4  1  0.62400000  0.75000000  0.69200000  1.0 -0.4677044134
N  N5  1  0.51800000  0.85700000  0.56100000  1.0 -0.0515183182
N  N6  1  0.98200000  0.35700000  0.06100000  1.0 -0.0515183182
N  N7  1  0.48200000  0.35700000  0.43900000  1.0 -0.0515183182
N  N8  1  0.01800000  0.85700000  0.93900000  1.0 -0.0515183182
N  N9  1  0.47900000  0.12100000  0.43900000  1.0 -0.0816213097
N  N10  1  0.02100000  0.62100000  0.93900000  1.0 -0.0900890547
N  N11  1  0.52100000  0.62100000  0.56100000  1.0 -0.0816213097
N  N12  1  0.97900000  0.12100000  0.06100000  1.0 -0.0816213097
O  O1  1  0.02000000  0.53000000  0.85300000  1.0 -0.5894603934
O  O2  1  0.48000000  0.03000000  0.35300000  1.0 -0.5894603934
O  O3  1  0.98000000  0.03000000  0.14700000  1.0 -0.5894603934
O  O4  1  0.52000000  0.53000000  0.64700000  1.0 -0.5894603934
O  O5  1  0.02000000  0.96000000  0.86100000  1.0 -0.6321905162
O  O6  1  0.48000000  0.46000000  0.36100000  1.0 -0.6321905162
O  O7  1  0.98000000  0.46000000  0.13900000  1.0 -0.6321905162
O  O8  1  0.52000000  0.96000000  0.63900000  1.0 -0.6321905162
O  O9  1  0.15000000  0.39800000  0.80300000  1.0 -0.4207074474
O  O10  1  0.35000000  0.89800000  0.30300000  1.0 -0.4207074474
O  O11  1  0.85000000  0.89800000  0.19700000  1.0 -0.4207074474
O  O12  1  0.65000000  0.39800000  0.69700000  1.0 -0.4207074474
O  O13  1  0.15000000  0.09900000  0.81500000  1.0 -0.3189946965
O  O14  1  0.35000000  0.59900000  0.31500000  1.0 -0.3285366352
O  O15  1  0.85000000  0.59900000  0.18500000  1.0 -0.3189946965
O  O16  1  0.65000000  0.09900000  0.68500000  1.0 -0.3189946965
O  O17  1  0.33400000  0.76000000  0.67300000  1.0 -0.2511394973
O  O18  1  0.16600000  0.26000000  0.17300000  1.0 -0.2511394973
O  O19  1  0.66600000  0.26000000  0.32700000  1.0 -0.2511394973
O  O20  1  0.83400000  0.76000000  0.82700000  1.0 -0.2511394973
O  O21  1  0.71000000  0.68000000  0.59500000  1.0 -0.0731757804
O  O22  1  0.79000000  0.18000000  0.09500000  1.0 -0.0731757804
O  O23  1  0.29000000  0.18000000  0.40500000  1.0 -0.0731757804
O  O24  1  0.21000000  0.68000000  0.90500000  1.0 -0.0731757804
O  O25  1  0.85000000  0.76000000  0.54500000  1.0 -0.1431562253
O  O26  1  0.65000000  0.26000000  0.04500000  1.0 -0.1431562253
O  O27  1  0.15000000  0.26000000  0.45500000  1.0 -0.1431562253
O  O28  1  0.35000000  0.76000000  0.95500000  1.0 -0.1486615147
O  O29  1  0.29400000  0.83000000  0.61500000  1.0 -0.1431562253
O  O30  1  0.20600000  0.33000000  0.11500000  1.0 -0.1431562253
O  O31  1  0.70600000  0.33000000  0.38500000  1.0 -0.1431562253
O  O32  1  0.79400000  0.83000000  0.88500000  1.0 -0.1486615147
O  O33  1  0.19100000  0.98000000  0.57400000  1.0 -0.402844971
O  O34  1  0.30900000  0.48000000  0.07400000  1.0 -0.402844971
O  O35  1  0.80900000  0.48000000  0.42600000  1.0 -0.402844971
O  O36  1  0.69100000  0.98000000  0.92600000  1.0 -0.402844971
O  O37  1  0.57400000  0.11000000  0.44000000  1.0 -0.0115019074
O  O38  1  0.92600000  0.61000000  0.94000000  1.0 -0.0115019074
O  O39  1  0.42600000  0.61000000  0.56000000  1.0 -0.0115019074
O  O40  1  0.07400000  0.11000000  0.06000000  1.0 -0.0115019074
O  O41  1  0.29000000  0.29000000  0.40200000  1.0 -0.1107966753
O  O42  1  0.21000000  0.79000000  0.90200000  1.0 -0.1162329819
O  O43  1  0.71000000  0.79000000  0.59800000  1.0 -0.1107966753
O  O44  1  0.79000000  0.29000000  0.09800000  1.0 -0.1107966753
O  O45  1  0.14000000  0.22000000  0.45400000  1.0 -0.1335903164
O  O46  1  0.36000000  0.72000000  0.95400000  1.0 -0.1431562253
O  O47  1  0.86000000  0.72000000  0.54600000  1.0 -0.1335903164
O  O48  1  0.64000000  0.22000000  0.04600000  1.0 -0.1335903164
O  O49  1  0.70000000  0.15000000  0.38400000  1.0 -0.2184206005
O  O50  1  0.80000000  0.65000000  0.88400000  1.0 -0.2141969557
O  O51  1  0.30000000  0.65000000  0.61600000  1.0 -0.2141969557
O  O52  1  0.20000000  0.15000000  0.11600000  1.0 -0.2141969557
O  O53  1  0.80500000  0.00000000  0.42800000  1.0 -0.409545822
O  O54  1  0.69500000  0.50000000  0.92800000  1.0 -0.409545822
O  O55  1  0.19500000  0.50000000  0.57200000  1.0 -0.409545822
O  O56  1  0.30500000  0.00000000  0.07200000  1.0 -0.409545822
O  O57  1  0.42300000  0.88000000  0.56500000  1.0 -0.0039889613
O  O58  1  0.07700000  0.38000000  0.06500000  1.0 -0.0039889613
O  O59  1  0.57700000  0.38000000  0.43500000  1.0 -0.0039889613
O  O60  1  0.92300000  0.88000000  0.93500000  1.0 -0.0115019074
