# DDEC6 charges by PACMAN v1.1 (https://github.com/mtap-research/PACMAN-charge/)
data_LIPQIL_ion_pacman
_symmetry_space_group_name_H-M   'P 1'
_cell_length_a   18.31300000
_cell_length_b   18.31300000
_cell_length_c   18.31300000
_cell_angle_alpha   109.47100000
_cell_angle_beta   109.47100000
_cell_angle_gamma   109.47100000
_symmetry_Int_Tables_number   1
_chemical_formula_structural   Cu6H36C42N24Cl5O28
_chemical_formula_sum   'Cu12 H72 C84 N48 Cl10 O56'
_cell_volume   4727.81139518
_cell_formula_units_Z   2
loop_
 _symmetry_equiv_pos_site_id
 _symmetry_equiv_pos_as_xyz
  1  'x, y, z'
loop_
 _atom_site_type_symbol
 _atom_site_label
 _atom_site_symmetry_multiplicity
 _atom_site_fract_x
 _atom_site_fract_y
 _atom_site_fract_z
 _atom_site_occupancy
 _atom_site_charge
Cu  Cu1  1  0.46155000  0.46155000  0.34834000  1.0 0.767183786
Cu  Cu2  1  0.11321000  0.11321000  0.65166000  1.0 0.767183786
Cu  Cu3  1  0.88679000  0.53845000  0.00000000  1.0 0.767183786
Cu  Cu4  1  0.53845000  0.88679000  0.00000000  1.0 0.767183786
Cu  Cu5  1  0.34834000  0.46155000  0.46155000  1.0 0.767183786
Cu  Cu6  1  0.65166000  0.11321000  0.11321000  1.0 0.767183786
Cu  Cu7  1  0.00000000  0.88679000  0.53845000  1.0 0.767183786
Cu  Cu8  1  0.00000000  0.53845000  0.88679000  1.0 0.767183786
Cu  Cu9  1  0.46155000  0.34834000  0.46155000  1.0 0.767183786
Cu  Cu10  1  0.11321000  0.65166000  0.11321000  1.0 0.767183786
Cu  Cu11  1  0.53845000  0.00000000  0.88679000  1.0 0.767183786
Cu  Cu12  1  0.88679000  0.00000000  0.53845000  1.0 0.767183786
H  H1  1  0.21360000  0.58920000  0.21360000  1.0 0.1327976905
H  H2  1  0.37560000  0.00000000  0.78640000  1.0 0.1327976905
H  H3  1  0.62440000  0.41080000  0.62440000  1.0 0.1327976905
H  H4  1  0.78640000  0.00000000  0.37560000  1.0 0.1327976905
H  H5  1  0.21360000  0.21360000  0.58920000  1.0 0.1327976905
H  H6  1  0.78640000  0.37560000  0.00000000  1.0 0.1327976905
H  H7  1  0.62440000  0.62440000  0.41080000  1.0 0.1327976905
H  H8  1  0.37560000  0.78640000  0.00000000  1.0 0.1327976905
H  H9  1  0.58920000  0.21360000  0.21360000  1.0 0.1327976905
H  H10  1  0.00000000  0.78640000  0.37560000  1.0 0.1327976905
H  H11  1  0.41080000  0.62440000  0.62440000  1.0 0.1327976905
H  H12  1  0.00000000  0.37560000  0.78640000  1.0 0.1327976905
H  H13  1  0.26600000  0.83160000  0.26600000  1.0 0.1214654318
H  H14  1  0.56560000  0.00000000  0.73400000  1.0 0.1148083283
H  H15  1  0.43440000  0.16840000  0.43440000  1.0 0.1148083283
H  H16  1  0.73400000  0.00000000  0.56560000  1.0 0.1148083283
H  H17  1  0.26600000  0.26600000  0.83160000  1.0 0.1148083283
H  H18  1  0.73400000  0.56560000  0.00000000  1.0 0.1214654318
H  H19  1  0.43440000  0.43440000  0.16840000  1.0 0.1214654318
H  H20  1  0.56560000  0.73400000  0.00000000  1.0 0.1148083283
H  H21  1  0.83160000  0.26600000  0.26600000  1.0 0.1148083283
H  H22  1  0.00000000  0.73400000  0.56560000  1.0 0.1214654318
H  H23  1  0.16840000  0.43440000  0.43440000  1.0 0.1214654318
H  H24  1  0.00000000  0.56560000  0.73400000  1.0 0.1214654318
H  H25  1  0.39320000  0.89100000  0.39320000  1.0 0.1327976905
H  H26  1  0.49780000  0.00000000  0.60680000  1.0 0.1327976905
H  H27  1  0.50220000  0.10900000  0.50220000  1.0 0.1327976905
H  H28  1  0.60680000  0.00000000  0.49780000  1.0 0.1327976905
H  H29  1  0.39320000  0.39320000  0.89100000  1.0 0.1327976905
H  H30  1  0.60680000  0.49780000  0.00000000  1.0 0.1327976905
H  H31  1  0.50220000  0.50220000  0.10900000  1.0 0.1327976905
H  H32  1  0.49780000  0.60680000  0.00000000  1.0 0.1327976905
H  H33  1  0.89100000  0.39320000  0.39320000  1.0 0.1327976905
H  H34  1  0.00000000  0.60680000  0.49780000  1.0 0.1327976905
H  H35  1  0.10900000  0.50220000  0.50220000  1.0 0.1327976905
H  H36  1  0.00000000  0.49780000  0.60680000  1.0 0.1327976905
H  H37  1  0.43430000  0.79520000  0.43430000  1.0 0.141006023
H  H38  1  0.36090000  0.00000000  0.56570000  1.0 0.141006023
H  H39  1  0.63910000  0.20480000  0.63910000  1.0 0.141006023
H  H40  1  0.56570000  0.00000000  0.36090000  1.0 0.141006023
H  H41  1  0.43430000  0.43430000  0.79520000  1.0 0.141006023
H  H42  1  0.56570000  0.36090000  0.00000000  1.0 0.141006023
H  H43  1  0.63910000  0.63910000  0.20480000  1.0 0.141006023
H  H44  1  0.36090000  0.56570000  0.00000000  1.0 0.141006023
H  H45  1  0.79520000  0.43430000  0.43430000  1.0 0.141006023
H  H46  1  0.00000000  0.56570000  0.36090000  1.0 0.141006023
H  H47  1  0.20480000  0.63910000  0.63910000  1.0 0.141006023
H  H48  1  0.00000000  0.36090000  0.56570000  1.0 0.141006023
H  H49  1  0.41990000  0.59710000  0.28880000  1.0 0.1214654318
H  H50  1  0.30830000  0.13110000  0.71120000  1.0 0.1214654318
H  H51  1  0.69170000  0.40290000  0.82280000  1.0 0.1214654318
H  H52  1  0.58010000  0.86890000  0.17720000  1.0 0.1214654318
H  H53  1  0.28880000  0.41990000  0.59710000  1.0 0.1214654318
H  H54  1  0.71120000  0.30830000  0.13110000  1.0 0.1214654318
H  H55  1  0.82280000  0.69170000  0.40290000  1.0 0.1214654318
H  H56  1  0.17720000  0.58010000  0.86890000  1.0 0.1214654318
H  H57  1  0.59710000  0.28880000  0.41990000  1.0 0.1214654318
H  H58  1  0.13110000  0.71120000  0.30830000  1.0 0.1214654318
H  H59  1  0.40290000  0.82280000  0.69170000  1.0 0.1214654318
H  H60  1  0.86890000  0.17720000  0.58010000  1.0 0.1214654318
H  H61  1  0.59710000  0.41990000  0.28880000  1.0 0.1214654318
H  H62  1  0.13110000  0.30830000  0.71120000  1.0 0.1214654318
H  H63  1  0.40290000  0.69170000  0.82280000  1.0 0.1214654318
H  H64  1  0.86890000  0.58010000  0.17720000  1.0 0.1214654318
H  H65  1  0.41990000  0.28880000  0.59710000  1.0 0.1214654318
H  H66  1  0.30830000  0.71120000  0.13110000  1.0 0.1214654318
H  H67  1  0.69170000  0.82280000  0.40290000  1.0 0.1214654318
H  H68  1  0.58010000  0.17720000  0.86890000  1.0 0.1214654318
H  H69  1  0.28880000  0.59710000  0.41990000  1.0 0.1214654318
H  H70  1  0.71120000  0.13110000  0.30830000  1.0 0.1214654318
H  H71  1  0.82280000  0.40290000  0.69170000  1.0 0.1214654318
H  H72  1  0.17720000  0.86890000  0.58010000  1.0 0.1214654318
C  C1  1  0.25030000  0.65100000  0.25030000  1.0 0.003883725
C  C2  1  0.40070000  0.00000000  0.74970000  1.0 0.003883725
C  C3  1  0.59930000  0.34900000  0.59930000  1.0 0.003883725
C  C4  1  0.74970000  0.00000000  0.40070000  1.0 0.003883725
C  C5  1  0.25030000  0.25030000  0.65100000  1.0 0.003883725
C  C6  1  0.74970000  0.40070000  0.00000000  1.0 0.003883725
C  C7  1  0.59930000  0.59930000  0.34900000  1.0 0.003883725
C  C8  1  0.40070000  0.74970000  0.00000000  1.0 0.003883725
C  C9  1  0.65100000  0.25030000  0.25030000  1.0 0.003883725
C  C10  1  0.00000000  0.74970000  0.40070000  1.0 0.003883725
C  C11  1  0.34900000  0.59930000  0.59930000  1.0 0.003883725
C  C12  1  0.00000000  0.40070000  0.74970000  1.0 0.003883725
C  C13  1  0.28150000  0.79340000  0.28150000  1.0 0.0628947271
C  C14  1  0.51190000  0.00000000  0.71850000  1.0 0.0628947271
C  C15  1  0.48810000  0.20660000  0.48810000  1.0 0.0628947271
C  C16  1  0.71850000  0.00000000  0.51190000  1.0 0.0628947271
C  C17  1  0.28150000  0.28150000  0.79340000  1.0 0.0628947271
C  C18  1  0.71850000  0.51190000  0.00000000  1.0 0.0628947271
C  C19  1  0.48810000  0.48810000  0.20660000  1.0 0.0628947271
C  C20  1  0.51190000  0.71850000  0.00000000  1.0 0.0628947271
C  C21  1  0.79340000  0.28150000  0.28150000  1.0 0.0628947271
C  C22  1  0.00000000  0.71850000  0.51190000  1.0 0.0628947271
C  C23  1  0.20660000  0.48810000  0.48810000  1.0 0.0628947271
C  C24  1  0.00000000  0.51190000  0.71850000  1.0 0.0628947271
C  C25  1  0.35720000  0.82920000  0.35720000  1.0 -0.1043837545
C  C26  1  0.47200000  0.00000000  0.64280000  1.0 -0.1043837545
C  C27  1  0.52800000  0.17080000  0.52800000  1.0 -0.1043837545
C  C28  1  0.64280000  0.00000000  0.47200000  1.0 -0.1043837545
C  C29  1  0.35720000  0.35720000  0.82920000  1.0 -0.1043837545
C  C30  1  0.64280000  0.47200000  0.00000000  1.0 -0.1043837545
C  C31  1  0.52800000  0.52800000  0.17080000  1.0 -0.1043837545
C  C32  1  0.47200000  0.64280000  0.00000000  1.0 -0.1043837545
C  C33  1  0.82920000  0.35720000  0.35720000  1.0 -0.1043837545
C  C34  1  0.00000000  0.64280000  0.47200000  1.0 -0.1043837545
C  C35  1  0.17080000  0.52800000  0.52800000  1.0 -0.1043837545
C  C36  1  0.00000000  0.47200000  0.64280000  1.0 -0.1043837545
C  C37  1  0.38200000  0.77240000  0.38200000  1.0 -0.0803683471
C  C38  1  0.39040000  0.00000000  0.61800000  1.0 -0.0803683471
C  C39  1  0.60960000  0.22760000  0.60960000  1.0 -0.0803683471
C  C40  1  0.61800000  0.00000000  0.39040000  1.0 -0.0803683471
C  C41  1  0.38200000  0.38200000  0.77240000  1.0 -0.0803683471
C  C42  1  0.61800000  0.39040000  0.00000000  1.0 -0.0803683471
C  C43  1  0.60960000  0.60960000  0.22760000  1.0 -0.0803683471
C  C44  1  0.39040000  0.61800000  0.00000000  1.0 -0.0803683471
C  C45  1  0.77240000  0.38200000  0.38200000  1.0 -0.0803683471
C  C46  1  0.00000000  0.61800000  0.39040000  1.0 -0.0803683471
C  C47  1  0.22760000  0.60960000  0.60960000  1.0 -0.0803683471
C  C48  1  0.00000000  0.39040000  0.61800000  1.0 -0.0803683471
C  C49  1  0.32740000  0.68500000  0.32740000  1.0 0.1148083283
C  C50  1  0.35760000  0.00000000  0.67260000  1.0 0.1148083283
C  C51  1  0.64240000  0.31500000  0.64240000  1.0 0.1148083283
C  C52  1  0.67260000  0.00000000  0.35760000  1.0 0.1148083283
C  C53  1  0.32740000  0.32740000  0.68500000  1.0 0.1148083283
C  C54  1  0.67260000  0.35760000  0.00000000  1.0 0.1148083283
C  C55  1  0.64240000  0.64240000  0.31500000  1.0 0.1148083283
C  C56  1  0.35760000  0.67260000  0.00000000  1.0 0.1148083283
C  C57  1  0.68500000  0.32740000  0.32740000  1.0 0.1148083283
C  C58  1  0.00000000  0.67260000  0.35760000  1.0 0.1148083283
C  C59  1  0.31500000  0.64240000  0.64240000  1.0 0.1148083283
C  C60  1  0.00000000  0.35760000  0.67260000  1.0 0.1148083283
C  C61  1  0.39460000  0.58510000  0.32270000  1.0 0.141006023
C  C62  1  0.26240000  0.07190000  0.67730000  1.0 0.141006023
C  C63  1  0.73760000  0.41490000  0.80950000  1.0 0.141006023
C  C64  1  0.60540000  0.92810000  0.19050000  1.0 0.141006023
C  C65  1  0.32270000  0.39460000  0.58510000  1.0 0.141006023
C  C66  1  0.67730000  0.26240000  0.07190000  1.0 0.141006023
C  C67  1  0.80950000  0.73760000  0.41490000  1.0 0.141006023
C  C68  1  0.19050000  0.60540000  0.92810000  1.0 0.141006023
C  C69  1  0.58510000  0.32270000  0.39460000  1.0 0.141006023
C  C70  1  0.07190000  0.67730000  0.26240000  1.0 0.141006023
C  C71  1  0.41490000  0.80950000  0.73760000  1.0 0.141006023
C  C72  1  0.92810000  0.19050000  0.60540000  1.0 0.141006023
C  C73  1  0.58510000  0.39460000  0.32270000  1.0 0.141006023
C  C74  1  0.07190000  0.26240000  0.67730000  1.0 0.141006023
C  C75  1  0.41490000  0.73760000  0.80950000  1.0 0.141006023
C  C76  1  0.92810000  0.60540000  0.19050000  1.0 0.141006023
C  C77  1  0.39460000  0.32270000  0.58510000  1.0 0.141006023
C  C78  1  0.26240000  0.67730000  0.07190000  1.0 0.141006023
C  C79  1  0.73760000  0.80950000  0.41490000  1.0 0.141006023
C  C80  1  0.60540000  0.19050000  0.92810000  1.0 0.141006023
C  C81  1  0.32270000  0.58510000  0.39460000  1.0 0.141006023
C  C82  1  0.67730000  0.07190000  0.26240000  1.0 0.141006023
C  C83  1  0.80950000  0.41490000  0.73760000  1.0 0.141006023
C  C84  1  0.19050000  0.92810000  0.60540000  1.0 0.141006023
N  N1  1  0.22690000  0.70500000  0.22690000  1.0 -0.2213043418
N  N2  1  0.47810000  0.00000000  0.77310000  1.0 -0.2213043418
N  N3  1  0.52190000  0.29500000  0.52190000  1.0 -0.2213043418
N  N4  1  0.77310000  0.00000000  0.47810000  1.0 -0.2213043418
N  N5  1  0.22690000  0.22690000  0.70500000  1.0 -0.2213043418
N  N6  1  0.77310000  0.47810000  0.00000000  1.0 -0.2213043418
N  N7  1  0.52190000  0.52190000  0.29500000  1.0 -0.2213043418
N  N8  1  0.47810000  0.77310000  0.00000000  1.0 -0.2213043418
N  N9  1  0.70500000  0.22690000  0.22690000  1.0 -0.2213043418
N  N10  1  0.00000000  0.77310000  0.47810000  1.0 -0.2213043418
N  N11  1  0.29500000  0.52190000  0.52190000  1.0 -0.2213043418
N  N12  1  0.00000000  0.47810000  0.77310000  1.0 -0.2213043418
N  N13  1  0.34830000  0.62180000  0.34830000  1.0 -0.0052663725
N  N14  1  0.27350000  0.00000000  0.65170000  1.0 -0.0052663725
N  N15  1  0.72650000  0.37820000  0.72650000  1.0 -0.0052663725
N  N16  1  0.65170000  0.00000000  0.27350000  1.0 -0.0052663725
N  N17  1  0.34830000  0.34830000  0.62180000  1.0 -0.0052663725
N  N18  1  0.65170000  0.27350000  0.00000000  1.0 -0.0052663725
N  N19  1  0.72650000  0.72650000  0.37820000  1.0 -0.0052663725
N  N20  1  0.27350000  0.65170000  0.00000000  1.0 -0.0047232632
N  N21  1  0.62180000  0.34830000  0.34830000  1.0 -0.0052663725
N  N22  1  0.00000000  0.65170000  0.27350000  1.0 -0.0052663725
N  N23  1  0.37820000  0.72650000  0.72650000  1.0 -0.0052663725
N  N24  1  0.00000000  0.27350000  0.65170000  1.0 -0.0052663725
N  N25  1  0.39810000  0.53130000  0.35220000  1.0 -0.1668073041
N  N26  1  0.17910000  0.04590000  0.64780000  1.0 -0.1668073041
N  N27  1  0.82090000  0.46870000  0.86680000  1.0 -0.1668073041
N  N28  1  0.60190000  0.95410000  0.13320000  1.0 -0.1668073041
N  N29  1  0.35220000  0.39810000  0.53130000  1.0 -0.1668073041
N  N30  1  0.64780000  0.17910000  0.04590000  1.0 -0.1668073041
N  N31  1  0.86680000  0.82090000  0.46870000  1.0 -0.1668073041
N  N32  1  0.13320000  0.60190000  0.95410000  1.0 -0.1668073041
N  N33  1  0.53130000  0.35220000  0.39810000  1.0 -0.1668073041
N  N34  1  0.04590000  0.64780000  0.17910000  1.0 -0.1668073041
N  N35  1  0.46870000  0.86680000  0.82090000  1.0 -0.1668073041
N  N36  1  0.95410000  0.13320000  0.60190000  1.0 -0.1668073041
N  N37  1  0.53130000  0.39810000  0.35220000  1.0 -0.1668073041
N  N38  1  0.04590000  0.17910000  0.64780000  1.0 -0.1668073041
N  N39  1  0.46870000  0.82090000  0.86680000  1.0 -0.1668073041
N  N40  1  0.95410000  0.60190000  0.13320000  1.0 -0.1668073041
N  N41  1  0.39810000  0.35220000  0.53130000  1.0 -0.1668073041
N  N42  1  0.17910000  0.64780000  0.04590000  1.0 -0.1668073041
N  N43  1  0.82090000  0.86680000  0.46870000  1.0 -0.1668073041
N  N44  1  0.60190000  0.13320000  0.95410000  1.0 -0.1668073041
N  N45  1  0.35220000  0.53130000  0.39810000  1.0 -0.1668073041
N  N46  1  0.64780000  0.04590000  0.17910000  1.0 -0.1668073041
N  N47  1  0.86680000  0.46870000  0.82090000  1.0 -0.1668073041
N  N48  1  0.13320000  0.95410000  0.60190000  1.0 -0.1668073041
Cl  Cl1  1  0.00000000  0.00000000  0.41980000  1.0 1.2658737405
Cl  Cl2  1  0.58020000  0.58020000  0.58020000  1.0 1.2626704825
Cl  Cl3  1  0.41980000  0.00000000  0.00000000  1.0 1.2626704825
Cl  Cl4  1  0.00000000  0.41980000  0.00000000  1.0 1.2658737405
Cl  Cl5  1  0.75000000  0.25000000  0.50000000  1.0 1.2626704825
Cl  Cl6  1  0.25000000  0.75000000  0.50000000  1.0 1.2626704825
Cl  Cl7  1  0.25000000  0.50000000  0.75000000  1.0 1.2626704825
Cl  Cl8  1  0.75000000  0.50000000  0.25000000  1.0 1.2626704825
Cl  Cl9  1  0.50000000  0.75000000  0.25000000  1.0 1.2626704825
Cl  Cl10  1  0.50000000  0.25000000  0.75000000  1.0 1.2626704825
O  O1  1  0.92380000  0.00000000  0.41960000  1.0 -0.508676017
O  O2  1  0.58040000  0.50420000  0.58040000  1.0 -0.508676017
O  O3  1  0.41960000  0.00000000  0.92380000  1.0 -0.508676017
O  O4  1  0.07620000  0.49580000  0.07620000  1.0 -0.508676017
O  O5  1  0.41960000  0.92380000  0.00000000  1.0 -0.508676017
O  O6  1  0.58040000  0.58040000  0.50420000  1.0 -0.508676017
O  O7  1  0.92380000  0.41960000  0.00000000  1.0 -0.508676017
O  O8  1  0.07620000  0.07620000  0.49580000  1.0 -0.508676017
O  O9  1  0.00000000  0.41960000  0.92380000  1.0 -0.508676017
O  O10  1  0.50420000  0.58040000  0.58040000  1.0 -0.508676017
O  O11  1  0.00000000  0.92380000  0.41960000  1.0 -0.508676017
O  O12  1  0.49580000  0.07620000  0.07620000  1.0 -0.508676017
O  O13  1  0.00000000  0.00000000  0.34400000  1.0 -0.3921975589
O  O14  1  0.65600000  0.65600000  0.65600000  1.0 -0.3921975589
O  O15  1  0.34400000  0.00000000  0.00000000  1.0 -0.3953849571
O  O16  1  0.00000000  0.34400000  0.00000000  1.0 -0.3921975589
O  O17  1  0.40040000  0.40040000  0.40040000  1.0 -0.7625231789
O  O18  1  0.00000000  0.00000000  0.59960000  1.0 -0.7625231789
O  O19  1  0.00000000  0.59960000  0.00000000  1.0 -0.7625231789
O  O20  1  0.59960000  0.00000000  0.00000000  1.0 -0.7625231789
O  O21  1  0.33660000  0.33660000  0.21260000  1.0 -0.3784606086
O  O22  1  0.12400000  0.12400000  0.78740000  1.0 -0.3784606086
O  O23  1  0.87600000  0.66340000  0.00000000  1.0 -0.3784606086
O  O24  1  0.66340000  0.87600000  0.00000000  1.0 -0.3784606086
O  O25  1  0.21260000  0.33660000  0.33660000  1.0 -0.3784606086
O  O26  1  0.78740000  0.12400000  0.12400000  1.0 -0.3722776668
O  O27  1  0.00000000  0.87600000  0.66340000  1.0 -0.3784606086
O  O28  1  0.00000000  0.66340000  0.87600000  1.0 -0.3784606086
O  O29  1  0.33660000  0.21260000  0.33660000  1.0 -0.3784606086
O  O30  1  0.12400000  0.78740000  0.12400000  1.0 -0.3784606086
O  O31  1  0.66340000  0.00000000  0.87600000  1.0 -0.3722776668
O  O32  1  0.87600000  0.00000000  0.66340000  1.0 -0.3784606086
O  O33  1  0.76410000  0.22750000  0.56980000  1.0 -0.5175201045
O  O34  1  0.65770000  0.19430000  0.43020000  1.0 -0.5175201045
O  O35  1  0.77250000  0.34230000  0.53660000  1.0 -0.5175201045
O  O36  1  0.80570000  0.23590000  0.46340000  1.0 -0.5175201045
O  O37  1  0.34230000  0.77250000  0.53660000  1.0 -0.5175201045
O  O38  1  0.23590000  0.80570000  0.46340000  1.0 -0.5175201045
O  O39  1  0.22750000  0.76410000  0.56980000  1.0 -0.5175201045
O  O40  1  0.19430000  0.65770000  0.43020000  1.0 -0.5175201045
O  O41  1  0.22750000  0.56980000  0.76410000  1.0 -0.5175201045
O  O42  1  0.19430000  0.43020000  0.65770000  1.0 -0.5175201045
O  O43  1  0.34230000  0.53660000  0.77250000  1.0 -0.5175201045
O  O44  1  0.23590000  0.46340000  0.80570000  1.0 -0.5175201045
O  O45  1  0.77250000  0.53660000  0.34230000  1.0 -0.5175201045
O  O46  1  0.80570000  0.46340000  0.23590000  1.0 -0.5175201045
O  O47  1  0.76410000  0.56980000  0.22750000  1.0 -0.5175201045
O  O48  1  0.65770000  0.43020000  0.19430000  1.0 -0.5175201045
O  O49  1  0.56980000  0.76410000  0.22750000  1.0 -0.5175201045
O  O50  1  0.43020000  0.65770000  0.19430000  1.0 -0.5175201045
O  O51  1  0.53660000  0.77250000  0.34230000  1.0 -0.5175201045
O  O52  1  0.46340000  0.80570000  0.23590000  1.0 -0.5175201045
O  O53  1  0.53660000  0.34230000  0.77250000  1.0 -0.5175201045
O  O54  1  0.46340000  0.23590000  0.80570000  1.0 -0.5175201045
O  O55  1  0.56980000  0.22750000  0.76410000  1.0 -0.5175201045
O  O56  1  0.43020000  0.19430000  0.65770000  1.0 -0.5175201045
