# DDEC6 charges by PACMAN v1.1 (https://github.com/mtap-research/PACMAN-charge/)
data_LIPRAE_ion_pacman
_symmetry_space_group_name_H-M   'P 1'
_cell_length_a   18.30070000
_cell_length_b   18.30070000
_cell_length_c   18.30070000
_cell_angle_alpha   109.47100000
_cell_angle_beta   109.47100000
_cell_angle_gamma   109.47100000
_symmetry_Int_Tables_number   1
_chemical_formula_structural   Cu6H36C42N24Cl5O28
_chemical_formula_sum   'Cu12 H72 C84 N48 Cl10 O56'
_cell_volume   4718.29143163
_cell_formula_units_Z   2
loop_
 _symmetry_equiv_pos_site_id
 _symmetry_equiv_pos_as_xyz
  1  'x, y, z'
loop_
 _atom_site_type_symbol
 _atom_site_label
 _atom_site_symmetry_multiplicity
 _atom_site_fract_x
 _atom_site_fract_y
 _atom_site_fract_z
 _atom_site_occupancy
 _atom_site_charge
Cu  Cu1  1  0.65650000  0.54215000  0.54215000  1.0 0.778125463
Cu  Cu2  1  0.00000000  0.11435000  0.45785000  1.0 0.778125463
Cu  Cu3  1  0.00000000  0.45785000  0.11435000  1.0 0.778125463
Cu  Cu4  1  0.34350000  0.88565000  0.88565000  1.0 0.778125463
Cu  Cu5  1  0.54215000  0.65650000  0.54215000  1.0 0.778125463
Cu  Cu6  1  0.45785000  0.00000000  0.11435000  1.0 0.778125463
Cu  Cu7  1  0.11435000  0.00000000  0.45785000  1.0 0.778125463
Cu  Cu8  1  0.88565000  0.34350000  0.88565000  1.0 0.778125463
Cu  Cu9  1  0.54215000  0.54215000  0.65650000  1.0 0.778125463
Cu  Cu10  1  0.11435000  0.45785000  0.00000000  1.0 0.778125463
Cu  Cu11  1  0.45785000  0.11435000  0.00000000  1.0 0.778125463
Cu  Cu12  1  0.88565000  0.88565000  0.34350000  1.0 0.778125463
H  H1  1  0.73170000  0.16460000  0.73170000  1.0 0.123554799
H  H2  1  0.43290000  0.00000000  0.26830000  1.0 0.123554799
H  H3  1  0.56710000  0.83540000  0.56710000  1.0 0.123554799
H  H4  1  0.26830000  0.00000000  0.43290000  1.0 0.123554799
H  H5  1  0.73170000  0.73170000  0.16460000  1.0 0.123554799
H  H6  1  0.26830000  0.43290000  0.00000000  1.0 0.123554799
H  H7  1  0.56710000  0.56710000  0.83540000  1.0 0.123554799
H  H8  1  0.43290000  0.26830000  0.00000000  1.0 0.123554799
H  H9  1  0.16460000  0.73170000  0.73170000  1.0 0.123554799
H  H10  1  0.00000000  0.26830000  0.43290000  1.0 0.123554799
H  H11  1  0.83540000  0.56710000  0.56710000  1.0 0.123554799
H  H12  1  0.00000000  0.43290000  0.26830000  1.0 0.123554799
H  H13  1  0.60460000  0.10800000  0.60460000  1.0 0.1335116258
H  H14  1  0.50340000  0.00000000  0.39540000  1.0 0.1335116258
H  H15  1  0.49660000  0.89200000  0.49660000  1.0 0.1335116258
H  H16  1  0.39540000  0.00000000  0.50340000  1.0 0.1335116258
H  H17  1  0.60460000  0.60460000  0.10800000  1.0 0.1335116258
H  H18  1  0.39540000  0.50340000  0.00000000  1.0 0.1335116258
H  H19  1  0.49660000  0.49660000  0.89200000  1.0 0.1335116258
H  H20  1  0.50340000  0.39540000  0.00000000  1.0 0.1335116258
H  H21  1  0.10800000  0.60460000  0.60460000  1.0 0.1335116258
H  H22  1  0.00000000  0.39540000  0.50340000  1.0 0.1335116258
H  H23  1  0.89200000  0.49660000  0.49660000  1.0 0.1335116258
H  H24  1  0.00000000  0.50340000  0.39540000  1.0 0.1335116258
H  H25  1  0.56400000  0.20260000  0.56400000  1.0 0.1394831022
H  H26  1  0.63860000  0.00000000  0.43600000  1.0 0.1394831022
H  H27  1  0.36140000  0.79740000  0.36140000  1.0 0.1394831022
H  H28  1  0.43600000  0.00000000  0.63860000  1.0 0.1394831022
H  H29  1  0.56400000  0.56400000  0.20260000  1.0 0.1394831022
H  H30  1  0.43600000  0.63860000  0.00000000  1.0 0.1394831022
H  H31  1  0.36140000  0.36140000  0.79740000  1.0 0.1394831022
H  H32  1  0.63860000  0.43600000  0.00000000  1.0 0.1394831022
H  H33  1  0.20260000  0.56400000  0.56400000  1.0 0.1394831022
H  H34  1  0.00000000  0.43600000  0.63860000  1.0 0.1394831022
H  H35  1  0.79740000  0.36140000  0.36140000  1.0 0.1394831022
H  H36  1  0.00000000  0.63860000  0.43600000  1.0 0.1394831022
H  H37  1  0.78750000  0.40920000  0.78750000  1.0 0.1394831022
H  H38  1  0.62170000  0.00000000  0.21250000  1.0 0.1394831022
H  H39  1  0.37830000  0.59080000  0.37830000  1.0 0.1394831022
H  H40  1  0.21250000  0.00000000  0.62170000  1.0 0.1394831022
H  H41  1  0.78750000  0.78750000  0.40920000  1.0 0.1394831022
H  H42  1  0.21250000  0.62170000  0.00000000  1.0 0.1394831022
H  H43  1  0.37830000  0.37830000  0.59080000  1.0 0.1394831022
H  H44  1  0.62170000  0.21250000  0.00000000  1.0 0.1394831022
H  H45  1  0.40920000  0.78750000  0.78750000  1.0 0.1394831022
H  H46  1  0.00000000  0.21250000  0.62170000  1.0 0.1394831022
H  H47  1  0.59080000  0.37830000  0.37830000  1.0 0.1394831022
H  H48  1  0.00000000  0.62170000  0.21250000  1.0 0.1394831022
H  H49  1  0.71110000  0.40260000  0.57930000  1.0 0.123554799
H  H50  1  0.82330000  0.13180000  0.42070000  1.0 0.123554799
H  H51  1  0.17670000  0.59740000  0.30850000  1.0 0.123554799
H  H52  1  0.28890000  0.86820000  0.69150000  1.0 0.123554799
H  H53  1  0.57930000  0.71110000  0.40260000  1.0 0.123554799
H  H54  1  0.42070000  0.82330000  0.13180000  1.0 0.123554799
H  H55  1  0.30850000  0.17670000  0.59740000  1.0 0.123554799
H  H56  1  0.69150000  0.28890000  0.86820000  1.0 0.123554799
H  H57  1  0.40260000  0.57930000  0.71110000  1.0 0.123554799
H  H58  1  0.13180000  0.42070000  0.82330000  1.0 0.123554799
H  H59  1  0.59740000  0.30850000  0.17670000  1.0 0.123554799
H  H60  1  0.86820000  0.69150000  0.28890000  1.0 0.123554799
H  H61  1  0.40260000  0.71110000  0.57930000  1.0 0.123554799
H  H62  1  0.13180000  0.82330000  0.42070000  1.0 0.123554799
H  H63  1  0.59740000  0.17670000  0.30850000  1.0 0.123554799
H  H64  1  0.86820000  0.28890000  0.69150000  1.0 0.123554799
H  H65  1  0.71110000  0.57930000  0.40260000  1.0 0.123554799
H  H66  1  0.82330000  0.42070000  0.13180000  1.0 0.123554799
H  H67  1  0.17670000  0.30850000  0.59740000  1.0 0.123554799
H  H68  1  0.28890000  0.69150000  0.86820000  1.0 0.123554799
H  H69  1  0.57930000  0.40260000  0.71110000  1.0 0.123554799
H  H70  1  0.42070000  0.13180000  0.82330000  1.0 0.123554799
H  H71  1  0.30850000  0.59740000  0.17670000  1.0 0.123554799
H  H72  1  0.69150000  0.86820000  0.28890000  1.0 0.123554799
C  C1  1  0.71690000  0.20360000  0.71690000  1.0 0.0791765047
C  C2  1  0.48670000  0.00000000  0.28310000  1.0 0.0791765047
C  C3  1  0.51330000  0.79640000  0.51330000  1.0 0.0791765047
C  C4  1  0.28310000  0.00000000  0.48670000  1.0 0.0791765047
C  C5  1  0.71690000  0.71690000  0.20360000  1.0 0.0791765047
C  C6  1  0.28310000  0.48670000  0.00000000  1.0 0.0791765047
C  C7  1  0.51330000  0.51330000  0.79640000  1.0 0.0791765047
C  C8  1  0.48670000  0.28310000  0.00000000  1.0 0.0791765047
C  C9  1  0.20360000  0.71690000  0.71690000  1.0 0.0791765047
C  C10  1  0.00000000  0.28310000  0.48670000  1.0 0.0791765047
C  C11  1  0.79640000  0.51330000  0.51330000  1.0 0.0791765047
C  C12  1  0.00000000  0.48670000  0.28310000  1.0 0.0791765047
C  C13  1  0.64110000  0.16980000  0.64110000  1.0 -0.106314137
C  C14  1  0.52870000  0.00000000  0.35890000  1.0 -0.106314137
C  C15  1  0.47130000  0.83020000  0.47130000  1.0 -0.106314137
C  C16  1  0.35890000  0.00000000  0.52870000  1.0 -0.106314137
C  C17  1  0.64110000  0.64110000  0.16980000  1.0 -0.106314137
C  C18  1  0.35890000  0.52870000  0.00000000  1.0 -0.106314137
C  C19  1  0.47130000  0.47130000  0.83020000  1.0 -0.106314137
C  C20  1  0.52870000  0.35890000  0.00000000  1.0 -0.106314137
C  C21  1  0.16980000  0.64110000  0.64110000  1.0 -0.106314137
C  C22  1  0.00000000  0.35890000  0.52870000  1.0 -0.106314137
C  C23  1  0.83020000  0.47130000  0.47130000  1.0 -0.106314137
C  C24  1  0.00000000  0.52870000  0.35890000  1.0 -0.106314137
C  C25  1  0.61630000  0.22540000  0.61630000  1.0 -0.0777986727
C  C26  1  0.60910000  0.00000000  0.38370000  1.0 -0.0777986727
C  C27  1  0.39090000  0.77460000  0.39090000  1.0 -0.0777986727
C  C28  1  0.38370000  0.00000000  0.60910000  1.0 -0.0777986727
C  C29  1  0.61630000  0.61630000  0.22540000  1.0 -0.0777986727
C  C30  1  0.38370000  0.60910000  0.00000000  1.0 -0.0777986727
C  C31  1  0.39090000  0.39090000  0.77460000  1.0 -0.0777986727
C  C32  1  0.60910000  0.38370000  0.00000000  1.0 -0.0777986727
C  C33  1  0.22540000  0.61630000  0.61630000  1.0 -0.0777986727
C  C34  1  0.00000000  0.38370000  0.60910000  1.0 -0.0777986727
C  C35  1  0.77460000  0.39090000  0.39090000  1.0 -0.0777986727
C  C36  1  0.00000000  0.60910000  0.38370000  1.0 -0.0777986727
C  C37  1  0.67180000  0.31400000  0.67180000  1.0 0.1335116258
C  C38  1  0.64220000  0.00000000  0.32820000  1.0 0.1335116258
C  C39  1  0.35780000  0.68600000  0.35780000  1.0 0.1335116258
C  C40  1  0.32820000  0.00000000  0.64220000  1.0 0.1335116258
C  C41  1  0.67180000  0.67180000  0.31400000  1.0 0.1335116258
C  C42  1  0.32820000  0.64220000  0.00000000  1.0 0.1335116258
C  C43  1  0.35780000  0.35780000  0.68600000  1.0 0.1335116258
C  C44  1  0.64220000  0.32820000  0.00000000  1.0 0.1335116258
C  C45  1  0.31400000  0.67180000  0.67180000  1.0 0.1335116258
C  C46  1  0.00000000  0.32820000  0.64220000  1.0 0.1335116258
C  C47  1  0.68600000  0.35780000  0.35780000  1.0 0.1335116258
C  C48  1  0.00000000  0.64220000  0.32820000  1.0 0.1335116258
C  C49  1  0.74990000  0.34780000  0.74990000  1.0 -0.0030389936
C  C50  1  0.59790000  0.00000000  0.25010000  1.0 -0.0030389936
C  C51  1  0.40210000  0.65220000  0.40210000  1.0 -0.0030389936
C  C52  1  0.25010000  0.00000000  0.59790000  1.0 -0.0030389936
C  C53  1  0.74990000  0.74990000  0.34780000  1.0 -0.0030389936
C  C54  1  0.25010000  0.59790000  0.00000000  1.0 -0.0030389936
C  C55  1  0.40210000  0.40210000  0.65220000  1.0 -0.0030389936
C  C56  1  0.59790000  0.25010000  0.00000000  1.0 -0.0030389936
C  C57  1  0.34780000  0.74990000  0.74990000  1.0 -0.0030389936
C  C58  1  0.00000000  0.25010000  0.59790000  1.0 -0.0030389936
C  C59  1  0.65220000  0.40210000  0.40210000  1.0 -0.0030389936
C  C60  1  0.00000000  0.59790000  0.25010000  1.0 -0.0030389936
C  C61  1  0.67750000  0.41460000  0.60510000  1.0 0.1394831022
C  C62  1  0.80950000  0.07240000  0.39490000  1.0 0.1394831022
C  C63  1  0.19050000  0.58540000  0.26290000  1.0 0.1394831022
C  C64  1  0.32250000  0.92760000  0.73710000  1.0 0.1394831022
C  C65  1  0.60510000  0.67750000  0.41460000  1.0 0.1394831022
C  C66  1  0.39490000  0.80950000  0.07240000  1.0 0.1394831022
C  C67  1  0.26290000  0.19050000  0.58540000  1.0 0.1394831022
C  C68  1  0.73710000  0.32250000  0.92760000  1.0 0.1394831022
C  C69  1  0.41460000  0.60510000  0.67750000  1.0 0.1394831022
C  C70  1  0.07240000  0.39490000  0.80950000  1.0 0.1394831022
C  C71  1  0.58540000  0.26290000  0.19050000  1.0 0.1394831022
C  C72  1  0.92760000  0.73710000  0.32250000  1.0 0.1394831022
C  C73  1  0.41460000  0.67750000  0.60510000  1.0 0.1394831022
C  C74  1  0.07240000  0.80950000  0.39490000  1.0 0.1394831022
C  C75  1  0.58540000  0.19050000  0.26290000  1.0 0.1394831022
C  C76  1  0.92760000  0.32250000  0.73710000  1.0 0.1394831022
C  C77  1  0.67750000  0.60510000  0.41460000  1.0 0.1394831022
C  C78  1  0.80950000  0.39490000  0.07240000  1.0 0.1394831022
C  C79  1  0.19050000  0.26290000  0.58540000  1.0 0.1394831022
C  C80  1  0.32250000  0.73710000  0.92760000  1.0 0.1394831022
C  C81  1  0.60510000  0.41460000  0.67750000  1.0 0.1394831022
C  C82  1  0.39490000  0.07240000  0.80950000  1.0 0.1394831022
C  C83  1  0.26290000  0.58540000  0.19050000  1.0 0.1394831022
C  C84  1  0.73710000  0.92760000  0.32250000  1.0 0.1394831022
N  N1  1  0.77100000  0.29080000  0.77100000  1.0 -0.2245208318
N  N2  1  0.51980000  0.00000000  0.22900000  1.0 -0.2245208318
N  N3  1  0.48020000  0.70920000  0.48020000  1.0 -0.2245208318
N  N4  1  0.22900000  0.00000000  0.51980000  1.0 -0.2245208318
N  N5  1  0.77100000  0.77100000  0.29080000  1.0 -0.2245208318
N  N6  1  0.22900000  0.51980000  0.00000000  1.0 -0.2245208318
N  N7  1  0.48020000  0.48020000  0.70920000  1.0 -0.2245208318
N  N8  1  0.51980000  0.22900000  0.00000000  1.0 -0.2245208318
N  N9  1  0.29080000  0.77100000  0.77100000  1.0 -0.2245208318
N  N10  1  0.00000000  0.22900000  0.51980000  1.0 -0.2245208318
N  N11  1  0.70920000  0.48020000  0.48020000  1.0 -0.2245208318
N  N12  1  0.00000000  0.51980000  0.22900000  1.0 -0.2245208318
N  N13  1  0.65180000  0.37740000  0.65180000  1.0 -0.0069608835
N  N14  1  0.72560000  0.00000000  0.34820000  1.0 -0.0069608835
N  N15  1  0.27440000  0.62260000  0.27440000  1.0 -0.0069608835
N  N16  1  0.34820000  0.00000000  0.72560000  1.0 -0.0069608835
N  N17  1  0.65180000  0.65180000  0.37740000  1.0 -0.0069608835
N  N18  1  0.34820000  0.72560000  0.00000000  1.0 -0.0069608835
N  N19  1  0.27440000  0.27440000  0.62260000  1.0 -0.0069608835
N  N20  1  0.72560000  0.34820000  0.00000000  1.0 -0.0069608835
N  N21  1  0.37740000  0.65180000  0.65180000  1.0 -0.0069608835
N  N22  1  0.00000000  0.34820000  0.72560000  1.0 -0.0069608835
N  N23  1  0.62260000  0.27440000  0.27440000  1.0 -0.0069608835
N  N24  1  0.00000000  0.72560000  0.34820000  1.0 -0.0069608835
N  N25  1  0.64810000  0.46910000  0.60260000  1.0 -0.1568359504
N  N26  1  0.86650000  0.04550000  0.39740000  1.0 -0.1568359504
N  N27  1  0.13350000  0.53090000  0.17900000  1.0 -0.1568359504
N  N28  1  0.35190000  0.95450000  0.82100000  1.0 -0.1568359504
N  N29  1  0.60260000  0.64810000  0.46910000  1.0 -0.1568359504
N  N30  1  0.39740000  0.86650000  0.04550000  1.0 -0.1568359504
N  N31  1  0.17900000  0.13350000  0.53090000  1.0 -0.1568359504
N  N32  1  0.82100000  0.35190000  0.95450000  1.0 -0.1568359504
N  N33  1  0.46910000  0.60260000  0.64810000  1.0 -0.1568359504
N  N34  1  0.04550000  0.39740000  0.86650000  1.0 -0.1568359504
N  N35  1  0.53090000  0.17900000  0.13350000  1.0 -0.1568359504
N  N36  1  0.95450000  0.82100000  0.35190000  1.0 -0.1568359504
N  N37  1  0.46910000  0.64810000  0.60260000  1.0 -0.1568359504
N  N38  1  0.04550000  0.86650000  0.39740000  1.0 -0.1568359504
N  N39  1  0.53090000  0.13350000  0.17900000  1.0 -0.1568359504
N  N40  1  0.95450000  0.35190000  0.82100000  1.0 -0.1568359504
N  N41  1  0.64810000  0.60260000  0.46910000  1.0 -0.1568359504
N  N42  1  0.86650000  0.39740000  0.04550000  1.0 -0.1568359504
N  N43  1  0.13350000  0.17900000  0.53090000  1.0 -0.1568359504
N  N44  1  0.35190000  0.82100000  0.95450000  1.0 -0.1568359504
N  N45  1  0.60260000  0.46910000  0.64810000  1.0 -0.1568359504
N  N46  1  0.39740000  0.04550000  0.86650000  1.0 -0.1568359504
N  N47  1  0.17900000  0.53090000  0.13350000  1.0 -0.1568359504
N  N48  1  0.82100000  0.95450000  0.35190000  1.0 -0.1568359504
Cl  Cl1  1  0.50000000  0.25000000  0.75000000  1.0 1.2722850191
Cl  Cl2  1  0.50000000  0.75000000  0.25000000  1.0 1.2722850191
Cl  Cl3  1  0.25000000  0.75000000  0.50000000  1.0 1.2722850191
Cl  Cl4  1  0.75000000  0.25000000  0.50000000  1.0 1.2722850191
Cl  Cl5  1  0.75000000  0.50000000  0.25000000  1.0 1.2722850191
Cl  Cl6  1  0.25000000  0.50000000  0.75000000  1.0 1.2722850191
Cl  Cl7  1  0.58200000  0.00000000  0.00000000  1.0 1.2605515799
Cl  Cl8  1  0.00000000  0.58200000  0.00000000  1.0 1.2722850191
Cl  Cl9  1  0.00000000  0.00000000  0.58200000  1.0 1.2722850191
Cl  Cl10  1  0.41800000  0.41800000  0.41800000  1.0 1.2722850191
O  O1  1  0.60140000  0.60140000  0.60140000  1.0 -0.7668823221
O  O2  1  0.00000000  0.00000000  0.39860000  1.0 -0.7668823221
O  O3  1  0.00000000  0.39860000  0.00000000  1.0 -0.7668823221
O  O4  1  0.39860000  0.00000000  0.00000000  1.0 -0.7668823221
O  O5  1  0.66320000  0.66320000  0.78920000  1.0 -0.4390788053
O  O6  1  0.87400000  0.87400000  0.21080000  1.0 -0.4390788053
O  O7  1  0.12600000  0.33680000  0.00000000  1.0 -0.4390788053
O  O8  1  0.33680000  0.12600000  0.00000000  1.0 -0.4390788053
O  O9  1  0.78920000  0.66320000  0.66320000  1.0 -0.4390788053
O  O10  1  0.21080000  0.87400000  0.87400000  1.0 -0.4390788053
O  O11  1  0.00000000  0.12600000  0.33680000  1.0 -0.4390788053
O  O12  1  0.00000000  0.33680000  0.12600000  1.0 -0.4390788053
O  O13  1  0.66320000  0.78920000  0.66320000  1.0 -0.4390788053
O  O14  1  0.87400000  0.21080000  0.87400000  1.0 -0.4390788053
O  O15  1  0.33680000  0.00000000  0.12600000  1.0 -0.4347194949
O  O16  1  0.12600000  0.00000000  0.33680000  1.0 -0.4390788053
O  O17  1  0.53720000  0.19400000  0.76360000  1.0 -0.5270757719
O  O18  1  0.46280000  0.22640000  0.65680000  1.0 -0.5270757719
O  O19  1  0.56960000  0.34320000  0.80600000  1.0 -0.5270757719
O  O20  1  0.43040000  0.23640000  0.77360000  1.0 -0.5270757719
O  O21  1  0.56960000  0.80600000  0.34320000  1.0 -0.5270757719
O  O22  1  0.43040000  0.77360000  0.23640000  1.0 -0.5270757719
O  O23  1  0.53720000  0.76360000  0.19400000  1.0 -0.5270757719
O  O24  1  0.46280000  0.65680000  0.22640000  1.0 -0.5270757719
O  O25  1  0.19400000  0.76360000  0.53720000  1.0 -0.5270757719
O  O26  1  0.22640000  0.65680000  0.46280000  1.0 -0.5270757719
O  O27  1  0.34320000  0.80600000  0.56960000  1.0 -0.5270757719
O  O28  1  0.23640000  0.77360000  0.43040000  1.0 -0.5270757719
O  O29  1  0.80600000  0.34320000  0.56960000  1.0 -0.5270757719
O  O30  1  0.77360000  0.23640000  0.43040000  1.0 -0.5270757719
O  O31  1  0.76360000  0.19400000  0.53720000  1.0 -0.5270757719
O  O32  1  0.65680000  0.22640000  0.46280000  1.0 -0.5270757719
O  O33  1  0.76360000  0.53720000  0.19400000  1.0 -0.5270757719
O  O34  1  0.65680000  0.46280000  0.22640000  1.0 -0.5270757719
O  O35  1  0.80600000  0.56960000  0.34320000  1.0 -0.5270757719
O  O36  1  0.77360000  0.43040000  0.23640000  1.0 -0.5270757719
O  O37  1  0.34320000  0.56960000  0.80600000  1.0 -0.5270757719
O  O38  1  0.23640000  0.43040000  0.77360000  1.0 -0.5270757719
O  O39  1  0.19400000  0.53720000  0.76360000  1.0 -0.5270757719
O  O40  1  0.22640000  0.46280000  0.65680000  1.0 -0.5270757719
O  O41  1  0.65960000  0.00000000  0.00000000  1.0 -0.4054152587
O  O42  1  0.58160000  0.00000000  0.07560000  1.0 -0.4968626469
O  O43  1  0.58160000  0.07560000  0.00000000  1.0 -0.4968626469
O  O44  1  0.50600000  0.92440000  0.92440000  1.0 -0.4968626469
O  O45  1  0.00000000  0.65960000  0.00000000  1.0 -0.4029382784
O  O46  1  0.92440000  0.50600000  0.92440000  1.0 -0.4968626469
O  O47  1  0.07560000  0.58160000  0.00000000  1.0 -0.4968626469
O  O48  1  0.00000000  0.58160000  0.07560000  1.0 -0.4968626469
O  O49  1  0.00000000  0.00000000  0.65960000  1.0 -0.4029382784
O  O50  1  0.07560000  0.00000000  0.58160000  1.0 -0.4968626469
O  O51  1  0.92440000  0.92440000  0.50600000  1.0 -0.4968626469
O  O52  1  0.00000000  0.07560000  0.58160000  1.0 -0.4968626469
O  O53  1  0.34040000  0.34040000  0.34040000  1.0 -0.4029382784
O  O54  1  0.41840000  0.49400000  0.41840000  1.0 -0.4968626469
O  O55  1  0.41840000  0.41840000  0.49400000  1.0 -0.4968626469
O  O56  1  0.49400000  0.41840000  0.41840000  1.0 -0.4968626469
