# DDEC6 charges by PACMAN v1.1 (https://github.com/mtap-research/PACMAN-charge/)
data_LIRFIB_FSR_pacman
_symmetry_space_group_name_H-M   'P 1'
_cell_length_a   15.95200000
_cell_length_b   15.95200000
_cell_length_c   15.95200000
_cell_angle_alpha   90.00000000
_cell_angle_beta   90.00000000
_cell_angle_gamma   90.00000000
_symmetry_Int_Tables_number   1
_chemical_formula_structural   NaCr(CO2)6
_chemical_formula_sum   'Na4 Cr4 C24 O48'
_cell_volume   4059.24648141
_cell_formula_units_Z   4
loop_
 _symmetry_equiv_pos_site_id
 _symmetry_equiv_pos_as_xyz
  1  'x, y, z'
loop_
 _atom_site_type_symbol
 _atom_site_label
 _atom_site_symmetry_multiplicity
 _atom_site_fract_x
 _atom_site_fract_y
 _atom_site_fract_z
 _atom_site_occupancy
 _atom_site_charge
Na  Na1  1  0.13370000  0.86630000  0.36630000  1.0 0.9036571253
Na  Na2  1  0.36630000  0.13370000  0.86630000  1.0 0.9036571253
Na  Na3  1  0.86630000  0.36630000  0.13370000  1.0 0.9036571253
Na  Na4  1  0.63370000  0.63370000  0.63370000  1.0 0.9036571253
Cr  Cr1  1  0.13195000  0.13195000  0.13195000  1.0 1.1891136486
Cr  Cr2  1  0.63195000  0.36805000  0.86805000  1.0 1.1891136486
Cr  Cr3  1  0.86805000  0.63195000  0.36805000  1.0 1.1891136486
Cr  Cr4  1  0.36805000  0.86805000  0.63195000  1.0 1.1891136486
C  C1  1  0.13890000  0.04010000  0.27820000  1.0 0.548268794
C  C2  1  0.27820000  0.13890000  0.04010000  1.0 0.548268794
C  C3  1  0.04010000  0.27820000  0.13890000  1.0 0.548268794
C  C4  1  0.63890000  0.45990000  0.72180000  1.0 0.548268794
C  C5  1  0.77820000  0.36110000  0.95990000  1.0 0.548268794
C  C6  1  0.54010000  0.22180000  0.86110000  1.0 0.548268794
C  C7  1  0.86110000  0.54010000  0.22180000  1.0 0.548268794
C  C8  1  0.72180000  0.63890000  0.45990000  1.0 0.548268794
C  C9  1  0.95990000  0.77820000  0.36110000  1.0 0.548268794
C  C10  1  0.36110000  0.95990000  0.77820000  1.0 0.548268794
C  C11  1  0.22180000  0.86110000  0.54010000  1.0 0.548268794
C  C12  1  0.45990000  0.72180000  0.63890000  1.0 0.548268794
C  C13  1  0.13850000  0.97480000  0.20460000  1.0 0.548268794
C  C14  1  0.20460000  0.13850000  0.97480000  1.0 0.548268794
C  C15  1  0.97480000  0.20460000  0.13850000  1.0 0.548268794
C  C16  1  0.63850000  0.52520000  0.79540000  1.0 0.548268794
C  C17  1  0.70460000  0.36150000  0.02520000  1.0 0.5432500659
C  C18  1  0.47480000  0.29540000  0.86150000  1.0 0.548268794
C  C19  1  0.86150000  0.47480000  0.29540000  1.0 0.548268794
C  C20  1  0.79540000  0.63850000  0.52520000  1.0 0.548268794
C  C21  1  0.02520000  0.70460000  0.36150000  1.0 0.5432500659
C  C22  1  0.36150000  0.02520000  0.70460000  1.0 0.5432500659
C  C23  1  0.29540000  0.86150000  0.47480000  1.0 0.548268794
C  C24  1  0.52520000  0.79540000  0.63850000  1.0 0.548268794
O  O1  1  0.14000000  0.11650000  0.25450000  1.0 -0.5702333829
O  O2  1  0.25450000  0.14000000  0.11650000  1.0 -0.5702333829
O  O3  1  0.11650000  0.25450000  0.14000000  1.0 -0.5702333829
O  O4  1  0.64000000  0.38350000  0.74550000  1.0 -0.5702333829
O  O5  1  0.75450000  0.36000000  0.88350000  1.0 -0.5702333829
O  O6  1  0.61650000  0.24550000  0.86000000  1.0 -0.5702333829
O  O7  1  0.86000000  0.61650000  0.24550000  1.0 -0.5702333829
O  O8  1  0.74550000  0.64000000  0.38350000  1.0 -0.5702333829
O  O9  1  0.88350000  0.75450000  0.36000000  1.0 -0.5702333829
O  O10  1  0.36000000  0.88350000  0.75450000  1.0 -0.5702333829
O  O11  1  0.24550000  0.86000000  0.61650000  1.0 -0.5702333829
O  O12  1  0.38350000  0.74550000  0.64000000  1.0 -0.5702333829
O  O13  1  0.13670000  0.01480000  0.35020000  1.0 -0.3262679649
O  O14  1  0.35020000  0.13670000  0.01480000  1.0 -0.3262679649
O  O15  1  0.01480000  0.35020000  0.13670000  1.0 -0.3262679649
O  O16  1  0.63670000  0.48520000  0.64980000  1.0 -0.3262679649
O  O17  1  0.85020000  0.36330000  0.98520000  1.0 -0.3262679649
O  O18  1  0.51480000  0.14980000  0.86330000  1.0 -0.3262679649
O  O19  1  0.86330000  0.51480000  0.14980000  1.0 -0.3262679649
O  O20  1  0.64980000  0.63670000  0.48520000  1.0 -0.3262679649
O  O21  1  0.98520000  0.85020000  0.36330000  1.0 -0.3262679649
O  O22  1  0.36330000  0.98520000  0.85020000  1.0 -0.3262679649
O  O23  1  0.14980000  0.86330000  0.51480000  1.0 -0.3262679649
O  O24  1  0.48520000  0.64980000  0.63670000  1.0 -0.3262679649
O  O25  1  0.13600000  0.00840000  0.13190000  1.0 -0.5702333829
O  O26  1  0.13190000  0.13600000  0.00840000  1.0 -0.5702333829
O  O27  1  0.00840000  0.13190000  0.13600000  1.0 -0.5702333829
O  O28  1  0.63600000  0.49160000  0.86810000  1.0 -0.5702333829
O  O29  1  0.63190000  0.36400000  0.99160000  1.0 -0.5702333829
O  O30  1  0.50840000  0.36810000  0.86400000  1.0 -0.5702333829
O  O31  1  0.86400000  0.50840000  0.36810000  1.0 -0.5702333829
O  O32  1  0.86810000  0.63600000  0.49160000  1.0 -0.5702333829
O  O33  1  0.99160000  0.63190000  0.36400000  1.0 -0.5702333829
O  O34  1  0.36400000  0.99160000  0.63190000  1.0 -0.5702333829
O  O35  1  0.36810000  0.86400000  0.50840000  1.0 -0.5702333829
O  O36  1  0.49160000  0.86810000  0.63600000  1.0 -0.5702333829
O  O37  1  0.14020000  0.90020000  0.21970000  1.0 -0.3262679649
O  O38  1  0.21970000  0.14020000  0.90020000  1.0 -0.3262679649
O  O39  1  0.90020000  0.21970000  0.14020000  1.0 -0.3262679649
O  O40  1  0.64020000  0.59980000  0.78030000  1.0 -0.3262679649
O  O41  1  0.71970000  0.35980000  0.09980000  1.0 -0.3262679649
O  O42  1  0.40020000  0.28030000  0.85980000  1.0 -0.3262679649
O  O43  1  0.85980000  0.40020000  0.28030000  1.0 -0.3262679649
O  O44  1  0.78030000  0.64020000  0.59980000  1.0 -0.3262679649
O  O45  1  0.09980000  0.71970000  0.35980000  1.0 -0.3262679649
O  O46  1  0.35980000  0.09980000  0.71970000  1.0 -0.3247135859
O  O47  1  0.28030000  0.85980000  0.40020000  1.0 -0.3262679649
O  O48  1  0.59980000  0.78030000  0.64020000  1.0 -0.3262679649
