# DDEC6 charges by PACMAN v1.1 (https://github.com/mtap-research/PACMAN-charge/)
data_LIRKIK_ASR_pacman
_symmetry_space_group_name_H-M   'P 1'
_cell_length_a   19.32920000
_cell_length_b   19.32920000
_cell_length_c   30.56780000
_cell_angle_alpha   78.82850000
_cell_angle_beta   101.17200000
_cell_angle_gamma   134.65000000
_symmetry_Int_Tables_number   1
_chemical_formula_structural   Zn7H24C36(I7N6)2
_chemical_formula_sum   'Zn28 H96 C144 I56 N48'
_cell_volume   7943.68139504
_cell_formula_units_Z   4
loop_
 _symmetry_equiv_pos_site_id
 _symmetry_equiv_pos_as_xyz
  1  'x, y, z'
loop_
 _atom_site_type_symbol
 _atom_site_label
 _atom_site_symmetry_multiplicity
 _atom_site_fract_x
 _atom_site_fract_y
 _atom_site_fract_z
 _atom_site_occupancy
 _atom_site_charge
Zn  Zn1  1  0.69180000  0.54720000  0.60130000  1.0 0.340427513
Zn  Zn2  1  0.45280000  0.30820000  0.10130000  1.0 0.340427513
Zn  Zn3  1  0.96640000  0.21200000  0.93630000  1.0 0.2405312311
Zn  Zn4  1  0.78800000  0.03360000  0.43630000  1.0 0.2405312311
Zn  Zn5  1  0.02651000  0.67503000  0.77711000  1.0 0.1536411148
Zn  Zn6  1  0.32497000  0.97349000  0.27711000  1.0 0.1587912441
Zn  Zn7  1  0.70130000  0.54290000  0.60040000  1.0 0.3492179837
Zn  Zn8  1  0.45710000  0.29870000  0.10040000  1.0 0.3492179837
Zn  Zn9  1  0.04500000  0.64700000  0.80000000  1.0 0.0780878926
Zn  Zn10  1  0.35300000  0.95500000  0.30000000  1.0 0.0905218722
Zn  Zn11  1  0.98070000  0.22510000  0.92500000  1.0 0.1672369081
Zn  Zn12  1  0.77490000  0.01930000  0.42500000  1.0 0.1672369081
Zn  Zn13  1  0.95700000  0.21900000  0.95500000  1.0 -0.1182123144
Zn  Zn14  1  0.78100000  0.04300000  0.45500000  1.0 -0.1182123144
Zn  Zn15  1  0.54720000  0.69180000  0.89870000  1.0 0.340427513
Zn  Zn16  1  0.30820000  0.45280000  0.39870000  1.0 0.340427513
Zn  Zn17  1  0.21200000  0.96640000  0.56370000  1.0 0.2405312311
Zn  Zn18  1  0.03360000  0.78800000  0.06370000  1.0 0.2405312311
Zn  Zn19  1  0.67503000  0.02651000  0.72289000  1.0 0.1587912441
Zn  Zn20  1  0.97349000  0.32497000  0.22289000  1.0 0.1587912441
Zn  Zn21  1  0.54290000  0.70130000  0.89960000  1.0 0.3492179837
Zn  Zn22  1  0.29870000  0.45710000  0.39960000  1.0 0.3492179837
Zn  Zn23  1  0.64700000  0.04500000  0.70000000  1.0 0.0905218722
Zn  Zn24  1  0.95500000  0.35300000  0.20000000  1.0 0.0905218722
Zn  Zn25  1  0.22510000  0.98070000  0.57500000  1.0 0.1672369081
Zn  Zn26  1  0.01930000  0.77490000  0.07500000  1.0 0.1672369081
Zn  Zn27  1  0.21900000  0.95700000  0.54500000  1.0 -0.1182123144
Zn  Zn28  1  0.04300000  0.78100000  0.04500000  1.0 -0.1182123144
H  H1  1  0.48249000  0.23849000  0.69837000  1.0 0.1286857853
H  H2  1  0.76151000  0.51751000  0.19837000  1.0 0.1286857853
H  H3  1  0.76538000  0.37434000  0.71892000  1.0 0.119423582
H  H4  1  0.62566000  0.23462000  0.21892000  1.0 0.119423582
H  H5  1  0.22192000  0.74718000  0.82228000  1.0 0.0780878926
H  H6  1  0.25282000  0.77808000  0.32228000  1.0 0.0780878926
H  H7  1  0.82622000  0.29516000  0.80411000  1.0 0.0905218722
H  H8  1  0.70484000  0.17378000  0.30411000  1.0 0.0905218722
H  H9  1  0.52818000  0.36856000  0.64768000  1.0 0.0905218722
H  H10  1  0.63144000  0.47182000  0.14768000  1.0 0.0905218722
H  H11  1  0.53254000  0.50826000  0.06576000  1.0 0.0780878926
H  H12  1  0.49174000  0.46746000  0.56576000  1.0 0.0780878926
H  H13  1  0.94700000  0.31154000  0.84766000  1.0 0.0780878926
H  H14  1  0.68846000  0.05300000  0.34766000  1.0 0.0780878926
H  H15  1  0.75388000  0.06644000  0.91962000  1.0 0.0780878926
H  H16  1  0.93356000  0.24612000  0.41962000  1.0 0.0780878926
H  H17  1  0.70777000  0.49097000  0.99331000  1.0 0.1398161278
H  H18  1  0.50903000  0.29223000  0.49331000  1.0 0.1398161278
H  H19  1  0.65019000  0.64191000  0.01854000  1.0 0.1286857853
H  H20  1  0.35809000  0.34981000  0.51854000  1.0 0.1286857853
H  H21  1  0.62640000  0.03900000  0.87474000  1.0 0.1107310194
H  H22  1  0.96100000  0.37360000  0.37474000  1.0 0.1107310194
H  H23  1  0.90501000  0.04681000  0.99991000  1.0 0.0989966002
H  H24  1  0.95319000  0.09499000  0.49991000  1.0 0.0989966002
H  H25  1  0.93488000  0.57756000  0.86630000  1.0 0.069243526
H  H26  1  0.42244000  0.06511000  0.36630000  1.0 0.069243526
H  H27  1  0.79913000  0.49077000  0.66077000  1.0 0.0607663344
H  H28  1  0.50923000  0.20087000  0.16077000  1.0 0.0607663344
H  H29  1  0.85604000  0.89722000  0.00411000  1.0 0.1398161278
H  H30  1  0.10278000  0.14396000  0.50411000  1.0 0.1398161278
H  H31  1  0.38732000  0.88936000  0.82690000  1.0 0.1286857853
H  H32  1  0.11064000  0.61268000  0.32690000  1.0 0.1286857853
H  H33  1  0.93676000  0.82184000  0.83751000  1.0 0.119423582
H  H34  1  0.17816000  0.06324000  0.33751000  1.0 0.119423582
H  H35  1  0.91382000  0.95360000  0.87692000  1.0 0.1107310194
H  H36  1  0.04640000  0.08618000  0.37692000  1.0 0.1107310194
H  H37  1  0.32005000  0.02383000  0.74022000  1.0 0.1286857853
H  H38  1  0.97617000  0.67995000  0.24022000  1.0 0.1286857853
H  H39  1  0.86554000  0.58856000  0.91616000  1.0 0.1398161278
H  H40  1  0.41144000  0.13446000  0.41616000  1.0 0.1398161278
H  H41  1  0.99647000  0.79961000  0.78843000  1.0 0.069243526
H  H42  1  0.20039000  0.00353000  0.28843000  1.0 0.069243526
H  H43  1  0.95469000  0.10029000  0.87441000  1.0 0.0905218722
H  H44  1  0.89971000  0.04531000  0.37441000  1.0 0.0905218722
H  H45  1  0.15673000  0.87985000  0.74087000  1.0 0.0905218722
H  H46  1  0.12015000  0.84327000  0.24087000  1.0 0.0905218722
H  H47  1  0.58214000  0.35708000  0.03814000  1.0 0.069243526
H  H48  1  0.64292000  0.41786000  0.53814000  1.0 0.069243526
H  H49  1  0.23849000  0.48249000  0.80163000  1.0 0.1286857853
H  H50  1  0.51751000  0.76151000  0.30163000  1.0 0.1286857853
H  H51  1  0.37434000  0.76538000  0.78108000  1.0 0.119423582
H  H52  1  0.23462000  0.62566000  0.28108000  1.0 0.119423582
H  H53  1  0.74718000  0.22192000  0.67772000  1.0 0.0780878926
H  H54  1  0.77808000  0.25282000  0.17772000  1.0 0.0780878926
H  H55  1  0.29516000  0.82622000  0.69589000  1.0 0.0905218722
H  H56  1  0.17378000  0.70484000  0.19589000  1.0 0.0989966002
H  H57  1  0.36856000  0.52818000  0.85232000  1.0 0.0905218722
H  H58  1  0.47182000  0.63144000  0.35232000  1.0 0.0905218722
H  H59  1  0.50826000  0.53254000  0.43424000  1.0 0.0780878926
H  H60  1  0.46746000  0.49174000  0.93424000  1.0 0.0780878926
H  H61  1  0.31154000  0.94700000  0.65234000  1.0 0.0780878926
H  H62  1  0.05300000  0.68846000  0.15234000  1.0 0.0780878926
H  H63  1  0.06644000  0.75388000  0.58038000  1.0 0.0780878926
H  H64  1  0.24612000  0.93356000  0.08038000  1.0 0.0780878926
H  H65  1  0.49097000  0.70777000  0.50669000  1.0 0.1398161278
H  H66  1  0.29223000  0.50903000  0.00669000  1.0 0.1398161278
H  H67  1  0.64191000  0.65019000  0.48146000  1.0 0.1286857853
H  H68  1  0.34981000  0.35809000  0.98146000  1.0 0.1286857853
H  H69  1  0.03900000  0.62640000  0.62526000  1.0 0.1107310194
H  H70  1  0.37360000  0.96100000  0.12526000  1.0 0.1107310194
H  H71  1  0.04681000  0.90501000  0.50009000  1.0 0.0989966002
H  H72  1  0.09499000  0.95319000  0.00009000  1.0 0.0989966002
H  H73  1  0.57755000  0.93488000  0.63370000  1.0 0.069243526
H  H74  1  0.06511000  0.42244000  0.13370000  1.0 0.069243526
H  H75  1  0.49077000  0.79913000  0.83923000  1.0 0.0607663344
H  H76  1  0.20087000  0.50923000  0.33923000  1.0 0.0607663344
H  H77  1  0.89722000  0.85604000  0.49589000  1.0 0.1398161278
H  H78  1  0.14396000  0.10278000  0.99589000  1.0 0.1398161278
H  H79  1  0.88936000  0.38732000  0.67310000  1.0 0.1286857853
H  H80  1  0.61268000  0.11064000  0.17310000  1.0 0.1286857853
H  H81  1  0.82184000  0.93676000  0.66249000  1.0 0.119423582
H  H82  1  0.06324000  0.17816000  0.16249000  1.0 0.119423582
H  H83  1  0.95360000  0.91382000  0.62308000  1.0 0.1107310194
H  H84  1  0.08618000  0.04640000  0.12308000  1.0 0.1107310194
H  H85  1  0.02383000  0.32005000  0.75978000  1.0 0.1286857853
H  H86  1  0.67995000  0.97617000  0.25978000  1.0 0.1286857853
H  H87  1  0.58856000  0.86554000  0.58384000  1.0 0.1398161278
H  H88  1  0.13446000  0.41144000  0.08384000  1.0 0.1398161278
H  H89  1  0.79961000  0.99647000  0.71157000  1.0 0.069243526
H  H90  1  0.00353000  0.20039000  0.21157000  1.0 0.069243526
H  H91  1  0.10029000  0.95469000  0.62559000  1.0 0.0905218722
H  H92  1  0.04531000  0.89971000  0.12559000  1.0 0.0905218722
H  H93  1  0.87985000  0.15673000  0.75913000  1.0 0.0905218722
H  H94  1  0.84327000  0.12015000  0.25913000  1.0 0.0905218722
H  H95  1  0.35708000  0.58214000  0.46186000  1.0 0.069243526
H  H96  1  0.41786000  0.64292000  0.96186000  1.0 0.069243526
C  C1  1  0.54880000  0.29080000  0.69200000  1.0 -0.1404589795
C  C2  1  0.70920000  0.45120000  0.19200000  1.0 -0.1404589795
C  C3  1  0.71440000  0.36900000  0.70330000  1.0 -0.1480233933
C  C4  1  0.63100000  0.28560000  0.20330000  1.0 -0.1480233933
C  C5  1  0.24240000  0.80500000  0.80550000  1.0 0.0479917518
C  C6  1  0.19500000  0.75760000  0.30550000  1.0 0.0479917518
C  C7  1  0.80970000  0.24590000  0.82710000  1.0 -0.1404589795
C  C8  1  0.75410000  0.19030000  0.32710000  1.0 -0.1404589795
C  C9  1  0.57610000  0.36750000  0.66090000  1.0 0.0479917518
C  C10  1  0.63250000  0.42390000  0.16090000  1.0 0.0479917518
C  C11  1  0.71360000  0.16340000  0.83333000  1.0 0.0237968217
C  C12  1  0.83660000  0.28640000  0.33333333  1.0 0.0237968217
C  C13  1  0.59240000  0.21260000  0.74760000  1.0 0.3331449318
C  C14  1  0.78740000  0.40760000  0.24760000  1.0 0.3331449318
C  C15  1  0.76440000  0.66200000  0.97010000  1.0 0.2791741144
C  C16  1  0.33800000  0.23560000  0.47010000  1.0 0.2791741144
C  C17  1  0.85360000  0.81680000  0.94190000  1.0 0.2939363297
C  C18  1  0.18320000  0.14640000  0.44190000  1.0 0.2939363297
C  C19  1  0.88340000  0.91180000  0.94130000  1.0 0.00931048
C  C20  1  0.08820000  0.11660000  0.44130000  1.0 0.00931048
C  C21  1  0.47570000  0.06270000  0.78180000  1.0 0.3331449318
C  C22  1  0.93730000  0.52430000  0.28180000  1.0 0.3331449318
C  C23  1  0.61900000  0.29120000  0.71350000  1.0 0.0607663344
C  C24  1  0.70880000  0.38100000  0.21350000  1.0 0.0607663344
C  C25  1  0.56840000  0.50460000  0.05070000  1.0 0.0420142669
C  C26  1  0.49540000  0.43160000  0.55070000  1.0 0.0420142669
C  C27  1  0.89570000  0.70790000  0.88240000  1.0 0.0479917518
C  C28  1  0.29210000  0.10430000  0.38240000  1.0 0.0479917518
C  C29  1  0.85690000  0.72090000  0.91390000  1.0 0.3033899318
C  C30  1  0.27910000  0.14310000  0.41390000  1.0 0.3033899318
C  C31  1  0.68840000  0.57720000  0.00040000  1.0 0.0607663344
C  C32  1  0.42280000  0.31160000  0.50040000  1.0 0.0607663344
C  C33  1  0.88100000  0.25660000  0.85380000  1.0 -0.0618720299
C  C34  1  0.74340000  0.11900000  0.35380000  1.0 -0.0618720299
C  C35  1  0.63500000  0.15100000  0.80300000  1.0 0.3492179837
C  C36  1  0.84900000  0.36500000  0.30300000  1.0 0.3492179837
C  C37  1  0.76860000  0.11320000  0.89550000  1.0 -0.0030686321
C  C38  1  0.88680000  0.23140000  0.39550000  1.0 -0.0030686321
C  C39  1  0.67120000  0.49540000  0.00710000  1.0 -0.129920082
C  C40  1  0.50460000  0.32880000  0.50710000  1.0 -0.129920082
C  C41  1  0.37170000  0.97170000  0.78300000  1.0 0.0304861182
C  C42  1  0.02830000  0.62830000  0.28300000  1.0 0.0304861182
C  C43  1  0.63800000  0.58420000  0.02250000  1.0 -0.1693682636
C  C44  1  0.41580000  0.36200000  0.52250000  1.0 -0.1693682636
C  C45  1  0.69210000  0.09570000  0.86890000  1.0 -0.1577862877
C  C46  1  0.90430000  0.30790000  0.36890000  1.0 -0.1577862877
C  C47  1  0.90570000  0.02710000  0.97400000  1.0 0.001455481
C  C48  1  0.97290000  0.09430000  0.47400000  1.0 0.001455481
C  C49  1  0.93450000  0.62730000  0.86040000  1.0 0.0479917518
C  C50  1  0.37270000  0.06550000  0.36040000  1.0 0.0479917518
C  C51  1  0.73430000  0.43990000  0.66950000  1.0 0.0304861182
C  C52  1  0.56010000  0.26570000  0.16950000  1.0 0.0420142669
C  C53  1  0.87820000  0.93860000  0.97710000  1.0 -0.1404589795
C  C54  1  0.06140000  0.12180000  0.47710000  1.0 -0.1404589795
C  C55  1  0.34180000  0.88920000  0.80820000  1.0 -0.1480233933
C  C56  1  0.11080000  0.65820000  0.30820000  1.0 -0.1577862877
C  C57  1  0.93500000  0.77060000  0.84390000  1.0 -0.1480233933
C  C58  1  0.22940000  0.06500000  0.34390000  1.0 -0.1480233933
C  C59  1  0.91120000  0.97160000  0.90290000  1.0 -0.1404589795
C  C60  1  0.02840000  0.08880000  0.40290000  1.0 -0.1404589795
C  C61  1  0.30150000  0.96750000  0.75780000  1.0 -0.1404589795
C  C62  1  0.03250000  0.69850000  0.25780000  1.0 -0.1404589795
C  C63  1  0.89380000  0.63400000  0.89060000  1.0 -0.1404589795
C  C64  1  0.36600000  0.10620000  0.39060000  1.0 -0.1404589795
C  C65  1  0.97150000  0.75770000  0.81520000  1.0 0.0479917518
C  C66  1  0.24230000  0.02850000  0.31520000  1.0 0.0479917518
C  C67  1  0.93570000  0.05930000  0.90150000  1.0 0.0304861182
C  C68  1  0.94070000  0.06430000  0.40150000  1.0 0.0304861182
C  C69  1  0.20420000  0.88120000  0.75790000  1.0 0.0420142669
C  C70  1  0.11880000  0.79580000  0.25790000  1.0 0.0420142669
C  C71  1  0.59820000  0.41680000  0.03500000  1.0 0.0304861182
C  C72  1  0.58320000  0.40180000  0.53500000  1.0 0.0304861182
C  C73  1  0.29080000  0.54880000  0.80800000  1.0 -0.1404589795
C  C74  1  0.45120000  0.70920000  0.30800000  1.0 -0.1404589795
C  C75  1  0.36900000  0.71440000  0.79670000  1.0 -0.1480233933
C  C76  1  0.28560000  0.63100000  0.29670000  1.0 -0.1480233933
C  C77  1  0.80500000  0.24240000  0.69450000  1.0 0.0479917518
C  C78  1  0.75760000  0.19500000  0.19450000  1.0 0.0479917518
C  C79  1  0.24590000  0.80970000  0.67290000  1.0 -0.1404589795
C  C80  1  0.19030000  0.75410000  0.17290000  1.0 -0.1404589795
C  C81  1  0.36750000  0.57610000  0.83910000  1.0 0.0479917518
C  C82  1  0.42390000  0.63250000  0.33910000  1.0 0.0479917518
C  C83  1  0.16340000  0.71360000  0.66666667  1.0 0.0237968217
C  C84  1  0.28640000  0.83660000  0.16667000  1.0 0.0237968217
C  C85  1  0.21260000  0.59240000  0.75240000  1.0 0.3331449318
C  C86  1  0.40760000  0.78740000  0.25240000  1.0 0.3331449318
C  C87  1  0.66200000  0.76440000  0.52990000  1.0 0.2791741144
C  C88  1  0.23560000  0.33800000  0.02990000  1.0 0.2791741144
C  C89  1  0.81680000  0.85360000  0.55810000  1.0 0.2939363297
C  C90  1  0.14640000  0.18320000  0.05810000  1.0 0.2939363297
C  C91  1  0.91180000  0.88340000  0.55870000  1.0 0.00931048
C  C92  1  0.11660000  0.08820000  0.05870000  1.0 0.00931048
C  C93  1  0.06270000  0.47570000  0.71820000  1.0 0.3331449318
C  C94  1  0.52430000  0.93730000  0.21820000  1.0 0.3331449318
C  C95  1  0.29120000  0.61900000  0.78650000  1.0 0.0607663344
C  C96  1  0.38100000  0.70880000  0.28650000  1.0 0.0607663344
C  C97  1  0.50460000  0.56840000  0.44930000  1.0 0.0420142669
C  C98  1  0.43160000  0.49540000  0.94930000  1.0 0.0420142669
C  C99  1  0.70790000  0.89570000  0.61760000  1.0 0.0479917518
C  C100  1  0.10430000  0.29210000  0.11760000  1.0 0.0479917518
C  C101  1  0.72090000  0.85690000  0.58610000  1.0 0.3033899318
C  C102  1  0.14310000  0.27910000  0.08610000  1.0 0.3033899318
C  C103  1  0.57720000  0.68840000  0.49960000  1.0 0.0607663344
C  C104  1  0.31160000  0.42280000  0.99960000  1.0 0.069243526
C  C105  1  0.25660000  0.88100000  0.64620000  1.0 -0.0618720299
C  C106  1  0.11900000  0.74340000  0.14620000  1.0 -0.0618720299
C  C107  1  0.15100000  0.63500000  0.69700000  1.0 0.3492179837
C  C108  1  0.36500000  0.84900000  0.19700000  1.0 0.3492179837
C  C109  1  0.11320000  0.76860000  0.60450000  1.0 -0.0030686321
C  C110  1  0.23140000  0.88680000  0.10450000  1.0 -0.0030686321
C  C111  1  0.49540000  0.67120000  0.49290000  1.0 -0.129920082
C  C112  1  0.32880000  0.50460000  0.99290000  1.0 -0.129920082
C  C113  1  0.97170000  0.37170000  0.71700000  1.0 0.0304861182
C  C114  1  0.62830000  0.02830000  0.21700000  1.0 0.0304861182
C  C115  1  0.58420000  0.63800000  0.47750000  1.0 -0.1693682636
C  C116  1  0.36200000  0.41580000  0.97750000  1.0 -0.1693682636
C  C117  1  0.09570000  0.69210000  0.63110000  1.0 -0.1577862877
C  C118  1  0.30790000  0.90430000  0.13110000  1.0 -0.1577862877
C  C119  1  0.02710000  0.90570000  0.52600000  1.0 -0.0030686321
C  C120  1  0.09430000  0.97290000  0.02600000  1.0 -0.0030686321
C  C121  1  0.62730000  0.93450000  0.63960000  1.0 0.0479917518
C  C122  1  0.06550000  0.37270000  0.13960000  1.0 0.0479917518
C  C123  1  0.43990000  0.73430000  0.83050000  1.0 0.0304861182
C  C124  1  0.26570000  0.56010000  0.33050000  1.0 0.0304861182
C  C125  1  0.93860000  0.87820000  0.52290000  1.0 -0.1404589795
C  C126  1  0.12180000  0.06140000  0.02290000  1.0 -0.1404589795
C  C127  1  0.88920000  0.34180000  0.69180000  1.0 -0.1577862877
C  C128  1  0.65820000  0.11080000  0.19180000  1.0 -0.1480233933
C  C129  1  0.77060000  0.93500000  0.65610000  1.0 -0.1480233933
C  C130  1  0.06500000  0.22940000  0.15610000  1.0 -0.1404589795
C  C131  1  0.97160000  0.91120000  0.59710000  1.0 -0.1404589795
C  C132  1  0.08880000  0.02840000  0.09710000  1.0 -0.1404589795
C  C133  1  0.96750000  0.30150000  0.74220000  1.0 -0.1404589795
C  C134  1  0.69850000  0.03250000  0.24220000  1.0 -0.1404589795
C  C135  1  0.63400000  0.89380000  0.60940000  1.0 -0.1404589795
C  C136  1  0.10620000  0.36600000  0.10940000  1.0 -0.1404589795
C  C137  1  0.75770000  0.97150000  0.68480000  1.0 0.0479917518
C  C138  1  0.02850000  0.24230000  0.18480000  1.0 0.0479917518
C  C139  1  0.05930000  0.93570000  0.59850000  1.0 0.0304861182
C  C140  1  0.06430000  0.94070000  0.09850000  1.0 0.0304861182
C  C141  1  0.88120000  0.20420000  0.74210000  1.0 0.0420142669
C  C142  1  0.79580000  0.11880000  0.24210000  1.0 0.0420142669
C  C143  1  0.41680000  0.59820000  0.46500000  1.0 0.0304861182
C  C144  1  0.40180000  0.58320000  0.96500000  1.0 0.0304861182
I  I1  1  0.84357000  0.63243000  0.56293000  1.0 -0.0030686321
I  I2  1  0.36757000  0.15643000  0.06293000  1.0 -0.0030686321
I  I3  1  0.95844000  0.69718000  0.70138000  1.0 0.0479917518
I  I4  1  0.30282000  0.04156000  0.20138000  1.0 0.0420142669
I  I5  1  0.12687000  0.34533000  0.89927000  1.0 -0.0687466191
I  I6  1  0.65467000  0.87313000  0.39927000  1.0 -0.0687466191
I  I7  1  0.65702000  0.62638000  0.63681000  1.0 -0.0030686321
I  I8  1  0.37362000  0.34298000  0.13681000  1.0 -0.0030686321
I  I9  1  0.93959000  0.21921000  0.01134000  1.0 -0.1577862877
I  I10  1  0.78079000  0.06041000  0.51134000  1.0 -0.1577862877
I  I11  1  0.00391000  0.52775000  0.80419000  1.0 -0.086132047
I  I12  1  0.47225000  0.99609000  0.30419000  1.0 -0.083080386
I  I13  1  0.84760000  0.61600000  0.56430000  1.0 0.0237968217
I  I14  1  0.38400000  0.15240000  0.06430000  1.0 0.0237968217
I  I15  1  0.67590000  0.63210000  0.63470000  1.0 -0.0283165138
I  I16  1  0.36790000  0.32410000  0.13470000  1.0 -0.0283165138
I  I17  1  0.95590000  0.63410000  0.71900000  1.0 -0.0135231203
I  I18  1  0.36590000  0.04410000  0.21900000  1.0 -0.0178124969
I  I19  1  0.04560000  0.50440000  0.83600000  1.0 0.0479917518
I  I20  1  0.49560000  0.95440000  0.33600000  1.0 0.0479917518
I  I21  1  0.96830000  0.25730000  0.00010000  1.0 -0.1797307639
I  I22  1  0.74270000  0.03170000  0.50010000  1.0 -0.1797307639
I  I23  1  0.13010000  0.33970000  0.88300000  1.0 -0.0618720299
I  I24  1  0.66030000  0.86990000  0.38300000  1.0 -0.0618720299
I  I25  1  0.90620000  0.22180000  0.01900000  1.0 -0.1404589795
I  I26  1  0.77820000  0.09380000  0.51900000  1.0 -0.129920082
I  I27  1  0.11140000  0.36060000  0.92520000  1.0 -0.1122195695
I  I28  1  0.63940000  0.88860000  0.42520000  1.0 -0.1122195695
I  I29  1  0.63243000  0.84357000  0.93707000  1.0 -0.0030686321
I  I30  1  0.15643000  0.36757000  0.43707000  1.0 -0.0030686321
I  I31  1  0.69718000  0.95844000  0.79862000  1.0 0.0420142669
I  I32  1  0.04156000  0.30282000  0.29862000  1.0 0.0479917518
I  I33  1  0.34533000  0.12687000  0.60073000  1.0 -0.0687466191
I  I34  1  0.87313000  0.65467000  0.10073000  1.0 -0.0687466191
I  I35  1  0.62638000  0.65702000  0.86319000  1.0 -0.0030686321
I  I36  1  0.34298000  0.37362000  0.36319000  1.0 -0.0030686321
I  I37  1  0.21921000  0.93959000  0.48866000  1.0 -0.1577862877
I  I38  1  0.06041000  0.78079000  0.98866000  1.0 -0.1577862877
I  I39  1  0.52775000  0.00391000  0.69581000  1.0 -0.083080386
I  I40  1  0.99609000  0.47225000  0.19581000  1.0 -0.083080386
I  I41  1  0.61600000  0.84760000  0.93570000  1.0 0.0237968217
I  I42  1  0.15240000  0.38400000  0.43570000  1.0 0.0237968217
I  I43  1  0.63210000  0.67590000  0.86530000  1.0 -0.0283165138
I  I44  1  0.32410000  0.36790000  0.36530000  1.0 -0.0283165138
I  I45  1  0.63410000  0.95590000  0.78100000  1.0 -0.0135231203
I  I46  1  0.04410000  0.36590000  0.28100000  1.0 -0.0178124969
I  I47  1  0.50440000  0.04560000  0.66400000  1.0 0.0479917518
I  I48  1  0.95440000  0.49560000  0.16400000  1.0 0.0479917518
I  I49  1  0.25730000  0.96830000  0.49990000  1.0 -0.1797307639
I  I50  1  0.03170000  0.74270000  0.99990000  1.0 -0.1797307639
I  I51  1  0.33970000  0.13010000  0.61700000  1.0 -0.0618720299
I  I52  1  0.86990000  0.66030000  0.11700000  1.0 -0.0618720299
I  I53  1  0.22180000  0.90620000  0.48100000  1.0 -0.129920082
I  I54  1  0.09380000  0.77820000  0.98100000  1.0 -0.129920082
I  I55  1  0.36060000  0.11140000  0.57480000  1.0 -0.1182123144
I  I56  1  0.88860000  0.63940000  0.07480000  1.0 -0.1122195695
N  N1  1  0.49690000  0.13450000  0.75210000  1.0 -0.4116267776
N  N2  1  0.86550000  0.50310000  0.25210000  1.0 -0.4116267776
N  N3  1  0.66400000  0.22340000  0.77310000  1.0 -0.4041507367
N  N4  1  0.77660000  0.33600000  0.27310000  1.0 -0.4041507367
N  N5  1  0.66640000  0.43900000  0.64910000  1.0 -0.1797307639
N  N6  1  0.56100000  0.33360000  0.14910000  1.0 -0.1797307639
N  N7  1  0.86160000  0.19160000  0.88910000  1.0 -0.1797307639
N  N8  1  0.80840000  0.13840000  0.38910000  1.0 -0.1693682636
N  N9  1  0.54130000  0.06850000  0.80970000  1.0 -0.4166101564
N  N10  1  0.93150000  0.45870000  0.30970000  1.0 -0.4116267776
N  N11  1  0.79400000  0.74720000  0.97290000  1.0 -0.4298716422
N  N12  1  0.25280000  0.20600000  0.47290000  1.0 -0.4298716422
N  N13  1  0.79360000  0.64320000  0.94180000  1.0 -0.4298716422
N  N14  1  0.35680000  0.20640000  0.44180000  1.0 -0.4298716422
N  N15  1  0.88700000  0.80720000  0.91130000  1.0 -0.4116267776
N  N16  1  0.19280000  0.11300000  0.41130000  1.0 -0.4116267776
N  N17  1  0.93300000  0.08580000  0.93710000  1.0 -0.2028398651
N  N18  1  0.91420000  0.06700000  0.43710000  1.0 -0.2053362627
N  N19  1  0.97270000  0.68810000  0.82390000  1.0 -0.1797307639
N  N20  1  0.31190000  0.02730000  0.32390000  1.0 -0.1797307639
N  N21  1  0.55120000  0.42460000  0.05710000  1.0 -0.2028398651
N  N22  1  0.57540000  0.44880000  0.55710000  1.0 -0.2028398651
N  N23  1  0.17520000  0.80020000  0.78120000  1.0 -0.1693682636
N  N24  1  0.19980000  0.82480000  0.28120000  1.0 -0.1693682636
N  N25  1  0.13450000  0.49690000  0.74790000  1.0 -0.4116267776
N  N26  1  0.50310000  0.86550000  0.24790000  1.0 -0.4116267776
N  N27  1  0.22340000  0.66400000  0.72690000  1.0 -0.4041507367
N  N28  1  0.33600000  0.77660000  0.22690000  1.0 -0.4041507367
N  N29  1  0.43900000  0.66640000  0.85090000  1.0 -0.1797307639
N  N30  1  0.33360000  0.56100000  0.35090000  1.0 -0.1797307639
N  N31  1  0.19160000  0.86160000  0.61090000  1.0 -0.1797307639
N  N32  1  0.13840000  0.80840000  0.11090000  1.0 -0.1797307639
N  N33  1  0.06850000  0.54130000  0.69030000  1.0 -0.4166101564
N  N34  1  0.45870000  0.93150000  0.19030000  1.0 -0.4166101564
N  N35  1  0.74720000  0.79400000  0.52710000  1.0 -0.4298716422
N  N36  1  0.20600000  0.25280000  0.02710000  1.0 -0.4298716422
N  N37  1  0.64320000  0.79360000  0.55820000  1.0 -0.4298716422
N  N38  1  0.20640000  0.35680000  0.05820000  1.0 -0.4298716422
N  N39  1  0.80720000  0.88700000  0.58870000  1.0 -0.4116267776
N  N40  1  0.11300000  0.19280000  0.08870000  1.0 -0.4116267776
N  N41  1  0.08580000  0.93300000  0.56290000  1.0 -0.2053362627
N  N42  1  0.06700000  0.91420000  0.06290000  1.0 -0.2053362627
N  N43  1  0.68810000  0.97270000  0.67610000  1.0 -0.1797307639
N  N44  1  0.02730000  0.31190000  0.17610000  1.0 -0.1797307639
N  N45  1  0.42460000  0.55120000  0.44290000  1.0 -0.2028398651
N  N46  1  0.44880000  0.57540000  0.94290000  1.0 -0.2028398651
N  N47  1  0.80020000  0.17520000  0.71880000  1.0 -0.1693682636
N  N48  1  0.82480000  0.19980000  0.21880000  1.0 -0.1693682636
