# DDEC6 charges by PACMAN v1.1 (https://github.com/mtap-research/PACMAN-charge/)
data_LIRMIM_ASR_pacman
_symmetry_space_group_name_H-M   'P 1'
_cell_length_a   19.27710000
_cell_length_b   19.27710000
_cell_length_c   30.88510000
_cell_angle_alpha   78.53450000
_cell_angle_beta   101.46600000
_cell_angle_gamma   134.47100000
_symmetry_Int_Tables_number   1
_chemical_formula_structural   Zn3H8C12(I3N2)2
_chemical_formula_sum   'Zn36 H96 C144 I72 N48'
_cell_volume   7997.55045961
_cell_formula_units_Z   12
loop_
 _symmetry_equiv_pos_site_id
 _symmetry_equiv_pos_as_xyz
  1  'x, y, z'
loop_
 _atom_site_type_symbol
 _atom_site_label
 _atom_site_symmetry_multiplicity
 _atom_site_fract_x
 _atom_site_fract_y
 _atom_site_fract_z
 _atom_site_occupancy
 _atom_site_charge
Zn  Zn1  1  0.45650000  0.29990000  0.59530000  1.0 0.2606974377
Zn  Zn2  1  0.70010000  0.54350000  0.09530000  1.0 0.2606974377
Zn  Zn3  1  0.32061000  0.96999000  0.77516000  1.0 0.2304863262
Zn  Zn4  1  0.03001000  0.67939000  0.27516000  1.0 0.2304863262
Zn  Zn5  1  0.78060000  0.05220000  0.94810000  1.0 -0.0485839211
Zn  Zn6  1  0.94780000  0.21940000  0.44810000  1.0 -0.0485839211
Zn  Zn7  1  0.78447000  0.02973000  0.93345000  1.0 0.3177469171
Zn  Zn8  1  0.97027000  0.21553000  0.43345000  1.0 0.3177469171
Zn  Zn9  1  0.32230000  0.96830000  0.77690000  1.0 0.2304863262
Zn  Zn10  1  0.03170000  0.67770000  0.27690000  1.0 0.2304863262
Zn  Zn11  1  0.45672000  0.31148000  0.59810000  1.0 0.1733747519
Zn  Zn12  1  0.68852000  0.54328000  0.09810000  1.0 0.1733747519
Zn  Zn13  1  0.77870000  0.02430000  0.93140000  1.0 0.3177469171
Zn  Zn14  1  0.97570000  0.22130000  0.43140000  1.0 0.3121315076
Zn  Zn15  1  0.46100000  0.26700000  0.58100000  1.0 -0.1074264239
Zn  Zn16  1  0.73300000  0.53900000  0.08100000  1.0 -0.1074264239
Zn  Zn17  1  0.29700000  0.98100000  0.77890000  1.0 0.0102540034
Zn  Zn18  1  0.01900000  0.70300000  0.27890000  1.0 0.0102540034
Zn  Zn19  1  0.29990000  0.45650000  0.90470000  1.0 0.2606974377
Zn  Zn20  1  0.54350000  0.70010000  0.40470000  1.0 0.2606974377
Zn  Zn21  1  0.96999000  0.32061000  0.72484000  1.0 0.2304863262
Zn  Zn22  1  0.67939000  0.03001000  0.22484000  1.0 0.2304863262
Zn  Zn23  1  0.05220000  0.78060000  0.55190000  1.0 -0.0485839211
Zn  Zn24  1  0.21940000  0.94780000  0.05190000  1.0 -0.0485839211
Zn  Zn25  1  0.02973000  0.78447000  0.56655000  1.0 0.3177469171
Zn  Zn26  1  0.21553000  0.97027000  0.06655000  1.0 0.3121315076
Zn  Zn27  1  0.96830000  0.32230000  0.72310000  1.0 0.2304863262
Zn  Zn28  1  0.67770000  0.03170000  0.22310000  1.0 0.2304863262
Zn  Zn29  1  0.31148000  0.45672000  0.90190000  1.0 0.1733747519
Zn  Zn30  1  0.54328000  0.68852000  0.40190000  1.0 0.1733747519
Zn  Zn31  1  0.02430000  0.77870000  0.56860000  1.0 0.3121315076
Zn  Zn32  1  0.22130000  0.97570000  0.06860000  1.0 0.3121315076
Zn  Zn33  1  0.26700000  0.46100000  0.91900000  1.0 -0.1074264239
Zn  Zn34  1  0.53900000  0.73300000  0.41900000  1.0 -0.1074264239
Zn  Zn35  1  0.98100000  0.29700000  0.72110000  1.0 0.0102540034
Zn  Zn36  1  0.70300000  0.01900000  0.22110000  1.0 0.0102540034
H  H1  1  0.62083000  0.23185000  0.71761000  1.0 0.1010700784
H  H2  1  0.76815000  0.37917000  0.21761000  1.0 0.1010700784
H  H3  1  0.49019000  0.46143000  0.06304000  1.0 0.0894103828
H  H4  1  0.53857000  0.50981000  0.56304000  1.0 0.0894103828
H  H5  1  0.42170000  0.06756000  0.86249000  1.0 0.0702651579
H  H6  1  0.93244000  0.57830000  0.36249000  1.0 0.0702651579
H  H7  1  0.35500000  0.34110000  0.01819000  1.0 0.1308299131
H  H8  1  0.65890000  0.64500000  0.51819000  1.0 0.1308299131
H  H9  1  0.93560000  0.24594000  0.91679000  1.0 0.1010700784
H  H10  1  0.75406000  0.06440000  0.41679000  1.0 0.1010700784
H  H11  1  0.68039000  0.05003000  0.85231000  1.0 0.0702651579
H  H12  1  0.94997000  0.31961000  0.35231000  1.0 0.0702651579
H  H13  1  0.70075000  0.17203000  0.80454000  1.0 0.0894103828
H  H14  1  0.82797000  0.29925000  0.30454000  1.0 0.0894103828
H  H15  1  0.10346000  0.14092000  0.00224000  1.0 0.1308299131
H  H16  1  0.85908000  0.89654000  0.50224000  1.0 0.1308299131
H  H17  1  0.11506000  0.84012000  0.73755000  1.0 0.0702651579
H  H18  1  0.15988000  0.88494000  0.23755000  1.0 0.0702651579
H  H19  1  0.95601000  0.09777000  0.99921000  1.0 0.082395692
H  H20  1  0.90223000  0.04399000  0.49921000  1.0 0.082395692
H  H21  1  0.50470000  0.19841000  0.66028000  1.0 0.082395692
H  H22  1  0.80158000  0.49529000  0.16028000  1.0 0.082395692
H  H23  1  0.95980000  0.37142000  0.87234000  1.0 0.1185879754
H  H24  1  0.62858000  0.04020000  0.37234000  1.0 0.1185879754
H  H25  1  0.24978000  0.77522000  0.82028000  1.0 0.0702651579
H  H26  1  0.22478000  0.75022000  0.32028000  1.0 0.0702651579
H  H27  1  0.76819000  0.51555000  0.69086000  1.0 0.1010700784
H  H28  1  0.48445000  0.23181000  0.19086000  1.0 0.1010700784
H  H29  1  0.51630000  0.30130000  0.98488000  1.0 0.1308299131
H  H30  1  0.69870000  0.48370000  0.48488000  1.0 0.1308299131
H  H31  1  0.41091000  0.13337000  0.91064000  1.0 0.1308299131
H  H32  1  0.86663000  0.58909000  0.41064000  1.0 0.1308299131
H  H33  1  0.10779000  0.61115000  0.82500000  1.0 0.1351636148
H  H34  1  0.38885000  0.89221000  0.32500000  1.0 0.1351636148
H  H35  1  0.97195000  0.67615000  0.73621000  1.0 0.1308299131
H  H36  1  0.32385000  0.02805000  0.23621000  1.0 0.1308299131
H  H37  1  0.64632000  0.42270000  0.03059000  1.0 0.082395692
H  H38  1  0.57730000  0.35368000  0.53059000  1.0 0.082395692
H  H39  1  0.63704000  0.47436000  0.64182000  1.0 0.082395692
H  H40  1  0.52564000  0.36296000  0.14182000  1.0 0.082395692
H  H41  1  0.18925000  0.98863000  0.79157000  1.0 0.082395692
H  H42  1  0.01137000  0.81075000  0.29157000  1.0 0.082395692
H  H43  1  0.16922000  0.05110000  0.83767000  1.0 0.1185879754
H  H44  1  0.94890000  0.83078000  0.33767000  1.0 0.1185879754
H  H45  1  0.89888000  0.04382000  0.87508000  1.0 0.082395692
H  H46  1  0.95618000  0.10112000  0.37508000  1.0 0.082395692
H  H47  1  0.04299000  0.08587000  0.87519000  1.0 0.1185879754
H  H48  1  0.91413000  0.95701000  0.37519000  1.0 0.1185879754
H  H49  1  0.23185000  0.62083000  0.78239000  1.0 0.1010700784
H  H50  1  0.37917000  0.76815000  0.28239000  1.0 0.1010700784
H  H51  1  0.46143000  0.49019000  0.43696000  1.0 0.0894103828
H  H52  1  0.50981000  0.53857000  0.93696000  1.0 0.0894103828
H  H53  1  0.06756000  0.42170000  0.63751000  1.0 0.0702651579
H  H54  1  0.57830000  0.93244000  0.13751000  1.0 0.0702651579
H  H55  1  0.34110000  0.35500000  0.48181000  1.0 0.1308299131
H  H56  1  0.64500000  0.65890000  0.98181000  1.0 0.1308299131
H  H57  1  0.24594000  0.93560000  0.58321000  1.0 0.1010700784
H  H58  1  0.06440000  0.75406000  0.08321000  1.0 0.1010700784
H  H59  1  0.05003000  0.68039000  0.64769000  1.0 0.0702651579
H  H60  1  0.31961000  0.94997000  0.14769000  1.0 0.0702651579
H  H61  1  0.17203000  0.70075000  0.69546000  1.0 0.0894103828
H  H62  1  0.29925000  0.82797000  0.19546000  1.0 0.0894103828
H  H63  1  0.14092000  0.10346000  0.49776000  1.0 0.1308299131
H  H64  1  0.89654000  0.85908000  0.99776000  1.0 0.1308299131
H  H65  1  0.84012000  0.11506000  0.76245000  1.0 0.0702651579
H  H66  1  0.88494000  0.15988000  0.26245000  1.0 0.0702651579
H  H67  1  0.09777000  0.95601000  0.50079000  1.0 0.082395692
H  H68  1  0.04399000  0.90223000  0.00079000  1.0 0.082395692
H  H69  1  0.19841000  0.50470000  0.83972000  1.0 0.082395692
H  H70  1  0.49529000  0.80158000  0.33972000  1.0 0.082395692
H  H71  1  0.37142000  0.95980000  0.62766000  1.0 0.1185879754
H  H72  1  0.04020000  0.62858000  0.12766000  1.0 0.1185879754
H  H73  1  0.77522000  0.24978000  0.67972000  1.0 0.0702651579
H  H74  1  0.75022000  0.22478000  0.17972000  1.0 0.0702651579
H  H75  1  0.51555000  0.76819000  0.80914000  1.0 0.1010700784
H  H76  1  0.23181000  0.48445000  0.30914000  1.0 0.1010700784
H  H77  1  0.30130000  0.51630000  0.51512000  1.0 0.1308299131
H  H78  1  0.48370000  0.69870000  0.01512000  1.0 0.1308299131
H  H79  1  0.13337000  0.41091000  0.58936000  1.0 0.1308299131
H  H80  1  0.58909000  0.86663000  0.08936000  1.0 0.1308299131
H  H81  1  0.61115000  0.10779000  0.67500000  1.0 0.1351636148
H  H82  1  0.89221000  0.38885000  0.17500000  1.0 0.1351636148
H  H83  1  0.67615000  0.97195000  0.76379000  1.0 0.1308299131
H  H84  1  0.02805000  0.32385000  0.26379000  1.0 0.1308299131
H  H85  1  0.42270000  0.64632000  0.46941000  1.0 0.082395692
H  H86  1  0.35368000  0.57730000  0.96941000  1.0 0.082395692
H  H87  1  0.47436000  0.63704000  0.85818000  1.0 0.082395692
H  H88  1  0.36296000  0.52564000  0.35818000  1.0 0.082395692
H  H89  1  0.98863000  0.18925000  0.70843000  1.0 0.082395692
H  H90  1  0.81075000  0.01137000  0.20843000  1.0 0.082395692
H  H91  1  0.05110000  0.16922000  0.66233000  1.0 0.1185879754
H  H92  1  0.83078000  0.94890000  0.16233000  1.0 0.1185879754
H  H93  1  0.04382000  0.89888000  0.62492000  1.0 0.082395692
H  H94  1  0.10112000  0.95618000  0.12492000  1.0 0.082395692
H  H95  1  0.08587000  0.04299000  0.62481000  1.0 0.1185879754
H  H96  1  0.95701000  0.91413000  0.12481000  1.0 0.1185879754
C  C1  1  0.18076000  0.14184000  0.94000000  1.0 0.2799082867
C  C2  1  0.85816000  0.81924000  0.44000000  1.0 0.2799082867
C  C3  1  0.33729000  0.23171000  0.96741000  1.0 0.2606974377
C  C4  1  0.76829000  0.66271000  0.46741000  1.0 0.2606974377
C  C5  1  0.83242000  0.28458000  0.83306000  1.0 0.0301338612
C  C6  1  0.71542000  0.16758000  0.33306000  1.0 0.0301338612
C  C7  1  0.84548000  0.36272000  0.80285000  1.0 0.3314540482
C  C8  1  0.63728000  0.15452000  0.30285000  1.0 0.3314540482
C  C9  1  0.70476000  0.37884000  0.71190000  1.0 0.0301338612
C  C10  1  0.62116000  0.29524000  0.21190000  1.0 0.0301338612
C  C11  1  0.08712000  0.11508000  0.94000000  1.0 0.0207853642
C  C12  1  0.88492000  0.91288000  0.44000000  1.0 0.0207853642
C  C13  1  0.78412000  0.40568000  0.74701000  1.0 0.3466992176
C  C14  1  0.59432000  0.21588000  0.24701000  1.0 0.3466992176
C  C15  1  0.42136000  0.30784000  0.99697000  1.0 0.0023624242
C  C16  1  0.69216000  0.57864000  0.49697000  1.0 -0.0023408318
C  C17  1  0.27578000  0.13702000  0.91180000  1.0 0.2860160193
C  C18  1  0.86298000  0.72422000  0.41180000  1.0 0.2860160193
C  C19  1  0.28762000  0.09758000  0.88100000  1.0 0.0475923857
C  C20  1  0.90242000  0.71238000  0.38100000  1.0 0.0475923857
C  C21  1  0.93245000  0.52175000  0.78010000  1.0 0.3121315076
C  C22  1  0.47825000  0.06755000  0.28010000  1.0 0.3121315076
C  C23  1  0.62670000  0.28310000  0.70170000  1.0 -0.1509793901
C  C24  1  0.71690000  0.37330000  0.20170000  1.0 -0.1509793901
C  C25  1  0.02399000  0.62581000  0.78130000  1.0 0.0413180928
C  C26  1  0.37419000  0.97601000  0.28130000  1.0 0.0413180928
C  C27  1  0.49492000  0.42748000  0.04730000  1.0 0.0023624242
C  C28  1  0.57252000  0.50508000  0.54730000  1.0 0.0023624242
C  C29  1  0.36870000  0.06350000  0.85760000  1.0 0.0102540034
C  C30  1  0.93650000  0.63130000  0.35760000  1.0 0.0102540034
C  C31  1  0.41420000  0.35620000  0.02040000  1.0 -0.1299550568
C  C32  1  0.64380000  0.58580000  0.52040000  1.0 -0.1299550568
C  C33  1  0.88655000  0.23065000  0.89400000  1.0 -0.0399673326
C  C34  1  0.76935000  0.11345000  0.39400000  1.0 -0.0399673326
C  C35  1  0.73804000  0.11636000  0.85630000  1.0 -0.0399673326
C  C36  1  0.88364000  0.26196000  0.35630000  1.0 -0.0399673326
C  C37  1  0.74975000  0.18885000  0.82770000  1.0 -0.1428130345
C  C38  1  0.81115000  0.25025000  0.32770000  1.0 -0.1428130345
C  C39  1  0.06156000  0.12004000  0.97560000  1.0 -0.1299550568
C  C40  1  0.87996000  0.93844000  0.47560000  1.0 -0.1299550568
C  C41  1  0.11380000  0.79260000  0.75470000  1.0 0.0102540034
C  C42  1  0.20740000  0.88620000  0.25470000  1.0 0.0102540034
C  C43  1  0.97382000  0.09458000  0.97360000  1.0 -0.0023408318
C  C44  1  0.90542000  0.02618000  0.47360000  1.0 -0.0102184814
C  C45  1  0.55741000  0.26379000  0.66780000  1.0 -0.0704259213
C  C46  1  0.73621000  0.44259000  0.16780000  1.0 -0.0704259213
C  C47  1  0.90201000  0.30559000  0.86740000  1.0 -0.1509793901
C  C48  1  0.69441000  0.09799000  0.36740000  1.0 -0.1509793901
C  C49  1  0.19200000  0.75480000  0.80350000  1.0 0.0413180928
C  C50  1  0.24520000  0.80800000  0.30350000  1.0 0.0413180928
C  C51  1  0.71130000  0.44890000  0.68700000  1.0 -0.1428130345
C  C52  1  0.55110000  0.28870000  0.18700000  1.0 -0.1428130345
C  C53  1  0.50870000  0.33270000  0.00080000  1.0 -0.1181214039
C  C54  1  0.66730000  0.49130000  0.50080000  1.0 -0.1181214039
C  C55  1  0.36280000  0.10240000  0.88640000  1.0 -0.1509793901
C  C56  1  0.89760000  0.63720000  0.38640000  1.0 -0.1509793901
C  C57  1  0.10790000  0.65670000  0.80620000  1.0 -0.1428130345
C  C58  1  0.34330000  0.89210000  0.30620000  1.0 -0.1428130345
C  C59  1  0.02790000  0.69530000  0.75450000  1.0 -0.1299550568
C  C60  1  0.30470000  0.97210000  0.25450000  1.0 -0.1299550568
C  C61  1  0.58560000  0.40480000  0.02830000  1.0 -0.0023408318
C  C62  1  0.59520000  0.41440000  0.52830000  1.0 -0.0023408318
C  C63  1  0.63570000  0.42490000  0.65580000  1.0 0.0207853642
C  C64  1  0.57510000  0.36430000  0.15580000  1.0 0.0207853642
C  C65  1  0.23460000  0.01800000  0.81680000  1.0 0.0301338612
C  C66  1  0.98200000  0.76540000  0.31680000  1.0 0.0301338612
C  C67  1  0.22180000  0.05460000  0.84380000  1.0 -0.1299550568
C  C68  1  0.94540000  0.77820000  0.34380000  1.0 -0.1299550568
C  C69  1  0.94080000  0.06340000  0.90170000  1.0 -0.0102184814
C  C70  1  0.93660000  0.05920000  0.40170000  1.0 -0.0102184814
C  C71  1  0.02590000  0.08770000  0.90140000  1.0 -0.1428130345
C  C72  1  0.91230000  0.97410000  0.40140000  1.0 -0.1428130345
C  C73  1  0.14184000  0.18076000  0.56000000  1.0 0.2799082867
C  C74  1  0.81924000  0.85816000  0.06000000  1.0 0.2799082867
C  C75  1  0.23171000  0.33729000  0.53259000  1.0 0.2606974377
C  C76  1  0.66271000  0.76829000  0.03259000  1.0 0.2606974377
C  C77  1  0.28458000  0.83242000  0.66694000  1.0 0.0301338612
C  C78  1  0.16758000  0.71542000  0.16694000  1.0 0.0301338612
C  C79  1  0.36272000  0.84548000  0.69715000  1.0 0.3314540482
C  C80  1  0.15452000  0.63728000  0.19715000  1.0 0.3314540482
C  C81  1  0.37884000  0.70476000  0.78810000  1.0 0.0301338612
C  C82  1  0.29524000  0.62116000  0.28810000  1.0 0.0301338612
C  C83  1  0.11508000  0.08712000  0.56000000  1.0 0.0207853642
C  C84  1  0.91288000  0.88492000  0.06000000  1.0 0.0207853642
C  C85  1  0.40568000  0.78412000  0.75299000  1.0 0.3466992176
C  C86  1  0.21588000  0.59432000  0.25299000  1.0 0.3466992176
C  C87  1  0.30784000  0.42136000  0.50303000  1.0 0.0023624242
C  C88  1  0.57864000  0.69216000  0.00303000  1.0 -0.0023408318
C  C89  1  0.13702000  0.27578000  0.58820000  1.0 0.2860160193
C  C90  1  0.72422000  0.86298000  0.08820000  1.0 0.2860160193
C  C91  1  0.09758000  0.28762000  0.61900000  1.0 0.0475923857
C  C92  1  0.71238000  0.90242000  0.11900000  1.0 0.0475923857
C  C93  1  0.52175000  0.93245000  0.71990000  1.0 0.3121315076
C  C94  1  0.06755000  0.47825000  0.21990000  1.0 0.3121315076
C  C95  1  0.28310000  0.62670000  0.79830000  1.0 -0.1509793901
C  C96  1  0.37330000  0.71690000  0.29830000  1.0 -0.1509793901
C  C97  1  0.62581000  0.02399000  0.71870000  1.0 0.0413180928
C  C98  1  0.97601000  0.37419000  0.21870000  1.0 0.0413180928
C  C99  1  0.42748000  0.49492000  0.45270000  1.0 0.0023624242
C  C100  1  0.50508000  0.57252000  0.95270000  1.0 0.0023624242
C  C101  1  0.06350000  0.36870000  0.64240000  1.0 0.0102540034
C  C102  1  0.63130000  0.93650000  0.14240000  1.0 0.0102540034
C  C103  1  0.35620000  0.41420000  0.47960000  1.0 -0.1299550568
C  C104  1  0.58580000  0.64380000  0.97960000  1.0 -0.1299550568
C  C105  1  0.23065000  0.88655000  0.60600000  1.0 -0.0399673326
C  C106  1  0.11345000  0.76935000  0.10600000  1.0 -0.0399673326
C  C107  1  0.11636000  0.73804000  0.64370000  1.0 -0.0399673326
C  C108  1  0.26196000  0.88364000  0.14370000  1.0 -0.0399673326
C  C109  1  0.18885000  0.74975000  0.67230000  1.0 -0.1428130345
C  C110  1  0.25025000  0.81115000  0.17230000  1.0 -0.1428130345
C  C111  1  0.12004000  0.06156000  0.52440000  1.0 -0.1299550568
C  C112  1  0.93844000  0.87996000  0.02440000  1.0 -0.1299550568
C  C113  1  0.79260000  0.11380000  0.74530000  1.0 0.0102540034
C  C114  1  0.88620000  0.20740000  0.24530000  1.0 0.0102540034
C  C115  1  0.09458000  0.97382000  0.52640000  1.0 -0.0102184814
C  C116  1  0.02618000  0.90542000  0.02640000  1.0 -0.0102184814
C  C117  1  0.26379000  0.55741000  0.83220000  1.0 -0.0704259213
C  C118  1  0.44259000  0.73621000  0.33220000  1.0 -0.0704259213
C  C119  1  0.30559000  0.90201000  0.63260000  1.0 -0.1509793901
C  C120  1  0.09799000  0.69441000  0.13260000  1.0 -0.1509793901
C  C121  1  0.75480000  0.19200000  0.69650000  1.0 0.0413180928
C  C122  1  0.80800000  0.24520000  0.19650000  1.0 0.0413180928
C  C123  1  0.44890000  0.71130000  0.81300000  1.0 -0.1428130345
C  C124  1  0.28870000  0.55110000  0.31300000  1.0 -0.1428130345
C  C125  1  0.33270000  0.50870000  0.49920000  1.0 -0.1181214039
C  C126  1  0.49130000  0.66730000  0.99920000  1.0 -0.1181214039
C  C127  1  0.10240000  0.36280000  0.61360000  1.0 -0.1509793901
C  C128  1  0.63720000  0.89760000  0.11360000  1.0 -0.1509793901
C  C129  1  0.65670000  0.10790000  0.69380000  1.0 -0.1428130345
C  C130  1  0.89210000  0.34330000  0.19380000  1.0 -0.1428130345
C  C131  1  0.69530000  0.02790000  0.74550000  1.0 -0.1299550568
C  C132  1  0.97210000  0.30470000  0.24550000  1.0 -0.1299550568
C  C133  1  0.40480000  0.58560000  0.47170000  1.0 -0.0023408318
C  C134  1  0.41440000  0.59520000  0.97170000  1.0 -0.0023408318
C  C135  1  0.42490000  0.63570000  0.84420000  1.0 0.0207853642
C  C136  1  0.36430000  0.57510000  0.34420000  1.0 0.0207853642
C  C137  1  0.01800000  0.23460000  0.68320000  1.0 0.0301338612
C  C138  1  0.76540000  0.98200000  0.18320000  1.0 0.0301338612
C  C139  1  0.05460000  0.22180000  0.65620000  1.0 -0.1299550568
C  C140  1  0.77820000  0.94540000  0.15620000  1.0 -0.1299550568
C  C141  1  0.06340000  0.94080000  0.59830000  1.0 -0.0102184814
C  C142  1  0.05920000  0.93660000  0.09830000  1.0 -0.0102184814
C  C143  1  0.08770000  0.02590000  0.59860000  1.0 -0.1428130345
C  C144  1  0.97410000  0.91230000  0.09860000  1.0 -0.1428130345
I  I1  1  0.38083000  0.15217000  0.55768000  1.0 -0.0918039509
I  I2  1  0.84783000  0.61917000  0.05768000  1.0 -0.0918039509
I  I3  1  0.37162000  0.33098000  0.62848000  1.0 -0.0399673326
I  I4  1  0.66902000  0.62838000  0.12848000  1.0 -0.0485839211
I  I5  1  0.46881000  0.99263000  0.80288000  1.0 0.0894103828
I  I6  1  0.00737000  0.53119000  0.30288000  1.0 0.0894103828
I  I7  1  0.29729000  0.03871000  0.69998000  1.0 0.082395692
I  I8  1  0.96129000  0.70271000  0.19998000  1.0 0.082395692
I  I9  1  0.64040000  0.88440000  0.92110000  1.0 -0.1299550568
I  I10  1  0.11560000  0.35960000  0.42110000  1.0 -0.1299550568
I  I11  1  0.78140000  0.09460000  0.01900000  1.0 -0.0704259213
I  I12  1  0.90540000  0.21860000  0.51900000  1.0 -0.0624353981
I  I13  1  0.65198000  0.87022000  0.89815000  1.0 0.059051171
I  I14  1  0.12978000  0.34802000  0.39815000  1.0 0.059051171
I  I15  1  0.77499000  0.05473000  0.00857000  1.0 -0.0399673326
I  I16  1  0.94527000  0.22501000  0.50857000  1.0 -0.0485839211
I  I17  1  0.31440000  0.04960000  0.70390000  1.0 0.059051171
I  I18  1  0.95040000  0.68560000  0.20390000  1.0 0.059051171
I  I19  1  0.46820000  0.99020000  0.80340000  1.0 0.0894103828
I  I20  1  0.00980000  0.53180000  0.30340000  1.0 0.0894103828
I  I21  1  0.36566000  0.15414000  0.56517000  1.0 -0.1299550568
I  I22  1  0.84586000  0.63434000  0.06517000  1.0 -0.1299550568
I  I23  1  0.38243000  0.35377000  0.63142000  1.0 -0.0485839211
I  I24  1  0.64623000  0.61757000  0.13142000  1.0 -0.0624353981
I  I25  1  0.65980000  0.87040000  0.88990000  1.0 0.0301338612
I  I26  1  0.12960000  0.34020000  0.38990000  1.0 0.0301338612
I  I27  1  0.75540000  0.04540000  0.00500000  1.0 -0.0624353981
I  I28  1  0.95460000  0.24460000  0.50500000  1.0 -0.0704259213
I  I29  1  0.41770000  0.14030000  0.55170000  1.0 -0.0797163953
I  I30  1  0.85970000  0.58230000  0.05170000  1.0 -0.0704259213
I  I31  1  0.37810000  0.28590000  0.62520000  1.0 -0.1633440979
I  I32  1  0.71410000  0.62190000  0.12520000  1.0 -0.1633440979
I  I33  1  0.45910000  0.01730000  0.79880000  1.0 -0.1044428178
I  I34  1  0.98270000  0.54090000  0.29880000  1.0 -0.1074264239
I  I35  1  0.27560000  0.05580000  0.70880000  1.0 -0.0485839211
I  I36  1  0.94420000  0.72440000  0.20880000  1.0 -0.0485839211
I  I37  1  0.15217000  0.38083000  0.94232000  1.0 -0.0918039509
I  I38  1  0.61917000  0.84783000  0.44232000  1.0 -0.0918039509
I  I39  1  0.33098000  0.37162000  0.87152000  1.0 -0.0399673326
I  I40  1  0.62838000  0.66902000  0.37152000  1.0 -0.0399673326
I  I41  1  0.99263000  0.46881000  0.69712000  1.0 0.082395692
I  I42  1  0.53119000  0.00737000  0.19712000  1.0 0.082395692
I  I43  1  0.03871000  0.29729000  0.80002000  1.0 0.082395692
I  I44  1  0.70271000  0.96129000  0.30002000  1.0 0.082395692
I  I45  1  0.88440000  0.64040000  0.57890000  1.0 -0.1299550568
I  I46  1  0.35960000  0.11560000  0.07890000  1.0 -0.1299550568
I  I47  1  0.09460000  0.78140000  0.48100000  1.0 -0.0624353981
I  I48  1  0.21860000  0.90540000  0.98100000  1.0 -0.0624353981
I  I49  1  0.87022000  0.65198000  0.60185000  1.0 0.059051171
I  I50  1  0.34802000  0.12978000  0.10185000  1.0 0.0475923857
I  I51  1  0.05473000  0.77499000  0.49143000  1.0 -0.0485839211
I  I52  1  0.22501000  0.94527000  0.99143000  1.0 -0.0399673326
I  I53  1  0.04960000  0.31440000  0.79610000  1.0 0.059051171
I  I54  1  0.68560000  0.95040000  0.29610000  1.0 0.059051171
I  I55  1  0.99020000  0.46820000  0.69660000  1.0 0.082395692
I  I56  1  0.53180000  0.00980000  0.19660000  1.0 0.0894103828
I  I57  1  0.15414000  0.36566000  0.93483000  1.0 -0.1299550568
I  I58  1  0.63434000  0.84586000  0.43483000  1.0 -0.1299550568
I  I59  1  0.35377000  0.38243000  0.86858000  1.0 -0.0485839211
I  I60  1  0.61757000  0.64623000  0.36858000  1.0 -0.0485839211
I  I61  1  0.87040000  0.65980000  0.61010000  1.0 0.0301338612
I  I62  1  0.34020000  0.12960000  0.11010000  1.0 0.0301338612
I  I63  1  0.04540000  0.75540000  0.49500000  1.0 -0.0624353981
I  I64  1  0.24460000  0.95460000  0.99500000  1.0 -0.0624353981
I  I65  1  0.14030000  0.41770000  0.94830000  1.0 -0.0797163953
I  I66  1  0.58230000  0.85970000  0.44830000  1.0 -0.0704259213
I  I67  1  0.28590000  0.37810000  0.87480000  1.0 -0.1633440979
I  I68  1  0.62190000  0.71410000  0.37480000  1.0 -0.1633440979
I  I69  1  0.01730000  0.45910000  0.70120000  1.0 -0.1044428178
I  I70  1  0.54090000  0.98270000  0.20120000  1.0 -0.1074264239
I  I71  1  0.05580000  0.27560000  0.79120000  1.0 -0.0485839211
I  I72  1  0.72440000  0.94420000  0.29120000  1.0 -0.0485839211
N  N1  1  0.25151000  0.20209000  0.97093000  1.0 -0.3894879692
N  N2  1  0.79791000  0.74849000  0.47093000  1.0 -0.3894879692
N  N3  1  0.77246000  0.33354000  0.77195000  1.0 -0.3894879692
N  N4  1  0.66646000  0.22754000  0.27195000  1.0 -0.3894879692
N  N5  1  0.92767000  0.45553000  0.80833000  1.0 -0.3894879692
N  N6  1  0.54447000  0.07233000  0.30833000  1.0 -0.3894879692
N  N7  1  0.80532000  0.13688000  0.88930000  1.0 -0.1758187764
N  N8  1  0.86312000  0.19468000  0.38930000  1.0 -0.1758187764
N  N9  1  0.18961000  0.10899000  0.91001000  1.0 -0.3894879692
N  N10  1  0.89101000  0.81039000  0.41001000  1.0 -0.3894879692
N  N11  1  0.35306000  0.20054000  0.93976000  1.0 -0.3894879692
N  N12  1  0.79946000  0.64694000  0.43976000  1.0 -0.3894879692
N  N13  1  0.86044000  0.49956000  0.75006000  1.0 -0.3810912722
N  N14  1  0.50044000  0.13956000  0.25006000  1.0 -0.3810912722
N  N15  1  0.30607000  0.01993000  0.82280000  1.0 -0.1509793901
N  N16  1  0.98007000  0.69393000  0.32280000  1.0 -0.1509793901
N  N17  1  0.56171000  0.33329000  0.64540000  1.0 -0.1684841529
N  N18  1  0.66666667  0.43829000  0.14540000  1.0 -0.1684841529
N  N19  1  0.57725000  0.44915000  0.05144000  1.0 -0.1926833965
N  N20  1  0.55085000  0.42275000  0.55144000  1.0 -0.1926833965
N  N21  1  0.91324000  0.06556000  0.93648000  1.0 -0.211634915
N  N22  1  0.93444000  0.08676000  0.43648000  1.0 -0.211634915
N  N23  1  0.19593000  0.82187000  0.77844000  1.0 -0.211634915
N  N24  1  0.17813000  0.80407000  0.27844000  1.0 -0.211634915
N  N25  1  0.20209000  0.25151000  0.52907000  1.0 -0.3894879692
N  N26  1  0.74849000  0.79791000  0.02907000  1.0 -0.3894879692
N  N27  1  0.33354000  0.77246000  0.72805000  1.0 -0.3894879692
N  N28  1  0.22754000  0.66646000  0.22805000  1.0 -0.3894879692
N  N29  1  0.45553000  0.92767000  0.69167000  1.0 -0.3894879692
N  N30  1  0.07233000  0.54447000  0.19167000  1.0 -0.3894879692
N  N31  1  0.13688000  0.80532000  0.61070000  1.0 -0.1758187764
N  N32  1  0.19468000  0.86312000  0.11070000  1.0 -0.1758187764
N  N33  1  0.10899000  0.18961000  0.58999000  1.0 -0.3894879692
N  N34  1  0.81039000  0.89101000  0.08999000  1.0 -0.3894879692
N  N35  1  0.20054000  0.35306000  0.56024000  1.0 -0.3894879692
N  N36  1  0.64694000  0.79946000  0.06024000  1.0 -0.3894879692
N  N37  1  0.49956000  0.86044000  0.74994000  1.0 -0.3810912722
N  N38  1  0.13956000  0.50044000  0.24994000  1.0 -0.3810912722
N  N39  1  0.01993000  0.30607000  0.67720000  1.0 -0.1509793901
N  N40  1  0.69393000  0.98007000  0.17720000  1.0 -0.1509793901
N  N41  1  0.33329000  0.56171000  0.85460000  1.0 -0.1684841529
N  N42  1  0.43829000  0.66666667  0.35460000  1.0 -0.1684841529
N  N43  1  0.44915000  0.57725000  0.44856000  1.0 -0.1926833965
N  N44  1  0.42275000  0.55085000  0.94856000  1.0 -0.1926833965
N  N45  1  0.06556000  0.91324000  0.56352000  1.0 -0.211634915
N  N46  1  0.08676000  0.93444000  0.06352000  1.0 -0.211634915
N  N47  1  0.82187000  0.19593000  0.72156000  1.0 -0.211634915
N  N48  1  0.80407000  0.17813000  0.22156000  1.0 -0.211634915
