# DDEC6 charges by PACMAN v1.1 (https://github.com/mtap-research/PACMAN-charge/)
data_LIRTUC_FSR_pacman
_symmetry_space_group_name_H-M   'P 1'
_cell_length_a   13.40030000
_cell_length_b   13.40030000
_cell_length_c   24.36690000
_cell_angle_alpha   90.00000000
_cell_angle_beta   90.00000000
_cell_angle_gamma   90.00000000
_symmetry_Int_Tables_number   1
_chemical_formula_structural   Cd2H28(C11O4)3
_chemical_formula_sum   'Cd8 H112 C132 O48'
_cell_volume   4375.51647607
_cell_formula_units_Z   4
loop_
 _symmetry_equiv_pos_site_id
 _symmetry_equiv_pos_as_xyz
  1  'x, y, z'
loop_
 _atom_site_type_symbol
 _atom_site_label
 _atom_site_symmetry_multiplicity
 _atom_site_fract_x
 _atom_site_fract_y
 _atom_site_fract_z
 _atom_site_occupancy
 _atom_site_charge
Cd  Cd1  1  0.88472000  0.42743000  0.15551000  1.0 0.999793176
Cd  Cd2  1  0.11528000  0.57257000  0.15551000  1.0 0.999793176
Cd  Cd3  1  0.07257000  0.38472000  0.65551000  1.0 0.999793176
Cd  Cd4  1  0.92743000  0.61528000  0.65551000  1.0 0.999793176
Cd  Cd5  1  0.61528000  0.92743000  0.34449000  1.0 0.999793176
Cd  Cd6  1  0.38472000  0.07257000  0.34449000  1.0 0.999793176
Cd  Cd7  1  0.42743000  0.88472000  0.84449000  1.0 0.999793176
Cd  Cd8  1  0.57257000  0.11528000  0.84449000  1.0 0.999793176
H  H1  1  0.57240000  0.27240000  0.35800000  1.0 0.1117127383
H  H2  1  0.42760000  0.72760000  0.35800000  1.0 0.1117127383
H  H3  1  0.22760000  0.07240000  0.85800000  1.0 0.1117127383
H  H4  1  0.77240000  0.92760000  0.85800000  1.0 0.1117127383
H  H5  1  0.92760000  0.77240000  0.14200000  1.0 0.1117127383
H  H6  1  0.07240000  0.22760000  0.14200000  1.0 0.1117127383
H  H7  1  0.27240000  0.57240000  0.64200000  1.0 0.1117127383
H  H8  1  0.72760000  0.42760000  0.64200000  1.0 0.1117127383
H  H9  1  0.75390000  0.24480000  0.40700000  1.0 0.0994539476
H  H10  1  0.24610000  0.75520000  0.40700000  1.0 0.0994539476
H  H11  1  0.25520000  0.25390000  0.90700000  1.0 0.0994539476
H  H12  1  0.74480000  0.74610000  0.90700000  1.0 0.0994539476
H  H13  1  0.74610000  0.74480000  0.09300000  1.0 0.0994539476
H  H14  1  0.25390000  0.25520000  0.09300000  1.0 0.0994539476
H  H15  1  0.24480000  0.75390000  0.59300000  1.0 0.0994539476
H  H16  1  0.75520000  0.24610000  0.59300000  1.0 0.0994539476
H  H17  1  0.67710000  0.33260000  0.41700000  1.0 0.1117127383
H  H18  1  0.32290000  0.66740000  0.41700000  1.0 0.1117127383
H  H19  1  0.16740000  0.17710000  0.91700000  1.0 0.1117127383
H  H20  1  0.83260000  0.82290000  0.91700000  1.0 0.1117127383
H  H21  1  0.82290000  0.83260000  0.08300000  1.0 0.1117127383
H  H22  1  0.17710000  0.16740000  0.08300000  1.0 0.1117127383
H  H23  1  0.33260000  0.67710000  0.58300000  1.0 0.1117127383
H  H24  1  0.66740000  0.32290000  0.58300000  1.0 0.1117127383
H  H25  1  0.78300000  0.42390000  0.36750000  1.0 0.1117127383
H  H26  1  0.21700000  0.57610000  0.36750000  1.0 0.1117127383
H  H27  1  0.07610000  0.28300000  0.86750000  1.0 0.1117127383
H  H28  1  0.92390000  0.71700000  0.86750000  1.0 0.1117127383
H  H29  1  0.71700000  0.92390000  0.13250000  1.0 0.1117127383
H  H30  1  0.28300000  0.07610000  0.13250000  1.0 0.1117127383
H  H31  1  0.42390000  0.78300000  0.63250000  1.0 0.1117127383
H  H32  1  0.57610000  0.21700000  0.63250000  1.0 0.1117127383
H  H33  1  0.83440000  0.32910000  0.34240000  1.0 0.0994539476
H  H34  1  0.16560000  0.67090000  0.34240000  1.0 0.0994539476
H  H35  1  0.17090000  0.33440000  0.84240000  1.0 0.0994539476
H  H36  1  0.82910000  0.66560000  0.84240000  1.0 0.0994539476
H  H37  1  0.66560000  0.82910000  0.15760000  1.0 0.0994539476
H  H38  1  0.33440000  0.17090000  0.15760000  1.0 0.0994539476
H  H39  1  0.32910000  0.83440000  0.65760000  1.0 0.0994539476
H  H40  1  0.67090000  0.16560000  0.65760000  1.0 0.0994539476
H  H41  1  0.64570000  0.51040000  0.30280000  1.0 0.1374319341
H  H42  1  0.35430000  0.48960000  0.30280000  1.0 0.1374319341
H  H43  1  0.98960000  0.14570000  0.80280000  1.0 0.1374319341
H  H44  1  0.01040000  0.85430000  0.80280000  1.0 0.1374319341
H  H45  1  0.85430000  0.01040000  0.19720000  1.0 0.1374319341
H  H46  1  0.14570000  0.98960000  0.19720000  1.0 0.1374319341
H  H47  1  0.51040000  0.64570000  0.69720000  1.0 0.1374319341
H  H48  1  0.48960000  0.35430000  0.69720000  1.0 0.1374319341
H  H49  1  0.58680000  0.42490000  0.33250000  1.0 0.1193097825
H  H50  1  0.41320000  0.57510000  0.33250000  1.0 0.1193097825
H  H51  1  0.07510000  0.08680000  0.83250000  1.0 0.1193097825
H  H52  1  0.92490000  0.91320000  0.83250000  1.0 0.1193097825
H  H53  1  0.91320000  0.92490000  0.16750000  1.0 0.1193097825
H  H54  1  0.08680000  0.07510000  0.16750000  1.0 0.1193097825
H  H55  1  0.42490000  0.58680000  0.66750000  1.0 0.1193097825
H  H56  1  0.57510000  0.41320000  0.66750000  1.0 0.1193097825
H  H57  1  0.58510000  0.43230000  0.26830000  1.0 0.1193097825
H  H58  1  0.41490000  0.56770000  0.26830000  1.0 0.1193097825
H  H59  1  0.06770000  0.08510000  0.76830000  1.0 0.1193097825
H  H60  1  0.93230000  0.91490000  0.76830000  1.0 0.1193097825
H  H61  1  0.91490000  0.93230000  0.23170000  1.0 0.1193097825
H  H62  1  0.08510000  0.06770000  0.23170000  1.0 0.1193097825
H  H63  1  0.43230000  0.58510000  0.73170000  1.0 0.1193097825
H  H64  1  0.56770000  0.41490000  0.73170000  1.0 0.1193097825
H  H65  1  0.60140000  0.26640000  0.21860000  1.0 0.1374319341
H  H66  1  0.39860000  0.73360000  0.21860000  1.0 0.1374319341
H  H67  1  0.23360000  0.10140000  0.71860000  1.0 0.1374319341
H  H68  1  0.76640000  0.89860000  0.71860000  1.0 0.1374319341
H  H69  1  0.89860000  0.76640000  0.28140000  1.0 0.1374319341
H  H70  1  0.10140000  0.23360000  0.28140000  1.0 0.1374319341
H  H71  1  0.26640000  0.60140000  0.78140000  1.0 0.1374319341
H  H72  1  0.73360000  0.39860000  0.78140000  1.0 0.1374319341
H  H73  1  0.53040000  0.30800000  0.26440000  1.0 0.1292734978
H  H74  1  0.46960000  0.69200000  0.26440000  1.0 0.1292734978
H  H75  1  0.19200000  0.03040000  0.76440000  1.0 0.1292734978
H  H76  1  0.80800000  0.96960000  0.76440000  1.0 0.1292734978
H  H77  1  0.96960000  0.80800000  0.23560000  1.0 0.1292734978
H  H78  1  0.03040000  0.19200000  0.23560000  1.0 0.1292734978
H  H79  1  0.30800000  0.53040000  0.73560000  1.0 0.1292734978
H  H80  1  0.69200000  0.46960000  0.73560000  1.0 0.1292734978
H  H81  1  0.55380000  0.19340000  0.26150000  1.0 0.1374319341
H  H82  1  0.44620000  0.80660000  0.26150000  1.0 0.1374319341
H  H83  1  0.30660000  0.05380000  0.76150000  1.0 0.1374319341
H  H84  1  0.69340000  0.94620000  0.76150000  1.0 0.1374319341
H  H85  1  0.94620000  0.69340000  0.23850000  1.0 0.1374319341
H  H86  1  0.05380000  0.30660000  0.23850000  1.0 0.1374319341
H  H87  1  0.19340000  0.55380000  0.73850000  1.0 0.1374319341
H  H88  1  0.80660000  0.44620000  0.73850000  1.0 0.1374319341
H  H89  1  0.75270000  0.21870000  0.23140000  1.0 0.1374319341
H  H90  1  0.24730000  0.78130000  0.23140000  1.0 0.1374319341
H  H91  1  0.28130000  0.25270000  0.73140000  1.0 0.1374319341
H  H92  1  0.71870000  0.74730000  0.73140000  1.0 0.1374319341
H  H93  1  0.74730000  0.71870000  0.26860000  1.0 0.1374319341
H  H94  1  0.25270000  0.28130000  0.26860000  1.0 0.1374319341
H  H95  1  0.21870000  0.75270000  0.76860000  1.0 0.1374319341
H  H96  1  0.78130000  0.24730000  0.76860000  1.0 0.1374319341
H  H97  1  0.69680000  0.13530000  0.26450000  1.0 0.1374319341
H  H98  1  0.30320000  0.86470000  0.26450000  1.0 0.1292734978
H  H99  1  0.36470000  0.19680000  0.76450000  1.0 0.1374319341
H  H100  1  0.63530000  0.80320000  0.76450000  1.0 0.1374319341
H  H101  1  0.80320000  0.63530000  0.23550000  1.0 0.1292734978
H  H102  1  0.19680000  0.36470000  0.23550000  1.0 0.1374319341
H  H103  1  0.13530000  0.69680000  0.73550000  1.0 0.1374319341
H  H104  1  0.86470000  0.30320000  0.73550000  1.0 0.1374319341
H  H105  1  0.79170000  0.18630000  0.28940000  1.0 0.1374319341
H  H106  1  0.20830000  0.81370000  0.28940000  1.0 0.1374319341
H  H107  1  0.31370000  0.29170000  0.78940000  1.0 0.1374319341
H  H108  1  0.68630000  0.70830000  0.78940000  1.0 0.1374319341
H  H109  1  0.70830000  0.68630000  0.21060000  1.0 0.1374319341
H  H110  1  0.29170000  0.31370000  0.21060000  1.0 0.1374319341
H  H111  1  0.18630000  0.79170000  0.71060000  1.0 0.1374319341
H  H112  1  0.81370000  0.20830000  0.71060000  1.0 0.1374319341
C  C1  1  0.71550000  0.37620000  0.29750000  1.0 0.0310093679
C  C2  1  0.28450000  0.62380000  0.29750000  1.0 0.0310093679
C  C3  1  0.12380000  0.21550000  0.79750000  1.0 0.0310093679
C  C4  1  0.87620000  0.78450000  0.79750000  1.0 0.0310093679
C  C5  1  0.78450000  0.87620000  0.20250000  1.0 0.0310093679
C  C6  1  0.21550000  0.12380000  0.20250000  1.0 0.0310093679
C  C7  1  0.37620000  0.71550000  0.70250000  1.0 0.0310093679
C  C8  1  0.62380000  0.28450000  0.70250000  1.0 0.0310093679
C  C9  1  0.66900000  0.27400000  0.29350000  1.0 0.1715192066
C  C10  1  0.33100000  0.72600000  0.29350000  1.0 0.1715192066
C  C11  1  0.22600000  0.16900000  0.79350000  1.0 0.1715192066
C  C12  1  0.77400000  0.83100000  0.79350000  1.0 0.1715192066
C  C13  1  0.83100000  0.77400000  0.20650000  1.0 0.1715192066
C  C14  1  0.16900000  0.22600000  0.20650000  1.0 0.1715192066
C  C15  1  0.27400000  0.66900000  0.70650000  1.0 0.1715192066
C  C16  1  0.72600000  0.33100000  0.70650000  1.0 0.1715192066
C  C17  1  0.63880000  0.24460000  0.35080000  1.0 -0.1388936523
C  C18  1  0.36120000  0.75540000  0.35080000  1.0 -0.1388936523
C  C19  1  0.25540000  0.13880000  0.85080000  1.0 -0.1388936523
C  C20  1  0.74460000  0.86120000  0.85080000  1.0 -0.1388936523
C  C21  1  0.86120000  0.74460000  0.14920000  1.0 -0.1388936523
C  C22  1  0.13880000  0.25540000  0.14920000  1.0 -0.1388936523
C  C23  1  0.24460000  0.63880000  0.64920000  1.0 -0.1388936523
C  C24  1  0.75540000  0.36120000  0.64920000  1.0 -0.1388936523
C  C25  1  0.71130000  0.29350000  0.38920000  1.0 -0.1694578729
C  C26  1  0.28870000  0.70650000  0.38920000  1.0 -0.1694578729
C  C27  1  0.20650000  0.21130000  0.88920000  1.0 -0.1694578729
C  C28  1  0.79350000  0.78870000  0.88920000  1.0 -0.1694578729
C  C29  1  0.78870000  0.79350000  0.11080000  1.0 -0.1694578729
C  C30  1  0.21130000  0.20650000  0.11080000  1.0 -0.1694578729
C  C31  1  0.29350000  0.71130000  0.61080000  1.0 -0.1694578729
C  C32  1  0.70650000  0.28870000  0.61080000  1.0 -0.1694578729
C  C33  1  0.77050000  0.36000000  0.35010000  1.0 -0.1849837858
C  C34  1  0.22950000  0.64000000  0.35010000  1.0 -0.1849837858
C  C35  1  0.14000000  0.27050000  0.85010000  1.0 -0.1858750019
C  C36  1  0.86000000  0.72950000  0.85010000  1.0 -0.1858750019
C  C37  1  0.72950000  0.86000000  0.14990000  1.0 -0.1858750019
C  C38  1  0.27050000  0.14000000  0.14990000  1.0 -0.1858750019
C  C39  1  0.36000000  0.77050000  0.64990000  1.0 -0.1858750019
C  C40  1  0.64000000  0.22950000  0.64990000  1.0 -0.1858750019
C  C41  1  0.62520000  0.44190000  0.30050000  1.0 -0.4216658432
C  C42  1  0.37480000  0.55810000  0.30050000  1.0 -0.4216658432
C  C43  1  0.05810000  0.12520000  0.80050000  1.0 -0.4216658432
C  C44  1  0.94190000  0.87480000  0.80050000  1.0 -0.4216658432
C  C45  1  0.87480000  0.94190000  0.19950000  1.0 -0.4216658432
C  C46  1  0.12520000  0.05810000  0.19950000  1.0 -0.4216658432
C  C47  1  0.44190000  0.62520000  0.69950000  1.0 -0.4216658432
C  C48  1  0.55810000  0.37480000  0.69950000  1.0 -0.4216658432
C  C49  1  0.58060000  0.25900000  0.25610000  1.0 -0.4492841657
C  C50  1  0.41940000  0.74100000  0.25610000  1.0 -0.4492841657
C  C51  1  0.24100000  0.08060000  0.75610000  1.0 -0.4492841657
C  C52  1  0.75900000  0.91940000  0.75610000  1.0 -0.4492841657
C  C53  1  0.91940000  0.75900000  0.24390000  1.0 -0.4492841657
C  C54  1  0.08060000  0.24100000  0.24390000  1.0 -0.4492841657
C  C55  1  0.25900000  0.58060000  0.74390000  1.0 -0.4492841657
C  C56  1  0.74100000  0.41940000  0.74390000  1.0 -0.4492841657
C  C57  1  0.73330000  0.19670000  0.26740000  1.0 -0.4594637338
C  C58  1  0.26670000  0.80330000  0.26740000  1.0 -0.4594637338
C  C59  1  0.30330000  0.23330000  0.76740000  1.0 -0.4594637338
C  C60  1  0.69670000  0.76670000  0.76740000  1.0 -0.4594637338
C  C61  1  0.76670000  0.69670000  0.23260000  1.0 -0.4594637338
C  C62  1  0.23330000  0.30330000  0.23260000  1.0 -0.4594637338
C  C63  1  0.19670000  0.73330000  0.73260000  1.0 -0.4594637338
C  C64  1  0.80330000  0.26670000  0.73260000  1.0 -0.4594637338
C  C65  1  0.76950000  0.40380000  0.24650000  1.0 0.5234576282
C  C66  1  0.23050000  0.59620000  0.24650000  1.0 0.5234576282
C  C67  1  0.09620000  0.26950000  0.74650000  1.0 0.5234576282
C  C68  1  0.90380000  0.73050000  0.74650000  1.0 0.5234576282
C  C69  1  0.73050000  0.90380000  0.25350000  1.0 0.5234576282
C  C70  1  0.26950000  0.09620000  0.25350000  1.0 0.5234576282
C  C71  1  0.40380000  0.76950000  0.75350000  1.0 0.5234576282
C  C72  1  0.59620000  0.23050000  0.75350000  1.0 0.5234576282
C  C73  1  0.63380000  0.13050000  0.36000000  1.0 0.5651917499
C  C74  1  0.36620000  0.86950000  0.36000000  1.0 0.5651917499
C  C75  1  0.36950000  0.13380000  0.86000000  1.0 0.5651917499
C  C76  1  0.63050000  0.86620000  0.86000000  1.0 0.5651917499
C  C77  1  0.86620000  0.63050000  0.14000000  1.0 0.564543311
C  C78  1  0.13380000  0.36950000  0.14000000  1.0 0.564543311
C  C79  1  0.13050000  0.63380000  0.64000000  1.0 0.5651917499
C  C80  1  0.86950000  0.36620000  0.64000000  1.0 0.564543311
C  C81  1  0.88930000  0.19750000  0.03560000  1.0 0.0490028443
C  C82  1  0.11070000  0.80250000  0.03560000  1.0 0.0490028443
C  C83  1  0.30250000  0.38930000  0.53560000  1.0 0.0490028443
C  C84  1  0.69750000  0.61070000  0.53560000  1.0 0.0490028443
C  C85  1  0.61070000  0.69750000  0.46440000  1.0 0.0490028443
C  C86  1  0.38930000  0.30250000  0.46440000  1.0 0.0490028443
C  C87  1  0.19750000  0.88930000  0.96440000  1.0 0.0490028443
C  C88  1  0.80250000  0.11070000  0.96440000  1.0 0.0490028443
C  C89  1  0.89400000  0.09480000  0.06260000  1.0 0.0734599973
C  C90  1  0.10600000  0.90520000  0.06260000  1.0 0.0734599973
C  C91  1  0.40520000  0.39400000  0.56260000  1.0 0.0734599973
C  C92  1  0.59480000  0.60600000  0.56260000  1.0 0.0734599973
C  C93  1  0.60600000  0.59480000  0.43740000  1.0 0.0734599973
C  C94  1  0.39400000  0.40520000  0.43740000  1.0 0.0734599973
C  C95  1  0.09480000  0.89400000  0.93740000  1.0 0.0734599973
C  C96  1  0.90520000  0.10600000  0.93740000  1.0 0.0734599973
C  C97  1  0.72810000  0.27190000  0.00000000  1.0 0.1715192066
C  C98  1  0.27190000  0.72810000  0.00000000  1.0 0.1715192066
C  C99  1  0.22810000  0.22810000  0.50000000  1.0 0.1715192066
C  C100  1  0.77190000  0.77190000  0.50000000  1.0 0.1715192066
C  C101  1  0.88710000  0.28910000  0.07810000  1.0 0.5119414669
C  C102  1  0.11290000  0.71090000  0.07810000  1.0 0.5119414669
C  C103  1  0.21090000  0.38710000  0.57810000  1.0 0.5119414669
C  C104  1  0.78910000  0.61290000  0.57810000  1.0 0.5119414669
C  C105  1  0.61290000  0.78910000  0.42190000  1.0 0.5119414669
C  C106  1  0.38710000  0.21090000  0.42190000  1.0 0.5119414669
C  C107  1  0.28910000  0.88710000  0.92190000  1.0 0.5119414669
C  C108  1  0.71090000  0.11290000  0.92190000  1.0 0.5119414669
C  C109  1  0.78250000  0.17740000  0.01580000  1.0 0.0391813546
C  C110  1  0.21750000  0.82260000  0.01580000  1.0 0.0391813546
C  C111  1  0.32260000  0.28250000  0.51580000  1.0 0.0391813546
C  C112  1  0.67740000  0.71750000  0.51580000  1.0 0.0391813546
C  C113  1  0.71750000  0.67740000  0.48420000  1.0 0.0391813546
C  C114  1  0.28250000  0.32260000  0.48420000  1.0 0.0391813546
C  C115  1  0.17740000  0.78250000  0.98420000  1.0 0.0310093679
C  C116  1  0.82260000  0.21750000  0.98420000  1.0 0.0310093679
C  C117  1  0.95520000  0.21900000  0.98560000  1.0 -0.0140311057
C  C118  1  0.04480000  0.78100000  0.98560000  1.0 -0.0140311057
C  C119  1  0.28100000  0.45520000  0.48560000  1.0 -0.0171792631
C  C120  1  0.71900000  0.54480000  0.48560000  1.0 -0.0171792631
C  C121  1  0.54480000  0.71900000  0.51440000  1.0 -0.0171792631
C  C122  1  0.45520000  0.28100000  0.51440000  1.0 -0.0171792631
C  C123  1  0.21900000  0.95520000  0.01440000  1.0 -0.0171792631
C  C124  1  0.78100000  0.04480000  0.01440000  1.0 -0.0171792631
C  C125  1  0.72500000  0.11400000  0.05700000  1.0 0.0994539476
C  C126  1  0.27500000  0.88600000  0.05700000  1.0 0.0994539476
C  C127  1  0.38600000  0.22500000  0.55700000  1.0 0.0994539476
C  C128  1  0.61400000  0.77500000  0.55700000  1.0 0.0994539476
C  C129  1  0.77500000  0.61400000  0.44300000  1.0 0.0994539476
C  C130  1  0.22500000  0.38600000  0.44300000  1.0 0.0994539476
C  C131  1  0.11400000  0.72500000  0.94300000  1.0 0.0994539476
C  C132  1  0.88600000  0.27500000  0.94300000  1.0 0.0994539476
O  O1  1  0.72530000  0.42210000  0.20310000  1.0 -0.5030902806
O  O2  1  0.27470000  0.57790000  0.20310000  1.0 -0.5030902806
O  O3  1  0.07790000  0.22530000  0.70310000  1.0 -0.5030902806
O  O4  1  0.92210000  0.77470000  0.70310000  1.0 -0.5030902806
O  O5  1  0.77470000  0.92210000  0.29690000  1.0 -0.5030902806
O  O6  1  0.22530000  0.07790000  0.29690000  1.0 -0.5030902806
O  O7  1  0.42210000  0.72530000  0.79690000  1.0 -0.5030902806
O  O8  1  0.57790000  0.27470000  0.79690000  1.0 -0.5030902806
O  O9  1  0.86550000  0.40420000  0.25000000  1.0 -0.5211192924
O  O10  1  0.13450000  0.59580000  0.25000000  1.0 -0.5211192924
O  O11  1  0.09580000  0.36550000  0.75000000  1.0 -0.5211192924
O  O12  1  0.90420000  0.63450000  0.75000000  1.0 -0.5211192924
O  O13  1  0.63450000  0.90420000  0.25000000  1.0 -0.5211192924
O  O14  1  0.36550000  0.09580000  0.25000000  1.0 -0.5211192924
O  O15  1  0.40420000  0.86550000  0.75000000  1.0 -0.5211192924
O  O16  1  0.59580000  0.13450000  0.75000000  1.0 -0.5211192924
O  O17  1  0.69250000  0.08080000  0.38540000  1.0 -0.4800597201
O  O18  1  0.30750000  0.91920000  0.38540000  1.0 -0.4800597201
O  O19  1  0.41920000  0.19250000  0.88540000  1.0 -0.4800597201
O  O20  1  0.58080000  0.80750000  0.88540000  1.0 -0.4800597201
O  O21  1  0.80750000  0.58080000  0.11460000  1.0 -0.4800597201
O  O22  1  0.19250000  0.41920000  0.11460000  1.0 -0.4800597201
O  O23  1  0.08080000  0.69250000  0.61460000  1.0 -0.4800597201
O  O24  1  0.91920000  0.30750000  0.61460000  1.0 -0.4800597201
O  O25  1  0.55840000  0.08690000  0.33240000  1.0 -0.5689729411
O  O26  1  0.44160000  0.91310000  0.33240000  1.0 -0.5689729411
O  O27  1  0.41310000  0.05840000  0.83240000  1.0 -0.5689729411
O  O28  1  0.58690000  0.94160000  0.83240000  1.0 -0.5689729411
O  O29  1  0.94160000  0.58690000  0.16760000  1.0 -0.5689729411
O  O30  1  0.05840000  0.41310000  0.16760000  1.0 -0.5689729411
O  O31  1  0.08690000  0.55840000  0.66760000  1.0 -0.5689729411
O  O32  1  0.91310000  0.44160000  0.66760000  1.0 -0.5689729411
O  O33  1  0.84390000  0.27320000  0.12380000  1.0 -0.4875738393
O  O34  1  0.15610000  0.72680000  0.12380000  1.0 -0.4875738393
O  O35  1  0.22680000  0.34390000  0.62380000  1.0 -0.4875738393
O  O36  1  0.77320000  0.65610000  0.62380000  1.0 -0.4875738393
O  O37  1  0.65610000  0.77320000  0.37620000  1.0 -0.4875738393
O  O38  1  0.34390000  0.22680000  0.37620000  1.0 -0.4875738393
O  O39  1  0.27320000  0.84390000  0.87620000  1.0 -0.4875738393
O  O40  1  0.72680000  0.15610000  0.87620000  1.0 -0.4875738393
O  O41  1  0.92060000  0.36840000  0.06570000  1.0 -0.4703495871
O  O42  1  0.07940000  0.63160000  0.06570000  1.0 -0.4703495871
O  O43  1  0.13160000  0.42060000  0.56570000  1.0 -0.4703495871
O  O44  1  0.86840000  0.57940000  0.56570000  1.0 -0.4703495871
O  O45  1  0.57940000  0.86840000  0.43430000  1.0 -0.4703495871
O  O46  1  0.42060000  0.13160000  0.43430000  1.0 -0.4703495871
O  O47  1  0.36840000  0.92060000  0.93430000  1.0 -0.4703495871
O  O48  1  0.63160000  0.07940000  0.93430000  1.0 -0.4703495871
