# DDEC6 charges by PACMAN v1.1 (https://github.com/mtap-research/PACMAN-charge/)
data_LITHUR_FSR_pacman
_symmetry_space_group_name_H-M   'P 1'
_cell_length_a   16.65990000
_cell_length_b   13.17840000
_cell_length_c   12.85990000
_cell_angle_alpha   79.54700000
_cell_angle_beta   51.06830000
_cell_angle_gamma   49.38460000
_symmetry_Int_Tables_number   1
_chemical_formula_structural   Cu4WC4(SeN)4
_chemical_formula_sum   'Cu8 W2 C8 Se8 N8'
_cell_volume   1538.34417243
_cell_formula_units_Z   2
loop_
 _symmetry_equiv_pos_site_id
 _symmetry_equiv_pos_as_xyz
  1  'x, y, z'
loop_
 _atom_site_type_symbol
 _atom_site_label
 _atom_site_symmetry_multiplicity
 _atom_site_fract_x
 _atom_site_fract_y
 _atom_site_fract_z
 _atom_site_occupancy
 _atom_site_charge
Cu  Cu1  1  0.38079000  0.38079000  0.61921000  1.0 0.4684636693
Cu  Cu2  1  0.61921000  0.61921000  0.38079000  1.0 0.4684636693
Cu  Cu3  1  0.86921000  0.86921000  0.63079000  1.0 0.4684636693
Cu  Cu4  1  0.63079000  0.63079000  0.86921000  1.0 0.4684636693
Cu  Cu5  1  0.62527000  0.37473000  0.62527000  1.0 0.0817408299
Cu  Cu6  1  0.37473000  0.62527000  0.37473000  1.0 0.0817408299
Cu  Cu7  1  0.87527000  0.62473000  0.87527000  1.0 0.0817408299
Cu  Cu8  1  0.62473000  0.87527000  0.62473000  1.0 0.0817408299
W  W1  1  0.50000000  0.50000000  0.50000000  1.0 0.4950615416
W  W2  1  0.75000000  0.75000000  0.75000000  1.0 0.5054970632
C  C1  1  0.71500000  0.18100000  0.62480000  1.0 0.2012721158
C  C2  1  0.47920000  0.62480000  0.18100000  1.0 0.2012721158
C  C3  1  0.62480000  0.47920000  0.71500000  1.0 0.2012721158
C  C4  1  0.18100000  0.71500000  0.47920000  1.0 0.2012721158
C  C5  1  0.06900000  0.53500000  0.77080000  1.0 0.2012721158
C  C6  1  0.62520000  0.77080000  0.53500000  1.0 0.2012721158
C  C7  1  0.77080000  0.62520000  0.06900000  1.0 0.2012721158
C  C8  1  0.53500000  0.06900000  0.62520000  1.0 0.2012721158
Se  Se1  1  0.73690000  0.37538000  0.37914000  1.0 -0.2408354928
Se  Se2  1  0.50858000  0.37914000  0.37538000  1.0 -0.2408354928
Se  Se3  1  0.37914000  0.50858000  0.73690000  1.0 -0.2408354928
Se  Se4  1  0.37538000  0.73690000  0.50858000  1.0 -0.2408354928
Se  Se5  1  0.87462000  0.51310000  0.74142000  1.0 -0.2408354928
Se  Se6  1  0.87086000  0.74142000  0.51310000  1.0 -0.2501749148
Se  Se7  1  0.74142000  0.87086000  0.87462000  1.0 -0.2408354928
Se  Se8  1  0.51310000  0.87462000  0.87086000  1.0 -0.2408354928
N  N1  1  0.76500000  0.06880000  0.63300000  1.0 -0.3594412704
N  N2  1  0.53320000  0.63300000  0.06880000  1.0 -0.3594412704
N  N3  1  0.63300000  0.53320000  0.76500000  1.0 -0.3594412704
N  N4  1  0.06880000  0.76500000  0.53320000  1.0 -0.3594412704
N  N5  1  0.18120000  0.48500000  0.71680000  1.0 -0.3594412704
N  N6  1  0.61700000  0.71680000  0.48500000  1.0 -0.3594412704
N  N7  1  0.71680000  0.61700000  0.18120000  1.0 -0.3594412704
N  N8  1  0.48500000  0.18120000  0.61700000  1.0 -0.3594412704
