# DDEC6 charges by PACMAN v1.1 (https://github.com/mtap-research/PACMAN-charge/)
data_LITKIL_ASR_pacman
_symmetry_space_group_name_H-M   'P 1'
_cell_length_a   12.98500000
_cell_length_b   16.58900000
_cell_length_c   22.46990000
_cell_angle_alpha   90.00000000
_cell_angle_beta   116.95300000
_cell_angle_gamma   90.00000000
_symmetry_Int_Tables_number   1
_chemical_formula_structural   Cu5C10N15Cl2
_chemical_formula_sum   'Cu20 C40 N60 Cl8'
_cell_volume   4314.45080348
_cell_formula_units_Z   4
loop_
 _symmetry_equiv_pos_site_id
 _symmetry_equiv_pos_as_xyz
  1  'x, y, z'
loop_
 _atom_site_type_symbol
 _atom_site_label
 _atom_site_symmetry_multiplicity
 _atom_site_fract_x
 _atom_site_fract_y
 _atom_site_fract_z
 _atom_site_occupancy
 _atom_site_charge
Cu  Cu1  1  0.92180000  0.32460000  0.92460000  1.0 0.3541038705
Cu  Cu2  1  0.84700000  0.00430000  0.33860000  1.0 0.3709238902
Cu  Cu3  1  0.23290000  0.07360000  0.93100000  1.0 0.3995615266
Cu  Cu4  1  0.66560000  0.03360000  0.16150000  1.0 0.3709238902
Cu  Cu5  1  0.07820000  0.82460000  0.57540000  1.0 0.3541038705
Cu  Cu6  1  0.15300000  0.50430000  0.16140000  1.0 0.3709238902
Cu  Cu7  1  0.76710000  0.57360000  0.56900000  1.0 0.3901007347
Cu  Cu8  1  0.33440000  0.53360000  0.33850000  1.0 0.3709238902
Cu  Cu9  1  0.07820000  0.67540000  0.07540000  1.0 0.3568927817
Cu  Cu10  1  0.15300000  0.99570000  0.66140000  1.0 0.3709238902
Cu  Cu11  1  0.76710000  0.92640000  0.06900000  1.0 0.3995615266
Cu  Cu12  1  0.33440000  0.96640000  0.83850000  1.0 0.3709238902
Cu  Cu13  1  0.92180000  0.17540000  0.42460000  1.0 0.3541038705
Cu  Cu14  1  0.84700000  0.49570000  0.83860000  1.0 0.3709238902
Cu  Cu15  1  0.23290000  0.42640000  0.43100000  1.0 0.3901007347
Cu  Cu16  1  0.66560000  0.46640000  0.66150000  1.0 0.3709238902
Cu  Cu17  1  0.00000000  0.50000000  0.00000000  1.0 0.4538600914
Cu  Cu18  1  0.00000000  0.00000000  0.50000000  1.0 0.4538600914
Cu  Cu19  1  0.50000000  0.00000000  0.00000000  1.0 0.4110308312
Cu  Cu20  1  0.50000000  0.50000000  0.50000000  1.0 0.4110308312
C  C1  1  0.44600000  0.11200000  0.13500000  1.0 0.1925899633
C  C2  1  0.00800000  0.09000000  0.94500000  1.0 0.0854458633
C  C3  1  0.06700000  0.27800000  0.07000000  1.0 0.0094108451
C  C4  1  0.11600000  0.32400000  0.13000000  1.0 0.167445308
C  C5  1  0.76200000  0.23200000  0.28300000  1.0 0.1019077249
C  C6  1  0.70900000  0.19600000  0.22000000  1.0 0.1131195374
C  C7  1  0.33200000  0.13700000  0.07600000  1.0 0.0293902265
C  C8  1  0.95000000  0.13400000  0.94400000  1.0 0.0835434802
C  C9  1  0.04200000  0.10200000  0.78800000  1.0 0.0029421167
C  C10  1  0.02800000  0.08000000  0.72600000  1.0 0.1366136432
C  C11  1  0.55400000  0.61200000  0.36500000  1.0 0.1925899633
C  C12  1  0.99200000  0.59000000  0.55500000  1.0 0.0835434802
C  C13  1  0.93300000  0.77800000  0.43000000  1.0 0.0094108451
C  C14  1  0.88400000  0.82400000  0.37000000  1.0 0.167445308
C  C15  1  0.23800000  0.73200000  0.21700000  1.0 0.1019077249
C  C16  1  0.29100000  0.69600000  0.28000000  1.0 0.1131195374
C  C17  1  0.66800000  0.63700000  0.42400000  1.0 0.0293902265
C  C18  1  0.05000000  0.63400000  0.55600000  1.0 0.0854458633
C  C19  1  0.95800000  0.60200000  0.71200000  1.0 0.0029421167
C  C20  1  0.97200000  0.58000000  0.77400000  1.0 0.1366136432
C  C21  1  0.55400000  0.88800000  0.86500000  1.0 0.1925899633
C  C22  1  0.99200000  0.91000000  0.05500000  1.0 0.0854458633
C  C23  1  0.93300000  0.72200000  0.93000000  1.0 0.0094108451
C  C24  1  0.88400000  0.67600000  0.87000000  1.0 0.167445308
C  C25  1  0.23800000  0.76800000  0.71700000  1.0 0.1019077249
C  C26  1  0.29100000  0.80400000  0.78000000  1.0 0.1131195374
C  C27  1  0.66800000  0.86300000  0.92400000  1.0 0.0293902265
C  C28  1  0.05000000  0.86600000  0.05600000  1.0 0.0835434802
C  C29  1  0.95800000  0.89800000  0.21200000  1.0 0.0029421167
C  C30  1  0.97200000  0.92000000  0.27400000  1.0 0.1366136432
C  C31  1  0.44600000  0.38800000  0.63500000  1.0 0.1925899633
C  C32  1  0.00800000  0.41000000  0.44500000  1.0 0.0835434802
C  C33  1  0.06700000  0.22200000  0.57000000  1.0 0.0094108451
C  C34  1  0.11600000  0.17600000  0.63000000  1.0 0.167445308
C  C35  1  0.76200000  0.26800000  0.78300000  1.0 0.1019077249
C  C36  1  0.70900000  0.30400000  0.72000000  1.0 0.1131195374
C  C37  1  0.33200000  0.36300000  0.57600000  1.0 0.0293902265
C  C38  1  0.95000000  0.36600000  0.44400000  1.0 0.0835434802
C  C39  1  0.04200000  0.39800000  0.28800000  1.0 0.0094108451
C  C40  1  0.02800000  0.42000000  0.22600000  1.0 0.1366136432
N  N1  1  0.04870000  0.40600000  0.04970000  1.0 -0.0318997506
N  N2  1  0.01620000  0.33600000  0.02020000  1.0 -0.1682648301
N  N3  1  0.11180000  0.03700000  0.73180000  1.0 -0.1886734692
N  N4  1  0.18640000  0.02500000  0.79940000  1.0 -0.0567241189
N  N5  1  0.14700000  0.06900000  0.83600000  1.0 -0.1886734692
N  N6  1  0.07400000  0.19900000  0.92700000  1.0 -0.0318997506
N  N7  1  0.97620000  0.21200000  0.92820000  1.0 -0.2115021385
N  N8  1  0.10900000  0.39800000  0.11600000  1.0 -0.2210808639
N  N9  1  0.78900000  0.10800000  0.29500000  1.0 -0.0393190448
N  N10  1  0.72490000  0.12200000  0.22790000  1.0 -0.2115021385
N  N11  1  0.81700000  0.17700000  0.32800000  1.0 -0.1978560626
N  N12  1  0.09700000  0.11900000  0.93700000  1.0 -0.2317559399
N  N13  1  0.33500000  0.08900000  0.02700000  1.0 -0.2317559399
N  N14  1  0.45000000  0.06800000  0.05400000  1.0 -0.0393190448
N  N15  1  0.51000000  0.08300000  0.11700000  1.0 -0.2115021385
N  N16  1  0.95130000  0.90600000  0.45030000  1.0 -0.0318997506
N  N17  1  0.98380000  0.83600000  0.47980000  1.0 -0.1682648301
N  N18  1  0.88820000  0.53700000  0.76820000  1.0 -0.1886734692
N  N19  1  0.81360000  0.52500000  0.70060000  1.0 -0.0567241189
N  N20  1  0.85300000  0.56900000  0.66400000  1.0 -0.1836933024
N  N21  1  0.92600000  0.69900000  0.57300000  1.0 -0.0318997506
N  N22  1  0.02380000  0.71200000  0.57180000  1.0 -0.2210808639
N  N23  1  0.89100000  0.89800000  0.38400000  1.0 -0.2210808639
N  N24  1  0.21100000  0.60800000  0.20500000  1.0 -0.0489825118
N  N25  1  0.27510000  0.62200000  0.27210000  1.0 -0.2115021385
N  N26  1  0.18300000  0.67700000  0.17200000  1.0 -0.1978560626
N  N27  1  0.90300000  0.61900000  0.56300000  1.0 -0.2210808639
N  N28  1  0.66500000  0.58900000  0.47300000  1.0 -0.2401784983
N  N29  1  0.55000000  0.56800000  0.44600000  1.0 -0.0393190448
N  N30  1  0.49000000  0.58300000  0.38300000  1.0 -0.2115021385
N  N31  1  0.95130000  0.59400000  0.95030000  1.0 -0.0318997506
N  N32  1  0.98380000  0.66400000  0.97980000  1.0 -0.1682648301
N  N33  1  0.88820000  0.96300000  0.26820000  1.0 -0.1886734692
N  N34  1  0.81360000  0.97500000  0.20060000  1.0 -0.0567241189
N  N35  1  0.85300000  0.93100000  0.16400000  1.0 -0.1836933024
N  N36  1  0.92600000  0.80100000  0.07300000  1.0 -0.0318997506
N  N37  1  0.02380000  0.78800000  0.07180000  1.0 -0.2210808639
N  N38  1  0.89100000  0.60200000  0.88400000  1.0 -0.2210808639
N  N39  1  0.21100000  0.89200000  0.70500000  1.0 -0.0489825118
N  N40  1  0.27510000  0.87800000  0.77210000  1.0 -0.2115021385
N  N41  1  0.18300000  0.82300000  0.67200000  1.0 -0.1978560626
N  N42  1  0.90300000  0.88100000  0.06300000  1.0 -0.2210808639
N  N43  1  0.66500000  0.91100000  0.97300000  1.0 -0.2401784983
N  N44  1  0.55000000  0.93200000  0.94600000  1.0 -0.0318997506
N  N45  1  0.49000000  0.91700000  0.88300000  1.0 -0.2115021385
N  N46  1  0.04870000  0.09400000  0.54970000  1.0 -0.0318997506
N  N47  1  0.01620000  0.16400000  0.52020000  1.0 -0.1682648301
N  N48  1  0.11180000  0.46300000  0.23180000  1.0 -0.1886734692
N  N49  1  0.18640000  0.47500000  0.29940000  1.0 -0.0489825118
N  N50  1  0.14700000  0.43100000  0.33600000  1.0 -0.1886734692
N  N51  1  0.07400000  0.30100000  0.42700000  1.0 -0.0318997506
N  N52  1  0.97620000  0.28800000  0.42820000  1.0 -0.2115021385
N  N53  1  0.10900000  0.10200000  0.61600000  1.0 -0.2210808639
N  N54  1  0.78900000  0.39200000  0.79500000  1.0 -0.0489825118
N  N55  1  0.72490000  0.37800000  0.72790000  1.0 -0.2115021385
N  N56  1  0.81700000  0.32300000  0.82800000  1.0 -0.1978560626
N  N57  1  0.09700000  0.38100000  0.43700000  1.0 -0.2210808639
N  N58  1  0.33500000  0.41100000  0.52700000  1.0 -0.2401784983
N  N59  1  0.45000000  0.43200000  0.55400000  1.0 -0.0318997506
N  N60  1  0.51000000  0.41700000  0.61700000  1.0 -0.2115021385
Cl  Cl1  1  0.36860000  0.03400000  0.91860000  1.0 -0.2891370482
Cl  Cl2  1  0.87400000  0.44100000  0.92500000  1.0 -0.2891370482
Cl  Cl3  1  0.63140000  0.53400000  0.58140000  1.0 -0.2961510844
Cl  Cl4  1  0.12600000  0.94100000  0.57500000  1.0 -0.2891370482
Cl  Cl5  1  0.63140000  0.96600000  0.08140000  1.0 -0.2961510844
Cl  Cl6  1  0.12600000  0.55900000  0.07500000  1.0 -0.2891370482
Cl  Cl7  1  0.36860000  0.46600000  0.41860000  1.0 -0.2961510844
Cl  Cl8  1  0.87400000  0.05900000  0.42500000  1.0 -0.2891370482
