# DDEC6 charges by PACMAN v1.1 (https://github.com/mtap-research/PACMAN-charge/)
data_LIVWAQ_ASR_pacman
_symmetry_space_group_name_H-M   'P 1'
_cell_length_a   10.09450000
_cell_length_b   14.73560000
_cell_length_c   16.54870000
_cell_angle_alpha   90.00000000
_cell_angle_beta   119.71600000
_cell_angle_gamma   90.00000000
_symmetry_Int_Tables_number   1
_chemical_formula_structural   Zn3P4(HO3)4
_chemical_formula_sum   'Zn12 P16 H16 O48'
_cell_volume   2137.87792550
_cell_formula_units_Z   4
loop_
 _symmetry_equiv_pos_site_id
 _symmetry_equiv_pos_as_xyz
  1  'x, y, z'
loop_
 _atom_site_type_symbol
 _atom_site_label
 _atom_site_symmetry_multiplicity
 _atom_site_fract_x
 _atom_site_fract_y
 _atom_site_fract_z
 _atom_site_occupancy
 _atom_site_charge
Zn  Zn1  1  0.05988000  0.09878000  0.10099000  1.0 1.1099130502
Zn  Zn2  1  0.94012000  0.59878000  0.39901000  1.0 1.1099130502
Zn  Zn3  1  0.94012000  0.90122000  0.89901000  1.0 1.1099130502
Zn  Zn4  1  0.05988000  0.40122000  0.60099000  1.0 1.1099130502
Zn  Zn5  1  0.70225000  0.26045000  0.73529000  1.0 1.1395915141
Zn  Zn6  1  0.29775000  0.76045000  0.76471000  1.0 1.1395915141
Zn  Zn7  1  0.29775000  0.73955000  0.26471000  1.0 1.1395915141
Zn  Zn8  1  0.70225000  0.23955000  0.23529000  1.0 1.1395915141
Zn  Zn9  1  0.07732000  0.12896000  0.56022000  1.0 1.1467728009
Zn  Zn10  1  0.92268000  0.62896000  0.93978000  1.0 1.1395915141
Zn  Zn11  1  0.92268000  0.87104000  0.43978000  1.0 1.1395915141
Zn  Zn12  1  0.07732000  0.37104000  0.06022000  1.0 1.1467728009
P  P1  1  0.88388000  0.10713000  0.88238000  1.0 1.4498135438
P  P2  1  0.11612000  0.60713000  0.61762000  1.0 1.4498135438
P  P3  1  0.11612000  0.89287000  0.11762000  1.0 1.4498135438
P  P4  1  0.88388000  0.39287000  0.38238000  1.0 1.4498135438
P  P5  1  0.34490000  0.27605000  0.65922000  1.0 1.17674297
P  P6  1  0.65510000  0.77605000  0.84078000  1.0 1.17674297
P  P7  1  0.65510000  0.72395000  0.34078000  1.0 1.1742592445
P  P8  1  0.34490000  0.22395000  0.15922000  1.0 1.1742592445
P  P9  1  0.92903000  0.23310000  0.65822000  1.0 1.1934967627
P  P10  1  0.07097000  0.73310000  0.84178000  1.0 1.1959128966
P  P11  1  0.07097000  0.76690000  0.34178000  1.0 1.1934967627
P  P12  1  0.92903000  0.26690000  0.15822000  1.0 1.1934967627
P  P13  1  0.91333000  0.07372000  0.35630000  1.0 1.413035809
P  P14  1  0.08667000  0.57372000  0.14370000  1.0 1.413035809
P  P15  1  0.08667000  0.92628000  0.64370000  1.0 1.413035809
P  P16  1  0.91333000  0.42628000  0.85630000  1.0 1.413035809
H  H1  1  0.02510000  0.17010000  0.89420000  1.0 -0.139023141
H  H2  1  0.97490000  0.67010000  0.60580000  1.0 -0.139023141
H  H3  1  0.97490000  0.82990000  0.10580000  1.0 -0.139023141
H  H4  1  0.02510000  0.32990000  0.39420000  1.0 -0.139023141
H  H5  1  0.39110000  0.28410000  0.74590000  1.0 -0.139023141
H  H6  1  0.60890000  0.78410000  0.75410000  1.0 -0.139023141
H  H7  1  0.60890000  0.71590000  0.25410000  1.0 -0.1470555201
H  H8  1  0.39110000  0.21590000  0.24590000  1.0 -0.1470555201
H  H9  1  0.01150000  0.18820000  0.73490000  1.0 -0.1470555201
H  H10  1  0.98850000  0.68820000  0.76510000  1.0 -0.1470555201
H  H11  1  0.98850000  0.81180000  0.26510000  1.0 -0.1470555201
H  H12  1  0.01150000  0.31180000  0.23490000  1.0 -0.1470555201
H  H13  1  0.98960000  0.04030000  0.30160000  1.0 -0.0821507695
H  H14  1  0.01040000  0.54030000  0.19840000  1.0 -0.0821507695
H  H15  1  0.01040000  0.95970000  0.69840000  1.0 -0.0821507695
H  H16  1  0.98960000  0.45970000  0.80160000  1.0 -0.0821507695
O  O1  1  0.24140000  0.35380000  0.60510000  1.0 -0.664221705
O  O2  1  0.75860000  0.85380000  0.89490000  1.0 -0.664221705
O  O3  1  0.75860000  0.64620000  0.39490000  1.0 -0.664221705
O  O4  1  0.24140000  0.14620000  0.10510000  1.0 -0.664221705
O  O5  1  0.89870000  0.01970000  0.84060000  1.0 -0.6657076885
O  O6  1  0.10130000  0.51970000  0.65940000  1.0 -0.6657076885
O  O7  1  0.10130000  0.98030000  0.15940000  1.0 -0.6657076885
O  O8  1  0.89870000  0.48030000  0.34060000  1.0 -0.664221705
O  O9  1  0.00800000  0.32280000  0.67650000  1.0 -0.6491377449
O  O10  1  0.99200000  0.82280000  0.82350000  1.0 -0.6491377449
O  O11  1  0.99200000  0.67720000  0.32350000  1.0 -0.6491377449
O  O12  1  0.00800000  0.17720000  0.17650000  1.0 -0.6491377449
O  O13  1  0.89060000  0.09350000  0.97470000  1.0 -0.7363906065
O  O14  1  0.10940000  0.59350000  0.52530000  1.0 -0.7363906065
O  O15  1  0.10940000  0.90650000  0.02530000  1.0 -0.7363906065
O  O16  1  0.89060000  0.40650000  0.47470000  1.0 -0.7363906065
O  O17  1  0.73920000  0.15800000  0.81560000  1.0 -0.7024783104
O  O18  1  0.26080000  0.65800000  0.68440000  1.0 -0.7024783104
O  O19  1  0.26080000  0.84200000  0.18440000  1.0 -0.7024783104
O  O20  1  0.73920000  0.34200000  0.31560000  1.0 -0.7024783104
O  O21  1  0.77070000  0.12270000  0.28980000  1.0 -0.7087005287
O  O22  1  0.22930000  0.62270000  0.21020000  1.0 -0.7087005287
O  O23  1  0.22930000  0.87730000  0.71020000  1.0 -0.7087005287
O  O24  1  0.77070000  0.37730000  0.78980000  1.0 -0.7087005287
O  O25  1  0.48770000  0.27810000  0.65240000  1.0 -0.5895606885
O  O26  1  0.51230000  0.77810000  0.84760000  1.0 -0.5895606885
O  O27  1  0.51230000  0.72190000  0.34760000  1.0 -0.5895606885
O  O28  1  0.48770000  0.22190000  0.15240000  1.0 -0.5895606885
O  O29  1  0.77150000  0.23850000  0.64720000  1.0 -0.6435324917
O  O30  1  0.22850000  0.73850000  0.85280000  1.0 -0.6491377449
O  O31  1  0.22850000  0.76150000  0.35280000  1.0 -0.6435324917
O  O32  1  0.77150000  0.26150000  0.14720000  1.0 -0.6435324917
O  O33  1  0.91900000  0.18250000  0.57630000  1.0 -0.678011776
O  O34  1  0.08100000  0.68250000  0.92370000  1.0 -0.678011776
O  O35  1  0.08100000  0.81750000  0.42370000  1.0 -0.678011776
O  O36  1  0.91900000  0.31750000  0.07630000  1.0 -0.678011776
O  O37  1  0.87090000  0.99280000  0.39400000  1.0 -0.7231733213
O  O38  1  0.12910000  0.49280000  0.10600000  1.0 -0.7231733213
O  O39  1  0.12910000  0.00720000  0.60600000  1.0 -0.7231733213
O  O40  1  0.87090000  0.50720000  0.89400000  1.0 -0.7231733213
O  O41  1  0.27180000  0.18480000  0.63590000  1.0 -0.6435324917
O  O42  1  0.72820000  0.68480000  0.86410000  1.0 -0.6435324917
O  O43  1  0.72820000  0.81520000  0.36410000  1.0 -0.6491377449
O  O44  1  0.27180000  0.31520000  0.13590000  1.0 -0.6491377449
O  O45  1  0.03010000  0.13350000  0.43170000  1.0 -0.7024783104
O  O46  1  0.96990000  0.63350000  0.06830000  1.0 -0.7024783104
O  O47  1  0.96990000  0.86650000  0.56830000  1.0 -0.7087005287
O  O48  1  0.03010000  0.36650000  0.93170000  1.0 -0.7087005287
