# DDEC6 charges by PACMAN v1.1 (https://github.com/mtap-research/PACMAN-charge/)
data_LIWFOM_FSR_pacman
_symmetry_space_group_name_H-M   'P 1'
_cell_length_a   4.67700000
_cell_length_b   13.51200000
_cell_length_c   16.19400000
_cell_angle_alpha   90.00000000
_cell_angle_beta   90.00000000
_cell_angle_gamma   90.00000000
_symmetry_Int_Tables_number   1
_chemical_formula_structural   V5P4H4C2O17
_chemical_formula_sum   'V10 P8 H8 C4 O34'
_cell_volume   1023.38993506
_cell_formula_units_Z   2
loop_
 _symmetry_equiv_pos_site_id
 _symmetry_equiv_pos_as_xyz
  1  'x, y, z'
loop_
 _atom_site_type_symbol
 _atom_site_label
 _atom_site_symmetry_multiplicity
 _atom_site_fract_x
 _atom_site_fract_y
 _atom_site_fract_z
 _atom_site_occupancy
 _atom_site_charge
V  V1  1  0.28530000  0.50000000  0.50000000  1.0 1.9044154799
V  V2  1  0.71470000  0.00000000  0.00000000  1.0 1.9044154799
V  V3  1  0.97840000  0.26110000  0.23510000  1.0 0.9815735634
V  V4  1  0.97840000  0.73890000  0.76490000  1.0 0.9815735634
V  V5  1  0.02160000  0.76110000  0.26490000  1.0 0.9703600919
V  V6  1  0.02160000  0.23890000  0.73510000  1.0 0.9815735634
V  V7  1  0.02160000  0.23890000  0.26490000  1.0 0.9703600919
V  V8  1  0.02160000  0.76110000  0.73510000  1.0 0.9815735634
V  V9  1  0.97840000  0.73890000  0.23510000  1.0 0.9815735634
V  V10  1  0.97840000  0.26110000  0.76490000  1.0 0.9815735634
P  P1  1  0.49300000  0.38620000  0.33030000  1.0 1.4642644143
P  P2  1  0.49300000  0.61380000  0.66970000  1.0 1.4642644143
P  P3  1  0.50700000  0.88620000  0.16970000  1.0 1.4642644143
P  P4  1  0.50700000  0.11380000  0.83030000  1.0 1.4642644143
P  P5  1  0.50700000  0.11380000  0.16970000  1.0 1.4642644143
P  P6  1  0.50700000  0.88620000  0.83030000  1.0 1.4642644143
P  P7  1  0.49300000  0.61380000  0.33030000  1.0 1.4642644143
P  P8  1  0.49300000  0.38620000  0.66970000  1.0 1.4642644143
H  H1  1  0.69300000  0.50000000  0.24260000  1.0 0.2328435397
H  H2  1  0.69300000  0.50000000  0.75740000  1.0 0.2328435397
H  H3  1  0.30700000  0.00000000  0.25740000  1.0 0.2328435397
H  H4  1  0.30700000  0.00000000  0.74260000  1.0 0.2328435397
H  H5  1  0.85630000  0.50000000  0.32670000  1.0 0.2328435397
H  H6  1  0.85630000  0.50000000  0.67330000  1.0 0.2328435397
H  H7  1  0.14370000  0.00000000  0.17330000  1.0 0.2328435397
H  H8  1  0.14370000  0.00000000  0.82670000  1.0 0.2328435397
C  C1  1  0.66740000  0.50000000  0.30200000  1.0 -0.7713750089
C  C2  1  0.66740000  0.50000000  0.69800000  1.0 -0.7713750089
C  C3  1  0.33260000  0.00000000  0.19800000  1.0 -0.7713750089
C  C4  1  0.33260000  0.00000000  0.80200000  1.0 -0.7713750089
O  O1  1  0.71600000  0.30350000  0.32900000  1.0 -0.6981860781
O  O2  1  0.71600000  0.69650000  0.67100000  1.0 -0.6981860781
O  O3  1  0.28400000  0.80350000  0.17100000  1.0 -0.6981860781
O  O4  1  0.28400000  0.19650000  0.82900000  1.0 -0.6981860781
O  O5  1  0.28400000  0.19650000  0.17100000  1.0 -0.6981860781
O  O6  1  0.28400000  0.80350000  0.82900000  1.0 -0.6981860781
O  O7  1  0.71600000  0.69650000  0.32900000  1.0 -0.6981860781
O  O8  1  0.71600000  0.30350000  0.67100000  1.0 -0.6981860781
O  O9  1  0.25180000  0.36750000  0.26930000  1.0 -0.7202157164
O  O10  1  0.25180000  0.63250000  0.73070000  1.0 -0.7202157164
O  O11  1  0.74820000  0.86750000  0.23070000  1.0 -0.7202157164
O  O12  1  0.74820000  0.13250000  0.76930000  1.0 -0.7202157164
O  O13  1  0.74820000  0.13250000  0.23070000  1.0 -0.7202157164
O  O14  1  0.74820000  0.86750000  0.76930000  1.0 -0.7202157164
O  O15  1  0.25180000  0.63250000  0.26930000  1.0 -0.7202157164
O  O16  1  0.25180000  0.36750000  0.73070000  1.0 -0.7202157164
O  O17  1  0.94530000  0.50000000  0.50000000  1.0 -0.5680191303
O  O18  1  0.05470000  0.00000000  0.00000000  1.0 -0.5680191303
O  O19  1  0.38530000  0.39680000  0.41920000  1.0 -0.7432944486
O  O20  1  0.38530000  0.60320000  0.58080000  1.0 -0.7432944486
O  O21  1  0.61470000  0.89680000  0.08080000  1.0 -0.7432944486
O  O22  1  0.61470000  0.10320000  0.91920000  1.0 -0.7432944486
O  O23  1  0.61470000  0.10320000  0.08080000  1.0 -0.7432944486
O  O24  1  0.61470000  0.89680000  0.91920000  1.0 -0.7432944486
O  O25  1  0.38530000  0.60320000  0.41920000  1.0 -0.7432944486
O  O26  1  0.38530000  0.39680000  0.58080000  1.0 -0.7432944486
O  O27  1  0.17510000  0.17980000  0.34220000  1.0 -0.4616881892
O  O28  1  0.17510000  0.82020000  0.65780000  1.0 -0.4653093899
O  O29  1  0.82490000  0.67980000  0.15780000  1.0 -0.4616881892
O  O30  1  0.82490000  0.32020000  0.84220000  1.0 -0.4616881892
O  O31  1  0.82490000  0.32020000  0.15780000  1.0 -0.4616881892
O  O32  1  0.82490000  0.67980000  0.84220000  1.0 -0.4616881892
O  O33  1  0.17510000  0.82020000  0.34220000  1.0 -0.4616881892
O  O34  1  0.17510000  0.17980000  0.65780000  1.0 -0.4653093899
