# DDEC6 charges by PACMAN v1.1 (https://github.com/mtap-research/PACMAN-charge/)
data_LIWFIG_ASR_pacman
_symmetry_space_group_name_H-M   'P 1'
_cell_length_a   13.49500000
_cell_length_b   13.49500000
_cell_length_c   9.39600000
_cell_angle_alpha   90.00000000
_cell_angle_beta   90.00000000
_cell_angle_gamma   120.00000000
_symmetry_Int_Tables_number   1
_chemical_formula_structural   Fe4(PO4)7
_chemical_formula_sum   'Fe8 P14 O56'
_cell_volume   1481.90177282
_cell_formula_units_Z   2
loop_
 _symmetry_equiv_pos_site_id
 _symmetry_equiv_pos_as_xyz
  1  'x, y, z'
loop_
 _atom_site_type_symbol
 _atom_site_label
 _atom_site_symmetry_multiplicity
 _atom_site_fract_x
 _atom_site_fract_y
 _atom_site_fract_z
 _atom_site_occupancy
 _atom_site_charge
Fe  Fe1  1  0.14600000  0.44080000  0.90180000  1.0 1.4996678623
Fe  Fe2  1  0.55920000  0.70520000  0.90180000  1.0 1.4996678623
Fe  Fe3  1  0.29480000  0.85400000  0.90180000  1.0 1.4898325793
Fe  Fe4  1  0.85400000  0.55920000  0.09820000  1.0 1.4996678623
Fe  Fe5  1  0.44080000  0.29480000  0.09820000  1.0 1.5056136243
Fe  Fe6  1  0.70520000  0.14600000  0.09820000  1.0 1.5056136243
Fe  Fe7  1  0.00000000  0.00000000  0.50000000  1.0 1.4314204646
Fe  Fe8  1  0.00000000  0.00000000  0.00000000  1.0 1.5669220082
P  P1  1  0.33333333  0.66666667  0.71400000  1.0 1.4314204646
P  P2  1  0.66666667  0.33333333  0.28600000  1.0 1.4314204646
P  P3  1  0.36770000  0.49550000  0.09600000  1.0 1.4639862649
P  P4  1  0.50450000  0.87220000  0.09600000  1.0 1.4639862649
P  P5  1  0.12780000  0.63230000  0.09600000  1.0 1.4669925563
P  P6  1  0.63230000  0.50450000  0.90400000  1.0 1.4639862649
P  P7  1  0.49550000  0.12780000  0.90400000  1.0 1.4639862649
P  P8  1  0.87220000  0.36770000  0.90400000  1.0 1.4639862649
P  P9  1  0.03620000  0.18980000  0.74100000  1.0 1.4898325793
P  P10  1  0.81020000  0.84640000  0.74100000  1.0 1.4898325793
P  P11  1  0.15360000  0.96380000  0.74100000  1.0 1.4898325793
P  P12  1  0.96380000  0.81020000  0.25900000  1.0 1.4898325793
P  P13  1  0.18980000  0.15360000  0.25900000  1.0 1.4898325793
P  P14  1  0.84640000  0.03620000  0.25900000  1.0 1.4898325793
O  O1  1  0.28500000  0.43670000  0.97160000  1.0 -0.6541374433
O  O2  1  0.56330000  0.84830000  0.97160000  1.0 -0.6541374433
O  O3  1  0.15170000  0.71500000  0.97160000  1.0 -0.6541374433
O  O4  1  0.71500000  0.56330000  0.02840000  1.0 -0.6541374433
O  O5  1  0.43670000  0.15170000  0.02840000  1.0 -0.6541374433
O  O6  1  0.84830000  0.28500000  0.02840000  1.0 -0.6541374433
O  O7  1  0.45600000  0.62020000  0.06250000  1.0 -0.627051533
O  O8  1  0.37980000  0.83580000  0.06250000  1.0 -0.627051533
O  O9  1  0.16420000  0.54400000  0.06250000  1.0 -0.627051533
O  O10  1  0.54400000  0.37980000  0.93750000  1.0 -0.6181696263
O  O11  1  0.62020000  0.16420000  0.93750000  1.0 -0.6181696263
O  O12  1  0.83580000  0.45600000  0.93750000  1.0 -0.627051533
O  O13  1  0.42300000  0.42810000  0.14350000  1.0 -0.6393898787
O  O14  1  0.57190000  0.99490000  0.14350000  1.0 -0.6393898787
O  O15  1  0.00510000  0.57700000  0.14350000  1.0 -0.6393898787
O  O16  1  0.57700000  0.57190000  0.85650000  1.0 -0.6393898787
O  O17  1  0.42810000  0.00510000  0.85650000  1.0 -0.6393898787
O  O18  1  0.99490000  0.42300000  0.85650000  1.0 -0.6393898787
O  O19  1  0.11750000  0.31780000  0.75800000  1.0 -0.5978921063
O  O20  1  0.68220000  0.79970000  0.75800000  1.0 -0.5978921063
O  O21  1  0.20030000  0.88250000  0.75800000  1.0 -0.5978921063
O  O22  1  0.88250000  0.68220000  0.24200000  1.0 -0.5978921063
O  O23  1  0.31780000  0.20030000  0.24200000  1.0 -0.5978921063
O  O24  1  0.79970000  0.11750000  0.24200000  1.0 -0.5978921063
O  O25  1  0.02270000  0.13100000  0.88490000  1.0 -0.6128847905
O  O26  1  0.86900000  0.89170000  0.88490000  1.0 -0.6128847905
O  O27  1  0.10830000  0.97730000  0.88490000  1.0 -0.6128847905
O  O28  1  0.97730000  0.86900000  0.11510000  1.0 -0.6128847905
O  O29  1  0.13100000  0.10830000  0.11510000  1.0 -0.6128847905
O  O30  1  0.89170000  0.02270000  0.11510000  1.0 -0.6128847905
O  O31  1  0.07450000  0.14210000  0.62210000  1.0 -0.6393898787
O  O32  1  0.85790000  0.93240000  0.62210000  1.0 -0.6393898787
O  O33  1  0.06760000  0.92550000  0.62210000  1.0 -0.6393898787
O  O34  1  0.92550000  0.85790000  0.37790000  1.0 -0.6393898787
O  O35  1  0.14210000  0.06760000  0.37790000  1.0 -0.627051533
O  O36  1  0.93240000  0.07450000  0.37790000  1.0 -0.6393898787
O  O37  1  0.22720000  0.55700000  0.76640000  1.0 -0.6181696263
O  O38  1  0.44300000  0.67020000  0.76640000  1.0 -0.6181696263
O  O39  1  0.32980000  0.77280000  0.76640000  1.0 -0.6128847905
O  O40  1  0.77280000  0.44300000  0.23360000  1.0 -0.6128847905
O  O41  1  0.55700000  0.32980000  0.23360000  1.0 -0.6181696263
O  O42  1  0.67020000  0.22720000  0.23360000  1.0 -0.6181696263
O  O43  1  0.33333333  0.66666667  0.55100000  1.0 -0.4385326065
O  O44  1  0.66666667  0.33333333  0.44900000  1.0 -0.4385326065
O  O45  1  0.29900000  0.50190000  0.22830000  1.0 -0.4385326065
O  O46  1  0.49810000  0.79710000  0.22830000  1.0 -0.4385326065
O  O47  1  0.20290000  0.70100000  0.22830000  1.0 -0.4385326065
O  O48  1  0.70100000  0.49810000  0.77170000  1.0 -0.4385326065
O  O49  1  0.50190000  0.20290000  0.77170000  1.0 -0.4385326065
O  O50  1  0.79710000  0.29900000  0.77170000  1.0 -0.4385326065
O  O51  1  0.91500000  0.17180000  0.69920000  1.0 -0.4653646358
O  O52  1  0.82820000  0.74320000  0.69920000  1.0 -0.4638390847
O  O53  1  0.25680000  0.08500000  0.69920000  1.0 -0.4653646358
O  O54  1  0.08500000  0.82820000  0.30080000  1.0 -0.4638390847
O  O55  1  0.17180000  0.25680000  0.30080000  1.0 -0.4638390847
O  O56  1  0.74320000  0.91500000  0.30080000  1.0 -0.4638390847
