# DDEC6 charges by PACMAN v1.1 (https://github.com/mtap-research/PACMAN-charge/)
data_LIWVIY_ion_pacman
_symmetry_space_group_name_H-M   'P 1'
_cell_length_a   11.13500000
_cell_length_b   12.38000000
_cell_length_c   14.60700000
_cell_angle_alpha   95.33800000
_cell_angle_beta   89.53700000
_cell_angle_gamma   112.73900000
_symmetry_Int_Tables_number   1
_chemical_formula_structural   Ag3H16C19S6N8O13F9
_chemical_formula_sum   'Ag6 H32 C38 S12 N16 O26 F18'
_cell_volume   1848.18161102
_cell_formula_units_Z   2
loop_
 _symmetry_equiv_pos_site_id
 _symmetry_equiv_pos_as_xyz
  1  'x, y, z'
loop_
 _atom_site_type_symbol
 _atom_site_label
 _atom_site_symmetry_multiplicity
 _atom_site_fract_x
 _atom_site_fract_y
 _atom_site_fract_z
 _atom_site_occupancy
 _atom_site_charge
Ag  Ag1  1  0.72908000  0.51881000  0.26004000  1.0 0.3906523643
Ag  Ag2  1  0.27092000  0.48119000  0.73996000  1.0 0.3906523643
Ag  Ag3  1  0.17777000  0.90341000  0.08415000  1.0 0.3261469362
Ag  Ag4  1  0.82223000  0.09659000  0.91585000  1.0 0.3219257055
Ag  Ag5  1  0.75891000  0.09228000  0.40379000  1.0 0.3464368193
Ag  Ag6  1  0.24109000  0.90772000  0.59621000  1.0 0.3464368193
H  H1  1  0.85610000  0.53420000  0.47110000  1.0 0.1366224197
H  H2  1  0.14390000  0.46580000  0.52890000  1.0 0.1366224197
H  H3  1  0.01950000  0.65430000  0.57050000  1.0 0.1280845921
H  H4  1  0.98050000  0.34570000  0.42950000  1.0 0.1280845921
H  H5  1  0.15860000  0.86640000  0.38140000  1.0 0.1280845921
H  H6  1  0.84140000  0.13360000  0.61860000  1.0 0.1280845921
H  H7  1  0.85860000  0.87720000  0.34130000  1.0 0.1280845921
H  H8  1  0.14140000  0.12280000  0.65870000  1.0 0.1280845921
H  H9  1  0.95390000  0.17410000  0.23270000  1.0 0.1193524536
H  H10  1  0.04610000  0.82590000  0.76730000  1.0 0.1193524536
H  H11  1  0.07070000  0.11470000  0.12500000  1.0 0.1193524536
H  H12  1  0.92930000  0.88530000  0.87500000  1.0 0.1193524536
H  H13  1  0.32980000  0.79750000  0.22790000  1.0 0.1193524536
H  H14  1  0.67020000  0.20250000  0.77210000  1.0 0.1193524536
H  H15  1  0.50200000  0.85460000  0.33120000  1.0 0.1193524536
H  H16  1  0.49800000  0.14540000  0.66880000  1.0 0.1193524536
H  H17  1  0.44240000  0.11820000  0.16020000  1.0 0.1193524536
H  H18  1  0.55760000  0.88180000  0.83980000  1.0 0.1193524536
H  H19  1  0.73050000  0.12380000  0.11810000  1.0 0.1193524536
H  H20  1  0.26950000  0.87620000  0.88190000  1.0 0.1193524536
H  H21  1  0.82910000  0.49830000  0.05440000  1.0 0.1193524536
H  H22  1  0.17090000  0.50170000  0.94560000  1.0 0.1193524536
H  H23  1  0.86350000  0.36800000  0.94990000  1.0 0.1280845921
H  H24  1  0.13650000  0.63200000  0.05010000  1.0 0.1280845921
H  H25  1  0.55790000  0.64910000  0.28100000  1.0 0.356819926
H  H26  1  0.44210000  0.35090000  0.71900000  1.0 0.356819926
H  H27  1  0.61380000  0.66900000  0.19540000  1.0 0.3659936099
H  H28  1  0.38620000  0.33100000  0.80460000  1.0 0.3659936099
H  H29  1  0.53440000  0.52260000  0.40110000  1.0 0.3906523643
H  H30  1  0.46560000  0.47740000  0.59890000  1.0 0.3906523643
H  H31  1  0.47810000  0.39680000  0.36000000  1.0 0.3777880279
H  H32  1  0.52190000  0.60320000  0.64000000  1.0 0.3777880279
C  C1  1  0.91660000  0.60320000  0.45140000  1.0 0.0563562943
C  C2  1  0.08340000  0.39680000  0.54860000  1.0 0.0563562943
C  C3  1  0.01500000  0.67550000  0.51160000  1.0 -0.0038324151
C  C4  1  0.98500000  0.32450000  0.48840000  1.0 -0.0038324151
C  C5  1  0.09570000  0.79900000  0.40160000  1.0 0.0090275758
C  C6  1  0.90430000  0.20100000  0.59840000  1.0 0.0090275758
C  C7  1  0.99730000  0.72740000  0.34180000  1.0 0.1280845921
C  C8  1  0.00270000  0.27260000  0.65820000  1.0 0.1280845921
C  C9  1  0.97630000  0.89370000  0.23540000  1.0 0.1193524536
C  C10  1  0.02370000  0.10630000  0.76460000  1.0 0.1193524536
C  C11  1  0.90360000  0.92800000  0.29840000  1.0 0.0281118985
C  C12  1  0.09640000  0.07200000  0.70160000  1.0 0.0281118985
C  C13  1  0.95840000  0.10090000  0.23450000  1.0 0.002329773
C  C14  1  0.04160000  0.89910000  0.76550000  1.0 0.002329773
C  C15  1  0.02940000  0.06570000  0.17000000  1.0 0.0281118985
C  C16  1  0.97060000  0.93430000  0.83000000  1.0 0.0281118985
C  C17  1  0.38730000  0.87600000  0.23440000  1.0 0.0281118985
C  C18  1  0.61270000  0.12400000  0.76560000  1.0 0.0281118985
C  C19  1  0.49130000  0.90980000  0.29660000  1.0 0.0702733232
C  C20  1  0.50870000  0.09020000  0.70340000  1.0 0.0702733232
C  C21  1  0.55750000  0.09630000  0.25500000  1.0 0.1280845921
C  C22  1  0.44250000  0.90370000  0.74500000  1.0 0.1280845921
C  C23  1  0.45300000  0.06260000  0.19440000  1.0 -0.0038324151
C  C24  1  0.54700000  0.93740000  0.80560000  1.0 -0.0038324151
C  C25  1  0.75020000  0.20020000  0.10350000  1.0 -0.0038324151
C  C26  1  0.24980000  0.79980000  0.89650000  1.0 -0.0038324151
C  C27  1  0.72530000  0.27870000  0.16570000  1.0 0.1366224197
C  C28  1  0.27470000  0.72130000  0.83430000  1.0 0.1366224197
C  C29  1  0.80650000  0.42120000  0.06810000  1.0 0.0512705056
C  C30  1  0.19350000  0.57880000  0.93190000  1.0 0.0512705056
C  C31  1  0.82870000  0.34310000  0.00600000  1.0 0.0090275758
C  C32  1  0.17130000  0.65690000  0.99400000  1.0 0.0090275758
C  C33  1  0.40920000  0.28630000  0.99840000  1.0 0.2195750905
C  C34  1  0.59080000  0.71370000  0.00160000  1.0 0.2195750905
C  C35  1  0.24990000  0.18960000  0.41930000  1.0 0.4562053887
C  C36  1  0.75010000  0.81040000  0.58070000  1.0 0.4562053887
C  C37  1  0.20450000  0.43360000  0.18580000  1.0 0.4670168964
C  C38  1  0.79550000  0.56640000  0.81420000  1.0 0.4670168964
S  S1  1  0.98843000  0.75436000  0.22455000  1.0 -0.0118921933
S  S2  1  0.01157000  0.24564000  0.77545000  1.0 -0.0118921933
S  S3  1  0.66773000  0.24516000  0.27617000  1.0 0.0090275758
S  S4  1  0.33227000  0.75484000  0.72383000  1.0 0.0090275758
S  S5  1  0.34400000  0.14310000  0.95220000  1.0 0.356819926
S  S6  1  0.65600000  0.85690000  0.04780000  1.0 0.356819926
S  S7  1  0.28840000  0.15610000  0.95110000  1.0 0.3261469362
S  S8  1  0.71160000  0.84390000  0.04890000  1.0 0.3219257055
S  S9  1  0.36512000  0.14047000  0.46357000  1.0 0.9916901497
S  S10  1  0.63488000  0.85953000  0.53643000  1.0 0.9916901497
S  S11  1  0.10055000  0.48681000  0.25467000  1.0 0.9813456444
S  S12  1  0.89945000  0.51319000  0.74533000  1.0 0.9813456444
N  N1  1  0.90400000  0.62760000  0.36630000  1.0 -0.1907018887
N  N2  1  0.09600000  0.37240000  0.63370000  1.0 -0.1907018887
N  N3  1  0.10450000  0.77600000  0.48670000  1.0 -0.1410784365
N  N4  1  0.89550000  0.22400000  0.51330000  1.0 -0.1410784365
N  N5  1  0.89560000  0.03340000  0.29970000  1.0 -0.1702829367
N  N6  1  0.10440000  0.96660000  0.70030000  1.0 -0.1702829367
N  N7  1  0.04000000  0.96150000  0.17090000  1.0 -0.2126994187
N  N8  1  0.96000000  0.03850000  0.82910000  1.0 -0.2126994187
N  N9  1  0.36580000  0.95100000  0.18350000  1.0 -0.1907018887
N  N10  1  0.63420000  0.04900000  0.81650000  1.0 -0.1907018887
N  N11  1  0.57730000  0.02270000  0.30700000  1.0 -0.1907018887
N  N12  1  0.42270000  0.97730000  0.69300000  1.0 -0.1907018887
N  N13  1  0.75280000  0.39000000  0.14890000  1.0 -0.2126994187
N  N14  1  0.24720000  0.61000000  0.85110000  1.0 -0.2126994187
N  N15  1  0.80240000  0.23110000  0.02200000  1.0 -0.1702829367
N  N16  1  0.19760000  0.76890000  0.97800000  1.0 -0.1702829367
O  O1  1  0.31620000  0.14600000  0.85720000  1.0 -0.4000064226
O  O2  1  0.68380000  0.85400000  0.14280000  1.0 -0.4000064226
O  O3  1  0.23060000  0.09810000  0.00720000  1.0 0.0178702019
O  O4  1  0.76940000  0.90190000  0.99280000  1.0 0.0178702019
O  O5  1  0.46270000  0.13080000  0.97740000  1.0 -0.3307950886
O  O6  1  0.53730000  0.86920000  0.02260000  1.0 -0.3307950886
O  O7  1  0.64450000  0.66570000  0.25730000  1.0 -0.704027036
O  O8  1  0.35550000  0.33430000  0.74270000  1.0 -0.704027036
O  O9  1  0.58740000  0.46750000  0.38940000  1.0 -0.7289706262
O  O10  1  0.41260000  0.53250000  0.61060000  1.0 -0.7289706262
O  O11  1  0.18020000  0.18200000  0.97380000  1.0 -0.3061810525
O  O12  1  0.81980000  0.81800000  0.02620000  1.0 -0.3045791479
O  O13  1  0.29700000  0.06830000  0.00080000  1.0 -0.0508310048
O  O14  1  0.70300000  0.93170000  0.99920000  1.0 -0.0508310048
O  O15  1  0.34120000  0.02970000  0.41960000  1.0 -0.5193254592
O  O16  1  0.33100000  0.14030000  0.55700000  1.0 -0.5495506318
O  O17  1  0.49060000  0.22540000  0.44680000  1.0 -0.5193254592
O  O18  1  0.65880000  0.97030000  0.58040000  1.0 -0.5193254592
O  O19  1  0.66900000  0.85970000  0.44300000  1.0 -0.5495506318
O  O20  1  0.50940000  0.77460000  0.55320000  1.0 -0.5193254592
O  O21  1  0.98960000  0.38430000  0.27090000  1.0 -0.5686591657
O  O22  1  0.07480000  0.56320000  0.19790000  1.0 -0.5495506318
O  O23  1  0.17550000  0.54200000  0.33740000  1.0 -0.5612787398
O  O24  1  0.01040000  0.61570000  0.72910000  1.0 -0.5686591657
O  O25  1  0.92520000  0.43680000  0.80210000  1.0 -0.5495506318
O  O26  1  0.82450000  0.45800000  0.66260000  1.0 -0.5612787398
F  F1  1  0.52260000  0.32130000  0.96170000  1.0 -0.0958705636
F  F2  1  0.47740000  0.67870000  0.03830000  1.0 -0.0958705636
F  F3  1  0.36820000  0.36360000  0.97240000  1.0 -0.1118963973
F  F4  1  0.63180000  0.63640000  0.02760000  1.0 -0.1118963973
F  F5  1  0.42140000  0.30510000  0.08750000  1.0 -0.1214097196
F  F6  1  0.57860000  0.69490000  0.91250000  1.0 -0.1214097196
F  F7  1  0.13050000  0.12570000  0.43780000  1.0 -0.1633233221
F  F8  1  0.27110000  0.29340000  0.43510000  1.0 -0.1410784365
F  F9  1  0.27030000  0.17340000  0.32310000  1.0 -0.1907018887
F  F10  1  0.86950000  0.87430000  0.56220000  1.0 -0.1633233221
F  F11  1  0.72890000  0.70660000  0.56490000  1.0 -0.1410784365
F  F12  1  0.72970000  0.82660000  0.67690000  1.0 -0.1907018887
F  F13  1  0.30640000  0.51820000  0.16120000  1.0 -0.1907018887
F  F14  1  0.13860000  0.37530000  0.10950000  1.0 -0.1702829367
F  F15  1  0.23920000  0.36080000  0.22630000  1.0 -0.1796556206
F  F16  1  0.69360000  0.48180000  0.83880000  1.0 -0.1907018887
F  F17  1  0.86140000  0.62470000  0.89050000  1.0 -0.1702829367
F  F18  1  0.76080000  0.63920000  0.77370000  1.0 -0.1796556206
