# DDEC6 charges by PACMAN v1.1 (https://github.com/mtap-research/PACMAN-charge/)
data_LIXWEV_ASR_pacman
_symmetry_space_group_name_H-M   'P 1'
_cell_length_a   13.48600000
_cell_length_b   13.48600000
_cell_length_c   18.31000000
_cell_angle_alpha   90.00000000
_cell_angle_beta   90.00000000
_cell_angle_gamma   120.00000000
_symmetry_Int_Tables_number   1
_chemical_formula_structural   Fe4P7(H2O7)3
_chemical_formula_sum   'Fe16 P28 H24 O84'
_cell_volume   2883.93379762
_cell_formula_units_Z   4
loop_
 _symmetry_equiv_pos_site_id
 _symmetry_equiv_pos_as_xyz
  1  'x, y, z'
loop_
 _atom_site_type_symbol
 _atom_site_label
 _atom_site_symmetry_multiplicity
 _atom_site_fract_x
 _atom_site_fract_y
 _atom_site_fract_z
 _atom_site_occupancy
 _atom_site_charge
Fe  Fe1  1  0.00000000  0.00000000  0.25000000  1.0 1.3674269998
Fe  Fe2  1  0.00000000  0.00000000  0.75000000  1.0 1.3674269998
Fe  Fe3  1  0.00000000  0.00000000  0.50000000  1.0 1.4670010888
Fe  Fe4  1  0.00000000  0.00000000  0.00000000  1.0 1.4670010888
Fe  Fe5  1  0.29352000  0.43733000  0.45609000  1.0 1.4497798367
Fe  Fe6  1  0.56267000  0.85619000  0.45609000  1.0 1.4497798367
Fe  Fe7  1  0.14381000  0.70648000  0.45609000  1.0 1.4497798367
Fe  Fe8  1  0.43733000  0.29352000  0.04391000  1.0 1.4497798367
Fe  Fe9  1  0.85619000  0.56267000  0.04391000  1.0 1.4497798367
Fe  Fe10  1  0.70648000  0.14381000  0.04391000  1.0 1.4497798367
Fe  Fe11  1  0.70648000  0.56267000  0.54391000  1.0 1.4497798367
Fe  Fe12  1  0.43733000  0.14381000  0.54391000  1.0 1.4497798367
Fe  Fe13  1  0.85619000  0.29352000  0.54391000  1.0 1.4497798367
Fe  Fe14  1  0.56267000  0.70648000  0.95609000  1.0 1.4497798367
Fe  Fe15  1  0.14381000  0.43733000  0.95609000  1.0 1.4497798367
Fe  Fe16  1  0.29352000  0.85619000  0.95609000  1.0 1.4497798367
P  P1  1  0.33333333  0.66666667  0.36092000  1.0 1.4848985159
P  P2  1  0.66666667  0.33333333  0.13908000  1.0 1.4848985159
P  P3  1  0.66666667  0.33333333  0.63908000  1.0 1.4865332925
P  P4  1  0.33333333  0.66666667  0.86092000  1.0 1.4865332925
P  P5  1  0.15791000  0.18893000  0.37080000  1.0 1.0548058236
P  P6  1  0.81107000  0.96898000  0.37080000  1.0 1.0565918304
P  P7  1  0.03102000  0.84209000  0.37080000  1.0 1.0548058236
P  P8  1  0.18893000  0.15791000  0.12920000  1.0 1.0565918304
P  P9  1  0.96898000  0.81107000  0.12920000  1.0 1.0565918304
P  P10  1  0.84209000  0.03102000  0.12920000  1.0 1.0565918304
P  P11  1  0.84209000  0.81107000  0.62920000  1.0 1.0565918304
P  P12  1  0.18893000  0.03102000  0.62920000  1.0 1.0565918304
P  P13  1  0.96898000  0.15791000  0.62920000  1.0 1.0565918304
P  P14  1  0.81107000  0.84209000  0.87080000  1.0 1.0565918304
P  P15  1  0.03102000  0.18893000  0.87080000  1.0 1.0548058236
P  P16  1  0.15791000  0.96898000  0.87080000  1.0 1.0565918304
P  P17  1  0.50478000  0.63193000  0.55280000  1.0 1.0295560543
P  P18  1  0.36807000  0.87285000  0.55280000  1.0 1.0295560543
P  P19  1  0.12715000  0.49522000  0.55280000  1.0 1.0295560543
P  P20  1  0.63193000  0.50478000  0.94720000  1.0 1.0295560543
P  P21  1  0.87285000  0.36807000  0.94720000  1.0 1.0295560543
P  P22  1  0.49522000  0.12715000  0.94720000  1.0 1.0295560543
P  P23  1  0.49522000  0.36807000  0.44720000  1.0 1.0295560543
P  P24  1  0.63193000  0.12715000  0.44720000  1.0 1.0295560543
P  P25  1  0.87285000  0.50478000  0.44720000  1.0 1.0295560543
P  P26  1  0.36807000  0.49522000  0.05280000  1.0 1.0295560543
P  P27  1  0.12715000  0.63193000  0.05280000  1.0 1.0295560543
P  P28  1  0.50478000  0.87285000  0.05280000  1.0 1.0295560543
H  H1  1  0.22730000  0.19520000  0.34910000  1.0 0.0427048073
H  H2  1  0.80480000  0.03210000  0.34910000  1.0 0.0427048073
H  H3  1  0.96790000  0.77270000  0.34910000  1.0 0.0427048073
H  H4  1  0.19520000  0.22730000  0.15090000  1.0 0.0427048073
H  H5  1  0.03210000  0.80480000  0.15090000  1.0 0.0427048073
H  H6  1  0.77270000  0.96790000  0.15090000  1.0 0.0427048073
H  H7  1  0.77270000  0.80480000  0.65090000  1.0 0.0427048073
H  H8  1  0.19520000  0.96790000  0.65090000  1.0 0.0427048073
H  H9  1  0.03210000  0.22730000  0.65090000  1.0 0.0427048073
H  H10  1  0.80480000  0.77270000  0.84910000  1.0 0.0427048073
H  H11  1  0.96790000  0.19520000  0.84910000  1.0 0.0427048073
H  H12  1  0.22730000  0.03210000  0.84910000  1.0 0.0427048073
H  H13  1  0.50310000  0.67600000  0.59490000  1.0 0.0663860182
H  H14  1  0.32400000  0.82710000  0.59490000  1.0 0.0663860182
H  H15  1  0.17290000  0.49690000  0.59490000  1.0 0.0663860182
H  H16  1  0.67600000  0.50310000  0.90510000  1.0 0.0663860182
H  H17  1  0.82710000  0.32400000  0.90510000  1.0 0.0663860182
H  H18  1  0.49690000  0.17290000  0.90510000  1.0 0.0663860182
H  H19  1  0.49690000  0.32400000  0.40510000  1.0 0.0663860182
H  H20  1  0.67600000  0.17290000  0.40510000  1.0 0.0663860182
H  H21  1  0.82710000  0.50310000  0.40510000  1.0 0.0663860182
H  H22  1  0.32400000  0.49690000  0.09490000  1.0 0.0663860182
H  H23  1  0.17290000  0.67600000  0.09490000  1.0 0.0663860182
H  H24  1  0.50310000  0.82710000  0.09490000  1.0 0.0663860182
O  O1  1  0.06590000  0.14050000  0.31224000  1.0 -0.6302421159
O  O2  1  0.85950000  0.92540000  0.31224000  1.0 -0.6302421159
O  O3  1  0.07460000  0.93410000  0.31224000  1.0 -0.6302421159
O  O4  1  0.14050000  0.06590000  0.18776000  1.0 -0.6302421159
O  O5  1  0.92540000  0.85950000  0.18776000  1.0 -0.6302421159
O  O6  1  0.93410000  0.07460000  0.18776000  1.0 -0.6302421159
O  O7  1  0.93410000  0.85950000  0.68776000  1.0 -0.6302421159
O  O8  1  0.14050000  0.07460000  0.68776000  1.0 -0.6302421159
O  O9  1  0.92540000  0.06590000  0.68776000  1.0 -0.6302421159
O  O10  1  0.85950000  0.93410000  0.81224000  1.0 -0.6302421159
O  O11  1  0.07460000  0.14050000  0.81224000  1.0 -0.6302421159
O  O12  1  0.06590000  0.92540000  0.81224000  1.0 -0.6302421159
O  O13  1  0.13080000  0.11460000  0.43815000  1.0 -0.6302421159
O  O14  1  0.88540000  0.01620000  0.43815000  1.0 -0.6302421159
O  O15  1  0.98380000  0.86920000  0.43815000  1.0 -0.6302421159
O  O16  1  0.11460000  0.13080000  0.06185000  1.0 -0.6302421159
O  O17  1  0.01620000  0.88540000  0.06185000  1.0 -0.6302421159
O  O18  1  0.86920000  0.98380000  0.06185000  1.0 -0.6302421159
O  O19  1  0.86920000  0.88540000  0.56185000  1.0 -0.6302421159
O  O20  1  0.11460000  0.98380000  0.56185000  1.0 -0.6302421159
O  O21  1  0.01620000  0.13080000  0.56185000  1.0 -0.6302421159
O  O22  1  0.88540000  0.86920000  0.93815000  1.0 -0.6302421159
O  O23  1  0.98380000  0.11460000  0.93815000  1.0 -0.6302421159
O  O24  1  0.13080000  0.01620000  0.93815000  1.0 -0.6302421159
O  O25  1  0.32810000  0.55560000  0.38063000  1.0 -0.7567404525
O  O26  1  0.44440000  0.77250000  0.38063000  1.0 -0.7567404525
O  O27  1  0.22750000  0.67190000  0.38063000  1.0 -0.7567404525
O  O28  1  0.55560000  0.32810000  0.11937000  1.0 -0.7567404525
O  O29  1  0.77250000  0.44440000  0.11937000  1.0 -0.7567404525
O  O30  1  0.67190000  0.22750000  0.11937000  1.0 -0.7567404525
O  O31  1  0.67190000  0.44440000  0.61937000  1.0 -0.7567404525
O  O32  1  0.55560000  0.22750000  0.61937000  1.0 -0.7567404525
O  O33  1  0.77250000  0.32810000  0.61937000  1.0 -0.7567404525
O  O34  1  0.44440000  0.67190000  0.88063000  1.0 -0.7567404525
O  O35  1  0.22750000  0.55560000  0.88063000  1.0 -0.7567404525
O  O36  1  0.32810000  0.77250000  0.88063000  1.0 -0.7567404525
O  O37  1  0.38170000  0.54580000  0.53510000  1.0 -0.6813457376
O  O38  1  0.45420000  0.83590000  0.53510000  1.0 -0.6813457376
O  O39  1  0.16410000  0.61830000  0.53510000  1.0 -0.6813457376
O  O40  1  0.54580000  0.38170000  0.96490000  1.0 -0.6813457376
O  O41  1  0.83590000  0.45420000  0.96490000  1.0 -0.6813457376
O  O42  1  0.61830000  0.16410000  0.96490000  1.0 -0.6813457376
O  O43  1  0.61830000  0.45420000  0.46490000  1.0 -0.6813457376
O  O44  1  0.54580000  0.16410000  0.46490000  1.0 -0.6813457376
O  O45  1  0.83590000  0.38170000  0.46490000  1.0 -0.6813457376
O  O46  1  0.45420000  0.61830000  0.03510000  1.0 -0.6813457376
O  O47  1  0.16410000  0.54580000  0.03510000  1.0 -0.6813457376
O  O48  1  0.38170000  0.83590000  0.03510000  1.0 -0.6813457376
O  O49  1  0.57390000  0.57630000  0.57590000  1.0 -0.6625526762
O  O50  1  0.42370000  0.99760000  0.57590000  1.0 -0.6625526762
O  O51  1  0.00240000  0.42610000  0.57590000  1.0 -0.6625526762
O  O52  1  0.57630000  0.57390000  0.92410000  1.0 -0.6625526762
O  O53  1  0.99760000  0.42370000  0.92410000  1.0 -0.6625526762
O  O54  1  0.42610000  0.00240000  0.92410000  1.0 -0.6625526762
O  O55  1  0.42610000  0.42370000  0.42410000  1.0 -0.6625526762
O  O56  1  0.57630000  0.00240000  0.42410000  1.0 -0.6625526762
O  O57  1  0.99760000  0.57390000  0.42410000  1.0 -0.6625526762
O  O58  1  0.42370000  0.42610000  0.07590000  1.0 -0.6625526762
O  O59  1  0.00240000  0.57630000  0.07590000  1.0 -0.6625526762
O  O60  1  0.57390000  0.99760000  0.07590000  1.0 -0.6625526762
O  O61  1  0.56650000  0.71780000  0.49170000  1.0 -0.6429209825
O  O62  1  0.28220000  0.84870000  0.49170000  1.0 -0.6429209825
O  O63  1  0.15130000  0.43350000  0.49170000  1.0 -0.6429209825
O  O64  1  0.71780000  0.56650000  0.00830000  1.0 -0.6429209825
O  O65  1  0.84870000  0.28220000  0.00830000  1.0 -0.6429209825
O  O66  1  0.43350000  0.15130000  0.00830000  1.0 -0.6429209825
O  O67  1  0.43350000  0.28220000  0.50830000  1.0 -0.6429209825
O  O68  1  0.71780000  0.15130000  0.50830000  1.0 -0.6429209825
O  O69  1  0.84870000  0.56650000  0.50830000  1.0 -0.6429209825
O  O70  1  0.28220000  0.43350000  0.99170000  1.0 -0.6429209825
O  O71  1  0.15130000  0.71780000  0.99170000  1.0 -0.6429209825
O  O72  1  0.56650000  0.84870000  0.99170000  1.0 -0.6429209825
O  O73  1  0.18480000  0.31070000  0.38900000  1.0 -0.6081712808
O  O74  1  0.68930000  0.87410000  0.38900000  1.0 -0.6081712808
O  O75  1  0.12590000  0.81520000  0.38900000  1.0 -0.6081712808
O  O76  1  0.31070000  0.18480000  0.11100000  1.0 -0.6081712808
O  O77  1  0.87410000  0.68930000  0.11100000  1.0 -0.6081712808
O  O78  1  0.81520000  0.12590000  0.11100000  1.0 -0.6081712808
O  O79  1  0.81520000  0.68930000  0.61100000  1.0 -0.6081712808
O  O80  1  0.31070000  0.12590000  0.61100000  1.0 -0.6081712808
O  O81  1  0.87410000  0.18480000  0.61100000  1.0 -0.6081712808
O  O82  1  0.68930000  0.81520000  0.88900000  1.0 -0.6081712808
O  O83  1  0.12590000  0.31070000  0.88900000  1.0 -0.6081712808
O  O84  1  0.18480000  0.87410000  0.88900000  1.0 -0.6081712808
