# DDEC6 charges by PACMAN v1.1 (https://github.com/mtap-research/PACMAN-charge/)
data_LIXXEW_ASR_pacman
_symmetry_space_group_name_H-M   'P 1'
_cell_length_a   10.49260000
_cell_length_b   11.21930000
_cell_length_c   12.78120000
_cell_angle_alpha   101.07900000
_cell_angle_beta   110.20600000
_cell_angle_gamma   99.87000000
_symmetry_Int_Tables_number   1
_chemical_formula_structural   Gd2H14C26N3O13
_chemical_formula_sum   'Gd2 H14 C26 N3 O13'
_cell_volume   1338.70196246
_cell_formula_units_Z   1
loop_
 _symmetry_equiv_pos_site_id
 _symmetry_equiv_pos_as_xyz
  1  'x, y, z'
loop_
 _atom_site_type_symbol
 _atom_site_label
 _atom_site_symmetry_multiplicity
 _atom_site_fract_x
 _atom_site_fract_y
 _atom_site_fract_z
 _atom_site_occupancy
 _atom_site_charge
Gd  Gd1  1  0.40114000  0.43363000  0.33350000  1.0 2.030766624
Gd  Gd2  1  0.59800000  0.55956000  0.66348000  1.0 2.0216804919
H  H1  1  0.75481000  0.94647000  0.99119000  1.0 0.1135847358
H  H2  1  0.34546000  0.13415000  0.06195000  1.0 0.3270918307
H  H3  1  0.30883000  0.99088000  0.95878000  1.0 0.2875543562
H  H4  1  0.06891000  0.85615000  0.86722000  1.0 0.1135847358
H  H5  1  0.93028000  0.14310000  0.12923000  1.0 0.1169781712
H  H6  1  0.47860000  0.08100000  0.32749000  1.0 0.1169781712
H  H7  1  0.53621000  0.82043000  0.68361000  1.0 0.2840801952
H  H8  1  0.50460000  0.85982000  0.32687000  1.0 0.1135847358
H  H9  1  0.49723000  0.14402000  0.67645000  1.0 0.1298278373
H  H10  1  0.83552000  0.39531000  0.29201000  1.0 0.1135847358
H  H11  1  0.13068000  0.65679000  0.78825000  1.0 0.3066795049
H  H12  1  0.28065000  0.62949000  0.76429000  1.0 0.3185675519
H  H13  1  0.90163000  0.58351000  0.64112000  1.0 0.1298278373
H  H14  1  0.09362000  0.41452000  0.35533000  1.0 0.1135847358
C  C1  1  0.19528000  0.23664000  0.15742000  1.0 0.5799046633
C  C2  1  0.80213000  0.76196000  0.84062000  1.0 0.5799046633
C  C3  1  0.10017000  0.11344000  0.07942000  1.0 -0.1485968652
C  C4  1  0.90169000  0.88578000  0.92038000  1.0 0.0094440607
C  C5  1  0.14287000  0.02858000  0.00577000  1.0 0.3185675519
C  C6  1  0.86230000  0.96890000  0.99503000  1.0 -0.1305667433
C  C7  1  0.03931000  0.91817000  0.92637000  1.0 -0.2137494954
C  C8  1  0.96051000  0.07894000  0.07142000  1.0 -0.0776151168
C  C9  1  0.48168000  0.25454000  0.50844000  1.0 0.6596953151
C  C10  1  0.51792000  0.74517000  0.48870000  1.0 0.6596953151
C  C11  1  0.49012000  0.12304000  0.50428000  1.0 -0.0065725586
C  C12  1  0.51116000  0.87725000  0.49843000  1.0 -0.1377454373
C  C13  1  0.48899000  0.04499000  0.40295000  1.0 -0.1088835644
C  C14  1  0.51239000  0.95795000  0.60066000  1.0 0.2476469008
C  C15  1  0.49803000  0.95591000  0.79168000  1.0 0.2875543562
C  C16  1  0.46450000  0.95018000  0.88562000  1.0 -0.2939947071
C  C17  1  0.50071000  0.92337000  0.40190000  1.0 -0.0682996187
C  C18  1  0.50082000  0.08037000  0.60187000  1.0 -0.1784802499
C  C19  1  0.29451000  0.52305000  0.56847000  1.0 0.6352114854
C  C20  1  0.70379000  0.47581000  0.42792000  1.0 0.629829782
C  C21  1  0.14463000  0.51185000  0.53555000  1.0 -0.1691884222
C  C22  1  0.85639000  0.48819000  0.46460000  1.0 -0.0029396273
C  C23  1  0.09209000  0.56056000  0.62010000  1.0 0.3185675519
C  C24  1  0.90907000  0.44103000  0.38187000  1.0 -0.1231617677
C  C25  1  0.94536000  0.54602000  0.58025000  1.0 -0.2164924117
C  C26  1  0.05193000  0.45319000  0.41837000  1.0 -0.0682996187
N  N1  1  0.27766000  0.04862000  0.01304000  1.0 -0.5860991898
N  N2  1  0.51874000  0.90985000  0.69621000  1.0 -0.3168980303
N  N3  1  0.17461000  0.62046000  0.73383000  1.0 -0.6094782772
O  O1  1  0.31911000  0.27676000  0.15567000  1.0 -0.6484073224
O  O2  1  0.67745000  0.72692000  0.83964000  1.0 -0.6419223967
O  O3  1  0.16083000  0.30837000  0.23014000  1.0 -0.6484073224
O  O4  1  0.83929000  0.68868000  0.77103000  1.0 -0.6683135155
O  O5  1  0.52574000  0.33620000  0.60706000  1.0 -0.6683135155
O  O6  1  0.47614000  0.66511000  0.39038000  1.0 -0.6419223967
O  O7  1  0.43132000  0.27452000  0.40838000  1.0 -0.6889341894
O  O8  1  0.56824000  0.71964000  0.58833000  1.0 -0.6889341894
O  O9  1  0.50034000  0.07291000  0.84913000  1.0 -0.0282196189
O  O10  1  0.38113000  0.56296000  0.67623000  1.0 -0.6308573308
O  O11  1  0.62276000  0.44172000  0.32060000  1.0 -0.6222747388
O  O12  1  0.34509000  0.49518000  0.48964000  1.0 -0.7638466182
O  O13  1  0.65333000  0.49870000  0.50741000  1.0 -0.7665630403
