# DDEC6 charges by PACMAN v1.1 (https://github.com/mtap-research/PACMAN-charge/)
data_LOCRUR_ASR_pacman
_symmetry_space_group_name_H-M   'P 1'
_cell_length_a   13.75090000
_cell_length_b   13.75090000
_cell_length_c   13.75090000
_cell_angle_alpha   98.75650000
_cell_angle_beta   98.75650000
_cell_angle_gamma   134.06900000
_symmetry_Int_Tables_number   1
_chemical_formula_structural   In(C13O4)2
_chemical_formula_sum   'In2 C52 O16'
_cell_volume   1720.12502846
_cell_formula_units_Z   2
loop_
 _symmetry_equiv_pos_site_id
 _symmetry_equiv_pos_as_xyz
  1  'x, y, z'
loop_
 _atom_site_type_symbol
 _atom_site_label
 _atom_site_symmetry_multiplicity
 _atom_site_fract_x
 _atom_site_fract_y
 _atom_site_fract_z
 _atom_site_occupancy
 _atom_site_charge
In  In1  1  0.75000000  0.25000000  0.50000000  1.0 1.2968651659
In  In2  1  0.50000000  0.50000000  0.00000000  1.0 1.2903720743
C  C1  1  0.93730000  0.40530000  0.69700000  1.0 0.4782074696
C  C2  1  0.70830000  0.24030000  0.30300000  1.0 0.4729098386
C  C3  1  0.75970000  0.06270000  0.46800000  1.0 0.4782074696
C  C4  1  0.59470000  0.29170000  0.53200000  1.0 0.4782074696
C  C5  1  0.31270000  0.50970000  0.96800000  1.0 0.4782074696
C  C6  1  0.54170000  0.34470000  0.03200000  1.0 0.4782074696
C  C7  1  0.49030000  0.45830000  0.80300000  1.0 0.4782074696
C  C8  1  0.65530000  0.68730000  0.19700000  1.0 0.4729098386
C  C9  1  0.03710000  0.48070000  0.81240000  1.0 0.0111408715
C  C10  1  0.66830000  0.22470000  0.18760000  1.0 0.0111408715
C  C11  1  0.77530000  0.96290000  0.44360000  1.0 0.0111408715
C  C12  1  0.51930000  0.33170000  0.55640000  1.0 0.0111408715
C  C13  1  0.21290000  0.52530000  0.94360000  1.0 0.0111408715
C  C14  1  0.58170000  0.26930000  0.05640000  1.0 0.0277587767
C  C15  1  0.47470000  0.41830000  0.68760000  1.0 0.0111408715
C  C16  1  0.73070000  0.78710000  0.31240000  1.0 0.0111408715
C  C17  1  0.15050000  0.64410000  0.85160000  1.0 0.1023605795
C  C18  1  0.79250000  0.29890000  0.14840000  1.0 0.1023605795
C  C19  1  0.70110000  0.84950000  0.49360000  1.0 0.1023605795
C  C20  1  0.35590000  0.20750000  0.50640000  1.0 0.1023605795
C  C21  1  0.09950000  0.45110000  0.99360000  1.0 0.1023605795
C  C22  1  0.45750000  0.10590000  0.00640000  1.0 0.1198531173
C  C23  1  0.54890000  0.54250000  0.64840000  1.0 0.1198531173
C  C24  1  0.89410000  0.90050000  0.35160000  1.0 0.1023605795
C  C25  1  0.95620000  0.41920000  0.88740000  1.0 0.0277587767
C  C26  1  0.53180000  0.06880000  0.11260000  1.0 0.0194946906
C  C27  1  0.93120000  0.04380000  0.46300000  1.0 0.0351689986
C  C28  1  0.58080000  0.46820000  0.53700000  1.0 0.0194946906
C  C29  1  0.29380000  0.68120000  0.96300000  1.0 0.0194946906
C  C30  1  0.71820000  0.33080000  0.03700000  1.0 0.0194946906
C  C31  1  0.31880000  0.28180000  0.61260000  1.0 0.0194946906
C  C32  1  0.66920000  0.70620000  0.38740000  1.0 0.0277587767
C  C33  1  0.08900000  0.41110000  0.82710000  1.0 0.0026076244
C  C34  1  0.58400000  0.26190000  0.17290000  1.0 0.0277587767
C  C35  1  0.73810000  0.91100000  0.32210000  1.0 0.0277587767
C  C36  1  0.58890000  0.41600000  0.67790000  1.0 0.0026076244
C  C37  1  0.16100000  0.48810000  0.82210000  1.0 0.0277587767
C  C38  1  0.66600000  0.33890000  0.17790000  1.0 0.0277587767
C  C39  1  0.51190000  0.33400000  0.67290000  1.0 0.0026076244
C  C40  1  0.66110000  0.83900000  0.32710000  1.0 0.0111408715
C  C41  1  0.12500000  0.38100000  0.75600000  1.0 -0.247129092
C  C42  1  0.62500000  0.36900000  0.24400000  1.0 -0.2560421818
C  C43  1  0.63100000  0.87500000  0.25600000  1.0 -0.247129092
C  C44  1  0.61900000  0.37500000  0.74400000  1.0 -0.247129092
C  C45  1  0.96700000  0.25380000  0.82000000  1.0 0.4729098386
C  C46  1  0.43380000  0.14700000  0.18000000  1.0 0.4933690038
C  C47  1  0.85300000  0.03300000  0.28680000  1.0 0.4933690038
C  C48  1  0.74620000  0.56620000  0.71320000  1.0 0.4933690038
C  C49  1  0.28300000  0.60300000  0.78680000  1.0 0.496961475
C  C50  1  0.81620000  0.49620000  0.21320000  1.0 0.496961475
C  C51  1  0.39700000  0.18380000  0.68000000  1.0 0.496961475
C  C52  1  0.50380000  0.71700000  0.32000000  1.0 0.4729098386
O  O1  1  0.98060000  0.46290000  0.63010000  1.0 -0.6867237681
O  O2  1  0.83280000  0.35050000  0.36990000  1.0 -0.682719528
O  O3  1  0.64950000  0.01940000  0.48230000  1.0 -0.682719528
O  O4  1  0.53710000  0.16720000  0.51770000  1.0 -0.6867237681
O  O5  1  0.26940000  0.39950000  0.98230000  1.0 -0.682719528
O  O6  1  0.41720000  0.28710000  0.01770000  1.0 -0.682719528
O  O7  1  0.60050000  0.58280000  0.86990000  1.0 -0.682719528
O  O8  1  0.71290000  0.73060000  0.13010000  1.0 -0.682719528
O  O9  1  0.80490000  0.28070000  0.66940000  1.0 -0.6412115165
O  O10  1  0.61130000  0.13550000  0.33060000  1.0 -0.6412115165
O  O11  1  0.86450000  0.19510000  0.47580000  1.0 -0.6412115165
O  O12  1  0.71930000  0.38870000  0.52420000  1.0 -0.6412115165
O  O13  1  0.44510000  0.61450000  0.97580000  1.0 -0.6412115165
O  O14  1  0.63870000  0.46930000  0.02420000  1.0 -0.6412115165
O  O15  1  0.38550000  0.36130000  0.83060000  1.0 -0.6412115165
O  O16  1  0.53070000  0.55490000  0.16940000  1.0 -0.6412115165
