# DDEC6 charges by PACMAN v1.1 (https://github.com/mtap-research/PACMAN-charge/)
data_LOCZIO_FSR_pacman
_symmetry_space_group_name_H-M   'P 1'
_cell_length_a   11.20310000
_cell_length_b   11.20310000
_cell_length_c   20.32880000
_cell_angle_alpha   78.49660000
_cell_angle_beta   101.50300000
_cell_angle_gamma   90.39310000
_symmetry_Int_Tables_number   1
_chemical_formula_structural   NiH9C15S2(NO3)2
_chemical_formula_sum   'Ni4 H36 C60 S8 N8 O24'
_cell_volume   2448.54738557
_cell_formula_units_Z   4
loop_
 _symmetry_equiv_pos_site_id
 _symmetry_equiv_pos_as_xyz
  1  'x, y, z'
loop_
 _atom_site_type_symbol
 _atom_site_label
 _atom_site_symmetry_multiplicity
 _atom_site_fract_x
 _atom_site_fract_y
 _atom_site_fract_z
 _atom_site_occupancy
 _atom_site_charge
Ni  Ni1  1  0.72274000  0.15762000  0.77699000  1.0 0.8847414295
Ni  Ni2  1  0.15762000  0.72274000  0.72301000  1.0 0.885555629
Ni  Ni3  1  0.27726000  0.84238000  0.22301000  1.0 0.8847414295
Ni  Ni4  1  0.84238000  0.27726000  0.27699000  1.0 0.8847414295
H  H1  1  0.92480000  0.95460000  0.82920000  1.0 0.1144361387
H  H2  1  0.95460000  0.92480000  0.67080000  1.0 0.1144361387
H  H3  1  0.07520000  0.04540000  0.17080000  1.0 0.1144361387
H  H4  1  0.04540000  0.07520000  0.32920000  1.0 0.1144361387
H  H5  1  0.13100000  0.92820000  0.86090000  1.0 0.1401327143
H  H6  1  0.92820000  0.13100000  0.63910000  1.0 0.1401327143
H  H7  1  0.86900000  0.07180000  0.13910000  1.0 0.1401327143
H  H8  1  0.07180000  0.86900000  0.36090000  1.0 0.1401327143
H  H9  1  0.15080000  0.29420000  0.81670000  1.0 0.1401327143
H  H10  1  0.29420000  0.15080000  0.68330000  1.0 0.1401327143
H  H11  1  0.84920000  0.70580000  0.18330000  1.0 0.1401327143
H  H12  1  0.70580000  0.84920000  0.31670000  1.0 0.1401327143
H  H13  1  0.52330000  0.52330000  0.75000000  1.0 0.1208033403
H  H14  1  0.47670000  0.47670000  0.25000000  1.0 0.1208033403
H  H15  1  0.81330000  0.81330000  0.75000000  1.0 0.1208033403
H  H16  1  0.18670000  0.18670000  0.25000000  1.0 0.1208033403
H  H17  1  0.94830000  0.30730000  0.78550000  1.0 0.1319006871
H  H18  1  0.30730000  0.94830000  0.71450000  1.0 0.1319006871
H  H19  1  0.05170000  0.69270000  0.21450000  1.0 0.1319006871
H  H20  1  0.69270000  0.05170000  0.28550000  1.0 0.1319006871
H  H21  1  0.26370000  0.07350000  0.98470000  1.0 0.1208033403
H  H22  1  0.07350000  0.26370000  0.51530000  1.0 0.1208033403
H  H23  1  0.73630000  0.92650000  0.01530000  1.0 0.1208033403
H  H24  1  0.92650000  0.73630000  0.48470000  1.0 0.1208033403
H  H25  1  0.39370000  0.71350000  0.13000000  1.0 0.1208033403
H  H26  1  0.71350000  0.39370000  0.37000000  1.0 0.1208033403
H  H27  1  0.60630000  0.28650000  0.87000000  1.0 0.1208033403
H  H28  1  0.28650000  0.60630000  0.63000000  1.0 0.1208033403
H  H29  1  0.22680000  0.02880000  0.09410000  1.0 0.1144361387
H  H30  1  0.02880000  0.22680000  0.40590000  1.0 0.1144361387
H  H31  1  0.77320000  0.97120000  0.90590000  1.0 0.1144361387
H  H32  1  0.97120000  0.77320000  0.59410000  1.0 0.1144361387
H  H33  1  0.42890000  0.74570000  0.02110000  1.0 0.1522286649
H  H34  1  0.74570000  0.42890000  0.47890000  1.0 0.1522286649
H  H35  1  0.57110000  0.25430000  0.97890000  1.0 0.1522286649
H  H36  1  0.25430000  0.57110000  0.52110000  1.0 0.1522286649
C  C1  1  0.97170000  0.02350000  0.82720000  1.0 0.0674886669
C  C2  1  0.02350000  0.97170000  0.67280000  1.0 0.0674886669
C  C3  1  0.02830000  0.97650000  0.17280000  1.0 0.0674886669
C  C4  1  0.97650000  0.02830000  0.32720000  1.0 0.0674886669
C  C5  1  0.09540000  0.00620000  0.84620000  1.0 -0.2119574581
C  C6  1  0.00620000  0.09540000  0.65380000  1.0 -0.2119574581
C  C7  1  0.90460000  0.99380000  0.15380000  1.0 -0.2119574581
C  C8  1  0.99380000  0.90460000  0.34620000  1.0 -0.2119574581
C  C9  1  0.16660000  0.10820000  0.84310000  1.0 0.0995460789
C  C10  1  0.10820000  0.16660000  0.65690000  1.0 0.0995460789
C  C11  1  0.83340000  0.89180000  0.15690000  1.0 0.0995460789
C  C12  1  0.89180000  0.83340000  0.34310000  1.0 0.0995460789
C  C13  1  0.10640000  0.22360000  0.81970000  1.0 -0.198222094
C  C14  1  0.22360000  0.10640000  0.68030000  1.0 -0.198222094
C  C15  1  0.89360000  0.77640000  0.18030000  1.0 -0.194604512
C  C16  1  0.77640000  0.89360000  0.31970000  1.0 -0.198222094
C  C17  1  0.35110000  0.91430000  0.99050000  1.0 0.0891702113
C  C18  1  0.91430000  0.35110000  0.50950000  1.0 0.0891702113
C  C19  1  0.64890000  0.08570000  0.00950000  1.0 0.0891702113
C  C20  1  0.08570000  0.64890000  0.49050000  1.0 0.0891702113
C  C21  1  0.58220000  0.58220000  0.75000000  1.0 -0.1209056635
C  C22  1  0.41780000  0.41780000  0.25000000  1.0 -0.1209056635
C  C23  1  0.55470000  0.69530000  0.76330000  1.0 -0.0199617573
C  C24  1  0.69530000  0.55470000  0.73670000  1.0 -0.0199617573
C  C25  1  0.44530000  0.30470000  0.23670000  1.0 -0.0199617573
C  C26  1  0.30470000  0.44530000  0.26330000  1.0 -0.0199617573
C  C27  1  0.64190000  0.78310000  0.76180000  1.0 -0.0557842786
C  C28  1  0.78310000  0.64190000  0.73820000  1.0 -0.0557842786
C  C29  1  0.35810000  0.21690000  0.23820000  1.0 -0.0557842786
C  C30  1  0.21690000  0.35810000  0.26180000  1.0 -0.0557842786
C  C31  1  0.75440000  0.75440000  0.75000000  1.0 -0.1015764584
C  C32  1  0.24560000  0.24560000  0.25000000  1.0 -0.1015764584
C  C33  1  0.61900000  0.91180000  0.77050000  1.0 0.5586959164
C  C34  1  0.91180000  0.61900000  0.72950000  1.0 0.5586959164
C  C35  1  0.38100000  0.08820000  0.22950000  1.0 0.5586959164
C  C36  1  0.08820000  0.38100000  0.27050000  1.0 0.5586959164
C  C37  1  0.98540000  0.23020000  0.80190000  1.0 0.0891702113
C  C38  1  0.23020000  0.98540000  0.69810000  1.0 0.0891702113
C  C39  1  0.01460000  0.76980000  0.19810000  1.0 0.0891702113
C  C40  1  0.76980000  0.01460000  0.30190000  1.0 0.0891702113
C  C41  1  0.29020000  0.99880000  0.01320000  1.0 -0.198222094
C  C42  1  0.99880000  0.29020000  0.48680000  1.0 -0.198222094
C  C43  1  0.70980000  0.00120000  0.98680000  1.0 -0.198222094
C  C44  1  0.00120000  0.70980000  0.51320000  1.0 -0.198222094
C  C45  1  0.36560000  0.78640000  0.10020000  1.0 0.0995460789
C  C46  1  0.78640000  0.36560000  0.39980000  1.0 0.0995460789
C  C47  1  0.63440000  0.21360000  0.89980000  1.0 0.0995460789
C  C48  1  0.21360000  0.63440000  0.60020000  1.0 0.0995460789
C  C49  1  0.26890000  0.97130000  0.07930000  1.0 0.0891702113
C  C50  1  0.97130000  0.26890000  0.42070000  1.0 0.0891702113
C  C51  1  0.73110000  0.02870000  0.92070000  1.0 0.0891702113
C  C52  1  0.02870000  0.73110000  0.57930000  1.0 0.0891702113
C  C53  1  0.38860000  0.80560000  0.03500000  1.0 -0.198222094
C  C54  1  0.80560000  0.38860000  0.46500000  1.0 -0.198222094
C  C55  1  0.61140000  0.19440000  0.96500000  1.0 -0.198222094
C  C56  1  0.19440000  0.61140000  0.53500000  1.0 -0.198222094
C  C57  1  0.43030000  0.71010000  0.77720000  1.0 0.5659706782
C  C58  1  0.71010000  0.43030000  0.72280000  1.0 0.5659706782
C  C59  1  0.56970000  0.28990000  0.22280000  1.0 0.5659706782
C  C60  1  0.28990000  0.56970000  0.27720000  1.0 0.5659706782
S  S1  1  0.32890000  0.10770000  0.86379000  1.0 -0.0041729106
S  S2  1  0.10770000  0.32890000  0.63621000  1.0 -0.0041729106
S  S3  1  0.67110000  0.89230000  0.13621000  1.0 -0.0041729106
S  S4  1  0.89230000  0.67110000  0.36379000  1.0 -0.0041729106
S  S5  1  0.38270000  0.93270000  0.90680000  1.0 0.0891702113
S  S6  1  0.93270000  0.38270000  0.59320000  1.0 0.0891702113
S  S7  1  0.61730000  0.06730000  0.09320000  1.0 0.0891702113
S  S8  1  0.06730000  0.61730000  0.40680000  1.0 0.0891702113
N  N1  1  0.91190000  0.13390000  0.80560000  1.0 -0.2555137162
N  N2  1  0.13390000  0.91190000  0.69440000  1.0 -0.2555137162
N  N3  1  0.08810000  0.86610000  0.19440000  1.0 -0.2555137162
N  N4  1  0.86610000  0.08810000  0.30560000  1.0 -0.2555137162
N  N5  1  0.30560000  0.86640000  0.12290000  1.0 -0.2474153002
N  N6  1  0.86640000  0.30560000  0.37710000  1.0 -0.2474153002
N  N7  1  0.69440000  0.13360000  0.87710000  1.0 -0.2474153002
N  N8  1  0.13360000  0.69440000  0.62290000  1.0 -0.2474153002
O  O1  1  0.51050000  0.94230000  0.76890000  1.0 -0.4983927232
O  O2  1  0.94230000  0.51050000  0.73110000  1.0 -0.4983927232
O  O3  1  0.48950000  0.05770000  0.23110000  1.0 -0.4983927232
O  O4  1  0.05770000  0.48950000  0.26890000  1.0 -0.4983927232
O  O5  1  0.70970000  0.97670000  0.77770000  1.0 -0.5536263247
O  O6  1  0.97670000  0.70970000  0.72230000  1.0 -0.5536263247
O  O7  1  0.29030000  0.02330000  0.22230000  1.0 -0.5536263247
O  O8  1  0.02330000  0.29030000  0.27770000  1.0 -0.5536263247
O  O9  1  0.34350000  0.73490000  0.72590000  1.0 -0.5616487224
O  O10  1  0.73490000  0.34350000  0.77410000  1.0 -0.5616487224
O  O11  1  0.65650000  0.26510000  0.27410000  1.0 -0.5616487224
O  O12  1  0.26510000  0.65650000  0.22590000  1.0 -0.5616487224
O  O13  1  0.41850000  0.69050000  0.83870000  1.0 -0.4983927232
O  O14  1  0.69050000  0.41850000  0.66130000  1.0 -0.4983927232
O  O15  1  0.58150000  0.30950000  0.16130000  1.0 -0.4983927232
O  O16  1  0.30950000  0.58150000  0.33870000  1.0 -0.4983927232
O  O17  1  0.53040000  0.18060000  0.74330000  1.0 -0.0536686105
O  O18  1  0.18060000  0.53040000  0.75670000  1.0 -0.0557842786
O  O19  1  0.46960000  0.81940000  0.25670000  1.0 -0.0557842786
O  O20  1  0.81940000  0.46960000  0.24330000  1.0 -0.0536686105
O  O21  1  0.73290000  0.18090000  0.67340000  1.0 -0.1209056635
O  O22  1  0.18090000  0.73290000  0.82660000  1.0 -0.1209056635
O  O23  1  0.26710000  0.81910000  0.32660000  1.0 -0.1251030748
O  O24  1  0.81910000  0.26710000  0.17340000  1.0 -0.1209056635
