# DDEC6 charges by PACMAN v1.1 (https://github.com/mtap-research/PACMAN-charge/)
data_LODTAB_ASR_pacman
_symmetry_space_group_name_H-M   'P 1'
_cell_length_a   10.94780000
_cell_length_b   10.94780000
_cell_length_c   18.28020000
_cell_angle_alpha   90.00000000
_cell_angle_beta   90.00000000
_cell_angle_gamma   90.81120000
_symmetry_Int_Tables_number   1
_chemical_formula_structural   CdH6C14(NO)4
_chemical_formula_sum   'Cd4 H24 C56 N16 O16'
_cell_volume   2190.74144123
_cell_formula_units_Z   4
loop_
 _symmetry_equiv_pos_site_id
 _symmetry_equiv_pos_as_xyz
  1  'x, y, z'
loop_
 _atom_site_type_symbol
 _atom_site_label
 _atom_site_symmetry_multiplicity
 _atom_site_fract_x
 _atom_site_fract_y
 _atom_site_fract_z
 _atom_site_occupancy
 _atom_site_charge
Cd  Cd1  1  0.33372000  0.33372000  0.17023000  1.0 0.9053103189
Cd  Cd2  1  0.66628000  0.66628000  0.67023000  1.0 0.9053103189
Cd  Cd3  1  0.66628000  0.66628000  0.82977000  1.0 0.9053103189
Cd  Cd4  1  0.33372000  0.33372000  0.32977000  1.0 0.9053103189
H  H1  1  0.46740000  0.46740000  0.04800000  1.0 0.1228977452
H  H2  1  0.53260000  0.53260000  0.54800000  1.0 0.1228977452
H  H3  1  0.53260000  0.53260000  0.95200000  1.0 0.1228977452
H  H4  1  0.46740000  0.46740000  0.45200000  1.0 0.1228977452
H  H5  1  0.20780000  0.20780000  0.04010000  1.0 0.137361887
H  H6  1  0.79220000  0.79220000  0.54010000  1.0 0.137361887
H  H7  1  0.79220000  0.79220000  0.95990000  1.0 0.137361887
H  H8  1  0.20780000  0.20780000  0.45990000  1.0 0.137361887
H  H9  1  0.47870000  0.47870000  0.92730000  1.0 0.137361887
H  H10  1  0.52130000  0.52130000  0.42730000  1.0 0.137361887
H  H11  1  0.52130000  0.52130000  0.07270000  1.0 0.137361887
H  H12  1  0.47870000  0.47870000  0.57270000  1.0 0.137361887
H  H13  1  0.22630000  0.22630000  0.91190000  1.0 0.1486650069
H  H14  1  0.77370000  0.77370000  0.41190000  1.0 0.1486650069
H  H15  1  0.77370000  0.77370000  0.08810000  1.0 0.1486650069
H  H16  1  0.22630000  0.22630000  0.58810000  1.0 0.1486650069
H  H17  1  0.33640000  0.94120000  0.36000000  1.0 0.1486650069
H  H18  1  0.66360000  0.05880000  0.86000000  1.0 0.1486650069
H  H19  1  0.05880000  0.66360000  0.64000000  1.0 0.1486650069
H  H20  1  0.94120000  0.33640000  0.14000000  1.0 0.1486650069
H  H21  1  0.66360000  0.05880000  0.64000000  1.0 0.1486650069
H  H22  1  0.33640000  0.94120000  0.14000000  1.0 0.1486650069
H  H23  1  0.94120000  0.33640000  0.36000000  1.0 0.1486650069
H  H24  1  0.05880000  0.66360000  0.86000000  1.0 0.1486650069
C  C1  1  0.41620000  0.41620000  0.02090000  1.0 0.0276787291
C  C2  1  0.58380000  0.58380000  0.52090000  1.0 0.0276787291
C  C3  1  0.58380000  0.58380000  0.97910000  1.0 0.0276787291
C  C4  1  0.41620000  0.41620000  0.47910000  1.0 0.0276787291
C  C5  1  0.26300000  0.26300000  0.01930000  1.0 0.0971792797
C  C6  1  0.73700000  0.73700000  0.51930000  1.0 0.0971792797
C  C7  1  0.73700000  0.73700000  0.98070000  1.0 0.0971792797
C  C8  1  0.26300000  0.26300000  0.48070000  1.0 0.0971792797
C  C9  1  0.33270000  0.09910000  0.25000000  1.0 0.586557434
C  C10  1  0.66730000  0.90090000  0.75000000  1.0 0.586557434
C  C11  1  0.90090000  0.66730000  0.75000000  1.0 0.586557434
C  C12  1  0.09910000  0.33270000  0.25000000  1.0 0.586557434
C  C13  1  0.42430000  0.42430000  0.94950000  1.0 -0.0886778356
C  C14  1  0.57570000  0.57570000  0.44950000  1.0 -0.0886778356
C  C15  1  0.57570000  0.57570000  0.05050000  1.0 -0.0886778356
C  C16  1  0.42430000  0.42430000  0.55050000  1.0 -0.0886778356
C  C17  1  0.27600000  0.27600000  0.94070000  1.0 -0.0886778356
C  C18  1  0.72400000  0.72400000  0.44070000  1.0 -0.0886778356
C  C19  1  0.72400000  0.72400000  0.05930000  1.0 -0.0886778356
C  C20  1  0.27600000  0.27600000  0.55930000  1.0 -0.0886778356
C  C21  1  0.32990000  0.96030000  0.25000000  1.0 0.001745593
C  C22  1  0.67010000  0.03970000  0.75000000  1.0 0.001745593
C  C23  1  0.03970000  0.67010000  0.75000000  1.0 0.001745593
C  C24  1  0.96030000  0.32990000  0.25000000  1.0 0.001745593
C  C25  1  0.34700000  0.34700000  0.90760000  1.0 0.0442523407
C  C26  1  0.65300000  0.65300000  0.40760000  1.0 0.0442523407
C  C27  1  0.65300000  0.65300000  0.09240000  1.0 0.0442523407
C  C28  1  0.34700000  0.34700000  0.59240000  1.0 0.0442523407
C  C29  1  0.33320000  0.89780000  0.31630000  1.0 -0.1897217249
C  C30  1  0.66680000  0.10220000  0.81630000  1.0 -0.1897217249
C  C31  1  0.10220000  0.66680000  0.68370000  1.0 -0.1897217249
C  C32  1  0.89780000  0.33320000  0.18370000  1.0 -0.1897217249
C  C33  1  0.66680000  0.10220000  0.68370000  1.0 -0.1897217249
C  C34  1  0.33320000  0.89780000  0.18370000  1.0 -0.1897217249
C  C35  1  0.89780000  0.33320000  0.31630000  1.0 -0.1897217249
C  C36  1  0.10220000  0.66680000  0.81630000  1.0 -0.1897217249
C  C37  1  0.35400000  0.35400000  0.83310000  1.0 -0.0066336514
C  C38  1  0.64600000  0.64600000  0.33310000  1.0 -0.0066336514
C  C39  1  0.64600000  0.64600000  0.16690000  1.0 -0.0066336514
C  C40  1  0.35400000  0.35400000  0.66690000  1.0 -0.0066336514
C  C41  1  0.33180000  0.76920000  0.31730000  1.0 0.2421730022
C  C42  1  0.66820000  0.23080000  0.81730000  1.0 0.2421730022
C  C43  1  0.23080000  0.66820000  0.68270000  1.0 0.2421730022
C  C44  1  0.76920000  0.33180000  0.18270000  1.0 0.2421730022
C  C45  1  0.66820000  0.23080000  0.68270000  1.0 0.2421730022
C  C46  1  0.33180000  0.76920000  0.18270000  1.0 0.2421730022
C  C47  1  0.76920000  0.33180000  0.31730000  1.0 0.2421730022
C  C48  1  0.23080000  0.66820000  0.81730000  1.0 0.2421730022
C  C49  1  0.33230000  0.70590000  0.25000000  1.0 -0.1492459615
C  C50  1  0.66770000  0.29410000  0.75000000  1.0 -0.1492459615
C  C51  1  0.29410000  0.66770000  0.75000000  1.0 -0.1492459615
C  C52  1  0.70590000  0.33230000  0.25000000  1.0 -0.1492459615
C  C53  1  0.33620000  0.57020000  0.25000000  1.0 0.595739157
C  C54  1  0.66380000  0.42980000  0.75000000  1.0 0.595739157
C  C55  1  0.42980000  0.66380000  0.75000000  1.0 0.595739157
C  C56  1  0.57020000  0.33620000  0.25000000  1.0 0.595739157
N  N1  1  0.33710000  0.33710000  0.06100000  1.0 -0.2251983648
N  N2  1  0.66290000  0.66290000  0.56100000  1.0 -0.2251983648
N  N3  1  0.66290000  0.66290000  0.93900000  1.0 -0.2251983648
N  N4  1  0.33710000  0.33710000  0.43900000  1.0 -0.2251983648
N  N5  1  0.30680000  0.30680000  0.78670000  1.0 -0.1261805659
N  N6  1  0.69320000  0.69320000  0.28670000  1.0 -0.1261805659
N  N7  1  0.69320000  0.69320000  0.21330000  1.0 -0.1261805659
N  N8  1  0.30680000  0.30680000  0.71330000  1.0 -0.1261805659
N  N9  1  0.33400000  0.72200000  0.37940000  1.0 -0.2773346556
N  N10  1  0.66600000  0.27800000  0.87940000  1.0 -0.2773346556
N  N11  1  0.27800000  0.66600000  0.62060000  1.0 -0.2773346556
N  N12  1  0.72200000  0.33400000  0.12060000  1.0 -0.2773346556
N  N13  1  0.66600000  0.27800000  0.62060000  1.0 -0.2773346556
N  N14  1  0.33400000  0.72200000  0.12060000  1.0 -0.2773346556
N  N15  1  0.72200000  0.33400000  0.37940000  1.0 -0.2773346556
N  N16  1  0.27800000  0.66600000  0.87940000  1.0 -0.2773346556
O  O1  1  0.33210000  0.15050000  0.18980000  1.0 -0.4984855195
O  O2  1  0.66790000  0.84950000  0.68980000  1.0 -0.4984855195
O  O3  1  0.84950000  0.66790000  0.81020000  1.0 -0.4984855195
O  O4  1  0.15050000  0.33210000  0.31020000  1.0 -0.4984855195
O  O5  1  0.66790000  0.84950000  0.81020000  1.0 -0.4984855195
O  O6  1  0.33210000  0.15050000  0.31020000  1.0 -0.4984855195
O  O7  1  0.15050000  0.33210000  0.18980000  1.0 -0.4984855195
O  O8  1  0.84950000  0.66790000  0.68980000  1.0 -0.4984855195
O  O9  1  0.33460000  0.51560000  0.31110000  1.0 -0.4853636911
O  O10  1  0.66540000  0.48440000  0.81110000  1.0 -0.4853636911
O  O11  1  0.48440000  0.66540000  0.68890000  1.0 -0.4853636911
O  O12  1  0.51560000  0.33460000  0.18890000  1.0 -0.4853636911
O  O13  1  0.66540000  0.48440000  0.68890000  1.0 -0.4853636911
O  O14  1  0.33460000  0.51560000  0.18890000  1.0 -0.4853636911
O  O15  1  0.51560000  0.33460000  0.31110000  1.0 -0.4853636911
O  O16  1  0.48440000  0.66540000  0.81110000  1.0 -0.4853636911
