# DDEC6 charges by PACMAN v1.1 (https://github.com/mtap-research/PACMAN-charge/)
data_LODTEF_ASR_pacman
_symmetry_space_group_name_H-M   'P 1'
_cell_length_a   13.12500000
_cell_length_b   13.12500000
_cell_length_c   14.37400000
_cell_angle_alpha   90.00000000
_cell_angle_beta   90.00000000
_cell_angle_gamma   105.22600000
_symmetry_Int_Tables_number   1
_chemical_formula_structural   CdH11C20N5O4
_chemical_formula_sum   'Cd4 H44 C80 N20 O16'
_cell_volume   2389.22697107
_cell_formula_units_Z   4
loop_
 _symmetry_equiv_pos_site_id
 _symmetry_equiv_pos_as_xyz
  1  'x, y, z'
loop_
 _atom_site_type_symbol
 _atom_site_label
 _atom_site_symmetry_multiplicity
 _atom_site_fract_x
 _atom_site_fract_y
 _atom_site_fract_z
 _atom_site_occupancy
 _atom_site_charge
Cd  Cd1  1  0.43566000  0.56434000  0.40106000  1.0 0.8968138132
Cd  Cd2  1  0.06434000  0.93566000  0.90106000  1.0 0.8968138132
Cd  Cd3  1  0.56434000  0.43566000  0.59894000  1.0 0.8968138132
Cd  Cd4  1  0.93566000  0.06434000  0.09894000  1.0 0.8968138132
H  H1  1  0.28300000  0.71700000  0.14290000  1.0 0.1162613738
H  H2  1  0.21700000  0.78300000  0.64290000  1.0 0.1162613738
H  H3  1  0.71700000  0.28300000  0.85710000  1.0 0.1162613738
H  H4  1  0.78300000  0.21700000  0.35710000  1.0 0.1162613738
H  H5  1  0.18250000  0.81750000  0.07340000  1.0 0.1318187647
H  H6  1  0.31750000  0.68250000  0.57340000  1.0 0.1318187647
H  H7  1  0.81750000  0.18250000  0.92660000  1.0 0.1318187647
H  H8  1  0.68250000  0.31750000  0.42660000  1.0 0.1318187647
H  H9  1  0.09970000  0.90030000  0.32650000  1.0 0.1078046345
H  H10  1  0.40030000  0.59970000  0.82650000  1.0 0.1078046345
H  H11  1  0.90030000  0.09970000  0.67350000  1.0 0.1078046345
H  H12  1  0.59970000  0.40030000  0.17350000  1.0 0.1078046345
H  H13  1  0.68480000  0.63820000  0.34600000  1.0 0.1078046345
H  H14  1  0.81520000  0.86180000  0.84600000  1.0 0.1078046345
H  H15  1  0.63820000  0.68480000  0.65400000  1.0 0.1078046345
H  H16  1  0.86180000  0.81520000  0.15400000  1.0 0.1078046345
H  H17  1  0.31520000  0.36180000  0.65400000  1.0 0.1078046345
H  H18  1  0.18480000  0.13820000  0.15400000  1.0 0.1078046345
H  H19  1  0.36180000  0.31520000  0.34600000  1.0 0.1078046345
H  H20  1  0.13820000  0.18480000  0.84600000  1.0 0.1078046345
H  H21  1  0.84610000  0.77310000  0.33270000  1.0 0.1414814252
H  H22  1  0.65390000  0.72690000  0.83270000  1.0 0.1414814252
H  H23  1  0.77310000  0.84610000  0.66730000  1.0 0.1414814252
H  H24  1  0.72690000  0.65390000  0.16730000  1.0 0.1414814252
H  H25  1  0.15390000  0.22690000  0.66730000  1.0 0.1414814252
H  H26  1  0.34610000  0.27310000  0.16730000  1.0 0.1414814252
H  H27  1  0.22690000  0.15390000  0.33270000  1.0 0.1414814252
H  H28  1  0.27310000  0.34610000  0.83270000  1.0 0.1414814252
H  H29  1  0.69590000  0.95490000  0.48170000  1.0 0.1414814252
H  H30  1  0.80410000  0.54510000  0.98170000  1.0 0.1414814252
H  H31  1  0.95490000  0.69590000  0.51830000  1.0 0.1414814252
H  H32  1  0.54510000  0.80410000  0.01830000  1.0 0.1414814252
H  H33  1  0.30410000  0.04510000  0.51830000  1.0 0.1414814252
H  H34  1  0.19590000  0.45490000  0.01830000  1.0 0.1414814252
H  H35  1  0.04510000  0.30410000  0.48170000  1.0 0.1414814252
H  H36  1  0.45490000  0.19590000  0.98170000  1.0 0.1414814252
H  H37  1  0.53460000  0.81980000  0.48790000  1.0 0.1318187647
H  H38  1  0.96540000  0.68020000  0.98790000  1.0 0.1318187647
H  H39  1  0.81980000  0.53460000  0.51210000  1.0 0.1318187647
H  H40  1  0.68020000  0.96540000  0.01210000  1.0 0.1318187647
H  H41  1  0.46540000  0.18020000  0.51210000  1.0 0.1318187647
H  H42  1  0.03460000  0.31980000  0.01210000  1.0 0.1318187647
H  H43  1  0.18020000  0.46540000  0.48790000  1.0 0.1318187647
H  H44  1  0.31980000  0.03460000  0.98790000  1.0 0.1318187647
C  C1  1  0.31750000  0.68250000  0.32160000  1.0 0.5609847936
C  C2  1  0.18250000  0.81750000  0.82160000  1.0 0.5609847936
C  C3  1  0.68250000  0.31750000  0.67840000  1.0 0.5609847936
C  C4  1  0.81750000  0.18250000  0.17840000  1.0 0.5609847936
C  C5  1  0.25210000  0.74790000  0.27730000  1.0 -0.08827306
C  C6  1  0.24790000  0.75210000  0.77730000  1.0 -0.08827306
C  C7  1  0.74790000  0.25210000  0.72270000  1.0 -0.08827306
C  C8  1  0.75210000  0.24790000  0.22270000  1.0 -0.08827306
C  C9  1  0.24630000  0.75370000  0.17970000  1.0 -0.1109609329
C  C10  1  0.25370000  0.74630000  0.67970000  1.0 -0.1109609329
C  C11  1  0.75370000  0.24630000  0.82030000  1.0 -0.1109609329
C  C12  1  0.74630000  0.25370000  0.32030000  1.0 -0.1109609329
C  C13  1  0.18610000  0.81390000  0.13790000  1.0 -0.1229382124
C  C14  1  0.31390000  0.68610000  0.63790000  1.0 -0.1229382124
C  C15  1  0.81390000  0.18610000  0.86210000  1.0 -0.1229382124
C  C16  1  0.68610000  0.31390000  0.36210000  1.0 -0.1229382124
C  C17  1  0.13130000  0.86870000  0.19320000  1.0 -0.0185997984
C  C18  1  0.36870000  0.63130000  0.69320000  1.0 -0.0185997984
C  C19  1  0.86870000  0.13130000  0.80680000  1.0 -0.0185997984
C  C20  1  0.63130000  0.36870000  0.30680000  1.0 -0.0185997984
C  C21  1  0.13640000  0.86360000  0.28990000  1.0 -0.207797894
C  C22  1  0.36360000  0.63640000  0.78990000  1.0 -0.207797894
C  C23  1  0.86360000  0.13640000  0.71010000  1.0 -0.207797894
C  C24  1  0.63640000  0.36360000  0.21010000  1.0 -0.207797894
C  C25  1  0.19690000  0.80310000  0.33180000  1.0 0.2248102608
C  C26  1  0.30310000  0.69690000  0.83180000  1.0 0.2248102608
C  C27  1  0.80310000  0.19690000  0.66820000  1.0 0.2248102608
C  C28  1  0.69690000  0.30310000  0.16820000  1.0 0.2248102608
C  C29  1  0.06480000  0.93520000  0.14870000  1.0 0.5496118698
C  C30  1  0.43520000  0.56480000  0.64870000  1.0 0.5496118698
C  C31  1  0.93520000  0.06480000  0.85130000  1.0 0.5496118698
C  C32  1  0.56480000  0.43520000  0.35130000  1.0 0.5496118698
C  C33  1  0.68930000  0.70470000  0.37090000  1.0 0.0965824011
C  C34  1  0.81070000  0.79530000  0.87090000  1.0 0.0965824011
C  C35  1  0.70470000  0.68930000  0.62910000  1.0 0.0965824011
C  C36  1  0.79530000  0.81070000  0.12910000  1.0 0.0965824011
C  C37  1  0.31070000  0.29530000  0.62910000  1.0 0.0965824011
C  C38  1  0.18930000  0.20470000  0.12910000  1.0 0.0965824011
C  C39  1  0.29530000  0.31070000  0.37090000  1.0 0.0965824011
C  C40  1  0.20470000  0.18930000  0.87090000  1.0 0.0965824011
C  C41  1  0.78690000  0.78350000  0.36300000  1.0 -0.2007034444
C  C42  1  0.71310000  0.71650000  0.86300000  1.0 -0.2007034444
C  C43  1  0.78350000  0.78690000  0.63700000  1.0 -0.2007034444
C  C44  1  0.71650000  0.71310000  0.13700000  1.0 -0.2007034444
C  C45  1  0.21310000  0.21650000  0.63700000  1.0 -0.2007034444
C  C46  1  0.28690000  0.28350000  0.13700000  1.0 -0.2007034444
C  C47  1  0.21650000  0.21310000  0.36300000  1.0 -0.2007034444
C  C48  1  0.28350000  0.28690000  0.86300000  1.0 -0.2007034444
C  C49  1  0.78300000  0.87920000  0.40510000  1.0 0.0886496748
C  C50  1  0.71700000  0.62080000  0.90510000  1.0 0.0886496748
C  C51  1  0.87920000  0.78300000  0.59490000  1.0 0.0886496748
C  C52  1  0.62080000  0.71700000  0.09490000  1.0 0.0886496748
C  C53  1  0.21700000  0.12080000  0.59490000  1.0 0.0886496748
C  C54  1  0.28300000  0.37920000  0.09490000  1.0 0.0886496748
C  C55  1  0.12080000  0.21700000  0.40510000  1.0 0.0886496748
C  C56  1  0.37920000  0.28300000  0.90510000  1.0 0.0886496748
C  C57  1  0.69180000  0.89080000  0.45230000  1.0 -0.207797894
C  C58  1  0.80820000  0.60920000  0.95230000  1.0 -0.207797894
C  C59  1  0.89080000  0.69180000  0.54770000  1.0 -0.207797894
C  C60  1  0.60920000  0.80820000  0.04770000  1.0 -0.207797894
C  C61  1  0.30820000  0.10920000  0.54770000  1.0 -0.207797894
C  C62  1  0.19180000  0.39080000  0.04770000  1.0 -0.207797894
C  C63  1  0.10920000  0.30820000  0.45230000  1.0 -0.207797894
C  C64  1  0.39080000  0.19180000  0.95230000  1.0 -0.207797894
C  C65  1  0.59490000  0.81190000  0.45810000  1.0 0.0886496748
C  C66  1  0.90510000  0.68810000  0.95810000  1.0 0.0886496748
C  C67  1  0.81190000  0.59490000  0.54190000  1.0 0.0886496748
C  C68  1  0.68810000  0.90510000  0.04190000  1.0 0.0886496748
C  C69  1  0.40510000  0.18810000  0.54190000  1.0 0.0886496748
C  C70  1  0.09490000  0.31190000  0.04190000  1.0 0.0886496748
C  C71  1  0.18810000  0.40510000  0.45810000  1.0 0.0886496748
C  C72  1  0.31190000  0.09490000  0.95810000  1.0 0.0886496748
C  C73  1  0.87230000  0.97850000  0.40400000  1.0 0.045486718
C  C74  1  0.62770000  0.52150000  0.90400000  1.0 0.045486718
C  C75  1  0.97850000  0.87230000  0.59600000  1.0 0.045486718
C  C76  1  0.52150000  0.62770000  0.09600000  1.0 0.045486718
C  C77  1  0.12770000  0.02150000  0.59600000  1.0 0.045486718
C  C78  1  0.37230000  0.47850000  0.09600000  1.0 0.045486718
C  C79  1  0.02150000  0.12770000  0.40400000  1.0 0.045486718
C  C80  1  0.47850000  0.37230000  0.90400000  1.0 0.045486718
N  N1  1  0.19890000  0.80110000  0.42800000  1.0 -0.4097054418
N  N2  1  0.30110000  0.69890000  0.92800000  1.0 -0.4097054418
N  N3  1  0.80110000  0.19890000  0.57200000  1.0 -0.4097054418
N  N4  1  0.69890000  0.30110000  0.07200000  1.0 -0.4097054418
N  N5  1  0.60300000  0.72100000  0.41290000  1.0 -0.2482754555
N  N6  1  0.89700000  0.77900000  0.91290000  1.0 -0.2482754555
N  N7  1  0.72100000  0.60300000  0.58710000  1.0 -0.2482754555
N  N8  1  0.77900000  0.89700000  0.08710000  1.0 -0.2482754555
N  N9  1  0.39700000  0.27900000  0.58710000  1.0 -0.2482754555
N  N10  1  0.10300000  0.22100000  0.08710000  1.0 -0.2482754555
N  N11  1  0.27900000  0.39700000  0.41290000  1.0 -0.2482754555
N  N12  1  0.22100000  0.10300000  0.91290000  1.0 -0.2482754555
N  N13  1  0.88480000  0.04380000  0.44330000  1.0 0.0770991561
N  N14  1  0.61520000  0.45620000  0.94330000  1.0 0.0770991561
N  N15  1  0.04380000  0.88480000  0.55670000  1.0 0.0770991561
N  N16  1  0.45620000  0.61520000  0.05670000  1.0 0.0770991561
N  N17  1  0.11520000  0.95620000  0.55670000  1.0 0.0770991561
N  N18  1  0.38480000  0.54380000  0.05670000  1.0 0.0770991561
N  N19  1  0.95620000  0.11520000  0.44330000  1.0 0.0770991561
N  N20  1  0.54380000  0.38480000  0.94330000  1.0 0.0770991561
O  O1  1  0.36640000  0.63360000  0.26910000  1.0 -0.5764443245
O  O2  1  0.13360000  0.86640000  0.76910000  1.0 -0.5764443245
O  O3  1  0.63360000  0.36640000  0.73090000  1.0 -0.5764443245
O  O4  1  0.86640000  0.13360000  0.23090000  1.0 -0.5764443245
O  O5  1  0.32290000  0.67710000  0.40800000  1.0 -0.514559653
O  O6  1  0.17710000  0.82290000  0.90800000  1.0 -0.514559653
O  O7  1  0.67710000  0.32290000  0.59200000  1.0 -0.514559653
O  O8  1  0.82290000  0.17710000  0.09200000  1.0 -0.514559653
O  O9  1  0.06070000  0.93930000  0.06310000  1.0 -0.5468563405
O  O10  1  0.43930000  0.56070000  0.56310000  1.0 -0.5468563405
O  O11  1  0.93930000  0.06070000  0.93690000  1.0 -0.5468563405
O  O12  1  0.56070000  0.43930000  0.43690000  1.0 -0.5468563405
O  O13  1  0.01830000  0.98170000  0.20160000  1.0 -0.5165240136
O  O14  1  0.48170000  0.51830000  0.70160000  1.0 -0.5165240136
O  O15  1  0.98170000  0.01830000  0.79840000  1.0 -0.5165240136
O  O16  1  0.51830000  0.48170000  0.29840000  1.0 -0.5165240136
