# DDEC6 charges by PACMAN v1.1 (https://github.com/mtap-research/PACMAN-charge/)
data_LOFJAT_ASR_pacman
_symmetry_space_group_name_H-M   'P 1'
_cell_length_a   18.61790000
_cell_length_b   18.61790000
_cell_length_c   34.14700000
_cell_angle_alpha   90.00000000
_cell_angle_beta   90.00000000
_cell_angle_gamma   120.00000000
_symmetry_Int_Tables_number   1
_chemical_formula_structural   CuH9C19O5
_chemical_formula_sum   'Cu12 H108 C228 O60'
_cell_volume   10250.48873885
_cell_formula_units_Z   12
loop_
 _symmetry_equiv_pos_site_id
 _symmetry_equiv_pos_as_xyz
  1  'x, y, z'
loop_
 _atom_site_type_symbol
 _atom_site_label
 _atom_site_symmetry_multiplicity
 _atom_site_fract_x
 _atom_site_fract_y
 _atom_site_fract_z
 _atom_site_occupancy
 _atom_site_charge
Cu  Cu1  1  0.47610000  0.95219000  0.03172000  1.0 0.8704713773
Cu  Cu2  1  0.04781000  0.52390000  0.03172000  1.0 0.8704713773
Cu  Cu3  1  0.47610000  0.52390000  0.03172000  1.0 0.8704713773
Cu  Cu4  1  0.52390000  0.04781000  0.53172000  1.0 0.8704713773
Cu  Cu5  1  0.95219000  0.47609000  0.53172000  1.0 0.8704713773
Cu  Cu6  1  0.52390000  0.47609000  0.53172000  1.0 0.8704713773
Cu  Cu7  1  0.95219000  0.47609000  0.96828000  1.0 0.8704713773
Cu  Cu8  1  0.52390000  0.04781000  0.96828000  1.0 0.8704713773
Cu  Cu9  1  0.52390000  0.47609000  0.96828000  1.0 0.8704713773
Cu  Cu10  1  0.04781000  0.52390000  0.46828000  1.0 0.8704713773
Cu  Cu11  1  0.47610000  0.95219000  0.46828000  1.0 0.8704713773
Cu  Cu12  1  0.47610000  0.52390000  0.46828000  1.0 0.8704713773
H  H1  1  0.76760000  0.23240000  0.00610000  1.0 0.1442053508
H  H2  1  0.76760000  0.53520000  0.00610000  1.0 0.1442053508
H  H3  1  0.46480000  0.23240000  0.00610000  1.0 0.1442053508
H  H4  1  0.23240000  0.76760000  0.50610000  1.0 0.1442053508
H  H5  1  0.23240000  0.46480000  0.50610000  1.0 0.1442053508
H  H6  1  0.53520000  0.76760000  0.50610000  1.0 0.1442053508
H  H7  1  0.23240000  0.76760000  0.99390000  1.0 0.1442053508
H  H8  1  0.53520000  0.76760000  0.99390000  1.0 0.1442053508
H  H9  1  0.23240000  0.46480000  0.99390000  1.0 0.1442053508
H  H10  1  0.76760000  0.23240000  0.49390000  1.0 0.1442053508
H  H11  1  0.46480000  0.23240000  0.49390000  1.0 0.1442053508
H  H12  1  0.76760000  0.53520000  0.49390000  1.0 0.1442053508
H  H13  1  0.70010000  0.08570000  0.10070000  1.0 0.1257612805
H  H14  1  0.91430000  0.61440000  0.10070000  1.0 0.1257612805
H  H15  1  0.38560000  0.29990000  0.10070000  1.0 0.1257612805
H  H16  1  0.29990000  0.91430000  0.60070000  1.0 0.1257612805
H  H17  1  0.08570000  0.38560000  0.60070000  1.0 0.1257612805
H  H18  1  0.61440000  0.70010000  0.60070000  1.0 0.1257612805
H  H19  1  0.08570000  0.70010000  0.89930000  1.0 0.1257612805
H  H20  1  0.61440000  0.91430000  0.89930000  1.0 0.1257612805
H  H21  1  0.29990000  0.38560000  0.89930000  1.0 0.1257612805
H  H22  1  0.91430000  0.29990000  0.39930000  1.0 0.1257612805
H  H23  1  0.38560000  0.08570000  0.39930000  1.0 0.1257612805
H  H24  1  0.70010000  0.61440000  0.39930000  1.0 0.1257612805
H  H25  1  0.29990000  0.91430000  0.89930000  1.0 0.1257612805
H  H26  1  0.08570000  0.38560000  0.89930000  1.0 0.1257612805
H  H27  1  0.61440000  0.70010000  0.89930000  1.0 0.1257612805
H  H28  1  0.70010000  0.08570000  0.39930000  1.0 0.1257612805
H  H29  1  0.91430000  0.61440000  0.39930000  1.0 0.1257612805
H  H30  1  0.38560000  0.29990000  0.39930000  1.0 0.1257612805
H  H31  1  0.91430000  0.29990000  0.10070000  1.0 0.1257612805
H  H32  1  0.38560000  0.08570000  0.10070000  1.0 0.1257612805
H  H33  1  0.70010000  0.61440000  0.10070000  1.0 0.1257612805
H  H34  1  0.08570000  0.70010000  0.60070000  1.0 0.1257612805
H  H35  1  0.61440000  0.91430000  0.60070000  1.0 0.1257612805
H  H36  1  0.29990000  0.38560000  0.60070000  1.0 0.1257612805
H  H37  1  0.78220000  0.05570000  0.14420000  1.0 0.0930145781
H  H38  1  0.94430000  0.72650000  0.14420000  1.0 0.0930145781
H  H39  1  0.27350000  0.21780000  0.14420000  1.0 0.0930145781
H  H40  1  0.21780000  0.94430000  0.64420000  1.0 0.0930145781
H  H41  1  0.05570000  0.27350000  0.64420000  1.0 0.0930145781
H  H42  1  0.72650000  0.78220000  0.64420000  1.0 0.0930145781
H  H43  1  0.05570000  0.78220000  0.85580000  1.0 0.0930145781
H  H44  1  0.72650000  0.94430000  0.85580000  1.0 0.0930145781
H  H45  1  0.21780000  0.27350000  0.85580000  1.0 0.0930145781
H  H46  1  0.94430000  0.21780000  0.35580000  1.0 0.0930145781
H  H47  1  0.27350000  0.05570000  0.35580000  1.0 0.0930145781
H  H48  1  0.78220000  0.72650000  0.35580000  1.0 0.0930145781
H  H49  1  0.21780000  0.94430000  0.85580000  1.0 0.0930145781
H  H50  1  0.05570000  0.27350000  0.85580000  1.0 0.0930145781
H  H51  1  0.72650000  0.78220000  0.85580000  1.0 0.0930145781
H  H52  1  0.78220000  0.05570000  0.35580000  1.0 0.0930145781
H  H53  1  0.94430000  0.72650000  0.35580000  1.0 0.0930145781
H  H54  1  0.27350000  0.21780000  0.35580000  1.0 0.0930145781
H  H55  1  0.94430000  0.21780000  0.14420000  1.0 0.0930145781
H  H56  1  0.27350000  0.05570000  0.14420000  1.0 0.0930145781
H  H57  1  0.78220000  0.72650000  0.14420000  1.0 0.0930145781
H  H58  1  0.05570000  0.78220000  0.64420000  1.0 0.0930145781
H  H59  1  0.72650000  0.94430000  0.64420000  1.0 0.0930145781
H  H60  1  0.21780000  0.27350000  0.64420000  1.0 0.0930145781
H  H61  1  0.78360000  0.02620000  0.21070000  1.0 0.1081782735
H  H62  1  0.97380000  0.75740000  0.21070000  1.0 0.1081782735
H  H63  1  0.24260000  0.21640000  0.21070000  1.0 0.1081782735
H  H64  1  0.21640000  0.97380000  0.71070000  1.0 0.1081782735
H  H65  1  0.02620000  0.24260000  0.71070000  1.0 0.1081782735
H  H66  1  0.75740000  0.78360000  0.71070000  1.0 0.1081782735
H  H67  1  0.02620000  0.78360000  0.78930000  1.0 0.1081782735
H  H68  1  0.75740000  0.97380000  0.78930000  1.0 0.1081782735
H  H69  1  0.21640000  0.24260000  0.78930000  1.0 0.1081782735
H  H70  1  0.97380000  0.21640000  0.28930000  1.0 0.1081782735
H  H71  1  0.24260000  0.02620000  0.28930000  1.0 0.1081782735
H  H72  1  0.78360000  0.75740000  0.28930000  1.0 0.1081782735
H  H73  1  0.21640000  0.97380000  0.78930000  1.0 0.1081782735
H  H74  1  0.02620000  0.24260000  0.78930000  1.0 0.1081782735
H  H75  1  0.75740000  0.78360000  0.78930000  1.0 0.1081782735
H  H76  1  0.78360000  0.02620000  0.28930000  1.0 0.1081782735
H  H77  1  0.97380000  0.75740000  0.28930000  1.0 0.1081782735
H  H78  1  0.24260000  0.21640000  0.28930000  1.0 0.1081782735
H  H79  1  0.97380000  0.21640000  0.21070000  1.0 0.1081782735
H  H80  1  0.24260000  0.02620000  0.21070000  1.0 0.1081782735
H  H81  1  0.78360000  0.75740000  0.21070000  1.0 0.1081782735
H  H82  1  0.02620000  0.78360000  0.71070000  1.0 0.1081782735
H  H83  1  0.75740000  0.97380000  0.71070000  1.0 0.1081782735
H  H84  1  0.21640000  0.24260000  0.71070000  1.0 0.1081782735
H  H85  1  0.86810000  0.29570000  0.16860000  1.0 0.0991216796
H  H86  1  0.70430000  0.57240000  0.16860000  1.0 0.0991216796
H  H87  1  0.42760000  0.13190000  0.16860000  1.0 0.0991216796
H  H88  1  0.13190000  0.70430000  0.66860000  1.0 0.0991216796
H  H89  1  0.29570000  0.42760000  0.66860000  1.0 0.0991216796
H  H90  1  0.57240000  0.86810000  0.66860000  1.0 0.0991216796
H  H91  1  0.29570000  0.86810000  0.83140000  1.0 0.0991216796
H  H92  1  0.57240000  0.70430000  0.83140000  1.0 0.0991216796
H  H93  1  0.13190000  0.42760000  0.83140000  1.0 0.0991216796
H  H94  1  0.70430000  0.13190000  0.33140000  1.0 0.0991216796
H  H95  1  0.42760000  0.29570000  0.33140000  1.0 0.0991216796
H  H96  1  0.86810000  0.57240000  0.33140000  1.0 0.0991216796
H  H97  1  0.13190000  0.70430000  0.83140000  1.0 0.0991216796
H  H98  1  0.29570000  0.42760000  0.83140000  1.0 0.0991216796
H  H99  1  0.57240000  0.86810000  0.83140000  1.0 0.0991216796
H  H100  1  0.86810000  0.29570000  0.33140000  1.0 0.0991216796
H  H101  1  0.70430000  0.57240000  0.33140000  1.0 0.0991216796
H  H102  1  0.42760000  0.13190000  0.33140000  1.0 0.0991216796
H  H103  1  0.70430000  0.13190000  0.16860000  1.0 0.0991216796
H  H104  1  0.42760000  0.29570000  0.16860000  1.0 0.0991216796
H  H105  1  0.86810000  0.57240000  0.16860000  1.0 0.0991216796
H  H106  1  0.29570000  0.86810000  0.66860000  1.0 0.0991216796
H  H107  1  0.57240000  0.70430000  0.66860000  1.0 0.0991216796
H  H108  1  0.13190000  0.42760000  0.66860000  1.0 0.0991216796
C  C1  1  0.63970000  0.09150000  0.03110000  1.0 0.5855813812
C  C2  1  0.90850000  0.54820000  0.03110000  1.0 0.5855813812
C  C3  1  0.45180000  0.36030000  0.03110000  1.0 0.5845021993
C  C4  1  0.36030000  0.90850000  0.53110000  1.0 0.5845021993
C  C5  1  0.09150000  0.45180000  0.53110000  1.0 0.5845021993
C  C6  1  0.54820000  0.63970000  0.53110000  1.0 0.5845021993
C  C7  1  0.09150000  0.63970000  0.96890000  1.0 0.5845021993
C  C8  1  0.54820000  0.90850000  0.96890000  1.0 0.5845021993
C  C9  1  0.36030000  0.45180000  0.96890000  1.0 0.5845021993
C  C10  1  0.90850000  0.36030000  0.46890000  1.0 0.5845021993
C  C11  1  0.45180000  0.09150000  0.46890000  1.0 0.5855813812
C  C12  1  0.63970000  0.54820000  0.46890000  1.0 0.5845021993
C  C13  1  0.36030000  0.90850000  0.96890000  1.0 0.5845021993
C  C14  1  0.09150000  0.45180000  0.96890000  1.0 0.5845021993
C  C15  1  0.54820000  0.63970000  0.96890000  1.0 0.5845021993
C  C16  1  0.63970000  0.09150000  0.46890000  1.0 0.5855813812
C  C17  1  0.90850000  0.54820000  0.46890000  1.0 0.5855813812
C  C18  1  0.45180000  0.36030000  0.46890000  1.0 0.5845021993
C  C19  1  0.90850000  0.36030000  0.03110000  1.0 0.5845021993
C  C20  1  0.45180000  0.09150000  0.03110000  1.0 0.5855813812
C  C21  1  0.63970000  0.54820000  0.03110000  1.0 0.5845021993
C  C22  1  0.09150000  0.63970000  0.53110000  1.0 0.5845021993
C  C23  1  0.54820000  0.90850000  0.53110000  1.0 0.5845021993
C  C24  1  0.36030000  0.45180000  0.53110000  1.0 0.5845021993
C  C25  1  0.77804000  0.22196000  0.03147000  1.0 -0.1093751785
C  C26  1  0.77804000  0.55608000  0.03147000  1.0 -0.1093751785
C  C27  1  0.44392000  0.22196000  0.03147000  1.0 -0.1093751785
C  C28  1  0.22196000  0.77804000  0.53147000  1.0 -0.1093751785
C  C29  1  0.22196000  0.44392000  0.53147000  1.0 -0.1093751785
C  C30  1  0.55608000  0.77804000  0.53147000  1.0 -0.1093751785
C  C31  1  0.22196000  0.77804000  0.96853000  1.0 -0.1093751785
C  C32  1  0.55608000  0.77804000  0.96853000  1.0 -0.1093751785
C  C33  1  0.22196000  0.44392000  0.96853000  1.0 -0.1093751785
C  C34  1  0.77804000  0.22196000  0.46853000  1.0 -0.1093751785
C  C35  1  0.44392000  0.22196000  0.46853000  1.0 -0.1093751785
C  C36  1  0.77804000  0.55608000  0.46853000  1.0 -0.1093751785
C  C37  1  0.72110000  0.14970000  0.05002000  1.0 -0.0157482835
C  C38  1  0.85030000  0.57140000  0.05002000  1.0 -0.0157482835
C  C39  1  0.42860000  0.27890000  0.05002000  1.0 -0.0157482835
C  C40  1  0.27890000  0.85030000  0.55002000  1.0 -0.0157482835
C  C41  1  0.14970000  0.42860000  0.55002000  1.0 -0.0157482835
C  C42  1  0.57140000  0.72110000  0.55002000  1.0 -0.0157482835
C  C43  1  0.14970000  0.72110000  0.94998000  1.0 -0.0157482835
C  C44  1  0.57140000  0.85030000  0.94998000  1.0 -0.0157482835
C  C45  1  0.27890000  0.42860000  0.94998000  1.0 -0.0157482835
C  C46  1  0.85030000  0.27890000  0.44998000  1.0 -0.0157482835
C  C47  1  0.42860000  0.14970000  0.44998000  1.0 -0.0157482835
C  C48  1  0.72110000  0.57140000  0.44998000  1.0 -0.0157482835
C  C49  1  0.27890000  0.85030000  0.94998000  1.0 -0.0157482835
C  C50  1  0.14970000  0.42860000  0.94998000  1.0 -0.0157482835
C  C51  1  0.57140000  0.72110000  0.94998000  1.0 -0.0157482835
C  C52  1  0.72110000  0.14970000  0.44998000  1.0 -0.0157482835
C  C53  1  0.85030000  0.57140000  0.44998000  1.0 -0.0157482835
C  C54  1  0.42860000  0.27890000  0.44998000  1.0 -0.0157482835
C  C55  1  0.85030000  0.27890000  0.05002000  1.0 -0.0157482835
C  C56  1  0.42860000  0.14970000  0.05002000  1.0 -0.0157482835
C  C57  1  0.72110000  0.57140000  0.05002000  1.0 -0.0157482835
C  C58  1  0.14970000  0.72110000  0.55002000  1.0 -0.0157482835
C  C59  1  0.57140000  0.85030000  0.55002000  1.0 -0.0157482835
C  C60  1  0.27890000  0.42860000  0.55002000  1.0 -0.0157482835
C  C61  1  0.73780000  0.13430000  0.08805000  1.0 -0.1476216027
C  C62  1  0.86570000  0.60350000  0.08805000  1.0 -0.1476216027
C  C63  1  0.39650000  0.26220000  0.08805000  1.0 -0.1476216027
C  C64  1  0.26220000  0.86570000  0.58805000  1.0 -0.1476216027
C  C65  1  0.13430000  0.39650000  0.58805000  1.0 -0.1476216027
C  C66  1  0.60350000  0.73780000  0.58805000  1.0 -0.1476216027
C  C67  1  0.13430000  0.73780000  0.91195000  1.0 -0.1476216027
C  C68  1  0.60350000  0.86570000  0.91195000  1.0 -0.1476216027
C  C69  1  0.26220000  0.39650000  0.91195000  1.0 -0.1476216027
C  C70  1  0.86570000  0.26220000  0.41195000  1.0 -0.1476216027
C  C71  1  0.39650000  0.13430000  0.41195000  1.0 -0.1476216027
C  C72  1  0.73780000  0.60350000  0.41195000  1.0 -0.1476216027
C  C73  1  0.26220000  0.86570000  0.91195000  1.0 -0.1476216027
C  C74  1  0.13430000  0.39650000  0.91195000  1.0 -0.1476216027
C  C75  1  0.60350000  0.73780000  0.91195000  1.0 -0.1476216027
C  C76  1  0.73780000  0.13430000  0.41195000  1.0 -0.1476216027
C  C77  1  0.86570000  0.60350000  0.41195000  1.0 -0.1476216027
C  C78  1  0.39650000  0.26220000  0.41195000  1.0 -0.1476216027
C  C79  1  0.86570000  0.26220000  0.08805000  1.0 -0.1476216027
C  C80  1  0.39650000  0.13430000  0.08805000  1.0 -0.1476216027
C  C81  1  0.73780000  0.60350000  0.08805000  1.0 -0.1476216027
C  C82  1  0.13430000  0.73780000  0.58805000  1.0 -0.1476216027
C  C83  1  0.60350000  0.86570000  0.58805000  1.0 -0.1476216027
C  C84  1  0.26220000  0.39650000  0.58805000  1.0 -0.1476216027
C  C85  1  0.80956000  0.19044000  0.10695000  1.0 0.0698035903
C  C86  1  0.80956000  0.61912000  0.10695000  1.0 0.0698035903
C  C87  1  0.38088000  0.19044000  0.10695000  1.0 0.0698035903
C  C88  1  0.19044000  0.80956000  0.60695000  1.0 0.0698035903
C  C89  1  0.19044000  0.38088000  0.60695000  1.0 0.0698035903
C  C90  1  0.61912000  0.80956000  0.60695000  1.0 0.0698035903
C  C91  1  0.19044000  0.80956000  0.89305000  1.0 0.0698035903
C  C92  1  0.61912000  0.80956000  0.89305000  1.0 0.0698035903
C  C93  1  0.19044000  0.38088000  0.89305000  1.0 0.0698035903
C  C94  1  0.80956000  0.19044000  0.39305000  1.0 0.0698035903
C  C95  1  0.38088000  0.19044000  0.39305000  1.0 0.0698035903
C  C96  1  0.80956000  0.61912000  0.39305000  1.0 0.0698035903
C  C97  1  0.82310000  0.17690000  0.14895000  1.0 0.0377135948
C  C98  1  0.82310000  0.64620000  0.14895000  1.0 0.0377135948
C  C99  1  0.35380000  0.17690000  0.14895000  1.0 0.0377135948
C  C100  1  0.17690000  0.82310000  0.64895000  1.0 0.0377135948
C  C101  1  0.17690000  0.35380000  0.64895000  1.0 0.0377135948
C  C102  1  0.64620000  0.82310000  0.64895000  1.0 0.0377135948
C  C103  1  0.17690000  0.82310000  0.85105000  1.0 0.0377135948
C  C104  1  0.64620000  0.82310000  0.85105000  1.0 0.0377135948
C  C105  1  0.17690000  0.35380000  0.85105000  1.0 0.0377135948
C  C106  1  0.82310000  0.17690000  0.35105000  1.0 0.0377135948
C  C107  1  0.35380000  0.17690000  0.35105000  1.0 0.0377135948
C  C108  1  0.82310000  0.64620000  0.35105000  1.0 0.0377135948
C  C109  1  0.80050000  0.09850000  0.16240000  1.0 -0.0842740208
C  C110  1  0.90150000  0.70200000  0.16240000  1.0 -0.0842740208
C  C111  1  0.29800000  0.19950000  0.16240000  1.0 -0.0842740208
C  C112  1  0.19950000  0.90150000  0.66240000  1.0 -0.0842740208
C  C113  1  0.09850000  0.29800000  0.66240000  1.0 -0.0860377674
C  C114  1  0.70200000  0.80050000  0.66240000  1.0 -0.0842740208
C  C115  1  0.09850000  0.80050000  0.83760000  1.0 -0.0860377674
C  C116  1  0.70200000  0.90150000  0.83760000  1.0 -0.0860377674
C  C117  1  0.19950000  0.29800000  0.83760000  1.0 -0.0860377674
C  C118  1  0.90150000  0.19950000  0.33760000  1.0 -0.0860377674
C  C119  1  0.29800000  0.09850000  0.33760000  1.0 -0.0842740208
C  C120  1  0.80050000  0.70200000  0.33760000  1.0 -0.0842740208
C  C121  1  0.19950000  0.90150000  0.83760000  1.0 -0.0842740208
C  C122  1  0.09850000  0.29800000  0.83760000  1.0 -0.0860377674
C  C123  1  0.70200000  0.80050000  0.83760000  1.0 -0.0842740208
C  C124  1  0.80050000  0.09850000  0.33760000  1.0 -0.0842740208
C  C125  1  0.90150000  0.70200000  0.33760000  1.0 -0.0842740208
C  C126  1  0.29800000  0.19950000  0.33760000  1.0 -0.0842740208
C  C127  1  0.90150000  0.19950000  0.16240000  1.0 -0.0860377674
C  C128  1  0.29800000  0.09850000  0.16240000  1.0 -0.0842740208
C  C129  1  0.80050000  0.70200000  0.16240000  1.0 -0.0842740208
C  C130  1  0.09850000  0.80050000  0.66240000  1.0 -0.0860377674
C  C131  1  0.70200000  0.90150000  0.66240000  1.0 -0.0860377674
C  C132  1  0.19950000  0.29800000  0.66240000  1.0 -0.0860377674
C  C133  1  0.80370000  0.07990000  0.20150000  1.0 -0.1214145062
C  C134  1  0.92010000  0.72380000  0.20150000  1.0 -0.1214145062
C  C135  1  0.27620000  0.19630000  0.20150000  1.0 -0.1214145062
C  C136  1  0.19630000  0.92010000  0.70150000  1.0 -0.1214145062
C  C137  1  0.07990000  0.27620000  0.70150000  1.0 -0.1214145062
C  C138  1  0.72380000  0.80370000  0.70150000  1.0 -0.1214145062
C  C139  1  0.07990000  0.80370000  0.79850000  1.0 -0.1214145062
C  C140  1  0.72380000  0.92010000  0.79850000  1.0 -0.1214145062
C  C141  1  0.19630000  0.27620000  0.79850000  1.0 -0.1214145062
C  C142  1  0.92010000  0.19630000  0.29850000  1.0 -0.1214145062
C  C143  1  0.27620000  0.07990000  0.29850000  1.0 -0.1214145062
C  C144  1  0.80370000  0.72380000  0.29850000  1.0 -0.1214145062
C  C145  1  0.19630000  0.92010000  0.79850000  1.0 -0.1214145062
C  C146  1  0.07990000  0.27620000  0.79850000  1.0 -0.1214145062
C  C147  1  0.72380000  0.80370000  0.79850000  1.0 -0.1214145062
C  C148  1  0.80370000  0.07990000  0.29850000  1.0 -0.1214145062
C  C149  1  0.92010000  0.72380000  0.29850000  1.0 -0.1214145062
C  C150  1  0.27620000  0.19630000  0.29850000  1.0 -0.1214145062
C  C151  1  0.92010000  0.19630000  0.20150000  1.0 -0.1214145062
C  C152  1  0.27620000  0.07990000  0.20150000  1.0 -0.1214145062
C  C153  1  0.80370000  0.72380000  0.20150000  1.0 -0.1214145062
C  C154  1  0.07990000  0.80370000  0.70150000  1.0 -0.1214145062
C  C155  1  0.72380000  0.92010000  0.70150000  1.0 -0.1214145062
C  C156  1  0.19630000  0.27620000  0.70150000  1.0 -0.1214145062
C  C157  1  0.85190000  0.24170000  0.17630000  1.0 -0.0722461206
C  C158  1  0.75830000  0.61020000  0.17630000  1.0 -0.0722461206
C  C159  1  0.38980000  0.14810000  0.17630000  1.0 -0.0722461206
C  C160  1  0.14810000  0.75830000  0.67630000  1.0 -0.0722461206
C  C161  1  0.24170000  0.38980000  0.67630000  1.0 -0.0722461206
C  C162  1  0.61020000  0.85190000  0.67630000  1.0 -0.0722461206
C  C163  1  0.24170000  0.85190000  0.82370000  1.0 -0.0722461206
C  C164  1  0.61020000  0.75830000  0.82370000  1.0 -0.0722461206
C  C165  1  0.14810000  0.38980000  0.82370000  1.0 -0.0722461206
C  C166  1  0.75830000  0.14810000  0.32370000  1.0 -0.0722461206
C  C167  1  0.38980000  0.24170000  0.32370000  1.0 -0.0722461206
C  C168  1  0.85190000  0.61020000  0.32370000  1.0 -0.0722461206
C  C169  1  0.14810000  0.75830000  0.82370000  1.0 -0.0722461206
C  C170  1  0.24170000  0.38980000  0.82370000  1.0 -0.0722461206
C  C171  1  0.61020000  0.85190000  0.82370000  1.0 -0.0722461206
C  C172  1  0.85190000  0.24170000  0.32370000  1.0 -0.0722461206
C  C173  1  0.75830000  0.61020000  0.32370000  1.0 -0.0722461206
C  C174  1  0.38980000  0.14810000  0.32370000  1.0 -0.0722461206
C  C175  1  0.75830000  0.14810000  0.17630000  1.0 -0.0722461206
C  C176  1  0.38980000  0.24170000  0.17630000  1.0 -0.0722461206
C  C177  1  0.85190000  0.61020000  0.17630000  1.0 -0.0722461206
C  C178  1  0.24170000  0.85190000  0.67630000  1.0 -0.0722461206
C  C179  1  0.61020000  0.75830000  0.67630000  1.0 -0.0722461206
C  C180  1  0.14810000  0.38980000  0.67630000  1.0 -0.0722461206
C  C181  1  0.85520000  0.22190000  0.21620000  1.0 -0.0005423065
C  C182  1  0.77810000  0.63330000  0.21620000  1.0 0.0018392515
C  C183  1  0.36670000  0.14480000  0.21620000  1.0 -0.0005423065
C  C184  1  0.14480000  0.77810000  0.71620000  1.0 0.0018392515
C  C185  1  0.22190000  0.36670000  0.71620000  1.0 0.0018392515
C  C186  1  0.63330000  0.85520000  0.71620000  1.0 0.0018392515
C  C187  1  0.22190000  0.85520000  0.78380000  1.0 -0.0005423065
C  C188  1  0.63330000  0.77810000  0.78380000  1.0 0.0018392515
C  C189  1  0.14480000  0.36670000  0.78380000  1.0 -0.0005423065
C  C190  1  0.77810000  0.14480000  0.28380000  1.0 0.0018392515
C  C191  1  0.36670000  0.22190000  0.28380000  1.0 -0.0005423065
C  C192  1  0.85520000  0.63330000  0.28380000  1.0 0.0018392515
C  C193  1  0.14480000  0.77810000  0.78380000  1.0 0.0018392515
C  C194  1  0.22190000  0.36670000  0.78380000  1.0 0.0018392515
C  C195  1  0.63330000  0.85520000  0.78380000  1.0 0.0018392515
C  C196  1  0.85520000  0.22190000  0.28380000  1.0 -0.0005423065
C  C197  1  0.77810000  0.63330000  0.28380000  1.0 0.0018392515
C  C198  1  0.36670000  0.14480000  0.28380000  1.0 -0.0005423065
C  C199  1  0.77810000  0.14480000  0.21620000  1.0 0.0018392515
C  C200  1  0.36670000  0.22190000  0.21620000  1.0 -0.0005423065
C  C201  1  0.85520000  0.63330000  0.21620000  1.0 0.0018392515
C  C202  1  0.22190000  0.85520000  0.71620000  1.0 -0.0005423065
C  C203  1  0.63330000  0.77810000  0.71620000  1.0 0.0018392515
C  C204  1  0.14480000  0.36670000  0.71620000  1.0 -0.0005423065
C  C205  1  0.84340000  0.15660000  0.22809000  1.0 0.0238200951
C  C206  1  0.84340000  0.68680000  0.22809000  1.0 0.0238200951
C  C207  1  0.31320000  0.15660000  0.22809000  1.0 0.0238200951
C  C208  1  0.15660000  0.84340000  0.72809000  1.0 0.0262743859
C  C209  1  0.15660000  0.31320000  0.72809000  1.0 0.0262743859
C  C210  1  0.68680000  0.84340000  0.72809000  1.0 0.0262743859
C  C211  1  0.15660000  0.84340000  0.77191000  1.0 0.0262743859
C  C212  1  0.68680000  0.84340000  0.77191000  1.0 0.0262743859
C  C213  1  0.15660000  0.31320000  0.77191000  1.0 0.0262743859
C  C214  1  0.84340000  0.15660000  0.27191000  1.0 0.0238200951
C  C215  1  0.31320000  0.15660000  0.27191000  1.0 0.0238200951
C  C216  1  0.84340000  0.68680000  0.27191000  1.0 0.0238200951
C  C217  1  0.87410000  0.27700000  0.25000000  1.0 0.2666038038
C  C218  1  0.72300000  0.59710000  0.25000000  1.0 0.263595892
C  C219  1  0.40290000  0.12590000  0.25000000  1.0 0.2666038038
C  C220  1  0.12590000  0.72300000  0.75000000  1.0 0.263595892
C  C221  1  0.27700000  0.40290000  0.75000000  1.0 0.2666038038
C  C222  1  0.59710000  0.87410000  0.75000000  1.0 0.2666038038
C  C223  1  0.27700000  0.87410000  0.75000000  1.0 0.263595892
C  C224  1  0.59710000  0.72300000  0.75000000  1.0 0.263595892
C  C225  1  0.12590000  0.40290000  0.75000000  1.0 0.2666038038
C  C226  1  0.72300000  0.12590000  0.25000000  1.0 0.263595892
C  C227  1  0.40290000  0.27700000  0.25000000  1.0 0.2666038038
C  C228  1  0.87410000  0.59710000  0.25000000  1.0 0.2666038038
O  O1  1  0.58919000  0.02920000  0.05004000  1.0 -0.5142976708
O  O2  1  0.97080000  0.55999000  0.05004000  1.0 -0.5142976708
O  O3  1  0.44001000  0.41081000  0.05004000  1.0 -0.5156824638
O  O4  1  0.41081000  0.97080000  0.55004000  1.0 -0.5156824638
O  O5  1  0.02920000  0.44001000  0.55004000  1.0 -0.5142976708
O  O6  1  0.55999000  0.58919000  0.55004000  1.0 -0.5142976708
O  O7  1  0.02920000  0.58919000  0.94996000  1.0 -0.5156824638
O  O8  1  0.55999000  0.97080000  0.94996000  1.0 -0.5156824638
O  O9  1  0.41081000  0.44001000  0.94996000  1.0 -0.5156824638
O  O10  1  0.97080000  0.41081000  0.44996000  1.0 -0.5142976708
O  O11  1  0.44001000  0.02920000  0.44996000  1.0 -0.5142976708
O  O12  1  0.58919000  0.55999000  0.44996000  1.0 -0.5142976708
O  O13  1  0.41081000  0.97080000  0.94996000  1.0 -0.5156824638
O  O14  1  0.02920000  0.44001000  0.94996000  1.0 -0.5142976708
O  O15  1  0.55999000  0.58919000  0.94996000  1.0 -0.5142976708
O  O16  1  0.58919000  0.02920000  0.44996000  1.0 -0.5142976708
O  O17  1  0.97080000  0.55999000  0.44996000  1.0 -0.5142976708
O  O18  1  0.44001000  0.41081000  0.44996000  1.0 -0.5156824638
O  O19  1  0.97080000  0.41081000  0.05004000  1.0 -0.5142976708
O  O20  1  0.44001000  0.02920000  0.05004000  1.0 -0.5142976708
O  O21  1  0.58919000  0.55999000  0.05004000  1.0 -0.5142976708
O  O22  1  0.02920000  0.58919000  0.55004000  1.0 -0.5156824638
O  O23  1  0.55999000  0.97080000  0.55004000  1.0 -0.5156824638
O  O24  1  0.41081000  0.44001000  0.55004000  1.0 -0.5156824638
O  O25  1  0.62896000  0.10993000  0.99662000  1.0 -0.5258577922
O  O26  1  0.89007000  0.51903000  0.99662000  1.0 -0.5258577922
O  O27  1  0.48097000  0.37104000  0.99662000  1.0 -0.5258577922
O  O28  1  0.37104000  0.89007000  0.49662000  1.0 -0.5258577922
O  O29  1  0.10993000  0.48097000  0.49662000  1.0 -0.5258577922
O  O30  1  0.51903000  0.62896000  0.49662000  1.0 -0.5258577922
O  O31  1  0.10993000  0.62896000  0.00338000  1.0 -0.5258577922
O  O32  1  0.51903000  0.89007000  0.00338000  1.0 -0.5258577922
O  O33  1  0.37104000  0.48097000  0.00338000  1.0 -0.5258577922
O  O34  1  0.89007000  0.37104000  0.50338000  1.0 -0.5258577922
O  O35  1  0.48097000  0.10993000  0.50338000  1.0 -0.5258577922
O  O36  1  0.62896000  0.51903000  0.50338000  1.0 -0.5258577922
O  O37  1  0.37104000  0.89007000  0.00338000  1.0 -0.5258577922
O  O38  1  0.10993000  0.48097000  0.00338000  1.0 -0.5258577922
O  O39  1  0.51903000  0.62896000  0.00338000  1.0 -0.5258577922
O  O40  1  0.62896000  0.10993000  0.50338000  1.0 -0.5258577922
O  O41  1  0.89007000  0.51903000  0.50338000  1.0 -0.5258577922
O  O42  1  0.48097000  0.37104000  0.50338000  1.0 -0.5258577922
O  O43  1  0.89007000  0.37104000  0.99662000  1.0 -0.5258577922
O  O44  1  0.48097000  0.10993000  0.99662000  1.0 -0.5258577922
O  O45  1  0.62896000  0.51903000  0.99662000  1.0 -0.5258577922
O  O46  1  0.10993000  0.62896000  0.49662000  1.0 -0.5258577922
O  O47  1  0.51903000  0.89007000  0.49662000  1.0 -0.5258577922
O  O48  1  0.37104000  0.48097000  0.49662000  1.0 -0.5258577922
O  O49  1  0.90340000  0.35460000  0.25000000  1.0 -0.3611255039
O  O50  1  0.64540000  0.54880000  0.25000000  1.0 -0.3611255039
O  O51  1  0.45120000  0.09660000  0.25000000  1.0 -0.3611255039
O  O52  1  0.09660000  0.64540000  0.75000000  1.0 -0.3611255039
O  O53  1  0.35460000  0.45120000  0.75000000  1.0 -0.3611255039
O  O54  1  0.54880000  0.90340000  0.75000000  1.0 -0.3611255039
O  O55  1  0.35460000  0.90340000  0.75000000  1.0 -0.3667908419
O  O56  1  0.54880000  0.64540000  0.75000000  1.0 -0.3611255039
O  O57  1  0.09660000  0.45120000  0.75000000  1.0 -0.3547003974
O  O58  1  0.64540000  0.09660000  0.25000000  1.0 -0.3611255039
O  O59  1  0.45120000  0.35460000  0.25000000  1.0 -0.3611255039
O  O60  1  0.90340000  0.54880000  0.25000000  1.0 -0.3611255039
