# DDEC6 charges by PACMAN v1.1 (https://github.com/mtap-research/PACMAN-charge/)
data_LOGBEO_ASR_pacman
_symmetry_space_group_name_H-M   'P 1'
_cell_length_a   18.69100000
_cell_length_b   18.69100000
_cell_length_c   9.42300000
_cell_angle_alpha   90.00000000
_cell_angle_beta   90.00000000
_cell_angle_gamma   90.00000000
_symmetry_Int_Tables_number   1
_chemical_formula_structural   AlPO4
_chemical_formula_sum   'Al24 P24 O96'
_cell_volume   3291.95785146
_cell_formula_units_Z   24
loop_
 _symmetry_equiv_pos_site_id
 _symmetry_equiv_pos_as_xyz
  1  'x, y, z'
loop_
 _atom_site_type_symbol
 _atom_site_label
 _atom_site_symmetry_multiplicity
 _atom_site_fract_x
 _atom_site_fract_y
 _atom_site_fract_z
 _atom_site_occupancy
 _atom_site_charge
Al  Al1  1  0.41548000  0.31521000  0.08049000  1.0 1.7378902746
Al  Al2  1  0.81521000  0.08452000  0.08049000  1.0 1.7378902746
Al  Al3  1  0.18479000  0.91548000  0.08049000  1.0 1.7378902746
Al  Al4  1  0.58452000  0.68479000  0.08049000  1.0 1.7378902746
Al  Al5  1  0.08452000  0.18479000  0.91951000  1.0 1.7378902746
Al  Al6  1  0.68479000  0.41548000  0.91951000  1.0 1.7378902746
Al  Al7  1  0.31521000  0.58452000  0.91951000  1.0 1.7378902746
Al  Al8  1  0.91548000  0.81521000  0.91951000  1.0 1.7378902746
Al  Al9  1  0.20581000  0.41393000  0.15605000  1.0 1.7611787332
Al  Al10  1  0.91393000  0.29419000  0.15605000  1.0 1.7611787332
Al  Al11  1  0.08607000  0.70581000  0.15605000  1.0 1.7611787332
Al  Al12  1  0.79419000  0.58607000  0.15605000  1.0 1.7611787332
Al  Al13  1  0.29419000  0.08607000  0.84395000  1.0 1.7611787332
Al  Al14  1  0.58607000  0.20581000  0.84395000  1.0 1.7611787332
Al  Al15  1  0.41393000  0.79419000  0.84395000  1.0 1.7611787332
Al  Al16  1  0.70581000  0.91393000  0.84395000  1.0 1.7611787332
Al  Al17  1  0.31577000  0.30065000  0.66541000  1.0 1.7267632497
Al  Al18  1  0.80065000  0.18423000  0.66541000  1.0 1.7267632497
Al  Al19  1  0.19935000  0.81577000  0.66541000  1.0 1.7267632497
Al  Al20  1  0.68423000  0.69935000  0.66541000  1.0 1.7267632497
Al  Al21  1  0.18423000  0.19935000  0.33459000  1.0 1.7267632497
Al  Al22  1  0.69935000  0.31577000  0.33459000  1.0 1.7267632497
Al  Al23  1  0.30065000  0.68423000  0.33459000  1.0 1.7267632497
Al  Al24  1  0.81577000  0.80065000  0.33459000  1.0 1.7267632497
P  P1  1  0.30720000  0.31489000  0.33558000  1.0 1.4480045351
P  P2  1  0.81489000  0.19280000  0.33558000  1.0 1.4480045351
P  P3  1  0.18511000  0.80720000  0.33558000  1.0 1.4480045351
P  P4  1  0.69280000  0.68511000  0.33558000  1.0 1.4399467702
P  P5  1  0.19280000  0.18511000  0.66442000  1.0 1.4480045351
P  P6  1  0.68511000  0.30720000  0.66442000  1.0 1.4480045351
P  P7  1  0.31489000  0.69280000  0.66442000  1.0 1.4480045351
P  P8  1  0.80720000  0.81489000  0.66442000  1.0 1.4399467702
P  P9  1  0.41641000  0.19966000  0.83978000  1.0 1.4399467702
P  P10  1  0.69966000  0.08359000  0.83978000  1.0 1.4399467702
P  P11  1  0.30034000  0.91641000  0.83978000  1.0 1.4399467702
P  P12  1  0.58359000  0.80034000  0.83978000  1.0 1.4399467702
P  P13  1  0.08359000  0.30034000  0.16022000  1.0 1.4399467702
P  P14  1  0.80034000  0.41641000  0.16022000  1.0 1.4399467702
P  P15  1  0.19966000  0.58359000  0.16022000  1.0 1.4399467702
P  P16  1  0.91641000  0.69966000  0.16022000  1.0 1.4399467702
P  P17  1  0.31733000  0.41582000  0.90451000  1.0 1.4399467702
P  P18  1  0.91582000  0.18267000  0.90451000  1.0 1.4399467702
P  P19  1  0.08418000  0.81733000  0.90451000  1.0 1.4399467702
P  P20  1  0.68267000  0.58418000  0.90451000  1.0 1.4399467702
P  P21  1  0.18267000  0.08418000  0.09549000  1.0 1.4399467702
P  P22  1  0.58418000  0.31733000  0.09549000  1.0 1.4399467702
P  P23  1  0.41582000  0.68267000  0.09549000  1.0 1.4399467702
P  P24  1  0.81733000  0.91582000  0.09549000  1.0 1.4349232626
O  O1  1  0.37405000  0.30926000  0.24510000  1.0 -0.7694993851
O  O2  1  0.80926000  0.12595000  0.24510000  1.0 -0.7694993851
O  O3  1  0.19074000  0.87405000  0.24510000  1.0 -0.7694993851
O  O4  1  0.62595000  0.69074000  0.24510000  1.0 -0.7694993851
O  O5  1  0.12595000  0.19074000  0.75490000  1.0 -0.7694993851
O  O6  1  0.69074000  0.37405000  0.75490000  1.0 -0.7694993851
O  O7  1  0.30926000  0.62595000  0.75490000  1.0 -0.7694993851
O  O8  1  0.87405000  0.80926000  0.75490000  1.0 -0.7694993851
O  O9  1  0.33091000  0.32494000  0.48910000  1.0 -0.7618450038
O  O10  1  0.82494000  0.16909000  0.48910000  1.0 -0.7618450038
O  O11  1  0.17506000  0.83091000  0.48910000  1.0 -0.7618450038
O  O12  1  0.66909000  0.67506000  0.48910000  1.0 -0.7618450038
O  O13  1  0.16909000  0.17506000  0.51090000  1.0 -0.7618450038
O  O14  1  0.67506000  0.33091000  0.51090000  1.0 -0.7618450038
O  O15  1  0.32494000  0.66909000  0.51090000  1.0 -0.7618450038
O  O16  1  0.83091000  0.82494000  0.51090000  1.0 -0.7618450038
O  O17  1  0.26258000  0.37878000  0.29380000  1.0 -0.8284942065
O  O18  1  0.87878000  0.23742000  0.29380000  1.0 -0.8284942065
O  O19  1  0.12122000  0.76258000  0.29380000  1.0 -0.8284942065
O  O20  1  0.73742000  0.62122000  0.29380000  1.0 -0.8284942065
O  O21  1  0.23742000  0.12122000  0.70620000  1.0 -0.8284942065
O  O22  1  0.62122000  0.26258000  0.70620000  1.0 -0.8284942065
O  O23  1  0.37878000  0.73742000  0.70620000  1.0 -0.8284942065
O  O24  1  0.76258000  0.87878000  0.70620000  1.0 -0.8284942065
O  O25  1  0.26641000  0.24539000  0.32140000  1.0 -0.8284942065
O  O26  1  0.74539000  0.23359000  0.32140000  1.0 -0.8284942065
O  O27  1  0.25461000  0.76641000  0.32140000  1.0 -0.8284942065
O  O28  1  0.73359000  0.75461000  0.32140000  1.0 -0.8284942065
O  O29  1  0.23359000  0.25461000  0.67860000  1.0 -0.8284942065
O  O30  1  0.75461000  0.26641000  0.67860000  1.0 -0.8284942065
O  O31  1  0.24539000  0.73359000  0.67860000  1.0 -0.8284942065
O  O32  1  0.76641000  0.74539000  0.67860000  1.0 -0.8284942065
O  O33  1  0.40644000  0.23524000  0.98360000  1.0 -0.8284942065
O  O34  1  0.73524000  0.09356000  0.98360000  1.0 -0.8284942065
O  O35  1  0.26476000  0.90644000  0.98360000  1.0 -0.8284942065
O  O36  1  0.59356000  0.76476000  0.98360000  1.0 -0.8284942065
O  O37  1  0.09356000  0.26476000  0.01640000  1.0 -0.8284942065
O  O38  1  0.76476000  0.40644000  0.01640000  1.0 -0.8284942065
O  O39  1  0.23524000  0.59356000  0.01640000  1.0 -0.8284942065
O  O40  1  0.90644000  0.73524000  0.01640000  1.0 -0.8284942065
O  O41  1  0.38711000  0.24713000  0.72160000  1.0 -0.8193938981
O  O42  1  0.74713000  0.11289000  0.72160000  1.0 -0.8193938981
O  O43  1  0.25287000  0.88711000  0.72160000  1.0 -0.8193938981
O  O44  1  0.61289000  0.75287000  0.72160000  1.0 -0.8193938981
O  O45  1  0.11289000  0.25287000  0.27840000  1.0 -0.8193938981
O  O46  1  0.75287000  0.38711000  0.27840000  1.0 -0.8193938981
O  O47  1  0.24713000  0.61289000  0.27840000  1.0 -0.8193938981
O  O48  1  0.88711000  0.74713000  0.27840000  1.0 -0.8193938981
O  O49  1  0.37916000  0.12815000  0.84260000  1.0 -0.7618450038
O  O50  1  0.62815000  0.12084000  0.84260000  1.0 -0.7618450038
O  O51  1  0.37185000  0.87916000  0.84260000  1.0 -0.7618450038
O  O52  1  0.62084000  0.87185000  0.84260000  1.0 -0.7618450038
O  O53  1  0.12084000  0.37185000  0.15740000  1.0 -0.7618450038
O  O54  1  0.87185000  0.37916000  0.15740000  1.0 -0.7618450038
O  O55  1  0.12815000  0.62084000  0.15740000  1.0 -0.7618450038
O  O56  1  0.87916000  0.62815000  0.15740000  1.0 -0.7618450038
O  O57  1  0.49461000  0.18742000  0.80880000  1.0 -0.7694993851
O  O58  1  0.68742000  0.00539000  0.80880000  1.0 -0.7694993851
O  O59  1  0.31258000  0.99461000  0.80880000  1.0 -0.7694993851
O  O60  1  0.50539000  0.81258000  0.80880000  1.0 -0.7694993851
O  O61  1  0.00539000  0.31258000  0.19120000  1.0 -0.7694993851
O  O62  1  0.81258000  0.49461000  0.19120000  1.0 -0.7694993851
O  O63  1  0.18742000  0.50539000  0.19120000  1.0 -0.7694993851
O  O64  1  0.99461000  0.68742000  0.19120000  1.0 -0.7694993851
O  O65  1  0.24995000  0.40410000  0.98860000  1.0 -0.8353584694
O  O66  1  0.90410000  0.25005000  0.98860000  1.0 -0.8284942065
O  O67  1  0.09590000  0.74995000  0.98860000  1.0 -0.8284942065
O  O68  1  0.75005000  0.59590000  0.98860000  1.0 -0.8284942065
O  O69  1  0.25005000  0.09590000  0.01140000  1.0 -0.8353584694
O  O70  1  0.59590000  0.24995000  0.01140000  1.0 -0.8353584694
O  O71  1  0.40410000  0.75005000  0.01140000  1.0 -0.8353584694
O  O72  1  0.74995000  0.90410000  0.01140000  1.0 -0.8353584694
O  O73  1  0.38261000  0.38802000  0.98300000  1.0 -0.8193938981
O  O74  1  0.88802000  0.11739000  0.98300000  1.0 -0.8193938981
O  O75  1  0.11198000  0.88261000  0.98300000  1.0 -0.8193938981
O  O76  1  0.61739000  0.61198000  0.98300000  1.0 -0.8193938981
O  O77  1  0.11739000  0.11198000  0.01700000  1.0 -0.8193938981
O  O78  1  0.61198000  0.38261000  0.01700000  1.0 -0.8193938981
O  O79  1  0.38802000  0.61739000  0.01700000  1.0 -0.8193938981
O  O80  1  0.88261000  0.88802000  0.01700000  1.0 -0.8193938981
O  O81  1  0.31064000  0.38009000  0.76090000  1.0 -0.7618450038
O  O82  1  0.88009000  0.18936000  0.76090000  1.0 -0.7618450038
O  O83  1  0.11991000  0.81064000  0.76090000  1.0 -0.7618450038
O  O84  1  0.68936000  0.61991000  0.76090000  1.0 -0.7618450038
O  O85  1  0.18936000  0.11991000  0.23910000  1.0 -0.7618450038
O  O86  1  0.61991000  0.31064000  0.23910000  1.0 -0.7618450038
O  O87  1  0.38009000  0.68936000  0.23910000  1.0 -0.7618450038
O  O88  1  0.81064000  0.88009000  0.23910000  1.0 -0.7618450038
O  O89  1  0.33017000  0.49457000  0.87770000  1.0 -0.7694993851
O  O90  1  0.99457000  0.16983000  0.87770000  1.0 -0.7694993851
O  O91  1  0.00543000  0.83017000  0.87770000  1.0 -0.7694993851
O  O92  1  0.66983000  0.50543000  0.87770000  1.0 -0.7694993851
O  O93  1  0.16983000  0.00543000  0.12230000  1.0 -0.7694993851
O  O94  1  0.50543000  0.33017000  0.12230000  1.0 -0.7694993851
O  O95  1  0.49457000  0.66983000  0.12230000  1.0 -0.7694993851
O  O96  1  0.83017000  0.99457000  0.12230000  1.0 -0.7694993851
