# DDEC6 charges by PACMAN v1.1 (https://github.com/mtap-research/PACMAN-charge/)
data_LOGBAK_ASR_pacman
_symmetry_space_group_name_H-M   'P 1'
_cell_length_a   18.74000000
_cell_length_b   18.74000000
_cell_length_c   9.43900000
_cell_angle_alpha   90.00000000
_cell_angle_beta   90.00000000
_cell_angle_gamma   90.00000000
_symmetry_Int_Tables_number   1
_chemical_formula_structural   AlPO4
_chemical_formula_sum   'Al24 P24 O96'
_cell_volume   3314.85975640
_cell_formula_units_Z   24
loop_
 _symmetry_equiv_pos_site_id
 _symmetry_equiv_pos_as_xyz
  1  'x, y, z'
loop_
 _atom_site_type_symbol
 _atom_site_label
 _atom_site_symmetry_multiplicity
 _atom_site_fract_x
 _atom_site_fract_y
 _atom_site_fract_z
 _atom_site_occupancy
 _atom_site_charge
Al  Al1  1  0.30131000  0.31610000  0.33500000  1.0 1.6793183266
Al  Al2  1  0.81610000  0.19869000  0.33500000  1.0 1.6793183266
Al  Al3  1  0.18390000  0.80131000  0.33500000  1.0 1.6793183266
Al  Al4  1  0.69869000  0.68390000  0.33500000  1.0 1.6793183266
Al  Al5  1  0.19869000  0.18390000  0.66500000  1.0 1.6793183266
Al  Al6  1  0.68390000  0.30131000  0.66500000  1.0 1.6793183266
Al  Al7  1  0.31610000  0.69869000  0.66500000  1.0 1.6793183266
Al  Al8  1  0.80131000  0.81610000  0.66500000  1.0 1.6793183266
Al  Al9  1  0.41417000  0.20474000  0.84290000  1.0 1.7161925762
Al  Al10  1  0.70474000  0.08583000  0.84290000  1.0 1.7129764288
Al  Al11  1  0.29526000  0.91417000  0.84290000  1.0 1.7129764288
Al  Al12  1  0.58583000  0.79526000  0.84290000  1.0 1.7161925762
Al  Al13  1  0.08583000  0.29526000  0.15710000  1.0 1.7161925762
Al  Al14  1  0.79526000  0.41417000  0.15710000  1.0 1.7129764288
Al  Al15  1  0.20474000  0.58583000  0.15710000  1.0 1.7161925762
Al  Al16  1  0.91417000  0.70474000  0.15710000  1.0 1.7129764288
Al  Al17  1  0.31600000  0.41560000  0.91670000  1.0 1.6946554313
Al  Al18  1  0.91560000  0.18400000  0.91670000  1.0 1.6946554313
Al  Al19  1  0.08440000  0.81600000  0.91670000  1.0 1.6946554313
Al  Al20  1  0.68400000  0.58440000  0.91670000  1.0 1.6946554313
Al  Al21  1  0.18400000  0.08440000  0.08330000  1.0 1.695629093
Al  Al22  1  0.58440000  0.31600000  0.08330000  1.0 1.6946554313
Al  Al23  1  0.41560000  0.68400000  0.08330000  1.0 1.695629093
Al  Al24  1  0.81600000  0.91560000  0.08330000  1.0 1.6946554313
P  P1  1  0.41610000  0.31750000  0.09240000  1.0 1.5092094759
P  P2  1  0.81750000  0.08390000  0.09240000  1.0 1.5026466577
P  P3  1  0.18250000  0.91610000  0.09240000  1.0 1.5092094759
P  P4  1  0.58390000  0.68250000  0.09240000  1.0 1.5026466577
P  P5  1  0.08390000  0.18250000  0.90760000  1.0 1.5092094759
P  P6  1  0.68250000  0.41610000  0.90760000  1.0 1.5026466577
P  P7  1  0.31750000  0.58390000  0.90760000  1.0 1.5092094759
P  P8  1  0.91610000  0.81750000  0.90760000  1.0 1.5026466577
P  P9  1  0.20100000  0.41630000  0.15960000  1.0 1.5092094759
P  P10  1  0.91630000  0.29900000  0.15960000  1.0 1.5092094759
P  P11  1  0.08370000  0.70100000  0.15960000  1.0 1.5157110422
P  P12  1  0.79900000  0.58370000  0.15960000  1.0 1.5092094759
P  P13  1  0.29900000  0.08370000  0.84040000  1.0 1.5092094759
P  P14  1  0.58370000  0.20100000  0.84040000  1.0 1.5092094759
P  P15  1  0.41630000  0.79900000  0.84040000  1.0 1.5092094759
P  P16  1  0.70100000  0.91630000  0.84040000  1.0 1.5092094759
P  P17  1  0.31510000  0.30544000  0.66390000  1.0 1.4886235922
P  P18  1  0.80544000  0.18490000  0.66390000  1.0 1.4886235922
P  P19  1  0.19456000  0.81510000  0.66390000  1.0 1.4886235922
P  P20  1  0.68490000  0.69456000  0.66390000  1.0 1.4846737116
P  P21  1  0.18490000  0.19456000  0.33610000  1.0 1.4886235922
P  P22  1  0.69456000  0.31510000  0.33610000  1.0 1.4886235922
P  P23  1  0.30544000  0.68490000  0.33610000  1.0 1.4886235922
P  P24  1  0.81510000  0.80544000  0.33610000  1.0 1.4846737116
O  O1  1  0.37780000  0.31020000  0.23960000  1.0 -0.7619344563
O  O2  1  0.81020000  0.12220000  0.23960000  1.0 -0.7619344563
O  O3  1  0.18980000  0.87780000  0.23960000  1.0 -0.7619344563
O  O4  1  0.62220000  0.68980000  0.23960000  1.0 -0.7619344563
O  O5  1  0.12220000  0.18980000  0.76040000  1.0 -0.7619344563
O  O6  1  0.68980000  0.37780000  0.76040000  1.0 -0.7619344563
O  O7  1  0.31020000  0.62220000  0.76040000  1.0 -0.7619344563
O  O8  1  0.87780000  0.81020000  0.76040000  1.0 -0.7619344563
O  O9  1  0.32450000  0.33030000  0.50580000  1.0 -0.7522244872
O  O10  1  0.83030000  0.17550000  0.50580000  1.0 -0.7522244872
O  O11  1  0.16970000  0.82450000  0.50580000  1.0 -0.7522244872
O  O12  1  0.67550000  0.66970000  0.50580000  1.0 -0.7522244872
O  O13  1  0.17550000  0.16970000  0.49420000  1.0 -0.7522244872
O  O14  1  0.66970000  0.32450000  0.49420000  1.0 -0.7522244872
O  O15  1  0.33030000  0.67550000  0.49420000  1.0 -0.7522244872
O  O16  1  0.82450000  0.83030000  0.49420000  1.0 -0.7522244872
O  O17  1  0.25020000  0.38700000  0.28240000  1.0 -0.8269201389
O  O18  1  0.88700000  0.24980000  0.28240000  1.0 -0.8269201389
O  O19  1  0.11300000  0.75020000  0.28240000  1.0 -0.8269201389
O  O20  1  0.74980000  0.61300000  0.28240000  1.0 -0.8187021882
O  O21  1  0.24980000  0.11300000  0.71760000  1.0 -0.8269201389
O  O22  1  0.61300000  0.25020000  0.71760000  1.0 -0.8187021882
O  O23  1  0.38700000  0.74980000  0.71760000  1.0 -0.8269201389
O  O24  1  0.75020000  0.88700000  0.71760000  1.0 -0.8269201389
O  O25  1  0.24490000  0.26290000  0.68020000  1.0 -0.8390249581
O  O26  1  0.76290000  0.25510000  0.68020000  1.0 -0.8390249581
O  O27  1  0.23710000  0.74490000  0.68020000  1.0 -0.8390249581
O  O28  1  0.75510000  0.73710000  0.68020000  1.0 -0.8390249581
O  O29  1  0.25510000  0.23710000  0.31980000  1.0 -0.8390249581
O  O30  1  0.73710000  0.24490000  0.31980000  1.0 -0.8390249581
O  O31  1  0.26290000  0.75510000  0.31980000  1.0 -0.8390249581
O  O32  1  0.74490000  0.76290000  0.31980000  1.0 -0.8390249581
O  O33  1  0.40440000  0.24920000  0.00600000  1.0 -0.8390249581
O  O34  1  0.74920000  0.09560000  0.00600000  1.0 -0.8390249581
O  O35  1  0.25080000  0.90440000  0.00600000  1.0 -0.8459923596
O  O36  1  0.59560000  0.75080000  0.00600000  1.0 -0.8390249581
O  O37  1  0.09560000  0.25080000  0.99400000  1.0 -0.8390249581
O  O38  1  0.75080000  0.40440000  0.99400000  1.0 -0.8390249581
O  O39  1  0.24920000  0.59560000  0.99400000  1.0 -0.8459923596
O  O40  1  0.90440000  0.74920000  0.99400000  1.0 -0.8390249581
O  O41  1  0.38060000  0.25970000  0.70910000  1.0 -0.8459923596
O  O42  1  0.75970000  0.11940000  0.70910000  1.0 -0.8459923596
O  O43  1  0.24030000  0.88060000  0.70910000  1.0 -0.8459923596
O  O44  1  0.61940000  0.74030000  0.70910000  1.0 -0.8459923596
O  O45  1  0.11940000  0.24030000  0.29090000  1.0 -0.8459923596
O  O46  1  0.74030000  0.38060000  0.29090000  1.0 -0.8459923596
O  O47  1  0.25970000  0.61940000  0.29090000  1.0 -0.8459923596
O  O48  1  0.88060000  0.75970000  0.29090000  1.0 -0.8459923596
O  O49  1  0.12860000  0.37650000  0.15550000  1.0 -0.7673421995
O  O50  1  0.87650000  0.37140000  0.15550000  1.0 -0.7619344563
O  O51  1  0.12350000  0.62860000  0.15550000  1.0 -0.7619344563
O  O52  1  0.87140000  0.62350000  0.15550000  1.0 -0.7619344563
O  O53  1  0.37140000  0.12350000  0.84450000  1.0 -0.7619344563
O  O54  1  0.62350000  0.12860000  0.84450000  1.0 -0.7619344563
O  O55  1  0.37650000  0.87140000  0.84450000  1.0 -0.7619344563
O  O56  1  0.62860000  0.87650000  0.84450000  1.0 -0.7673421995
O  O57  1  0.18610000  0.49760000  0.19140000  1.0 -0.7766353385
O  O58  1  0.99760000  0.31390000  0.19140000  1.0 -0.7766353385
O  O59  1  0.00240000  0.68610000  0.19140000  1.0 -0.7766353385
O  O60  1  0.81390000  0.50240000  0.19140000  1.0 -0.7766353385
O  O61  1  0.31390000  0.00240000  0.80860000  1.0 -0.7766353385
O  O62  1  0.50240000  0.18610000  0.80860000  1.0 -0.7766353385
O  O63  1  0.49760000  0.81390000  0.80860000  1.0 -0.7766353385
O  O64  1  0.68610000  0.99760000  0.80860000  1.0 -0.7766353385
O  O65  1  0.23730000  0.40600000  0.01140000  1.0 -0.8390249581
O  O66  1  0.90600000  0.26270000  0.01140000  1.0 -0.8390249581
O  O67  1  0.09400000  0.73730000  0.01140000  1.0 -0.8390249581
O  O68  1  0.76270000  0.59400000  0.01140000  1.0 -0.8390249581
O  O69  1  0.26270000  0.09400000  0.98860000  1.0 -0.8390249581
O  O70  1  0.59400000  0.23730000  0.98860000  1.0 -0.8390249581
O  O71  1  0.40600000  0.76270000  0.98860000  1.0 -0.8390249581
O  O72  1  0.73730000  0.90600000  0.98860000  1.0 -0.8390249581
O  O73  1  0.38650000  0.38320000  0.00960000  1.0 -0.8118981392
O  O74  1  0.88320000  0.11350000  0.00960000  1.0 -0.8187021882
O  O75  1  0.11680000  0.88650000  0.00960000  1.0 -0.8187021882
O  O76  1  0.61350000  0.61680000  0.00960000  1.0 -0.8118981392
O  O77  1  0.11350000  0.11680000  0.99040000  1.0 -0.8187021882
O  O78  1  0.61680000  0.38650000  0.99040000  1.0 -0.8118981392
O  O79  1  0.38320000  0.61350000  0.99040000  1.0 -0.8118981392
O  O80  1  0.88650000  0.88320000  0.99040000  1.0 -0.8187021882
O  O81  1  0.30990000  0.37340000  0.75690000  1.0 -0.7673421995
O  O82  1  0.87340000  0.19010000  0.75690000  1.0 -0.7673421995
O  O83  1  0.12660000  0.80990000  0.75690000  1.0 -0.7619344563
O  O84  1  0.69010000  0.62660000  0.75690000  1.0 -0.7673421995
O  O85  1  0.19010000  0.12660000  0.24310000  1.0 -0.7673421995
O  O86  1  0.62660000  0.30990000  0.24310000  1.0 -0.7673421995
O  O87  1  0.37340000  0.69010000  0.24310000  1.0 -0.7673421995
O  O88  1  0.80990000  0.87340000  0.24310000  1.0 -0.7619344563
O  O89  1  0.49700000  0.33000000  0.12550000  1.0 -0.7673421995
O  O90  1  0.83000000  0.00300000  0.12550000  1.0 -0.7673421995
O  O91  1  0.17000000  0.99700000  0.12550000  1.0 -0.7673421995
O  O92  1  0.50300000  0.67000000  0.12550000  1.0 -0.7673421995
O  O93  1  0.00300000  0.17000000  0.87450000  1.0 -0.7673421995
O  O94  1  0.67000000  0.49700000  0.87450000  1.0 -0.7673421995
O  O95  1  0.33000000  0.50300000  0.87450000  1.0 -0.7673421995
O  O96  1  0.99700000  0.83000000  0.87450000  1.0 -0.7673421995
