# DDEC6 charges by PACMAN v1.1 (https://github.com/mtap-research/PACMAN-charge/)
data_LOJFOF_ASR_pacman
_symmetry_space_group_name_H-M   'P 1'
_cell_length_a   23.69970000
_cell_length_b   23.69970000
_cell_length_c   33.24500000
_cell_angle_alpha   49.30060000
_cell_angle_beta   130.69900000
_cell_angle_gamma   158.62600000
_symmetry_Int_Tables_number   1
_chemical_formula_structural   KCuH26C48(NO2)4
_chemical_formula_sum   'K4 Cu4 H104 C192 N16 O32'
_cell_volume   5091.06371944
_cell_formula_units_Z   4
loop_
 _symmetry_equiv_pos_site_id
 _symmetry_equiv_pos_as_xyz
  1  'x, y, z'
loop_
 _atom_site_type_symbol
 _atom_site_label
 _atom_site_symmetry_multiplicity
 _atom_site_fract_x
 _atom_site_fract_y
 _atom_site_fract_z
 _atom_site_occupancy
 _atom_site_charge
K  K1  1  0.22209000  0.18711000  0.04743000  1.0 0.8719114497
K  K2  1  0.81289000  0.77791000  0.54743000  1.0 0.8719114497
K  K3  1  0.77791000  0.81289000  0.95257000  1.0 0.8719114497
K  K4  1  0.18711000  0.22209000  0.45257000  1.0 0.8719114497
Cu  Cu1  1  0.78249000  0.22293000  0.54969000  1.0 0.6177431777
Cu  Cu2  1  0.77707000  0.21751000  0.04969000  1.0 0.6177431777
Cu  Cu3  1  0.21751000  0.77707000  0.45031000  1.0 0.6177431777
Cu  Cu4  1  0.22293000  0.78249000  0.95031000  1.0 0.6177431777
H  H1  1  0.96520000  0.34420000  0.72240000  1.0 0.1299053802
H  H2  1  0.65580000  0.03480000  0.22240000  1.0 0.1299053802
H  H3  1  0.03480000  0.65580000  0.27760000  1.0 0.1299053802
H  H4  1  0.34420000  0.96520000  0.77760000  1.0 0.1299053802
H  H5  1  0.94170000  0.45910000  0.65140000  1.0 0.1299053802
H  H6  1  0.54090000  0.05830000  0.15140000  1.0 0.1299053802
H  H7  1  0.05830000  0.54090000  0.34860000  1.0 0.1299053802
H  H8  1  0.45910000  0.94170000  0.84860000  1.0 0.1299053802
H  H9  1  0.89510000  0.59850000  0.43920000  1.0 0.1299053802
H  H10  1  0.40150000  0.10490000  0.93920000  1.0 0.1299053802
H  H11  1  0.10490000  0.40150000  0.56080000  1.0 0.1299053802
H  H12  1  0.59850000  0.89510000  0.06080000  1.0 0.1299053802
H  H13  1  0.80160000  0.50200000  0.37140000  1.0 0.1299053802
H  H14  1  0.49800000  0.19840000  0.87140000  1.0 0.1299053802
H  H15  1  0.19840000  0.49800000  0.62860000  1.0 0.1299053802
H  H16  1  0.50200000  0.80160000  0.12860000  1.0 0.1299053802
H  H17  1  0.48780000  0.00480000  0.38340000  1.0 0.1299053802
H  H18  1  0.99520000  0.51220000  0.88340000  1.0 0.1299053802
H  H19  1  0.51220000  0.99520000  0.61660000  1.0 0.1299053802
H  H20  1  0.00480000  0.48780000  0.11660000  1.0 0.1299053802
H  H21  1  0.47970000  0.86350000  0.45430000  1.0 0.1299053802
H  H22  1  0.13650000  0.52030000  0.95430000  1.0 0.1299053802
H  H23  1  0.52030000  0.13650000  0.54570000  1.0 0.1299053802
H  H24  1  0.86350000  0.47970000  0.04570000  1.0 0.1299053802
H  H25  1  0.77730000  0.93870000  0.65620000  1.0 0.1299053802
H  H26  1  0.06130000  0.22270000  0.15620000  1.0 0.1299053802
H  H27  1  0.22270000  0.06130000  0.34380000  1.0 0.1299053802
H  H28  1  0.93870000  0.77730000  0.84380000  1.0 0.1299053802
H  H29  1  0.90210000  0.06170000  0.72270000  1.0 0.1377945788
H  H30  1  0.93830000  0.09790000  0.22270000  1.0 0.1377945788
H  H31  1  0.09790000  0.93830000  0.27730000  1.0 0.1377945788
H  H32  1  0.06170000  0.90210000  0.77730000  1.0 0.1377945788
H  H33  1  0.17720000  0.37500000  0.74180000  1.0 0.1117114245
H  H34  1  0.62500000  0.82280000  0.24180000  1.0 0.1117114245
H  H35  1  0.82280000  0.62500000  0.25820000  1.0 0.1117114245
H  H36  1  0.37500000  0.17720000  0.75820000  1.0 0.1117114245
H  H37  1  0.26820000  0.37520000  0.83330000  1.0 0.1377945788
H  H38  1  0.62480000  0.73180000  0.33333333  1.0 0.1377945788
H  H39  1  0.73180000  0.62480000  0.16670000  1.0 0.1377945788
H  H40  1  0.37520000  0.26820000  0.66666667  1.0 0.1377945788
H  H41  1  0.86930000  0.05470000  0.85870000  1.0 0.1117114245
H  H42  1  0.94530000  0.13070000  0.35870000  1.0 0.1117114245
H  H43  1  0.13070000  0.94530000  0.14130000  1.0 0.1117114245
H  H44  1  0.05470000  0.86930000  0.64130000  1.0 0.1117114245
H  H45  1  0.77790000  0.05230000  0.76780000  1.0 0.1184331883
H  H46  1  0.94770000  0.22210000  0.26780000  1.0 0.1184331883
H  H47  1  0.22210000  0.94770000  0.23220000  1.0 0.1184331883
H  H48  1  0.05230000  0.77790000  0.73220000  1.0 0.1184331883
H  H49  1  0.14670000  0.73810000  0.57370000  1.0 0.1184331883
H  H50  1  0.26190000  0.85330000  0.07370000  1.0 0.1184331883
H  H51  1  0.85330000  0.26190000  0.42630000  1.0 0.1184331883
H  H52  1  0.73810000  0.14670000  0.92630000  1.0 0.1184331883
H  H53  1  0.18800000  0.86780000  0.57920000  1.0 0.1184331883
H  H54  1  0.13220000  0.81200000  0.07920000  1.0 0.1184331883
H  H55  1  0.81200000  0.13220000  0.42080000  1.0 0.1184331883
H  H56  1  0.86780000  0.18800000  0.92080000  1.0 0.1184331883
H  H57  1  0.73390000  0.52050000  0.52610000  1.0 0.1299053802
H  H58  1  0.47950000  0.26610000  0.02610000  1.0 0.1299053802
H  H59  1  0.26610000  0.47950000  0.47390000  1.0 0.1299053802
H  H60  1  0.52050000  0.73390000  0.97390000  1.0 0.1299053802
H  H61  1  0.69320000  0.39360000  0.51780000  1.0 0.1184331883
H  H62  1  0.60640000  0.30680000  0.01780000  1.0 0.1184331883
H  H63  1  0.30680000  0.60640000  0.48220000  1.0 0.1184331883
H  H64  1  0.39360000  0.69320000  0.98220000  1.0 0.1184331883
H  H65  1  0.13300000  0.95500000  0.56500000  1.0 0.3318631857
H  H66  1  0.04500000  0.86700000  0.06500000  1.0 0.3318631857
H  H67  1  0.86700000  0.04500000  0.43500000  1.0 0.3318631857
H  H68  1  0.95500000  0.13300000  0.93500000  1.0 0.3318631857
H  H69  1  0.49410000  0.21110000  0.34740000  1.0 0.1184331883
H  H70  1  0.78890000  0.50590000  0.84740000  1.0 0.1184331883
H  H71  1  0.50590000  0.78890000  0.65260000  1.0 0.1184331883
H  H72  1  0.21110000  0.49410000  0.15260000  1.0 0.1184331883
H  H73  1  0.42060000  0.22840000  0.25430000  1.0 0.1184331883
H  H74  1  0.77160000  0.57940000  0.75430000  1.0 0.1184331883
H  H75  1  0.57940000  0.77160000  0.74570000  1.0 0.1184331883
H  H76  1  0.22840000  0.42060000  0.24570000  1.0 0.1184331883
H  H77  1  0.66770000  0.32530000  0.24540000  1.0 0.1184331883
H  H78  1  0.67470000  0.33230000  0.74540000  1.0 0.1184331883
H  H79  1  0.33230000  0.67470000  0.75460000  1.0 0.1184331883
H  H80  1  0.32530000  0.66770000  0.25460000  1.0 0.1184331883
H  H81  1  0.73320000  0.29920000  0.33820000  1.0 0.1184331883
H  H82  1  0.70080000  0.26680000  0.83820000  1.0 0.1184331883
H  H83  1  0.26680000  0.70080000  0.66180000  1.0 0.1184331883
H  H84  1  0.29920000  0.73320000  0.16180000  1.0 0.1184331883
H  H85  1  0.53300000  0.37300000  0.12000000  1.0 0.3663869336
H  H86  1  0.62700000  0.46700000  0.62000000  1.0 0.3663869336
H  H87  1  0.46700000  0.62700000  0.88000000  1.0 0.3663869336
H  H88  1  0.37300000  0.53300000  0.38000000  1.0 0.3663869336
H  H89  1  0.74800000  0.00320000  0.50640000  1.0 0.1117114245
H  H90  1  0.99680000  0.25200000  0.00640000  1.0 0.1117114245
H  H91  1  0.25200000  0.99680000  0.49360000  1.0 0.1184331883
H  H92  1  0.00320000  0.74800000  0.99360000  1.0 0.1184331883
H  H93  1  0.68330000  0.84670000  0.50970000  1.0 0.1184331883
H  H94  1  0.15330000  0.31670000  0.00970000  1.0 0.1184331883
H  H95  1  0.31670000  0.15330000  0.49030000  1.0 0.1184331883
H  H96  1  0.84670000  0.68330000  0.99030000  1.0 0.1184331883
H  H97  1  0.39460000  0.51960000  0.61390000  1.0 0.1184331883
H  H98  1  0.48040000  0.60540000  0.11390000  1.0 0.1184331883
H  H99  1  0.60540000  0.48040000  0.38610000  1.0 0.1184331883
H  H100  1  0.51960000  0.39460000  0.88610000  1.0 0.1184331883
H  H101  1  0.46410000  0.68390000  0.60910000  1.0 0.1184331883
H  H102  1  0.31610000  0.53590000  0.10910000  1.0 0.1184331883
H  H103  1  0.53590000  0.31610000  0.39090000  1.0 0.1184331883
H  H104  1  0.68390000  0.46410000  0.89090000  1.0 0.1184331883
C  C1  1  0.86040000  0.14260000  0.65950000  1.0 0.1900243893
C  C2  1  0.85740000  0.13960000  0.15950000  1.0 0.1900243893
C  C3  1  0.13960000  0.85740000  0.34050000  1.0 0.1900243893
C  C4  1  0.14260000  0.86040000  0.84050000  1.0 0.1900243893
C  C5  1  0.90910000  0.21430000  0.68570000  1.0 -0.0776607689
C  C6  1  0.78570000  0.09090000  0.18570000  1.0 -0.0776607689
C  C7  1  0.09090000  0.78570000  0.31430000  1.0 -0.0776607689
C  C8  1  0.21430000  0.90910000  0.81430000  1.0 -0.0776607689
C  C9  1  0.90100000  0.28260000  0.65930000  1.0 0.1810170546
C  C10  1  0.71740000  0.09900000  0.15930000  1.0 0.1810170546
C  C11  1  0.09900000  0.71740000  0.34070000  1.0 0.1810170546
C  C12  1  0.28260000  0.90100000  0.84070000  1.0 0.1810170546
C  C13  1  0.93840000  0.34680000  0.68560000  1.0 -0.1700956948
C  C14  1  0.65320000  0.06160000  0.18560000  1.0 -0.1700956948
C  C15  1  0.06160000  0.65320000  0.31440000  1.0 -0.1700956948
C  C16  1  0.34680000  0.93840000  0.81440000  1.0 -0.1700956948
C  C17  1  0.92710000  0.41130000  0.64650000  1.0 -0.1783348709
C  C18  1  0.58870000  0.07290000  0.14650000  1.0 -0.1783348709
C  C19  1  0.07290000  0.58870000  0.35350000  1.0 -0.1783348709
C  C20  1  0.41130000  0.92710000  0.85350000  1.0 -0.1783348709
C  C21  1  0.88810000  0.39310000  0.59560000  1.0 0.1810170546
C  C22  1  0.60690000  0.11190000  0.09560000  1.0 0.1810170546
C  C23  1  0.11190000  0.60690000  0.40440000  1.0 0.1810170546
C  C24  1  0.39310000  0.88810000  0.90440000  1.0 0.1810170546
C  C25  1  0.88310000  0.45810000  0.54670000  1.0 -0.0776607689
C  C26  1  0.54190000  0.11690000  0.04670000  1.0 -0.0776607689
C  C27  1  0.11690000  0.54190000  0.45330000  1.0 -0.0776607689
C  C28  1  0.45810000  0.88310000  0.95330000  1.0 -0.0776607689
C  C29  1  0.84660000  0.44040000  0.49780000  1.0 0.1810170546
C  C30  1  0.55960000  0.15340000  0.99780000  1.0 0.1810170546
C  C31  1  0.15340000  0.55960000  0.50220000  1.0 0.1810170546
C  C32  1  0.44040000  0.84660000  0.00220000  1.0 0.1810170546
C  C33  1  0.85780000  0.52220000  0.44570000  1.0 -0.1783348709
C  C34  1  0.47780000  0.14220000  0.94570000  1.0 -0.1783348709
C  C35  1  0.14220000  0.47780000  0.55430000  1.0 -0.1783348709
C  C36  1  0.52220000  0.85780000  0.05430000  1.0 -0.1783348709
C  C37  1  0.80470000  0.46810000  0.40830000  1.0 -0.1783348709
C  C38  1  0.53190000  0.19530000  0.90830000  1.0 -0.1783348709
C  C39  1  0.19530000  0.53190000  0.59170000  1.0 -0.1783348709
C  C40  1  0.46810000  0.80470000  0.09170000  1.0 -0.1783348709
C  C41  1  0.75380000  0.34700000  0.43680000  1.0 0.1900243893
C  C42  1  0.65300000  0.24620000  0.93680000  1.0 0.1900243893
C  C43  1  0.24620000  0.65300000  0.56320000  1.0 0.1900243893
C  C44  1  0.34700000  0.75380000  0.06320000  1.0 0.1900243893
C  C45  1  0.67250000  0.24670000  0.41250000  1.0 -0.0728547663
C  C46  1  0.75330000  0.32750000  0.91250000  1.0 -0.0728547663
C  C47  1  0.32750000  0.75330000  0.58750000  1.0 -0.0728547663
C  C48  1  0.24670000  0.67250000  0.08750000  1.0 -0.0728547663
C  C49  1  0.63120000  0.13560000  0.44130000  1.0 0.1722643174
C  C50  1  0.86440000  0.36880000  0.94130000  1.0 0.1722643174
C  C51  1  0.36880000  0.86440000  0.55870000  1.0 0.1722643174
C  C52  1  0.13560000  0.63120000  0.05870000  1.0 0.1722643174
C  C53  1  0.53730000  0.02170000  0.41890000  1.0 -0.1907751948
C  C54  1  0.97830000  0.46270000  0.91890000  1.0 -0.1907751948
C  C55  1  0.46270000  0.97830000  0.58110000  1.0 -0.1907751948
C  C56  1  0.02170000  0.53730000  0.08110000  1.0 -0.1907751948
C  C57  1  0.53330000  0.94450000  0.45770000  1.0 -0.1700956948
C  C58  1  0.05550000  0.46670000  0.95770000  1.0 -0.1700956948
C  C59  1  0.46670000  0.05550000  0.54230000  1.0 -0.1700956948
C  C60  1  0.94450000  0.53330000  0.04230000  1.0 -0.1700956948
C  C61  1  0.62780000  0.01020000  0.50580000  1.0 0.1810170546
C  C62  1  0.98980000  0.37220000  0.00580000  1.0 0.1810170546
C  C63  1  0.37220000  0.98980000  0.49420000  1.0 0.1810170546
C  C64  1  0.01020000  0.62780000  0.99420000  1.0 0.1810170546
C  C65  1  0.66320000  0.97080000  0.55410000  1.0 -0.0776607689
C  C66  1  0.02920000  0.33680000  0.05410000  1.0 -0.0776607689
C  C67  1  0.33680000  0.02920000  0.44590000  1.0 -0.0776607689
C  C68  1  0.97080000  0.66320000  0.94590000  1.0 -0.0776607689
C  C69  1  0.74730000  0.03030000  0.60030000  1.0 0.1810170546
C  C70  1  0.96970000  0.25270000  0.10030000  1.0 0.1810170546
C  C71  1  0.25270000  0.96970000  0.39970000  1.0 0.1810170546
C  C72  1  0.03030000  0.74730000  0.89970000  1.0 0.1810170546
C  C73  1  0.79310000  0.99670000  0.65060000  1.0 -0.1700956948
C  C74  1  0.00330000  0.20690000  0.15060000  1.0 -0.1700956948
C  C75  1  0.20690000  0.00330000  0.34940000  1.0 -0.1700956948
C  C76  1  0.99670000  0.79310000  0.84940000  1.0 -0.1700956948
C  C77  1  0.86150000  0.06410000  0.68690000  1.0 -0.1700956948
C  C78  1  0.93590000  0.13850000  0.18690000  1.0 -0.1700956948
C  C79  1  0.13850000  0.93590000  0.31310000  1.0 -0.1700956948
C  C80  1  0.06410000  0.86150000  0.81310000  1.0 -0.1700956948
C  C81  1  0.96670000  0.21330000  0.74440000  1.0 0.0893841799
C  C82  1  0.78670000  0.03330000  0.24440000  1.0 0.0893841799
C  C83  1  0.03330000  0.78670000  0.25560000  1.0 0.0893841799
C  C84  1  0.21330000  0.96670000  0.75560000  1.0 0.0893841799
C  C85  1  0.11480000  0.31020000  0.76520000  1.0 -0.1484294474
C  C86  1  0.68980000  0.88520000  0.26520000  1.0 -0.1484294474
C  C87  1  0.88520000  0.68980000  0.23480000  1.0 -0.1484294474
C  C88  1  0.31020000  0.11480000  0.73480000  1.0 -0.1484294474
C  C89  1  0.17040000  0.31140000  0.82030000  1.0 -0.0776607689
C  C90  1  0.68860000  0.82960000  0.32030000  1.0 -0.0776607689
C  C91  1  0.82960000  0.68860000  0.17970000  1.0 -0.0776607689
C  C92  1  0.31140000  0.17040000  0.67970000  1.0 -0.0776607689
C  C93  1  0.08030000  0.21810000  0.85510000  1.0 -0.0293868555
C  C94  1  0.78190000  0.91970000  0.35510000  1.0 -0.0293868555
C  C95  1  0.91970000  0.78190000  0.14490000  1.0 -0.0293868555
C  C96  1  0.21810000  0.08030000  0.64490000  1.0 -0.0293868555
C  C97  1  0.93140000  0.11940000  0.83510000  1.0 -0.1006574671
C  C98  1  0.88060000  0.06860000  0.33510000  1.0 -0.1006574671
C  C99  1  0.06860000  0.88060000  0.16490000  1.0 -0.1006574671
C  C100  1  0.11940000  0.93140000  0.66490000  1.0 -0.1006574671
C  C101  1  0.87680000  0.11820000  0.78050000  1.0 -0.1484294474
C  C102  1  0.88180000  0.12320000  0.28050000  1.0 -0.1484294474
C  C103  1  0.12320000  0.88180000  0.21950000  1.0 -0.1484294474
C  C104  1  0.11820000  0.87680000  0.71950000  1.0 -0.1484294474
C  C105  1  0.14090000  0.22150000  0.91450000  1.0 0.5579641297
C  C106  1  0.77850000  0.85910000  0.41450000  1.0 0.5579641297
C  C107  1  0.85910000  0.77850000  0.08550000  1.0 0.5579641297
C  C108  1  0.22150000  0.14090000  0.58550000  1.0 0.5579641297
C  C109  1  0.91640000  0.55240000  0.54600000  1.0 0.0893841799
C  C110  1  0.44760000  0.08360000  0.04600000  1.0 0.0893841799
C  C111  1  0.08360000  0.44760000  0.45400000  1.0 0.0893841799
C  C112  1  0.55240000  0.91640000  0.95400000  1.0 0.0893841799
C  C113  1  0.06300000  0.69380000  0.56380000  1.0 -0.1374284016
C  C114  1  0.30620000  0.93700000  0.06380000  1.0 -0.1374284016
C  C115  1  0.93700000  0.30620000  0.43620000  1.0 -0.1374284016
C  C116  1  0.69380000  0.06300000  0.93620000  1.0 -0.1374284016
C  C117  1  0.08780000  0.77160000  0.56710000  1.0 -0.1175260131
C  C118  1  0.22840000  0.91220000  0.06710000  1.0 -0.1175260131
C  C119  1  0.91220000  0.22840000  0.43290000  1.0 -0.1175260131
C  C120  1  0.77160000  0.08780000  0.93290000  1.0 -0.1175260131
C  C121  1  0.96520000  0.70740000  0.55270000  1.0 -0.0293868555
C  C122  1  0.29260000  0.03480000  0.05270000  1.0 -0.0293868555
C  C123  1  0.03480000  0.29260000  0.44730000  1.0 -0.0293868555
C  C124  1  0.70740000  0.96520000  0.94730000  1.0 -0.0293868555
C  C125  1  0.81760000  0.56540000  0.53510000  1.0 -0.0728547663
C  C126  1  0.43460000  0.18240000  0.03510000  1.0 -0.0728547663
C  C127  1  0.18240000  0.43460000  0.46490000  1.0 -0.0728547663
C  C128  1  0.56540000  0.81760000  0.96490000  1.0 -0.0728547663
C  C129  1  0.79280000  0.48840000  0.53080000  1.0 -0.1374284016
C  C130  1  0.51160000  0.20720000  0.03080000  1.0 -0.1374284016
C  C131  1  0.20720000  0.51160000  0.46920000  1.0 -0.1374284016
C  C132  1  0.48840000  0.79280000  0.96920000  1.0 -0.1374284016
C  C133  1  0.98720000  0.78700000  0.55630000  1.0 0.5417292848
C  C134  1  0.21300000  0.01280000  0.05630000  1.0 0.5417292848
C  C135  1  0.01280000  0.21300000  0.44370000  1.0 0.5417292848
C  C136  1  0.78700000  0.98720000  0.94370000  1.0 0.5417292848
C  C137  1  0.62370000  0.25610000  0.35280000  1.0 0.0893841799
C  C138  1  0.74390000  0.37630000  0.85280000  1.0 0.0893841799
C  C139  1  0.37630000  0.74390000  0.64720000  1.0 0.0893841799
C  C140  1  0.25610000  0.62370000  0.14720000  1.0 0.0893841799
C  C141  1  0.52920000  0.23400000  0.32700000  1.0 -0.1374284016
C  C142  1  0.76600000  0.47080000  0.82700000  1.0 -0.1374284016
C  C143  1  0.47080000  0.76600000  0.67300000  1.0 -0.1374284016
C  C144  1  0.23400000  0.52920000  0.17300000  1.0 -0.1374284016
C  C145  1  0.48530000  0.24510000  0.27090000  1.0 -0.1006574671
C  C146  1  0.75490000  0.51470000  0.77090000  1.0 -0.1006574671
C  C147  1  0.51470000  0.75490000  0.72910000  1.0 -0.1006574671
C  C148  1  0.24510000  0.48530000  0.22910000  1.0 -0.1006574671
C  C149  1  0.53960000  0.28120000  0.24090000  1.0 -0.0293868555
C  C150  1  0.71880000  0.46040000  0.74090000  1.0 -0.0293868555
C  C151  1  0.46040000  0.71880000  0.75910000  1.0 -0.0293868555
C  C152  1  0.28120000  0.53960000  0.25910000  1.0 -0.0293868555
C  C153  1  0.63210000  0.30170000  0.26590000  1.0 -0.1006574671
C  C154  1  0.69830000  0.36790000  0.76590000  1.0 -0.1006574671
C  C155  1  0.36790000  0.69830000  0.73410000  1.0 -0.1006574671
C  C156  1  0.30170000  0.63210000  0.23410000  1.0 -0.1006574671
C  C157  1  0.67270000  0.28750000  0.32170000  1.0 -0.1374284016
C  C158  1  0.71250000  0.32730000  0.82170000  1.0 -0.1374284016
C  C159  1  0.32730000  0.71250000  0.67830000  1.0 -0.1374284016
C  C160  1  0.28750000  0.67270000  0.17830000  1.0 -0.1374284016
C  C161  1  0.49140000  0.29420000  0.18090000  1.0 0.5417292848
C  C162  1  0.70580000  0.50860000  0.68090000  1.0 0.5417292848
C  C163  1  0.50860000  0.70580000  0.81910000  1.0 0.5417292848
C  C164  1  0.29420000  0.49140000  0.31910000  1.0 0.5417292848
C  C165  1  0.61430000  0.86230000  0.55680000  1.0 0.078955619
C  C166  1  0.13770000  0.38570000  0.05680000  1.0 0.078955619
C  C167  1  0.38570000  0.13770000  0.44320000  1.0 0.078955619
C  C168  1  0.86230000  0.61430000  0.94320000  1.0 0.078955619
C  C169  1  0.67610000  0.90550000  0.52820000  1.0 -0.1484294474
C  C170  1  0.09450000  0.32390000  0.02820000  1.0 -0.1484294474
C  C171  1  0.32390000  0.09450000  0.47180000  1.0 -0.1484294474
C  C172  1  0.90550000  0.67610000  0.97180000  1.0 -0.1484294474
C  C173  1  0.63800000  0.81240000  0.52980000  1.0 -0.0886017062
C  C174  1  0.18760000  0.36200000  0.02980000  1.0 -0.0886017062
C  C175  1  0.36200000  0.18760000  0.47020000  1.0 -0.0886017062
C  C176  1  0.81240000  0.63800000  0.97020000  1.0 -0.0886017062
C  C177  1  0.53180000  0.66720000  0.56200000  1.0 -0.0238174378
C  C178  1  0.33280000  0.46820000  0.06200000  1.0 -0.0238174378
C  C179  1  0.46820000  0.33280000  0.43800000  1.0 -0.0238174378
C  C180  1  0.66720000  0.53180000  0.93800000  1.0 -0.0238174378
C  C181  1  0.46590000  0.61710000  0.59200000  1.0 -0.0886017062
C  C182  1  0.38290000  0.53410000  0.09200000  1.0 -0.0886017062
C  C183  1  0.53410000  0.38290000  0.40800000  1.0 -0.0886017062
C  C184  1  0.61710000  0.46590000  0.90800000  1.0 -0.0886017062
C  C185  1  0.50840000  0.71700000  0.58900000  1.0 -0.1559372895
C  C186  1  0.28300000  0.49160000  0.08900000  1.0 -0.1559372895
C  C187  1  0.49160000  0.28300000  0.41100000  1.0 -0.1559372895
C  C188  1  0.71700000  0.50840000  0.91100000  1.0 -0.1559372895
C  C189  1  0.48890000  0.56610000  0.56230000  1.0 0.5542016014
C  C190  1  0.43390000  0.51110000  0.06230000  1.0 0.5542016014
C  C191  1  0.51110000  0.43390000  0.43770000  1.0 0.5542016014
C  C192  1  0.56610000  0.48890000  0.93770000  1.0 0.5542016014
N  N1  1  0.86645000  0.30855000  0.60405000  1.0 -0.3785306827
N  N2  1  0.69145000  0.13355000  0.10405000  1.0 -0.3785306827
N  N3  1  0.13355000  0.69145000  0.39595000  1.0 -0.3785306827
N  N4  1  0.30855000  0.86645000  0.89595000  1.0 -0.3785306827
N  N5  1  0.78821000  0.33759000  0.49141000  1.0 -0.3621471837
N  N6  1  0.66241000  0.21179000  0.99141000  1.0 -0.3621471837
N  N7  1  0.21179000  0.66241000  0.50859000  1.0 -0.3621471837
N  N8  1  0.33759000  0.78821000  0.00859000  1.0 -0.3621471837
N  N9  1  0.68084000  0.12236000  0.49574000  1.0 -0.3785306827
N  N10  1  0.87764000  0.31916000  0.99574000  1.0 -0.3785306827
N  N11  1  0.31916000  0.87764000  0.50426000  1.0 -0.3785306827
N  N12  1  0.12236000  0.68084000  0.00426000  1.0 -0.3785306827
N  N13  1  0.79437000  0.12383000  0.60677000  1.0 -0.3684866891
N  N14  1  0.87617000  0.20563000  0.10677000  1.0 -0.3684866891
N  N15  1  0.20563000  0.87617000  0.39323000  1.0 -0.3684866891
N  N16  1  0.12383000  0.79437000  0.89323000  1.0 -0.3684866891
O  O1  1  0.26618000  0.29742000  0.93200000  1.0 -0.4597165227
O  O2  1  0.70258000  0.73382000  0.43200000  1.0 -0.4597165227
O  O3  1  0.73382000  0.70258000  0.06800000  1.0 -0.4597165227
O  O4  1  0.29742000  0.26618000  0.56800000  1.0 -0.4597165227
O  O5  1  0.06007000  0.14393000  0.94472000  1.0 -0.6510722802
O  O6  1  0.85607000  0.93993000  0.44472000  1.0 -0.6510722802
O  O7  1  0.93993000  0.85607000  0.05528000  1.0 -0.6510722802
O  O8  1  0.14393000  0.06007000  0.55528000  1.0 -0.6510722802
O  O9  1  0.87780000  0.72060000  0.55340000  1.0 -0.4882165308
O  O10  1  0.27940000  0.12220000  0.05340000  1.0 -0.4882165308
O  O11  1  0.12220000  0.27940000  0.44660000  1.0 -0.4882165308
O  O12  1  0.72060000  0.87780000  0.94660000  1.0 -0.4882165308
O  O13  1  0.13290000  0.93210000  0.56350000  1.0 -0.3785306827
O  O14  1  0.06790000  0.86710000  0.06350000  1.0 -0.3785306827
O  O15  1  0.86710000  0.06790000  0.43650000  1.0 -0.3785306827
O  O16  1  0.93210000  0.13290000  0.93650000  1.0 -0.3785306827
O  O17  1  0.40810000  0.27250000  0.15820000  1.0 -0.4882165308
O  O18  1  0.72750000  0.59190000  0.65820000  1.0 -0.4882165308
O  O19  1  0.59190000  0.72750000  0.84180000  1.0 -0.4882165308
O  O20  1  0.27250000  0.40810000  0.34180000  1.0 -0.4882165308
O  O21  1  0.55670000  0.33850000  0.15560000  1.0 -0.4415846855
O  O22  1  0.66150000  0.44330000  0.65560000  1.0 -0.4415846855
O  O23  1  0.44330000  0.66150000  0.84440000  1.0 -0.4415846855
O  O24  1  0.33850000  0.55670000  0.34440000  1.0 -0.4415846855
O  O25  1  0.54961000  0.61199000  0.53639000  1.0 -0.5387447342
O  O26  1  0.38801000  0.45039000  0.03639000  1.0 -0.5387447342
O  O27  1  0.45039000  0.38801000  0.46361000  1.0 -0.5387447342
O  O28  1  0.61199000  0.54961000  0.96361000  1.0 -0.5387447342
O  O29  1  0.37879000  0.42541000  0.58994000  1.0 -0.4882165308
O  O30  1  0.57459000  0.62121000  0.08994000  1.0 -0.4882165308
O  O31  1  0.62121000  0.57459000  0.41006000  1.0 -0.4882165308
O  O32  1  0.42541000  0.37879000  0.91006000  1.0 -0.4882165308
