# DDEC6 charges by PACMAN v1.1 (https://github.com/mtap-research/PACMAN-charge/)
data_LOJYUH_FSR_pacman
_symmetry_space_group_name_H-M   'P 1'
_cell_length_a   21.58140000
_cell_length_b   21.58140000
_cell_length_c   16.15920000
_cell_angle_alpha   90.00000000
_cell_angle_beta   90.00000000
_cell_angle_gamma   120.00000000
_symmetry_Int_Tables_number   1
_chemical_formula_structural   ZnH12C20(N2O3)2
_chemical_formula_sum   'Zn6 H72 C120 N24 O36'
_cell_volume   6517.93036541
_cell_formula_units_Z   6
loop_
 _symmetry_equiv_pos_site_id
 _symmetry_equiv_pos_as_xyz
  1  'x, y, z'
loop_
 _atom_site_type_symbol
 _atom_site_label
 _atom_site_symmetry_multiplicity
 _atom_site_fract_x
 _atom_site_fract_y
 _atom_site_fract_z
 _atom_site_occupancy
 _atom_site_charge
Zn  Zn1  1  0.50130000  0.00005000  0.65091000  1.0 0.7371176961
Zn  Zn2  1  0.50121000  0.99998000  0.46966000  1.0 0.7886715812
Zn  Zn3  1  0.49875000  0.49870000  0.65091000  1.0 0.7371176961
Zn  Zn4  1  0.49877000  0.49879000  0.46966000  1.0 0.7886715812
Zn  Zn5  1  0.99995000  0.50125000  0.65091000  1.0 0.7371176961
Zn  Zn6  1  0.00002000  0.50123000  0.46966000  1.0 0.7886715812
H  H1  1  0.55420000  0.10390000  0.79070000  1.0 0.0976270981
H  H2  1  0.41790000  0.89950000  0.79240000  1.0 0.0899198177
H  H3  1  0.54270000  0.10870000  0.92980000  1.0 0.0976270981
H  H4  1  0.40620000  0.90170000  0.93190000  1.0 0.0976270981
H  H5  1  0.50980000  0.07580000  0.04430000  1.0 0.0741151753
H  H6  1  0.82260000  0.28680000  0.43670000  1.0 0.1281295352
H  H7  1  0.82290000  0.28530000  0.68330000  1.0 0.1281295352
H  H8  1  0.53460000  0.71220000  0.43620000  1.0 0.1281295352
H  H9  1  0.53640000  0.71310000  0.68420000  1.0 0.1206969043
H  H10  1  0.45660000  0.93090000  0.07790000  1.0 0.079634394
H  H11  1  0.43690000  0.89360000  0.19340000  1.0 0.1206969043
H  H12  1  0.56620000  0.10650000  0.19010000  1.0 0.0899198177
H  H13  1  0.44150000  0.89630000  0.33310000  1.0 0.079634394
H  H14  1  0.56740000  0.10440000  0.33070000  1.0 0.1055504675
H  H15  1  0.58270000  0.10240000  0.79230000  1.0 0.0976270981
H  H16  1  0.58820000  0.10040000  0.93120000  1.0 0.0899198177
H  H17  1  0.45740000  0.89400000  0.92850000  1.0 0.0899198177
H  H18  1  0.45200000  0.89550000  0.78950000  1.0 0.0976270981
H  H19  1  0.46140000  0.94540000  0.03890000  1.0 0.1206969043
H  H20  1  0.51270000  0.05850000  0.07170000  1.0 0.1389609906
H  H21  1  0.50300000  0.90800000  0.33200000  1.0 0.079634394
H  H22  1  0.52650000  0.92070000  0.18840000  1.0 0.1206969043
H  H23  1  0.51020000  0.09880000  0.18970000  1.0 0.0899198177
H  H24  1  0.48750000  0.08610000  0.32990000  1.0 0.1055504675
H  H25  1  0.54970000  0.44580000  0.79070000  1.0 0.0976270981
H  H26  1  0.48160000  0.58210000  0.79240000  1.0 0.0899198177
H  H27  1  0.56600000  0.45730000  0.92980000  1.0 0.0976270981
H  H28  1  0.49550000  0.59380000  0.93190000  1.0 0.0976270981
H  H29  1  0.56600000  0.49020000  0.04430000  1.0 0.0741151753
H  H30  1  0.46420000  0.17740000  0.43670000  1.0 0.1281295352
H  H31  1  0.46240000  0.17710000  0.68330000  1.0 0.1281295352
H  H32  1  0.17760000  0.46540000  0.43620000  1.0 0.1281295352
H  H33  1  0.17670000  0.46360000  0.68420000  1.0 0.1206969043
H  H34  1  0.47430000  0.54340000  0.07790000  1.0 0.079634394
H  H35  1  0.45670000  0.56310000  0.19340000  1.0 0.1206969043
H  H36  1  0.54030000  0.43380000  0.19010000  1.0 0.0899198177
H  H37  1  0.45480000  0.55850000  0.33310000  1.0 0.079634394
H  H38  1  0.53700000  0.43260000  0.33070000  1.0 0.1055504675
H  H39  1  0.51970000  0.41730000  0.79230000  1.0 0.0976270981
H  H40  1  0.51220000  0.41180000  0.93120000  1.0 0.0899198177
H  H41  1  0.43660000  0.54260000  0.92850000  1.0 0.0976270981
H  H42  1  0.44350000  0.54800000  0.78950000  1.0 0.0976270981
H  H43  1  0.48400000  0.53860000  0.03890000  1.0 0.1206969043
H  H44  1  0.54580000  0.48730000  0.07170000  1.0 0.1389609906
H  H45  1  0.40500000  0.49700000  0.33200000  1.0 0.079634394
H  H46  1  0.39420000  0.47350000  0.18840000  1.0 0.1206969043
H  H47  1  0.58860000  0.48980000  0.18970000  1.0 0.0899198177
H  H48  1  0.59860000  0.51250000  0.32990000  1.0 0.1055504675
H  H49  1  0.89610000  0.45030000  0.79070000  1.0 0.0976270981
H  H50  1  0.10050000  0.51840000  0.79240000  1.0 0.0899198177
H  H51  1  0.89130000  0.43400000  0.92980000  1.0 0.0976270981
H  H52  1  0.09830000  0.50450000  0.93190000  1.0 0.0976270981
H  H53  1  0.92420000  0.43400000  0.04430000  1.0 0.0741151753
H  H54  1  0.71320000  0.53580000  0.43670000  1.0 0.1281295352
H  H55  1  0.71470000  0.53760000  0.68330000  1.0 0.1281295352
H  H56  1  0.28780000  0.82240000  0.43620000  1.0 0.1281295352
H  H57  1  0.28690000  0.82330000  0.68420000  1.0 0.1206969043
H  H58  1  0.06910000  0.52570000  0.07790000  1.0 0.079634394
H  H59  1  0.10640000  0.54330000  0.19340000  1.0 0.1206969043
H  H60  1  0.89350000  0.45970000  0.19010000  1.0 0.0899198177
H  H61  1  0.10370000  0.54520000  0.33310000  1.0 0.079634394
H  H62  1  0.89560000  0.46300000  0.33070000  1.0 0.1055504675
H  H63  1  0.89760000  0.48030000  0.79230000  1.0 0.0976270981
H  H64  1  0.89960000  0.48780000  0.93120000  1.0 0.0899198177
H  H65  1  0.10600000  0.56340000  0.92850000  1.0 0.0899198177
H  H66  1  0.10450000  0.55650000  0.78950000  1.0 0.0976270981
H  H67  1  0.05460000  0.51600000  0.03890000  1.0 0.1206969043
H  H68  1  0.94150000  0.45420000  0.07170000  1.0 0.1389609906
H  H69  1  0.09200000  0.59500000  0.33200000  1.0 0.079634394
H  H70  1  0.07930000  0.60580000  0.18840000  1.0 0.1206969043
H  H71  1  0.90120000  0.41140000  0.18970000  1.0 0.0899198177
H  H72  1  0.91390000  0.40140000  0.32990000  1.0 0.1055504675
C  C1  1  0.52280000  0.06100000  0.81950000  1.0 0.0247767842
C  C2  1  0.44480000  0.94370000  0.82050000  1.0 0.0477341769
C  C3  1  0.63180000  0.09990000  0.56100000  1.0 0.6021540048
C  C4  1  0.53100000  0.89970000  0.56300000  1.0 0.6021540048
C  C5  1  0.51610000  0.06400000  0.90240000  1.0 -0.0576851503
C  C6  1  0.43740000  0.94500000  0.90400000  1.0 -0.0779820593
C  C7  1  0.70450000  0.16750000  0.55980000  1.0 -0.1596290302
C  C8  1  0.53680000  0.83220000  0.55970000  1.0 -0.1596290302
C  C9  1  0.47250000  0.00490000  0.94770000  1.0 -0.0327164573
C  C10  1  0.73800000  0.19880000  0.48610000  1.0 0.2179491453
C  C11  1  0.73810000  0.19860000  0.63400000  1.0 0.2137346896
C  C12  1  0.53900000  0.80200000  0.48420000  1.0 0.2179491453
C  C13  1  0.54010000  0.80190000  0.63540000  1.0 0.2179491453
C  C14  1  0.47540000  0.02370000  0.03550000  1.0 0.0313993228
C  C15  1  0.80130000  0.26420000  0.48770000  1.0 -0.1676235129
C  C16  1  0.80110000  0.26320000  0.63230000  1.0 -0.1596290302
C  C17  1  0.53650000  0.73550000  0.48680000  1.0 -0.1519817777
C  C18  1  0.53750000  0.73600000  0.63350000  1.0 -0.1596290302
C  C19  1  0.48920000  0.98310000  0.08870000  1.0 -0.0190874438
C  C20  1  0.83380000  0.29710000  0.55980000  1.0 -0.0190874438
C  C21  1  0.53670000  0.70340000  0.55970000  1.0 -0.0190874438
C  C22  1  0.49940000  0.99720000  0.17510000  1.0 0.0388334364
C  C23  1  0.89830000  0.36910000  0.56260000  1.0 0.5788832786
C  C24  1  0.52830000  0.63100000  0.56060000  1.0 0.5885518872
C  C25  1  0.46460000  0.93830000  0.22050000  1.0 -0.1011306835
C  C26  1  0.53990000  0.06240000  0.21890000  1.0 -0.0715782293
C  C27  1  0.46730000  0.93990000  0.30320000  1.0 0.0976270981
C  C28  1  0.54040000  0.06060000  0.30180000  1.0 0.079634394
C  C29  1  0.55580000  0.05770000  0.81990000  1.0 0.0477341769
C  C30  1  0.55910000  0.05650000  0.90320000  1.0 -0.0779820593
C  C31  1  0.52450000  0.99810000  0.94790000  1.0 -0.0576851503
C  C32  1  0.48440000  0.93850000  0.90090000  1.0 -0.0779820593
C  C33  1  0.48080000  0.93910000  0.81810000  1.0 0.0388334364
C  C34  1  0.51430000  0.97570000  0.03200000  1.0 0.0976270981
C  C35  1  0.53430000  0.02850000  0.08690000  1.0 0.0899198177
C  C36  1  0.50483000  0.94643000  0.30150000  1.0 0.0899198177
C  C37  1  0.51860000  0.95480000  0.21660000  1.0 -0.1011306835
C  C38  1  0.52120000  0.00930000  0.17310000  1.0 0.0388334364
C  C39  1  0.50890000  0.05980000  0.21840000  1.0 -0.0386782355
C  C40  1  0.49560000  0.05290000  0.30010000  1.0 0.079634394
C  C41  1  0.53820000  0.47720000  0.81950000  1.0 0.0247767842
C  C42  1  0.49890000  0.55520000  0.82050000  1.0 0.0477341769
C  C43  1  0.46810000  0.36820000  0.56100000  1.0 0.6021540048
C  C44  1  0.36870000  0.46900000  0.56300000  1.0 0.6021540048
C  C45  1  0.54790000  0.48390000  0.90240000  1.0 -0.0576851503
C  C46  1  0.50760000  0.56260000  0.90400000  1.0 -0.0779820593
C  C47  1  0.46300000  0.29550000  0.55980000  1.0 -0.1596290302
C  C48  1  0.29540000  0.46320000  0.55970000  1.0 -0.1596290302
C  C49  1  0.53240000  0.52750000  0.94770000  1.0 -0.0327164573
C  C50  1  0.46080000  0.26200000  0.48610000  1.0 0.2179491453
C  C51  1  0.46050000  0.26190000  0.63400000  1.0 0.2137346896
C  C52  1  0.26300000  0.46100000  0.48420000  1.0 0.2179491453
C  C53  1  0.26180000  0.45990000  0.63540000  1.0 0.2179491453
C  C54  1  0.54830000  0.52460000  0.03550000  1.0 0.0313993228
C  C55  1  0.46290000  0.19870000  0.48770000  1.0 -0.1676235129
C  C56  1  0.46210000  0.19890000  0.63230000  1.0 -0.1596290302
C  C57  1  0.19900000  0.46350000  0.48680000  1.0 -0.1519817777
C  C58  1  0.19850000  0.46250000  0.63350000  1.0 -0.1596290302
C  C59  1  0.49390000  0.51080000  0.08870000  1.0 -0.0190874438
C  C60  1  0.46330000  0.16620000  0.55980000  1.0 -0.0190874438
C  C61  1  0.16670000  0.46330000  0.55970000  1.0 -0.0190874438
C  C62  1  0.49780000  0.50060000  0.17510000  1.0 0.0388334364
C  C63  1  0.47080000  0.10170000  0.56260000  1.0 0.5788832786
C  C64  1  0.10270000  0.47170000  0.56060000  1.0 0.5885518872
C  C65  1  0.47370000  0.53540000  0.22050000  1.0 -0.0949080927
C  C66  1  0.52250000  0.46010000  0.21890000  1.0 -0.0715782293
C  C67  1  0.47260000  0.53270000  0.30320000  1.0 0.0976270981
C  C68  1  0.52020000  0.45960000  0.30180000  1.0 0.079634394
C  C69  1  0.50190000  0.44420000  0.81990000  1.0 0.0477341769
C  C70  1  0.49740000  0.44090000  0.90320000  1.0 -0.0779820593
C  C71  1  0.47360000  0.47550000  0.94790000  1.0 -0.0576851503
C  C72  1  0.45410000  0.51560000  0.90090000  1.0 -0.0779820593
C  C73  1  0.45830000  0.51920000  0.81810000  1.0 0.0388334364
C  C74  1  0.46140000  0.48570000  0.03200000  1.0 0.0976270981
C  C75  1  0.49420000  0.46570000  0.08690000  1.0 0.0899198177
C  C76  1  0.44160000  0.49517000  0.30150000  1.0 0.0899198177
C  C77  1  0.43620000  0.48140000  0.21660000  1.0 -0.1011306835
C  C78  1  0.48810000  0.47880000  0.17310000  1.0 0.0388334364
C  C79  1  0.55090000  0.49110000  0.21840000  1.0 -0.0386782355
C  C80  1  0.55730000  0.50440000  0.30010000  1.0 0.079634394
C  C81  1  0.93900000  0.46180000  0.81950000  1.0 0.0247767842
C  C82  1  0.05630000  0.50110000  0.82050000  1.0 0.0477341769
C  C83  1  0.90010000  0.53190000  0.56100000  1.0 0.6021540048
C  C84  1  0.10030000  0.63130000  0.56300000  1.0 0.6021540048
C  C85  1  0.93600000  0.45210000  0.90240000  1.0 -0.0576851503
C  C86  1  0.05500000  0.49240000  0.90400000  1.0 -0.0779820593
C  C87  1  0.83250000  0.53700000  0.55980000  1.0 -0.1596290302
C  C88  1  0.16780000  0.70460000  0.55970000  1.0 -0.1596290302
C  C89  1  0.99510000  0.46760000  0.94770000  1.0 -0.0327164573
C  C90  1  0.80120000  0.53920000  0.48610000  1.0 0.2179491453
C  C91  1  0.80140000  0.53950000  0.63400000  1.0 0.2137346896
C  C92  1  0.19800000  0.73700000  0.48420000  1.0 0.2179491453
C  C93  1  0.19810000  0.73820000  0.63540000  1.0 0.2179491453
C  C94  1  0.97630000  0.45170000  0.03550000  1.0 0.0313993228
C  C95  1  0.73580000  0.53710000  0.48770000  1.0 -0.1676235129
C  C96  1  0.73680000  0.53790000  0.63230000  1.0 -0.1596290302
C  C97  1  0.26450000  0.80100000  0.48680000  1.0 -0.1519817777
C  C98  1  0.26400000  0.80150000  0.63350000  1.0 -0.1676235129
C  C99  1  0.01690000  0.50610000  0.08870000  1.0 -0.0190874438
C  C100  1  0.70290000  0.53670000  0.55980000  1.0 -0.0190874438
C  C101  1  0.29660000  0.83330000  0.55970000  1.0 -0.0190874438
C  C102  1  0.00280000  0.50220000  0.17510000  1.0 0.0388334364
C  C103  1  0.63090000  0.52920000  0.56260000  1.0 0.5788832786
C  C104  1  0.36900000  0.89730000  0.56060000  1.0 0.5885518872
C  C105  1  0.06170000  0.52630000  0.22050000  1.0 -0.1011306835
C  C106  1  0.93760000  0.47750000  0.21890000  1.0 -0.0715782293
C  C107  1  0.06010000  0.52740000  0.30320000  1.0 0.0976270981
C  C108  1  0.93940000  0.47980000  0.30180000  1.0 0.079634394
C  C109  1  0.94230000  0.49810000  0.81990000  1.0 0.0477341769
C  C110  1  0.94350000  0.50260000  0.90320000  1.0 -0.0715782293
C  C111  1  0.00190000  0.52640000  0.94790000  1.0 -0.0576851503
C  C112  1  0.06150000  0.54590000  0.90090000  1.0 -0.0779820593
C  C113  1  0.06090000  0.54170000  0.81810000  1.0 0.0388334364
C  C114  1  0.02430000  0.53860000  0.03200000  1.0 0.0976270981
C  C115  1  0.97150000  0.50580000  0.08690000  1.0 0.0899198177
C  C116  1  0.05357000  0.55840000  0.30150000  1.0 0.0899198177
C  C117  1  0.04520000  0.56380000  0.21660000  1.0 -0.1011306835
C  C118  1  0.99070000  0.51190000  0.17310000  1.0 0.0388334364
C  C119  1  0.94020000  0.44910000  0.21840000  1.0 -0.0386782355
C  C120  1  0.94710000  0.44270000  0.30010000  1.0 0.079634394
N  N1  1  0.48750000  0.00090000  0.77700000  1.0 -0.0386782355
N  N2  1  0.50550000  0.00150000  0.34550000  1.0 -0.2100088613
N  N3  1  0.71590000  0.16130000  0.41000000  1.0 -0.2495469369
N  N4  1  0.55130000  0.83600000  0.41020000  1.0 -0.302483759
N  N5  1  0.51690000  0.99970000  0.77500000  1.0 -0.0386782355
N  N6  1  0.49417000  0.99727000  0.33700000  1.0 -0.2100088613
N  N7  1  0.71720000  0.16590000  0.71240000  1.0 -0.3306432483
N  N8  1  0.55300000  0.83480000  0.71000000  1.0 -0.3396447318
N  N9  1  0.51340000  0.51250000  0.77700000  1.0 -0.0386782355
N  N10  1  0.49600000  0.49450000  0.34550000  1.0 -0.2100088613
N  N11  1  0.44540000  0.28410000  0.41000000  1.0 -0.2495469369
N  N12  1  0.28470000  0.44870000  0.41020000  1.0 -0.302483759
N  N13  1  0.48280000  0.48310000  0.77500000  1.0 -0.0386782355
N  N14  1  0.50310000  0.50583000  0.33700000  1.0 -0.2100088613
N  N15  1  0.44870000  0.28280000  0.71240000  1.0 -0.3306432483
N  N16  1  0.28180000  0.44700000  0.71000000  1.0 -0.3396447318
N  N17  1  0.99910000  0.48660000  0.77700000  1.0 -0.0386782355
N  N18  1  0.99850000  0.50400000  0.34550000  1.0 -0.2100088613
N  N19  1  0.83870000  0.55460000  0.41000000  1.0 -0.2495469369
N  N20  1  0.16400000  0.71530000  0.41020000  1.0 -0.302483759
N  N21  1  0.00030000  0.51720000  0.77500000  1.0 -0.0386782355
N  N22  1  0.00273000  0.49690000  0.33700000  1.0 -0.2100088613
N  N23  1  0.83410000  0.55130000  0.71240000  1.0 -0.3306432483
N  N24  1  0.16520000  0.71820000  0.71000000  1.0 -0.3396447318
O  O1  1  0.60250000  0.07660000  0.62900000  1.0 -0.501475167
O  O2  1  0.52530000  0.92320000  0.62980000  1.0 -0.4910406223
O  O3  1  0.92380000  0.39570000  0.62900000  1.0 -0.4910406223
O  O4  1  0.52710000  0.60350000  0.62960000  1.0 -0.5302439051
O  O5  1  0.60170000  0.07730000  0.49160000  1.0 -0.4910406223
O  O6  1  0.52410000  0.92270000  0.49110000  1.0 -0.520169091
O  O7  1  0.92350000  0.39670000  0.49200000  1.0 -0.5302439051
O  O8  1  0.52630000  0.60320000  0.49160000  1.0 -0.5101165888
O  O9  1  0.41220000  0.00750000  0.05900000  1.0 -0.3630022523
O  O10  1  0.55810000  0.00510000  0.06060000  1.0 0.2179491453
O  O11  1  0.54020000  0.93620000  0.05710000  1.0 -0.2181207903
O  O12  1  0.60330000  0.06210000  0.06420000  1.0 -0.1800756124
O  O13  1  0.47410000  0.39750000  0.62900000  1.0 -0.501475167
O  O14  1  0.39790000  0.47470000  0.62980000  1.0 -0.4910406223
O  O15  1  0.47190000  0.07620000  0.62900000  1.0 -0.4910406223
O  O16  1  0.07640000  0.47290000  0.62960000  1.0 -0.5302439051
O  O17  1  0.47560000  0.39830000  0.49160000  1.0 -0.4910406223
O  O18  1  0.39860000  0.47590000  0.49110000  1.0 -0.520169091
O  O19  1  0.47320000  0.07650000  0.49200000  1.0 -0.5302439051
O  O20  1  0.07690000  0.47370000  0.49160000  1.0 -0.5101165888
O  O21  1  0.59530000  0.58780000  0.05900000  1.0 -0.36522032
O  O22  1  0.44700000  0.44190000  0.06060000  1.0 0.2179491453
O  O23  1  0.39600000  0.45980000  0.05710000  1.0 -0.2181207903
O  O24  1  0.45880000  0.39670000  0.06420000  1.0 -0.1800756124
O  O25  1  0.92340000  0.52590000  0.62900000  1.0 -0.501475167
O  O26  1  0.07680000  0.60210000  0.62980000  1.0 -0.4910406223
O  O27  1  0.60430000  0.52810000  0.62900000  1.0 -0.4910406223
O  O28  1  0.39650000  0.92360000  0.62960000  1.0 -0.5302439051
O  O29  1  0.92270000  0.52440000  0.49160000  1.0 -0.4910406223
O  O30  1  0.07730000  0.60140000  0.49110000  1.0 -0.520169091
O  O31  1  0.60330000  0.52680000  0.49200000  1.0 -0.5302439051
O  O32  1  0.39680000  0.92310000  0.49160000  1.0 -0.5101165888
O  O33  1  0.99250000  0.40470000  0.05900000  1.0 -0.36522032
O  O34  1  0.99490000  0.55300000  0.06060000  1.0 0.2179491453
O  O35  1  0.06380000  0.60400000  0.05710000  1.0 -0.2181207903
O  O36  1  0.93790000  0.54120000  0.06420000  1.0 -0.1800756124
