# DDEC6 charges by PACMAN v1.1 (https://github.com/mtap-research/PACMAN-charge/)
data_LOKNOR_ion_pacman
_symmetry_space_group_name_H-M   'P 1'
_cell_length_a   19.38900000
_cell_length_b   19.38900000
_cell_length_c   12.10900000
_cell_angle_alpha   90.00000000
_cell_angle_beta   90.00000000
_cell_angle_gamma   120.00000000
_symmetry_Int_Tables_number   1
_chemical_formula_structural   NaSmH20C10(NO5)2
_chemical_formula_sum   'Na6 Sm6 H120 C60 N12 O60'
_cell_volume   3942.30056425
_cell_formula_units_Z   6
loop_
 _symmetry_equiv_pos_site_id
 _symmetry_equiv_pos_as_xyz
  1  'x, y, z'
loop_
 _atom_site_type_symbol
 _atom_site_label
 _atom_site_symmetry_multiplicity
 _atom_site_fract_x
 _atom_site_fract_y
 _atom_site_fract_z
 _atom_site_occupancy
 _atom_site_charge
Na  Na1  1  0.22300000  0.00000000  0.45760000  1.0 0.246239898
Na  Na2  1  0.77700000  0.77700000  0.45760000  1.0 0.2370963319
Na  Na3  1  0.00000000  0.22300000  0.45760000  1.0 0.2370963319
Na  Na4  1  0.77700000  0.00000000  0.54240000  1.0 0.246239898
Na  Na5  1  0.00000000  0.77700000  0.54240000  1.0 0.2308353309
Na  Na6  1  0.22300000  0.22300000  0.54240000  1.0 0.2370963319
Sm  Sm1  1  0.38781000  0.38781000  0.93901000  1.0 2.1899912928
Sm  Sm2  1  0.00000000  0.61219000  0.93901000  1.0 2.1899912928
Sm  Sm3  1  0.61219000  0.00000000  0.93901000  1.0 2.1899912928
Sm  Sm4  1  0.00000000  0.38781000  0.06099000  1.0 2.1899912928
Sm  Sm5  1  0.61219000  0.61219000  0.06099000  1.0 2.1899912928
Sm  Sm6  1  0.38781000  0.00000000  0.06099000  1.0 2.1899912928
H  H1  1  0.26360000  0.30970000  0.12830000  1.0 0.3790561233
H  H2  1  0.41390000  0.29230000  0.24350000  1.0 0.2078780953
H  H3  1  0.57880000  0.36470000  0.23010000  1.0 0.1317237796
H  H4  1  0.53870000  0.39720000  0.31130000  1.0 0.1317237796
H  H5  1  0.49140000  0.20920000  0.18660000  1.0 0.1317237796
H  H6  1  0.48020000  0.26120000  0.09670000  1.0 0.1407586658
H  H7  1  0.49910000  0.24270000  0.37620000  1.0 0.1198931559
H  H8  1  0.40620000  0.20460000  0.37380000  1.0 0.1198931559
H  H9  1  0.45960000  0.29070000  0.42090000  1.0 0.1198931559
H  H10  1  0.04610000  0.73640000  0.12830000  1.0 0.3790561233
H  H11  1  0.87840000  0.58610000  0.24350000  1.0 0.2078780953
H  H12  1  0.78590000  0.42120000  0.23010000  1.0 0.1317237796
H  H13  1  0.85850000  0.46130000  0.31130000  1.0 0.1317237796
H  H14  1  0.71780000  0.50860000  0.18660000  1.0 0.1317237796
H  H15  1  0.78100000  0.51980000  0.09670000  1.0 0.1407586658
H  H16  1  0.74360000  0.50090000  0.37620000  1.0 0.1198931559
H  H17  1  0.79840000  0.59380000  0.37380000  1.0 0.1198931559
H  H18  1  0.83110000  0.54040000  0.42090000  1.0 0.1198931559
H  H19  1  0.69030000  0.95390000  0.12830000  1.0 0.3790561233
H  H20  1  0.70770000  0.12160000  0.24350000  1.0 0.2078780953
H  H21  1  0.63530000  0.21410000  0.23010000  1.0 0.1317237796
H  H22  1  0.60280000  0.14150000  0.31130000  1.0 0.1317237796
H  H23  1  0.79080000  0.28220000  0.18660000  1.0 0.1317237796
H  H24  1  0.73880000  0.21900000  0.09670000  1.0 0.1407586658
H  H25  1  0.75730000  0.25640000  0.37620000  1.0 0.1198931559
H  H26  1  0.79540000  0.20160000  0.37380000  1.0 0.1198931559
H  H27  1  0.70930000  0.16890000  0.42090000  1.0 0.1198931559
H  H28  1  0.04610000  0.30970000  0.87170000  1.0 0.3790561233
H  H29  1  0.87840000  0.29230000  0.75650000  1.0 0.2078780953
H  H30  1  0.78590000  0.36470000  0.76990000  1.0 0.1317237796
H  H31  1  0.85850000  0.39720000  0.68870000  1.0 0.1317237796
H  H32  1  0.71780000  0.20920000  0.81340000  1.0 0.1317237796
H  H33  1  0.78100000  0.26120000  0.90330000  1.0 0.1407586658
H  H34  1  0.74360000  0.24270000  0.62380000  1.0 0.1198931559
H  H35  1  0.79840000  0.20460000  0.62620000  1.0 0.1198931559
H  H36  1  0.83110000  0.29070000  0.57910000  1.0 0.1198931559
H  H37  1  0.69030000  0.73640000  0.87170000  1.0 0.3790561233
H  H38  1  0.70770000  0.58610000  0.75650000  1.0 0.2078780953
H  H39  1  0.63530000  0.42120000  0.76990000  1.0 0.1317237796
H  H40  1  0.60280000  0.46130000  0.68870000  1.0 0.1317237796
H  H41  1  0.79080000  0.50860000  0.81340000  1.0 0.1317237796
H  H42  1  0.73880000  0.51980000  0.90330000  1.0 0.1407586658
H  H43  1  0.75730000  0.50090000  0.62380000  1.0 0.1198931559
H  H44  1  0.79540000  0.59380000  0.62620000  1.0 0.1198931559
H  H45  1  0.70930000  0.54040000  0.57910000  1.0 0.1198931559
H  H46  1  0.26360000  0.95390000  0.87170000  1.0 0.3790561233
H  H47  1  0.41390000  0.12160000  0.75650000  1.0 0.2078780953
H  H48  1  0.57880000  0.21410000  0.76990000  1.0 0.1317237796
H  H49  1  0.53870000  0.14150000  0.68870000  1.0 0.1317237796
H  H50  1  0.49140000  0.28220000  0.81340000  1.0 0.1317237796
H  H51  1  0.48020000  0.21900000  0.90330000  1.0 0.1407586658
H  H52  1  0.49910000  0.25640000  0.62380000  1.0 0.1198931559
H  H53  1  0.40620000  0.20160000  0.62620000  1.0 0.1198931559
H  H54  1  0.45960000  0.16890000  0.57910000  1.0 0.1198931559
H  H55  1  0.73640000  0.69030000  0.87170000  1.0 0.3790561233
H  H56  1  0.58610000  0.70770000  0.75650000  1.0 0.2078780953
H  H57  1  0.42120000  0.63530000  0.76990000  1.0 0.1317237796
H  H58  1  0.46130000  0.60280000  0.68870000  1.0 0.1317237796
H  H59  1  0.50860000  0.79080000  0.81340000  1.0 0.1317237796
H  H60  1  0.51980000  0.73880000  0.90330000  1.0 0.1407586658
H  H61  1  0.50090000  0.75730000  0.62380000  1.0 0.1198931559
H  H62  1  0.59380000  0.79540000  0.62620000  1.0 0.1198931559
H  H63  1  0.54040000  0.70930000  0.57910000  1.0 0.1198931559
H  H64  1  0.95390000  0.26360000  0.87170000  1.0 0.3790561233
H  H65  1  0.12160000  0.41390000  0.75650000  1.0 0.2078780953
H  H66  1  0.21410000  0.57880000  0.76990000  1.0 0.1317237796
H  H67  1  0.14150000  0.53870000  0.68870000  1.0 0.1317237796
H  H68  1  0.28220000  0.49140000  0.81340000  1.0 0.1317237796
H  H69  1  0.21900000  0.48020000  0.90330000  1.0 0.1407586658
H  H70  1  0.25640000  0.49910000  0.62380000  1.0 0.1198931559
H  H71  1  0.20160000  0.40620000  0.62620000  1.0 0.1198931559
H  H72  1  0.16890000  0.45960000  0.57910000  1.0 0.1198931559
H  H73  1  0.30970000  0.04610000  0.87170000  1.0 0.3790561233
H  H74  1  0.29230000  0.87840000  0.75650000  1.0 0.2078780953
H  H75  1  0.36470000  0.78590000  0.76990000  1.0 0.1317237796
H  H76  1  0.39720000  0.85850000  0.68870000  1.0 0.1317237796
H  H77  1  0.20920000  0.71780000  0.81340000  1.0 0.1317237796
H  H78  1  0.26120000  0.78100000  0.90330000  1.0 0.1407586658
H  H79  1  0.24270000  0.74360000  0.62380000  1.0 0.1198931559
H  H80  1  0.20460000  0.79840000  0.62620000  1.0 0.1198931559
H  H81  1  0.29070000  0.83110000  0.57910000  1.0 0.1198931559
H  H82  1  0.95390000  0.69030000  0.12830000  1.0 0.3790561233
H  H83  1  0.12160000  0.70770000  0.24350000  1.0 0.2078780953
H  H84  1  0.21410000  0.63530000  0.23010000  1.0 0.1317237796
H  H85  1  0.14150000  0.60280000  0.31130000  1.0 0.1317237796
H  H86  1  0.28220000  0.79080000  0.18660000  1.0 0.1317237796
H  H87  1  0.21900000  0.73880000  0.09670000  1.0 0.1407586658
H  H88  1  0.25640000  0.75730000  0.37620000  1.0 0.1198931559
H  H89  1  0.20160000  0.79540000  0.37380000  1.0 0.1198931559
H  H90  1  0.16890000  0.70930000  0.42090000  1.0 0.1198931559
H  H91  1  0.30970000  0.26360000  0.12830000  1.0 0.3790561233
H  H92  1  0.29230000  0.41390000  0.24350000  1.0 0.2078780953
H  H93  1  0.36470000  0.57880000  0.23010000  1.0 0.1317237796
H  H94  1  0.39720000  0.53870000  0.31130000  1.0 0.1317237796
H  H95  1  0.20920000  0.49140000  0.18660000  1.0 0.1317237796
H  H96  1  0.26120000  0.48020000  0.09670000  1.0 0.1407586658
H  H97  1  0.24270000  0.49910000  0.37620000  1.0 0.1198931559
H  H98  1  0.20460000  0.40620000  0.37380000  1.0 0.1198931559
H  H99  1  0.29070000  0.45960000  0.42090000  1.0 0.1198931559
H  H100  1  0.73640000  0.04610000  0.12830000  1.0 0.3790561233
H  H101  1  0.58610000  0.87840000  0.24350000  1.0 0.2078780953
H  H102  1  0.42120000  0.78590000  0.23010000  1.0 0.1317237796
H  H103  1  0.46130000  0.85850000  0.31130000  1.0 0.1317237796
H  H104  1  0.50860000  0.71780000  0.18660000  1.0 0.1317237796
H  H105  1  0.51980000  0.78100000  0.09670000  1.0 0.1407586658
H  H106  1  0.50090000  0.74360000  0.37620000  1.0 0.1198931559
H  H107  1  0.59380000  0.79840000  0.37380000  1.0 0.1198931559
H  H108  1  0.54040000  0.83110000  0.42090000  1.0 0.1198931559
H  H109  1  0.39460000  0.39460000  0.68670000  1.0 0.310845899
H  H110  1  0.32420000  0.32420000  0.70820000  1.0 0.2977045152
H  H111  1  0.00000000  0.60540000  0.68670000  1.0 0.310845899
H  H112  1  0.00000000  0.67580000  0.70820000  1.0 0.2977045152
H  H113  1  0.60540000  0.00000000  0.68670000  1.0 0.310845899
H  H114  1  0.67580000  0.00000000  0.70820000  1.0 0.2977045152
H  H115  1  0.00000000  0.39460000  0.31330000  1.0 0.310845899
H  H116  1  0.00000000  0.32420000  0.29180000  1.0 0.2977045152
H  H117  1  0.60540000  0.60540000  0.31330000  1.0 0.310845899
H  H118  1  0.67580000  0.67580000  0.29180000  1.0 0.2977045152
H  H119  1  0.39460000  0.00000000  0.31330000  1.0 0.310845899
H  H120  1  0.32420000  0.00000000  0.29180000  1.0 0.2977045152
C  C1  1  0.52240000  0.41510000  0.14920000  1.0 0.6595638617
C  C2  1  0.53150000  0.36870000  0.24260000  1.0 -0.2908007181
C  C3  1  0.45880000  0.23190000  0.16480000  1.0 -0.3044840074
C  C4  1  0.37420000  0.16610000  0.14630000  1.0 0.6451282624
C  C5  1  0.45610000  0.25330000  0.36620000  1.0 -0.3921439376
C  C6  1  0.89270000  0.47760000  0.14920000  1.0 0.6595638617
C  C7  1  0.83720000  0.46850000  0.24260000  1.0 -0.2908007181
C  C8  1  0.77310000  0.54120000  0.16480000  1.0 -0.3044840074
C  C9  1  0.79190000  0.62580000  0.14630000  1.0 0.6451282624
C  C10  1  0.79720000  0.54390000  0.36620000  1.0 -0.3921439376
C  C11  1  0.58490000  0.10730000  0.14920000  1.0 0.6595638617
C  C12  1  0.63130000  0.16280000  0.24260000  1.0 -0.2908007181
C  C13  1  0.76810000  0.22690000  0.16480000  1.0 -0.3044840074
C  C14  1  0.83390000  0.20810000  0.14630000  1.0 0.6451282624
C  C15  1  0.74670000  0.20280000  0.36620000  1.0 -0.3921439376
C  C16  1  0.89270000  0.41510000  0.85080000  1.0 0.6595638617
C  C17  1  0.83720000  0.36870000  0.75740000  1.0 -0.2908007181
C  C18  1  0.77310000  0.23190000  0.83520000  1.0 -0.3044840074
C  C19  1  0.79190000  0.16610000  0.85370000  1.0 0.6451282624
C  C20  1  0.79720000  0.25330000  0.63380000  1.0 -0.3921439376
C  C21  1  0.58490000  0.47760000  0.85080000  1.0 0.6595638617
C  C22  1  0.63130000  0.46850000  0.75740000  1.0 -0.2908007181
C  C23  1  0.76810000  0.54120000  0.83520000  1.0 -0.3044840074
C  C24  1  0.83390000  0.62580000  0.85370000  1.0 0.6451282624
C  C25  1  0.74670000  0.54390000  0.63380000  1.0 -0.3921439376
C  C26  1  0.52240000  0.10730000  0.85080000  1.0 0.6595638617
C  C27  1  0.53150000  0.16280000  0.75740000  1.0 -0.2908007181
C  C28  1  0.45880000  0.22690000  0.83520000  1.0 -0.3044840074
C  C29  1  0.37420000  0.20810000  0.85370000  1.0 0.6451282624
C  C30  1  0.45610000  0.20280000  0.63380000  1.0 -0.3921439376
C  C31  1  0.47760000  0.58490000  0.85080000  1.0 0.6595638617
C  C32  1  0.46850000  0.63130000  0.75740000  1.0 -0.2908007181
C  C33  1  0.54120000  0.76810000  0.83520000  1.0 -0.3044840074
C  C34  1  0.62580000  0.83390000  0.85370000  1.0 0.6451282624
C  C35  1  0.54390000  0.74670000  0.63380000  1.0 -0.3921439376
C  C36  1  0.10730000  0.52240000  0.85080000  1.0 0.6595638617
C  C37  1  0.16280000  0.53150000  0.75740000  1.0 -0.2908007181
C  C38  1  0.22690000  0.45880000  0.83520000  1.0 -0.3044840074
C  C39  1  0.20810000  0.37420000  0.85370000  1.0 0.6451282624
C  C40  1  0.20280000  0.45610000  0.63380000  1.0 -0.3921439376
C  C41  1  0.41510000  0.89270000  0.85080000  1.0 0.6595638617
C  C42  1  0.36870000  0.83720000  0.75740000  1.0 -0.2908007181
C  C43  1  0.23190000  0.77310000  0.83520000  1.0 -0.3044840074
C  C44  1  0.16610000  0.79190000  0.85370000  1.0 0.6451282624
C  C45  1  0.25330000  0.79720000  0.63380000  1.0 -0.3921439376
C  C46  1  0.10730000  0.58490000  0.14920000  1.0 0.6595638617
C  C47  1  0.16280000  0.63130000  0.24260000  1.0 -0.2908007181
C  C48  1  0.22690000  0.76810000  0.16480000  1.0 -0.3044840074
C  C49  1  0.20810000  0.83390000  0.14630000  1.0 0.6451282624
C  C50  1  0.20280000  0.74670000  0.36620000  1.0 -0.3921439376
C  C51  1  0.41510000  0.52240000  0.14920000  1.0 0.6595638617
C  C52  1  0.36870000  0.53150000  0.24260000  1.0 -0.2908007181
C  C53  1  0.23190000  0.45880000  0.16480000  1.0 -0.3044840074
C  C54  1  0.16610000  0.37420000  0.14630000  1.0 0.6451282624
C  C55  1  0.25330000  0.45610000  0.36620000  1.0 -0.3921439376
C  C56  1  0.47760000  0.89270000  0.14920000  1.0 0.6595638617
C  C57  1  0.46850000  0.83720000  0.24260000  1.0 -0.2908007181
C  C58  1  0.54120000  0.77310000  0.16480000  1.0 -0.3044840074
C  C59  1  0.62580000  0.79190000  0.14630000  1.0 0.6451282624
C  C60  1  0.54390000  0.79720000  0.36620000  1.0 -0.3921439376
N  N1  1  0.46140000  0.28730000  0.25300000  1.0 0.088382994
N  N2  1  0.82590000  0.53860000  0.25300000  1.0 0.088382994
N  N3  1  0.71270000  0.17410000  0.25300000  1.0 0.088382994
N  N4  1  0.82590000  0.28730000  0.74700000  1.0 0.088382994
N  N5  1  0.71270000  0.53860000  0.74700000  1.0 0.088382994
N  N6  1  0.46140000  0.17410000  0.74700000  1.0 0.088382994
N  N7  1  0.53860000  0.71270000  0.74700000  1.0 0.088382994
N  N8  1  0.17410000  0.46140000  0.74700000  1.0 0.088382994
N  N9  1  0.28730000  0.82590000  0.74700000  1.0 0.088382994
N  N10  1  0.17410000  0.71270000  0.25300000  1.0 0.088382994
N  N11  1  0.28730000  0.46140000  0.25300000  1.0 0.088382994
N  N12  1  0.53860000  0.82590000  0.25300000  1.0 0.088382994
O  O1  1  0.57540000  0.48670000  0.14330000  1.0 -0.7045524345
O  O2  1  0.46380000  0.37930000  0.08880000  1.0 -0.6711804769
O  O3  1  0.31930000  0.17640000  0.17930000  1.0 -0.5476185357
O  O4  1  0.36590000  0.10730000  0.09330000  1.0 -0.6711804769
O  O5  1  0.91130000  0.42460000  0.14330000  1.0 -0.7045524345
O  O6  1  0.91550000  0.53620000  0.08880000  1.0 -0.6711804769
O  O7  1  0.85710000  0.68070000  0.17930000  1.0 -0.5476185357
O  O8  1  0.74140000  0.63410000  0.09330000  1.0 -0.6711804769
O  O9  1  0.51330000  0.08870000  0.14330000  1.0 -0.7045524345
O  O10  1  0.62070000  0.08450000  0.08880000  1.0 -0.6711804769
O  O11  1  0.82360000  0.14290000  0.17930000  1.0 -0.5476185357
O  O12  1  0.89270000  0.25860000  0.09330000  1.0 -0.6711804769
O  O13  1  0.91130000  0.48670000  0.85670000  1.0 -0.7045524345
O  O14  1  0.91550000  0.37930000  0.91120000  1.0 -0.6711804769
O  O15  1  0.85710000  0.17640000  0.82070000  1.0 -0.5476185357
O  O16  1  0.74140000  0.10730000  0.90670000  1.0 -0.6711804769
O  O17  1  0.51330000  0.42460000  0.85670000  1.0 -0.7045524345
O  O18  1  0.62070000  0.53620000  0.91120000  1.0 -0.6711804769
O  O19  1  0.82360000  0.68070000  0.82070000  1.0 -0.5476185357
O  O20  1  0.89270000  0.63410000  0.90670000  1.0 -0.6711804769
O  O21  1  0.57540000  0.08870000  0.85670000  1.0 -0.7045524345
O  O22  1  0.46380000  0.08450000  0.91120000  1.0 -0.6711804769
O  O23  1  0.31930000  0.14290000  0.82070000  1.0 -0.5476185357
O  O24  1  0.36590000  0.25860000  0.90670000  1.0 -0.6711804769
O  O25  1  0.42460000  0.51330000  0.85670000  1.0 -0.7045524345
O  O26  1  0.53620000  0.62070000  0.91120000  1.0 -0.6711804769
O  O27  1  0.68070000  0.82360000  0.82070000  1.0 -0.5476185357
O  O28  1  0.63410000  0.89270000  0.90670000  1.0 -0.6711804769
O  O29  1  0.08870000  0.57540000  0.85670000  1.0 -0.7045524345
O  O30  1  0.08450000  0.46380000  0.91120000  1.0 -0.6711804769
O  O31  1  0.14290000  0.31930000  0.82070000  1.0 -0.5476185357
O  O32  1  0.25860000  0.36590000  0.90670000  1.0 -0.6711804769
O  O33  1  0.48670000  0.91130000  0.85670000  1.0 -0.7045524345
O  O34  1  0.37930000  0.91550000  0.91120000  1.0 -0.6711804769
O  O35  1  0.17640000  0.85710000  0.82070000  1.0 -0.5476185357
O  O36  1  0.10730000  0.74140000  0.90670000  1.0 -0.6711804769
O  O37  1  0.08870000  0.51330000  0.14330000  1.0 -0.7045524345
O  O38  1  0.08450000  0.62070000  0.08880000  1.0 -0.6711804769
O  O39  1  0.14290000  0.82360000  0.17930000  1.0 -0.5476185357
O  O40  1  0.25860000  0.89270000  0.09330000  1.0 -0.6711804769
O  O41  1  0.48670000  0.57540000  0.14330000  1.0 -0.7045524345
O  O42  1  0.37930000  0.46380000  0.08880000  1.0 -0.6711804769
O  O43  1  0.17640000  0.31930000  0.17930000  1.0 -0.5476185357
O  O44  1  0.10730000  0.36590000  0.09330000  1.0 -0.6711804769
O  O45  1  0.42460000  0.91130000  0.14330000  1.0 -0.7045524345
O  O46  1  0.53620000  0.91550000  0.08880000  1.0 -0.6711804769
O  O47  1  0.68070000  0.85710000  0.17930000  1.0 -0.5476185357
O  O48  1  0.63410000  0.74140000  0.09330000  1.0 -0.6711804769
O  O49  1  0.28800000  0.28800000  0.07440000  1.0 -0.8473470833
O  O50  1  0.36410000  0.36410000  0.73730000  1.0 -0.7776117549
O  O51  1  0.00000000  0.71200000  0.07440000  1.0 -0.8473470833
O  O52  1  0.00000000  0.63590000  0.73730000  1.0 -0.7776117549
O  O53  1  0.71200000  0.00000000  0.07440000  1.0 -0.8473470833
O  O54  1  0.63590000  0.00000000  0.73730000  1.0 -0.7776117549
O  O55  1  0.00000000  0.28800000  0.92560000  1.0 -0.8473470833
O  O56  1  0.00000000  0.36410000  0.26270000  1.0 -0.7776117549
O  O57  1  0.71200000  0.71200000  0.92560000  1.0 -0.8473470833
O  O58  1  0.63590000  0.63590000  0.26270000  1.0 -0.7776117549
O  O59  1  0.28800000  0.00000000  0.92560000  1.0 -0.8473470833
O  O60  1  0.36410000  0.00000000  0.26270000  1.0 -0.7776117549
