# DDEC6 charges by PACMAN v1.1 (https://github.com/mtap-research/PACMAN-charge/)
data_LOKPEG_FSR_pacman
_symmetry_space_group_name_H-M   'P 1'
_cell_length_a   8.50823000
_cell_length_b   8.50823000
_cell_length_c   10.04100000
_cell_angle_alpha   55.04750000
_cell_angle_beta   124.95300000
_cell_angle_gamma   114.38400000
_symmetry_Int_Tables_number   1
_chemical_formula_structural   GaPO4
_chemical_formula_sum   'Ga4 P4 O16'
_cell_volume   484.40799854
_cell_formula_units_Z   4
loop_
 _symmetry_equiv_pos_site_id
 _symmetry_equiv_pos_as_xyz
  1  'x, y, z'
loop_
 _atom_site_type_symbol
 _atom_site_label
 _atom_site_symmetry_multiplicity
 _atom_site_fract_x
 _atom_site_fract_y
 _atom_site_fract_z
 _atom_site_occupancy
 _atom_site_charge
Ga  Ga1  1  0.06921000  0.74711000  0.03239000  1.0 1.5556637694
Ga  Ga2  1  0.74711000  0.06921000  0.46761000  1.0 1.5544085552
Ga  Ga3  1  0.93079000  0.25289000  0.96761000  1.0 1.5544085552
Ga  Ga4  1  0.25289000  0.93079000  0.53239000  1.0 1.5556637694
P  P1  1  0.29215000  0.04055000  0.19770000  1.0 1.4694668998
P  P2  1  0.04055000  0.29215000  0.30230000  1.0 1.4694668998
P  P3  1  0.70785000  0.95945000  0.80230000  1.0 1.4694668998
P  P4  1  0.95945000  0.70785000  0.69770000  1.0 1.4694668998
O  O1  1  0.22380000  0.90760000  0.34480000  1.0 -0.7980023274
O  O2  1  0.90760000  0.22380000  0.15520000  1.0 -0.7980023274
O  O3  1  0.77620000  0.09240000  0.65520000  1.0 -0.7980023274
O  O4  1  0.09240000  0.77620000  0.84480000  1.0 -0.7980023274
O  O5  1  0.50380000  0.12460000  0.27060000  1.0 -0.7322535465
O  O6  1  0.12460000  0.50380000  0.22940000  1.0 -0.7322535465
O  O7  1  0.49620000  0.87540000  0.72940000  1.0 -0.7322535465
O  O8  1  0.87540000  0.49620000  0.77060000  1.0 -0.7322535465
O  O9  1  0.26490000  0.92830000  0.10880000  1.0 -0.7228482018
O  O10  1  0.92830000  0.26490000  0.39120000  1.0 -0.7228482018
O  O11  1  0.73510000  0.07170000  0.89120000  1.0 -0.7228482018
O  O12  1  0.07170000  0.73510000  0.60880000  1.0 -0.7228482018
O  O13  1  0.18000000  0.21640000  0.05250000  1.0 -0.7713989864
O  O14  1  0.21640000  0.18000000  0.44750000  1.0 -0.7713989864
O  O15  1  0.82000000  0.78360000  0.94750000  1.0 -0.7713989864
O  O16  1  0.78360000  0.82000000  0.55250000  1.0 -0.7713989864
