# DDEC6 charges by PACMAN v1.1 (https://github.com/mtap-research/PACMAN-charge/)
data_LOMLUW_FSR_pacman
_symmetry_space_group_name_H-M   'P 1'
_cell_length_a   11.24620000
_cell_length_b   11.24620000
_cell_length_c   11.24620000
_cell_angle_alpha   105.02700000
_cell_angle_beta   105.02700000
_cell_angle_gamma   105.02700000
_symmetry_Int_Tables_number   1
_chemical_formula_structural   GaPHO3F2
_chemical_formula_sum   'Ga6 P6 H6 O18 F12'
_cell_volume   1242.83659293
_cell_formula_units_Z   6
loop_
 _symmetry_equiv_pos_site_id
 _symmetry_equiv_pos_as_xyz
  1  'x, y, z'
loop_
 _atom_site_type_symbol
 _atom_site_label
 _atom_site_symmetry_multiplicity
 _atom_site_fract_x
 _atom_site_fract_y
 _atom_site_fract_z
 _atom_site_occupancy
 _atom_site_charge
Ga  Ga1  1  0.35239000  0.46085000  0.94482000  1.0 1.4134884267
Ga  Ga2  1  0.46085000  0.94482000  0.35239000  1.0 1.4134884267
Ga  Ga3  1  0.94482000  0.35239000  0.46085000  1.0 1.4134884267
Ga  Ga4  1  0.64761000  0.53915000  0.05518000  1.0 1.4134884267
Ga  Ga5  1  0.53915000  0.05518000  0.64761000  1.0 1.4134884267
Ga  Ga6  1  0.05518000  0.64761000  0.53915000  1.0 1.415539947
P  P1  1  0.50775000  0.69122000  0.21366000  1.0 1.372612503
P  P2  1  0.69122000  0.21366000  0.50775000  1.0 1.372612503
P  P3  1  0.21366000  0.50775000  0.69122000  1.0 1.372612503
P  P4  1  0.49225000  0.30878000  0.78634000  1.0 1.372612503
P  P5  1  0.30878000  0.78634000  0.49225000  1.0 1.372612503
P  P6  1  0.78634000  0.49225000  0.30878000  1.0 1.372612503
H  H1  1  0.49800000  0.65900000  0.32700000  1.0 -0.0703647217
H  H2  1  0.65900000  0.32700000  0.49800000  1.0 -0.0703647217
H  H3  1  0.32700000  0.49800000  0.65900000  1.0 -0.0703647217
H  H4  1  0.50200000  0.34100000  0.67300000  1.0 -0.0703647217
H  H5  1  0.34100000  0.67300000  0.50200000  1.0 -0.0703647217
H  H6  1  0.67300000  0.50200000  0.34100000  1.0 -0.0703647217
O  O1  1  0.37970000  0.60360000  0.10110000  1.0 -0.6493493052
O  O2  1  0.60360000  0.10110000  0.37970000  1.0 -0.6431116791
O  O3  1  0.10110000  0.37970000  0.60360000  1.0 -0.6431116791
O  O4  1  0.62030000  0.39640000  0.89890000  1.0 -0.6431116791
O  O5  1  0.39640000  0.89890000  0.62030000  1.0 -0.6431116791
O  O6  1  0.89890000  0.62030000  0.39640000  1.0 -0.6431116791
O  O7  1  0.52460000  0.83610000  0.24270000  1.0 -0.5873291583
O  O8  1  0.83610000  0.24270000  0.52460000  1.0 -0.5873291583
O  O9  1  0.24270000  0.52460000  0.83610000  1.0 -0.5824529858
O  O10  1  0.47540000  0.16390000  0.75730000  1.0 -0.5873291583
O  O11  1  0.16390000  0.75730000  0.47540000  1.0 -0.5873291583
O  O12  1  0.75730000  0.47540000  0.16390000  1.0 -0.5873291583
O  O13  1  0.63200000  0.67210000  0.19490000  1.0 -0.6293751827
O  O14  1  0.67210000  0.19490000  0.63200000  1.0 -0.6293751827
O  O15  1  0.19490000  0.63200000  0.67210000  1.0 -0.6293751827
O  O16  1  0.36800000  0.32790000  0.80510000  1.0 -0.6293751827
O  O17  1  0.32790000  0.80510000  0.36800000  1.0 -0.6293751827
O  O18  1  0.80510000  0.36800000  0.32790000  1.0 -0.6293751827
F  F1  1  0.48573000  0.41915000  0.06210000  1.0 -0.5199509473
F  F2  1  0.41915000  0.06210000  0.48573000  1.0 -0.5199509473
F  F3  1  0.06210000  0.48573000  0.41915000  1.0 -0.5199509473
F  F4  1  0.51427000  0.58085000  0.93790000  1.0 -0.5199509473
F  F5  1  0.58085000  0.93790000  0.51427000  1.0 -0.5199509473
F  F6  1  0.93790000  0.51427000  0.58085000  1.0 -0.5145244331
F  F7  1  0.21245000  0.34416000  0.96019000  1.0 -0.3391146542
F  F8  1  0.34416000  0.96019000  0.21245000  1.0 -0.3391146542
F  F9  1  0.96019000  0.21245000  0.34416000  1.0 -0.3327367039
F  F10  1  0.78755000  0.65584000  0.03981000  1.0 -0.3391146542
F  F11  1  0.65584000  0.03981000  0.78755000  1.0 -0.3391146542
F  F12  1  0.03981000  0.78755000  0.65584000  1.0 -0.3327367039
