# DDEC6 charges by PACMAN v1.1 (https://github.com/mtap-research/PACMAN-charge/)
data_LOMLUV_FSR_pacman
_symmetry_space_group_name_H-M   'P 1'
_cell_length_a   11.31840000
_cell_length_b   11.01590000
_cell_length_c   21.46420000
_cell_angle_alpha   90.00000000
_cell_angle_beta   119.21900000
_cell_angle_gamma   90.00000000
_symmetry_Int_Tables_number   1
_chemical_formula_structural   Ga2P3H5O11
_chemical_formula_sum   'Ga16 P24 H40 O88'
_cell_volume   2335.68723267
_cell_formula_units_Z   8
loop_
 _symmetry_equiv_pos_site_id
 _symmetry_equiv_pos_as_xyz
  1  'x, y, z'
loop_
 _atom_site_type_symbol
 _atom_site_label
 _atom_site_symmetry_multiplicity
 _atom_site_fract_x
 _atom_site_fract_y
 _atom_site_fract_z
 _atom_site_occupancy
 _atom_site_charge
Ga  Ga1  1  0.96453000  0.94938000  0.70727000  1.0 1.5020014192
Ga  Ga2  1  0.03547000  0.44938000  0.79273000  1.0 1.5020014192
Ga  Ga3  1  0.03547000  0.05062000  0.29273000  1.0 1.5020014192
Ga  Ga4  1  0.96453000  0.55062000  0.20727000  1.0 1.5020014192
Ga  Ga5  1  0.17363000  0.90580000  0.89176000  1.0 1.5020014192
Ga  Ga6  1  0.82637000  0.40580000  0.60824000  1.0 1.5020014192
Ga  Ga7  1  0.82637000  0.09420000  0.10824000  1.0 1.5020014192
Ga  Ga8  1  0.17363000  0.59420000  0.39176000  1.0 1.5020014192
Ga  Ga9  1  0.45157000  0.07338000  0.20768000  1.0 1.4940809453
Ga  Ga10  1  0.54843000  0.57338000  0.29232000  1.0 1.4940809453
Ga  Ga11  1  0.54843000  0.92662000  0.79232000  1.0 1.4940809453
Ga  Ga12  1  0.45157000  0.42662000  0.70768000  1.0 1.4940809453
Ga  Ga13  1  0.60657000  0.12080000  0.39253000  1.0 1.4704398359
Ga  Ga14  1  0.39343000  0.62080000  0.10747000  1.0 1.4704398359
Ga  Ga15  1  0.39343000  0.87920000  0.60747000  1.0 1.4704398359
Ga  Ga16  1  0.60657000  0.37920000  0.89253000  1.0 1.4704398359
P  P1  1  0.85524000  0.97096000  0.81720000  1.0 1.1610306943
P  P2  1  0.14476000  0.47096000  0.68280000  1.0 1.1610306943
P  P3  1  0.14476000  0.02904000  0.18280000  1.0 1.1610306943
P  P4  1  0.85524000  0.52904000  0.31720000  1.0 1.1610306943
P  P5  1  0.13790000  0.16643000  0.81330000  1.0 1.3924080575
P  P6  1  0.86210000  0.66643000  0.68670000  1.0 1.3924080575
P  P7  1  0.86210000  0.83357000  0.18670000  1.0 1.3924080575
P  P8  1  0.13790000  0.33357000  0.31330000  1.0 1.3924080575
P  P9  1  0.75803000  0.11854000  0.56599000  1.0 1.2166296984
P  P10  1  0.24197000  0.61854000  0.93401000  1.0 1.2166296984
P  P11  1  0.24197000  0.88146000  0.43401000  1.0 1.2166296984
P  P12  1  0.75803000  0.38146000  0.06599000  1.0 1.2166296984
P  P13  1  0.33099000  0.90919000  0.06877000  1.0 1.2808921779
P  P14  1  0.66901000  0.40919000  0.43123000  1.0 1.2808921779
P  P15  1  0.66901000  0.09081000  0.93123000  1.0 1.2808921779
P  P16  1  0.33099000  0.59081000  0.56877000  1.0 1.2808921779
P  P17  1  0.77489000  0.12111000  0.30877000  1.0 1.153834566
P  P18  1  0.22511000  0.62111000  0.19123000  1.0 1.153834566
P  P19  1  0.22511000  0.87889000  0.69123000  1.0 1.153834566
P  P20  1  0.77489000  0.37889000  0.80877000  1.0 1.153834566
P  P21  1  0.49755000  0.86079000  0.31785000  1.0 1.3098344053
P  P22  1  0.50245000  0.36079000  0.18215000  1.0 1.3098344053
P  P23  1  0.50245000  0.13921000  0.68215000  1.0 1.3098344053
P  P24  1  0.49755000  0.63921000  0.81785000  1.0 1.3098344053
H  H1  1  0.84800000  0.08400000  0.82000000  1.0 -0.067823621
H  H2  1  0.15200000  0.58400000  0.68000000  1.0 -0.067823621
H  H3  1  0.15200000  0.91600000  0.18000000  1.0 -0.067823621
H  H4  1  0.84800000  0.41600000  0.32000000  1.0 -0.067823621
H  H5  1  0.25700000  0.18300000  0.80100000  1.0 -0.0830004407
H  H6  1  0.74300000  0.68300000  0.69900000  1.0 -0.0830004407
H  H7  1  0.74300000  0.81700000  0.19900000  1.0 -0.0830004407
H  H8  1  0.25700000  0.31700000  0.30100000  1.0 -0.0830004407
H  H9  1  0.64500000  0.13500000  0.56900000  1.0 -0.0909777662
H  H10  1  0.35500000  0.63500000  0.93100000  1.0 -0.0909777662
H  H11  1  0.35500000  0.86500000  0.43100000  1.0 -0.0909777662
H  H12  1  0.64500000  0.36500000  0.06900000  1.0 -0.0909777662
H  H13  1  0.22400000  0.89300000  0.08300000  1.0 -0.0909777662
H  H14  1  0.77600000  0.39300000  0.41700000  1.0 -0.0909777662
H  H15  1  0.77600000  0.10700000  0.91700000  1.0 -0.0909777662
H  H16  1  0.22400000  0.60700000  0.58300000  1.0 -0.0909777662
H  H17  1  0.80400000  0.22500000  0.29900000  1.0 -0.067823621
H  H18  1  0.19600000  0.72500000  0.20100000  1.0 -0.067823621
H  H19  1  0.19600000  0.77500000  0.70100000  1.0 -0.067823621
H  H20  1  0.80400000  0.27500000  0.79900000  1.0 -0.067823621
H  H21  1  0.36800000  0.84700000  0.31600000  1.0 -0.1093764496
H  H22  1  0.63200000  0.34700000  0.18400000  1.0 -0.1093764496
H  H23  1  0.63200000  0.15300000  0.68400000  1.0 -0.1093764496
H  H24  1  0.36800000  0.65300000  0.81600000  1.0 -0.1093764496
H  H25  1  0.09800000  0.79120000  0.78900000  1.0 0.3999435077
H  H26  1  0.90200000  0.29120000  0.71100000  1.0 0.3999435077
H  H27  1  0.90200000  0.20880000  0.21100000  1.0 0.3999435077
H  H28  1  0.09800000  0.70880000  0.28900000  1.0 0.3999435077
H  H29  1  0.34900000  0.90200000  0.85700000  1.0 0.3812287929
H  H30  1  0.65100000  0.40200000  0.64300000  1.0 0.3812287929
H  H31  1  0.65100000  0.09800000  0.14300000  1.0 0.3812287929
H  H32  1  0.34900000  0.59800000  0.35700000  1.0 0.3812287929
H  H33  1  0.43200000  0.88800000  0.92600000  1.0 0.3812287929
H  H34  1  0.56800000  0.38800000  0.57400000  1.0 0.3812287929
H  H35  1  0.56800000  0.11200000  0.07400000  1.0 0.3812287929
H  H36  1  0.43200000  0.61200000  0.42600000  1.0 0.3812287929
H  H37  1  0.46600000  0.22800000  0.29500000  1.0 0.4058637912
H  H38  1  0.53400000  0.72800000  0.20500000  1.0 0.4058637912
H  H39  1  0.53400000  0.77200000  0.70500000  1.0 0.4058637912
H  H40  1  0.46600000  0.27200000  0.79500000  1.0 0.4058637912
O  O1  1  0.10091000  0.86640000  0.79171000  1.0 -0.8480609065
O  O2  1  0.89909000  0.36640000  0.70829000  1.0 -0.8480609065
O  O3  1  0.89909000  0.13360000  0.20829000  1.0 -0.8480609065
O  O4  1  0.10091000  0.63360000  0.29171000  1.0 -0.8480609065
O  O5  1  0.83210000  0.94600000  0.74210000  1.0 -0.6479639863
O  O6  1  0.16790000  0.44600000  0.75790000  1.0 -0.6479639863
O  O7  1  0.16790000  0.05400000  0.25790000  1.0 -0.6479639863
O  O8  1  0.83210000  0.55400000  0.24210000  1.0 -0.6479639863
O  O9  1  0.01976000  0.11580000  0.74566000  1.0 -0.7406864917
O  O10  1  0.98024000  0.61580000  0.75434000  1.0 -0.7406864917
O  O11  1  0.98024000  0.88420000  0.25434000  1.0 -0.7406864917
O  O12  1  0.01976000  0.38420000  0.24566000  1.0 -0.7406864917
O  O13  1  0.82869000  0.01510000  0.61659000  1.0 -0.5803416824
O  O14  1  0.17131000  0.51510000  0.88341000  1.0 -0.5803416824
O  O15  1  0.17131000  0.98490000  0.38341000  1.0 -0.5803416824
O  O16  1  0.82869000  0.48490000  0.11659000  1.0 -0.5803416824
O  O17  1  0.10410000  0.28540000  0.83670000  1.0 -0.6795195992
O  O18  1  0.89590000  0.78540000  0.66330000  1.0 -0.6795195992
O  O19  1  0.89590000  0.71460000  0.16330000  1.0 -0.6795195992
O  O20  1  0.10410000  0.21460000  0.33670000  1.0 -0.6795195992
O  O21  1  0.90110000  0.04500000  0.32830000  1.0 -0.6307876364
O  O22  1  0.09890000  0.54500000  0.17170000  1.0 -0.6307876364
O  O23  1  0.09890000  0.95500000  0.67170000  1.0 -0.6307876364
O  O24  1  0.90110000  0.45500000  0.82830000  1.0 -0.6307876364
O  O25  1  0.99094000  0.92490000  0.87694000  1.0 -0.6601652657
O  O26  1  0.00906000  0.42490000  0.62306000  1.0 -0.6601652657
O  O27  1  0.00906000  0.07510000  0.12306000  1.0 -0.6601652657
O  O28  1  0.99094000  0.57510000  0.37694000  1.0 -0.6601652657
O  O29  1  0.19090000  0.07640000  0.87420000  1.0 -0.7172928458
O  O30  1  0.80910000  0.57640000  0.62580000  1.0 -0.7172928458
O  O31  1  0.80910000  0.92360000  0.12580000  1.0 -0.7172928458
O  O32  1  0.19090000  0.42360000  0.37420000  1.0 -0.7172928458
O  O33  1  0.26983000  0.95010000  0.99163000  1.0 -0.6907166198
O  O34  1  0.73017000  0.45010000  0.50837000  1.0 -0.6907166198
O  O35  1  0.73017000  0.04990000  0.00837000  1.0 -0.6907166198
O  O36  1  0.26983000  0.54990000  0.49163000  1.0 -0.6907166198
O  O37  1  0.83932000  0.23490000  0.58592000  1.0 -0.6795195992
O  O38  1  0.16068000  0.73490000  0.91408000  1.0 -0.6795195992
O  O39  1  0.16068000  0.76510000  0.41408000  1.0 -0.6795195992
O  O40  1  0.83932000  0.26510000  0.08592000  1.0 -0.6795195992
O  O41  1  0.35327000  0.87450000  0.89467000  1.0 -0.6307876364
O  O42  1  0.64673000  0.37450000  0.60533000  1.0 -0.6307876364
O  O43  1  0.64673000  0.12550000  0.10533000  1.0 -0.6307876364
O  O44  1  0.35327000  0.62550000  0.39467000  1.0 -0.6307876364
O  O45  1  0.47704000  0.15210000  0.29484000  1.0 -0.8041499561
O  O46  1  0.52296000  0.65210000  0.20516000  1.0 -0.8041499561
O  O47  1  0.52296000  0.84790000  0.70516000  1.0 -0.8041499561
O  O48  1  0.47704000  0.34790000  0.79484000  1.0 -0.8041499561
O  O49  1  0.74523000  0.91760000  0.82963000  1.0 -0.636895374
O  O50  1  0.25477000  0.41760000  0.67037000  1.0 -0.636895374
O  O51  1  0.25477000  0.08240000  0.17037000  1.0 -0.636895374
O  O52  1  0.74523000  0.58240000  0.32963000  1.0 -0.636895374
O  O53  1  0.65065000  0.07250000  0.24335000  1.0 -0.6990588036
O  O54  1  0.34935000  0.57250000  0.25665000  1.0 -0.6990588036
O  O55  1  0.34935000  0.92750000  0.75665000  1.0 -0.6990588036
O  O56  1  0.65065000  0.42750000  0.74335000  1.0 -0.6990588036
O  O57  1  0.56806000  0.73880000  0.33446000  1.0 -0.6907166198
O  O58  1  0.43194000  0.23880000  0.16554000  1.0 -0.6907166198
O  O59  1  0.43194000  0.26120000  0.66554000  1.0 -0.6907166198
O  O60  1  0.56806000  0.76120000  0.83446000  1.0 -0.6907166198
O  O61  1  0.42370000  0.00780000  0.11750000  1.0 -0.6795195992
O  O62  1  0.57630000  0.50780000  0.38250000  1.0 -0.6795195992
O  O63  1  0.57630000  0.99220000  0.88250000  1.0 -0.6795195992
O  O64  1  0.42370000  0.49220000  0.61750000  1.0 -0.6795195992
O  O65  1  0.45933000  0.90780000  0.24403000  1.0 -0.7316927468
O  O66  1  0.54067000  0.40780000  0.25597000  1.0 -0.7316927468
O  O67  1  0.54067000  0.09220000  0.75597000  1.0 -0.7316927468
O  O68  1  0.45933000  0.59220000  0.74403000  1.0 -0.7316927468
O  O69  1  0.75750000  0.13460000  0.37470000  1.0 -0.6729214346
O  O70  1  0.24250000  0.63460000  0.12530000  1.0 -0.6729214346
O  O71  1  0.24250000  0.86540000  0.62530000  1.0 -0.6729214346
O  O72  1  0.75750000  0.36540000  0.87470000  1.0 -0.6729214346
O  O73  1  0.72065000  0.07440000  0.49105000  1.0 -0.6307876364
O  O74  1  0.27935000  0.57440000  0.00895000  1.0 -0.6307876364
O  O75  1  0.27935000  0.92560000  0.50895000  1.0 -0.6307876364
O  O76  1  0.72065000  0.42560000  0.99105000  1.0 -0.6307876364
O  O77  1  0.40424000  0.78790000  0.08094000  1.0 -0.6990588036
O  O78  1  0.59576000  0.28790000  0.41906000  1.0 -0.6990588036
O  O79  1  0.59576000  0.21210000  0.91906000  1.0 -0.6907166198
O  O80  1  0.40424000  0.71210000  0.58094000  1.0 -0.6990588036
O  O81  1  0.58692000  0.94720000  0.37712000  1.0 -0.6601652657
O  O82  1  0.41308000  0.44720000  0.12288000  1.0 -0.6601652657
O  O83  1  0.41308000  0.05280000  0.62288000  1.0 -0.6601652657
O  O84  1  0.58692000  0.55280000  0.87712000  1.0 -0.6601652657
O  O85  1  0.42840000  0.10180000  0.40530000  1.0 -0.1316963489
O  O86  1  0.57160000  0.60180000  0.09470000  1.0 -0.1316963489
O  O87  1  0.57160000  0.89820000  0.59470000  1.0 -0.1316963489
O  O88  1  0.42840000  0.39820000  0.90530000  1.0 -0.1357728546
