# DDEC6 charges by PACMAN v1.1 (https://github.com/mtap-research/PACMAN-charge/)
data_LORKEK_ASR_pacman
_symmetry_space_group_name_H-M   'P 1'
_cell_length_a   10.06300000
_cell_length_b   16.83730000
_cell_length_c   13.49500000
_cell_angle_alpha   90.00000000
_cell_angle_beta   114.72700000
_cell_angle_gamma   90.00000000
_symmetry_Int_Tables_number   1
_chemical_formula_structural   BaCdH8(C2O)8
_chemical_formula_sum   'Ba4 Cd4 H32 C64 O32'
_cell_volume   2076.86115031
_cell_formula_units_Z   4
loop_
 _symmetry_equiv_pos_site_id
 _symmetry_equiv_pos_as_xyz
  1  'x, y, z'
loop_
 _atom_site_type_symbol
 _atom_site_label
 _atom_site_symmetry_multiplicity
 _atom_site_fract_x
 _atom_site_fract_y
 _atom_site_fract_z
 _atom_site_occupancy
 _atom_site_charge
Ba  Ba1  1  0.18653000  0.29114000  0.71135000  1.0 1.5058825969
Ba  Ba2  1  0.81347000  0.79114000  0.78865000  1.0 1.5058825969
Ba  Ba3  1  0.81347000  0.70886000  0.28865000  1.0 1.5058825969
Ba  Ba4  1  0.18653000  0.20886000  0.21135000  1.0 1.5058825969
Cd  Cd1  1  0.03019000  0.29895000  0.40004000  1.0 0.9302555382
Cd  Cd2  1  0.96981000  0.79895000  0.09996000  1.0 0.9302555382
Cd  Cd3  1  0.96981000  0.70105000  0.59996000  1.0 0.9302555382
Cd  Cd4  1  0.03019000  0.20105000  0.90004000  1.0 0.9302555382
H  H1  1  0.86040000  0.44540000  0.61950000  1.0 0.1196747357
H  H2  1  0.13960000  0.94540000  0.88050000  1.0 0.1196747357
H  H3  1  0.13960000  0.55460000  0.38050000  1.0 0.1196747357
H  H4  1  0.86040000  0.05460000  0.11950000  1.0 0.1196747357
H  H5  1  0.81010000  0.33770000  0.99890000  1.0 0.1196747357
H  H6  1  0.18990000  0.83770000  0.50110000  1.0 0.1196747357
H  H7  1  0.18990000  0.66230000  0.00110000  1.0 0.1196747357
H  H8  1  0.81010000  0.16230000  0.49890000  1.0 0.1196747357
H  H9  1  0.53610000  0.30290000  0.42340000  1.0 0.1196747357
H  H10  1  0.46390000  0.80290000  0.07660000  1.0 0.1196747357
H  H11  1  0.46390000  0.69710000  0.57660000  1.0 0.1196747357
H  H12  1  0.53610000  0.19710000  0.92340000  1.0 0.1196747357
H  H13  1  0.46880000  0.45270000  0.62900000  1.0 0.1117426157
H  H14  1  0.53120000  0.95270000  0.87100000  1.0 0.1117426157
H  H15  1  0.53120000  0.54730000  0.37100000  1.0 0.1117426157
H  H16  1  0.46880000  0.04730000  0.12900000  1.0 0.1117426157
H  H17  1  0.75650000  0.55210000  0.85830000  1.0 0.1117426157
H  H18  1  0.24350000  0.05210000  0.64170000  1.0 0.1117426157
H  H19  1  0.24350000  0.44790000  0.14170000  1.0 0.1117426157
H  H20  1  0.75650000  0.94790000  0.35830000  1.0 0.1117426157
H  H21  1  0.94350000  0.53220000  0.18310000  1.0 0.1117426157
H  H22  1  0.05650000  0.03220000  0.31690000  1.0 0.1117426157
H  H23  1  0.05650000  0.46780000  0.81690000  1.0 0.1117426157
H  H24  1  0.94350000  0.96780000  0.68310000  1.0 0.1117426157
H  H25  1  0.70120000  0.50300000  0.68040000  1.0 0.1117426157
H  H26  1  0.29880000  0.00300000  0.81960000  1.0 0.1117426157
H  H27  1  0.29880000  0.49700000  0.31960000  1.0 0.1117426157
H  H28  1  0.70120000  0.99700000  0.18040000  1.0 0.1117426157
H  H29  1  0.72710000  0.41570000  0.84510000  1.0 0.1117426157
H  H30  1  0.27290000  0.91570000  0.65490000  1.0 0.1117426157
H  H31  1  0.27290000  0.58430000  0.15490000  1.0 0.1117426157
H  H32  1  0.72710000  0.08430000  0.34510000  1.0 0.1117426157
C  C1  1  0.47880000  0.37380000  0.51910000  1.0 -0.0397188539
C  C2  1  0.52120000  0.87380000  0.98090000  1.0 -0.0397188539
C  C3  1  0.52120000  0.62620000  0.48090000  1.0 -0.0397188539
C  C4  1  0.47880000  0.12620000  0.01910000  1.0 -0.0397188539
C  C5  1  0.32340000  0.34600000  0.47540000  1.0 0.5881256222
C  C6  1  0.67660000  0.84600000  0.02460000  1.0 0.5881256222
C  C7  1  0.67660000  0.65400000  0.52460000  1.0 0.5881256222
C  C8  1  0.32340000  0.15400000  0.97540000  1.0 0.5881256222
C  C9  1  0.76430000  0.42770000  0.59360000  1.0 -0.1004076471
C  C10  1  0.23570000  0.92770000  0.90640000  1.0 -0.1004076471
C  C11  1  0.23570000  0.57230000  0.40640000  1.0 -0.1004076471
C  C12  1  0.76430000  0.07230000  0.09360000  1.0 -0.1004076471
C  C13  1  0.82000000  0.39260000  0.00520000  1.0 -0.0910220609
C  C14  1  0.18000000  0.89260000  0.49480000  1.0 -0.0910220609
C  C15  1  0.18000000  0.60740000  0.99480000  1.0 -0.0910220609
C  C16  1  0.82000000  0.10740000  0.50520000  1.0 -0.0910220609
C  C17  1  0.57070000  0.34170000  0.47740000  1.0 -0.1215444111
C  C18  1  0.42930000  0.84170000  0.02260000  1.0 -0.1215444111
C  C19  1  0.42930000  0.65830000  0.52260000  1.0 -0.1215444111
C  C20  1  0.57070000  0.15830000  0.97740000  1.0 -0.1215444111
C  C21  1  0.52930000  0.43260000  0.59850000  1.0 -0.1081050426
C  C22  1  0.47070000  0.93260000  0.90150000  1.0 -0.1081050426
C  C23  1  0.47070000  0.56740000  0.40150000  1.0 -0.1081050426
C  C24  1  0.52930000  0.06740000  0.09850000  1.0 -0.1081050426
C  C25  1  0.88330000  0.42760000  0.10690000  1.0 -0.0291153618
C  C26  1  0.11670000  0.92760000  0.39310000  1.0 -0.0291153618
C  C27  1  0.11670000  0.57240000  0.89310000  1.0 -0.0291153618
C  C28  1  0.88330000  0.07240000  0.60690000  1.0 -0.0291153618
C  C29  1  0.78880000  0.52120000  0.92110000  1.0 -0.1004076471
C  C30  1  0.21120000  0.02120000  0.57890000  1.0 -0.1004076471
C  C31  1  0.21120000  0.47880000  0.07890000  1.0 -0.1004076471
C  C32  1  0.78880000  0.97880000  0.42110000  1.0 -0.1004076471
C  C33  1  0.90010000  0.50880000  0.11450000  1.0 -0.1215444111
C  C34  1  0.09990000  0.00880000  0.38550000  1.0 -0.1215444111
C  C35  1  0.09990000  0.49120000  0.88550000  1.0 -0.1215444111
C  C36  1  0.90010000  0.99120000  0.61450000  1.0 -0.1215444111
C  C37  1  0.66980000  0.46080000  0.63150000  1.0 -0.1004076471
C  C38  1  0.33020000  0.96080000  0.86850000  1.0 -0.1004076471
C  C39  1  0.33020000  0.53920000  0.36850000  1.0 -0.1004076471
C  C40  1  0.66980000  0.03920000  0.13150000  1.0 -0.1004076471
C  C41  1  0.93490000  0.37810000  0.20770000  1.0 0.5678454994
C  C42  1  0.06510000  0.87810000  0.29230000  1.0 0.5678454994
C  C43  1  0.06510000  0.62190000  0.79230000  1.0 0.5678454994
C  C44  1  0.93490000  0.12190000  0.70770000  1.0 0.5678454994
C  C45  1  0.85380000  0.55650000  0.02240000  1.0 -0.0397188539
C  C46  1  0.14620000  0.05650000  0.47760000  1.0 -0.0397188539
C  C47  1  0.14620000  0.44350000  0.97760000  1.0 -0.0397188539
C  C48  1  0.85380000  0.94350000  0.52240000  1.0 -0.0397188539
C  C49  1  0.81660000  0.33200000  0.47200000  1.0 0.5678454994
C  C50  1  0.18340000  0.83200000  0.02800000  1.0 0.5678454994
C  C51  1  0.18340000  0.66800000  0.52800000  1.0 0.5678454994
C  C52  1  0.81660000  0.16800000  0.97200000  1.0 0.5678454994
C  C53  1  0.77190000  0.43930000  0.91350000  1.0 -0.1004076471
C  C54  1  0.22810000  0.93930000  0.58650000  1.0 -0.1004076471
C  C55  1  0.22810000  0.56070000  0.08650000  1.0 -0.1004076471
C  C56  1  0.77190000  0.06070000  0.41350000  1.0 -0.1004076471
C  C57  1  0.71550000  0.36750000  0.51610000  1.0 -0.0164231371
C  C58  1  0.28450000  0.86750000  0.98390000  1.0 -0.0164231371
C  C59  1  0.28450000  0.63250000  0.48390000  1.0 -0.0164231371
C  C60  1  0.71550000  0.13250000  0.01610000  1.0 -0.0164231371
C  C61  1  0.88010000  0.64370000  0.03370000  1.0 0.5881256222
C  C62  1  0.11990000  0.14370000  0.46630000  1.0 0.5881256222
C  C63  1  0.11990000  0.35630000  0.96630000  1.0 0.5881256222
C  C64  1  0.88010000  0.85630000  0.53370000  1.0 0.5881256222
O  O1  1  0.95730000  0.41260000  0.29640000  1.0 -0.5295837314
O  O2  1  0.04270000  0.91260000  0.20360000  1.0 -0.5295837314
O  O3  1  0.04270000  0.58740000  0.70360000  1.0 -0.5295837314
O  O4  1  0.95730000  0.08740000  0.79640000  1.0 -0.5295837314
O  O5  1  0.26950000  0.31220000  0.38390000  1.0 -0.635754639
O  O6  1  0.73050000  0.81220000  0.11610000  1.0 -0.635754639
O  O7  1  0.73050000  0.68780000  0.61610000  1.0 -0.635754639
O  O8  1  0.26950000  0.18780000  0.88390000  1.0 -0.635754639
O  O9  1  0.76810000  0.29380000  0.38530000  1.0 -0.5295837314
O  O10  1  0.23190000  0.79380000  0.11470000  1.0 -0.5295837314
O  O11  1  0.23190000  0.70620000  0.61470000  1.0 -0.5295837314
O  O12  1  0.76810000  0.20620000  0.88530000  1.0 -0.5295837314
O  O13  1  0.95550000  0.30590000  0.20320000  1.0 -0.58772465
O  O14  1  0.04450000  0.80590000  0.29680000  1.0 -0.58772465
O  O15  1  0.04450000  0.69410000  0.79680000  1.0 -0.58772465
O  O16  1  0.95550000  0.19410000  0.70320000  1.0 -0.58772465
O  O17  1  0.24980000  0.35760000  0.52930000  1.0 -0.58772465
O  O18  1  0.75020000  0.85760000  0.97070000  1.0 -0.58772465
O  O19  1  0.75020000  0.64240000  0.47070000  1.0 -0.58772465
O  O20  1  0.24980000  0.14240000  0.02930000  1.0 -0.58772465
O  O21  1  0.85370000  0.68460000  0.95140000  1.0 -0.6084721625
O  O22  1  0.14630000  0.18460000  0.54860000  1.0 -0.6084721625
O  O23  1  0.14630000  0.31540000  0.04860000  1.0 -0.6084721625
O  O24  1  0.85370000  0.81540000  0.45140000  1.0 -0.6084721625
O  O25  1  0.95210000  0.34330000  0.52680000  1.0 -0.6194520534
O  O26  1  0.04790000  0.84330000  0.97320000  1.0 -0.6194520534
O  O27  1  0.04790000  0.65670000  0.47320000  1.0 -0.6194520534
O  O28  1  0.95210000  0.15670000  0.02680000  1.0 -0.6194520534
O  O29  1  0.93070000  0.67190000  0.12900000  1.0 -0.5986993254
O  O30  1  0.06930000  0.17190000  0.37100000  1.0 -0.5986993254
O  O31  1  0.06930000  0.32810000  0.87100000  1.0 -0.5986993254
O  O32  1  0.93070000  0.82810000  0.62900000  1.0 -0.5986993254
