# DDEC6 charges by PACMAN v1.1 (https://github.com/mtap-research/PACMAN-charge/)
data_LOSYAV_ASR_pacman
_symmetry_space_group_name_H-M   'P 1'
_cell_length_a   9.64840000
_cell_length_b   11.79390000
_cell_length_c   11.86030000
_cell_angle_alpha   73.67100000
_cell_angle_beta   67.42600000
_cell_angle_gamma   74.35600000
_symmetry_Int_Tables_number   1
_chemical_formula_structural   MgH2C6SO4
_chemical_formula_sum   'Mg4 H8 C24 S4 O16'
_cell_volume   1175.85345624
_cell_formula_units_Z   4
loop_
 _symmetry_equiv_pos_site_id
 _symmetry_equiv_pos_as_xyz
  1  'x, y, z'
loop_
 _atom_site_type_symbol
 _atom_site_label
 _atom_site_symmetry_multiplicity
 _atom_site_fract_x
 _atom_site_fract_y
 _atom_site_fract_z
 _atom_site_occupancy
 _atom_site_charge
Mg  Mg1  1  0.50000000  0.50000000  0.50000000  1.0 1.4078892548
Mg  Mg2  1  0.64734000  0.27590000  0.31762000  1.0 1.3548157294
Mg  Mg3  1  0.35266000  0.72410000  0.68238000  1.0 1.3559202034
Mg  Mg4  1  0.00000000  0.00000000  0.00000000  1.0 1.4757033665
H  H1  1  0.71964000  0.52535000  0.95319000  1.0 0.1285040109
H  H2  1  0.28036000  0.47465000  0.04681000  1.0 0.1285040109
H  H3  1  0.58478000  0.68232000  0.79689000  1.0 0.1155406837
H  H4  1  0.41522000  0.31768000  0.20311000  1.0 0.1155406837
H  H5  1  0.02509000  0.40496000  0.67016000  1.0 0.1285040109
H  H6  1  0.97491000  0.59504000  0.32984000  1.0 0.1285040109
H  H7  1  0.76983000  0.39134000  0.63351000  1.0 0.1285040109
H  H8  1  0.23017000  0.60866000  0.36649000  1.0 0.1285040109
C  C1  1  0.57076000  0.52221000  0.21377000  1.0 0.6331171621
C  C2  1  0.42924000  0.47779000  0.78623000  1.0 0.6331171621
C  C3  1  0.53738000  0.60199000  0.10201000  1.0 -0.1091965731
C  C4  1  0.46262000  0.39801000  0.89799000  1.0 -0.1091965731
C  C5  1  0.61569000  0.59226000  0.97866000  1.0 -0.0948964949
C  C6  1  0.38431000  0.40774000  0.02134000  1.0 -0.0948964949
C  C7  1  0.54265000  0.67428000  0.89782000  1.0 -0.1091965731
C  C8  1  0.45735000  0.32572000  0.10218000  1.0 -0.1091965731
C  C9  1  0.40827000  0.74467000  0.96017000  1.0 -0.1311857324
C  C10  1  0.59173000  0.25533000  0.03983000  1.0 -0.1311857324
C  C11  1  0.29657000  0.83105000  0.90765000  1.0 0.6467675645
C  C12  1  0.70343000  0.16895000  0.09235000  1.0 0.644977637
C  C13  1  0.31360000  0.33907000  0.48190000  1.0 0.6331171621
C  C14  1  0.68640000  0.66093000  0.51810000  1.0 0.6331171621
C  C15  1  0.15313000  0.33327000  0.50236000  1.0 -0.1091965731
C  C16  1  0.84687000  0.66666667  0.49764000  1.0 -0.1091965731
C  C17  1  0.02078000  0.37104000  0.59492000  1.0 -0.0974723879
C  C18  1  0.97922000  0.62896000  0.40508000  1.0 -0.0974723879
C  C19  1  0.88736000  0.36524000  0.57534000  1.0 -0.1091965731
C  C20  1  0.11264000  0.63476000  0.42466000  1.0 -0.1091965731
C  C21  1  0.92043000  0.32212000  0.46850000  1.0 -0.1091965731
C  C22  1  0.07957000  0.67788000  0.53150000  1.0 -0.1091965731
C  C23  1  0.81429000  0.29748000  0.41991000  1.0 0.5954527039
C  C24  1  0.18571000  0.70252000  0.58009000  1.0 0.5954527039
S  S1  1  0.37701000  0.71113000  0.11841000  1.0 0.1752795954
S  S2  1  0.62299000  0.28887000  0.88159000  1.0 0.1752795954
S  S3  1  0.11372000  0.28922000  0.39327000  1.0 0.1864114407
S  S4  1  0.88628000  0.71078000  0.60673000  1.0 0.1864114407
O  O1  1  0.49790000  0.55272000  0.31834000  1.0 -0.6466288687
O  O2  1  0.50210000  0.44728000  0.68166000  1.0 -0.6436965387
O  O3  1  0.66832000  0.42601000  0.19188000  1.0 -0.6466288687
O  O4  1  0.33168000  0.57399000  0.80812000  1.0 -0.6466288687
O  O5  1  0.18559000  0.89651000  0.98415000  1.0 -0.7879734855
O  O6  1  0.81441000  0.10349000  0.01585000  1.0 -0.7879734855
O  O7  1  0.30451000  0.84172000  0.79605000  1.0 -0.6107777875
O  O8  1  0.69549000  0.15828000  0.20395000  1.0 -0.6107777875
O  O9  1  0.41921000  0.28468000  0.39702000  1.0 -0.6925313096
O  O10  1  0.58079000  0.71532000  0.60298000  1.0 -0.6925313096
O  O11  1  0.33234000  0.40026000  0.54592000  1.0 -0.6182049434
O  O12  1  0.66766000  0.59974000  0.45408000  1.0 -0.6182049434
O  O13  1  0.86531000  0.23473000  0.33516000  1.0 -0.6041197698
O  O14  1  0.13469000  0.76527000  0.66484000  1.0 -0.6041197698
O  O15  1  0.66940000  0.33920000  0.46329000  1.0 -0.6925313096
O  O16  1  0.33060000  0.66080000  0.53671000  1.0 -0.6925313096
