# DDEC6 charges by PACMAN v1.1 (https://github.com/mtap-research/PACMAN-charge/)
data_LOXVUR_FSR_pacman
_symmetry_space_group_name_H-M   'P 1'
_cell_length_a   12.39540000
_cell_length_b   12.39540000
_cell_length_c   8.59080000
_cell_angle_alpha   81.22940000
_cell_angle_beta   98.77060000
_cell_angle_gamma   115.91500000
_symmetry_Int_Tables_number   1
_chemical_formula_structural   CuH12C13(NO2)2
_chemical_formula_sum   'Cu4 H48 C52 N8 O16'
_cell_volume   1167.84689859
_cell_formula_units_Z   4
loop_
 _symmetry_equiv_pos_site_id
 _symmetry_equiv_pos_as_xyz
  1  'x, y, z'
loop_
 _atom_site_type_symbol
 _atom_site_label
 _atom_site_symmetry_multiplicity
 _atom_site_fract_x
 _atom_site_fract_y
 _atom_site_fract_z
 _atom_site_occupancy
 _atom_site_charge
Cu  Cu1  1  0.00707000  0.40249000  0.07396000  1.0 0.7296910414
Cu  Cu2  1  0.40249000  0.00707000  0.42604000  1.0 0.7296910414
Cu  Cu3  1  0.99293000  0.59751000  0.92604000  1.0 0.7296910414
Cu  Cu4  1  0.59751000  0.99292000  0.57396000  1.0 0.7296910414
H  H1  1  0.40500000  0.17481000  0.84400000  1.0 0.1292680251
H  H2  1  0.17480000  0.40500000  0.65600000  1.0 0.1292680251
H  H3  1  0.59500000  0.82520000  0.15600000  1.0 0.1292680251
H  H4  1  0.82520000  0.59500000  0.34400000  1.0 0.1292680251
H  H5  1  0.40460000  0.05981000  0.95800000  1.0 0.1415669823
H  H6  1  0.05981000  0.40460000  0.54200000  1.0 0.1415669823
H  H7  1  0.59540000  0.94020000  0.04200000  1.0 0.1415669823
H  H8  1  0.94020000  0.59540000  0.45800000  1.0 0.1415669823
H  H9  1  0.61760000  0.15280000  0.00040000  1.0 0.099625265
H  H10  1  0.15280000  0.61760000  0.49960000  1.0 0.099625265
H  H11  1  0.38240000  0.84719000  0.99960000  1.0 0.099625265
H  H12  1  0.84720000  0.38240000  0.50040000  1.0 0.099625265
H  H13  1  0.56370000  0.23770000  0.04910000  1.0 0.099625265
H  H14  1  0.23770000  0.56370000  0.45090000  1.0 0.099625265
H  H15  1  0.43630000  0.76229000  0.95090000  1.0 0.099625265
H  H16  1  0.76230000  0.43630000  0.54910000  1.0 0.099625265
H  H17  1  0.61010000  0.36110000  0.81110000  1.0 0.1292680251
H  H18  1  0.36111000  0.61010000  0.68890000  1.0 0.1292680251
H  H19  1  0.38990000  0.63889000  0.18890000  1.0 0.1292680251
H  H20  1  0.63889000  0.38990000  0.31110000  1.0 0.1292680251
H  H21  1  0.65150000  0.27191000  0.74740000  1.0 0.1415669823
H  H22  1  0.27191000  0.65150000  0.75260000  1.0 0.1415669823
H  H23  1  0.34850000  0.72810000  0.25260000  1.0 0.1415669823
H  H24  1  0.72810000  0.34850000  0.24740000  1.0 0.1415669823
H  H25  1  0.17970000  0.32071000  0.31030000  1.0 0.1073534765
H  H26  1  0.32071000  0.17970000  0.18970000  1.0 0.1073534765
H  H27  1  0.82030000  0.67929000  0.68970000  1.0 0.1073534765
H  H28  1  0.67929000  0.82030000  0.81030000  1.0 0.1073534765
H  H29  1  0.17890000  0.16570000  0.48990000  1.0 0.1292680251
H  H30  1  0.16571000  0.17890000  0.01010000  1.0 0.1292680251
H  H31  1  0.82110000  0.83429000  0.51010000  1.0 0.1292680251
H  H32  1  0.83430000  0.82110000  0.98990000  1.0 0.1292680251
H  H33  1  0.83240000  0.96300000  0.31810000  1.0 0.0905099304
H  H34  1  0.96301000  0.83240000  0.18190000  1.0 0.0905099304
H  H35  1  0.16760000  0.03700000  0.68190000  1.0 0.0905099304
H  H36  1  0.03700000  0.16760000  0.81810000  1.0 0.0905099304
H  H37  1  0.83830000  0.13151000  0.14570000  1.0 0.0714607516
H  H38  1  0.13151000  0.83830000  0.35430000  1.0 0.0714607516
H  H39  1  0.16170000  0.86849000  0.85430000  1.0 0.0714607516
H  H40  1  0.86850000  0.16170000  0.64570000  1.0 0.0714607516
H  H41  1  0.82330000  0.99731000  0.39490000  1.0 0.1073534765
H  H42  1  0.99730000  0.82330000  0.10510000  1.0 0.1073534765
H  H43  1  0.17670000  0.00270000  0.60510000  1.0 0.1073534765
H  H44  1  0.00269000  0.17670000  0.89490000  1.0 0.1073534765
H  H45  1  0.83080000  0.14960000  0.20770000  1.0 0.0905099304
H  H46  1  0.14960000  0.83080000  0.29230000  1.0 0.0905099304
H  H47  1  0.16920000  0.85040000  0.79230000  1.0 0.0905099304
H  H48  1  0.85040000  0.16920000  0.70770000  1.0 0.0905099304
C  C1  1  0.45979000  0.07018000  0.73880000  1.0 0.6082990893
C  C2  1  0.07018000  0.45979000  0.76120000  1.0 0.6082990893
C  C3  1  0.54021000  0.92983000  0.26120000  1.0 0.6082990893
C  C4  1  0.92983000  0.54021000  0.23880000  1.0 0.6082990893
C  C5  1  0.45033000  0.12512000  0.87960000  1.0 -0.3334835044
C  C6  1  0.12512000  0.45033000  0.62040000  1.0 -0.3334835044
C  C7  1  0.54967000  0.87489000  0.12040000  1.0 -0.3334835044
C  C8  1  0.87488000  0.54967000  0.37960000  1.0 -0.3334835044
C  C9  1  0.57441000  0.20359000  0.95870000  1.0 -0.0754195994
C  C10  1  0.20360000  0.57441000  0.54130000  1.0 -0.0754195994
C  C11  1  0.42559000  0.79641000  0.04130000  1.0 -0.0754195994
C  C12  1  0.79641000  0.42559000  0.45870000  1.0 -0.0754195994
C  C13  1  0.65024000  0.30636000  0.84340000  1.0 -0.3167278937
C  C14  1  0.30637000  0.65024000  0.65660000  1.0 -0.3167278937
C  C15  1  0.34976000  0.69364000  0.15660000  1.0 -0.3167278937
C  C16  1  0.69364000  0.34976000  0.34340000  1.0 -0.3167278937
C  C17  1  0.77901000  0.38000000  0.90680000  1.0 0.6181843856
C  C18  1  0.38000000  0.77901000  0.59320000  1.0 0.6181843856
C  C19  1  0.22099000  0.62001000  0.09320000  1.0 0.6181843856
C  C20  1  0.62001000  0.22099000  0.40680000  1.0 0.6181843856
C  C21  1  0.10516000  0.25224000  0.32250000  1.0 0.1458741406
C  C22  1  0.25224000  0.10516000  0.17750000  1.0 0.1458741406
C  C23  1  0.89484000  0.74775000  0.67750000  1.0 0.1458741406
C  C24  1  0.74775000  0.89484000  0.82250000  1.0 0.1458741406
C  C25  1  0.10522000  0.15818000  0.43040000  1.0 -0.1891784838
C  C26  1  0.15818000  0.10522000  0.06960000  1.0 -0.1891784838
C  C27  1  0.89478000  0.84181000  0.56960000  1.0 -0.1891784838
C  C28  1  0.84182000  0.89478000  0.93040000  1.0 -0.1891784838
C  C29  1  0.90130000  0.03810000  0.32200000  1.0 -0.0338370542
C  C30  1  0.03811000  0.90130000  0.17800000  1.0 -0.0338370542
C  C31  1  0.09870000  0.96189000  0.67800000  1.0 -0.0338370542
C  C32  1  0.96190000  0.09870000  0.82200000  1.0 -0.0338370542
C  C33  1  0.90620000  0.13720000  0.21820000  1.0 0.0714607516
C  C34  1  0.13720000  0.90620000  0.28180000  1.0 0.0714607516
C  C35  1  0.09380000  0.86279000  0.78180000  1.0 0.0714607516
C  C36  1  0.86280000  0.09380000  0.71820000  1.0 0.0714607516
C  C37  1  0.00012000  0.05192000  0.43210000  1.0 0.0363545806
C  C38  1  0.05193000  0.00012000  0.06790000  1.0 0.0363545806
C  C39  1  0.99988000  0.94808000  0.56790000  1.0 0.0363545806
C  C40  1  0.94808000  0.99988000  0.93210000  1.0 0.0363545806
C  C41  1  0.00240000  0.05280000  0.45610000  1.0 0.0329699719
C  C42  1  0.05281000  0.00240000  0.04390000  1.0 0.0329699719
C  C43  1  0.99760000  0.94720000  0.54390000  1.0 0.0329699719
C  C44  1  0.94720000  0.99760000  0.95610000  1.0 0.0329699719
C  C45  1  0.89980000  0.06021000  0.37420000  1.0 -0.0416662938
C  C46  1  0.06021000  0.89980000  0.12580000  1.0 -0.0416662938
C  C47  1  0.10020000  0.93979000  0.62580000  1.0 -0.0416662938
C  C48  1  0.93980000  0.10020000  0.87420000  1.0 -0.0416662938
C  C49  1  0.90440000  0.15440000  0.26490000  1.0 0.0847818085
C  C50  1  0.15440000  0.90440000  0.23510000  1.0 0.0847818085
C  C51  1  0.09560000  0.84559000  0.73510000  1.0 0.0847818085
C  C52  1  0.84559000  0.09560000  0.76490000  1.0 0.0847818085
N  N1  1  0.00748000  0.24232000  0.21970000  1.0 -0.2901213935
N  N2  1  0.24233000  0.00748000  0.28030000  1.0 -0.2901213935
N  N3  1  0.99252000  0.75767000  0.78030000  1.0 -0.2901213935
N  N4  1  0.75768000  0.99252000  0.71970000  1.0 -0.2901213935
N  N5  1  0.00618000  0.25422000  0.23210000  1.0 -0.3079228199
N  N6  1  0.25422000  0.00618000  0.26790000  1.0 -0.3079228199
N  N7  1  0.99382000  0.74577000  0.76790000  1.0 -0.3079228199
N  N8  1  0.74577000  0.99382000  0.73210000  1.0 -0.3079228199
O  O1  1  0.54536000  0.04028000  0.74840000  1.0 -0.5019684753
O  O2  1  0.04029000  0.54536000  0.75160000  1.0 -0.5019684753
O  O3  1  0.45464000  0.95971000  0.25160000  1.0 -0.5019684753
O  O4  1  0.95972000  0.45464000  0.24840000  1.0 -0.5019684753
O  O5  1  0.38207000  0.05908000  0.62120000  1.0 -0.5348738304
O  O6  1  0.05908000  0.38207000  0.87880000  1.0 -0.5348738304
O  O7  1  0.61793000  0.94093000  0.37880000  1.0 -0.5348738304
O  O8  1  0.94093000  0.61793000  0.12120000  1.0 -0.5348738304
O  O9  1  0.83513000  0.32477000  0.99070000  1.0 -0.5378240815
O  O10  1  0.32477000  0.83513000  0.50930000  1.0 -0.5378240815
O  O11  1  0.16487000  0.67522000  0.00930000  1.0 -0.5378240815
O  O12  1  0.67522000  0.16487000  0.49070000  1.0 -0.5378240815
O  O13  1  0.82268000  0.49161000  0.86640000  1.0 -0.5019684753
O  O14  1  0.49161000  0.82268000  0.63360000  1.0 -0.5019684753
O  O15  1  0.17732000  0.50840000  0.13360000  1.0 -0.5019684753
O  O16  1  0.50840000  0.17732000  0.36640000  1.0 -0.5019684753
