# DDEC6 charges by PACMAN v1.1 (https://github.com/mtap-research/PACMAN-charge/)
data_LOXWEC_ASR_pacman
_symmetry_space_group_name_H-M   'P 1'
_cell_length_a   15.33210000
_cell_length_b   15.33210000
_cell_length_c   8.58000000
_cell_angle_alpha   84.77970000
_cell_angle_beta   95.22030000
_cell_angle_gamma   129.10400000
_symmetry_Int_Tables_number   1
_chemical_formula_structural   CuH11C11(NO2)2
_chemical_formula_sum   'Cu4 H44 C44 N8 O16'
_cell_volume   1557.17590584
_cell_formula_units_Z   4
loop_
 _symmetry_equiv_pos_site_id
 _symmetry_equiv_pos_as_xyz
  1  'x, y, z'
loop_
 _atom_site_type_symbol
 _atom_site_label
 _atom_site_symmetry_multiplicity
 _atom_site_fract_x
 _atom_site_fract_y
 _atom_site_fract_z
 _atom_site_occupancy
 _atom_site_charge
Cu  Cu1  1  0.99395000  0.41527000  0.46247000  1.0 0.7519576919
Cu  Cu2  1  0.41527000  0.99395000  0.03753000  1.0 0.7519576919
Cu  Cu3  1  0.00605000  0.58473000  0.53753000  1.0 0.7519576919
Cu  Cu4  1  0.58473000  0.00605000  0.96247000  1.0 0.7519576919
H  H1  1  0.85950000  0.55990000  0.06180000  1.0 0.1299278633
H  H2  1  0.55990000  0.85950000  0.43820000  1.0 0.1299278633
H  H3  1  0.14050000  0.44010000  0.93820000  1.0 0.1299278633
H  H4  1  0.44010000  0.14050000  0.56180000  1.0 0.1299278633
H  H5  1  0.96020000  0.57460000  0.98680000  1.0 0.1400204769
H  H6  1  0.57460000  0.96020000  0.51320000  1.0 0.1400204769
H  H7  1  0.03980000  0.42540000  0.01320000  1.0 0.1400204769
H  H8  1  0.42540000  0.03980000  0.48680000  1.0 0.1400204769
H  H9  1  0.12360000  0.23540000  0.18420000  1.0 0.1299278633
H  H10  1  0.23540000  0.12360000  0.31580000  1.0 0.1299278633
H  H11  1  0.87640000  0.76460000  0.81580000  1.0 0.1299278633
H  H12  1  0.76460000  0.87640000  0.68420000  1.0 0.1299278633
H  H13  1  0.74210000  0.33510000  0.20780000  1.0 0.1400204769
H  H14  1  0.33510000  0.74210000  0.29220000  1.0 0.1400204769
H  H15  1  0.25790000  0.66490000  0.79220000  1.0 0.1400204769
H  H16  1  0.66490000  0.25790000  0.70780000  1.0 0.1400204769
H  H17  1  0.67000000  0.35880000  0.09460000  1.0 0.1299278633
H  H18  1  0.35880000  0.67000000  0.40540000  1.0 0.1299278633
H  H19  1  0.33000000  0.64120000  0.90540000  1.0 0.1299278633
H  H20  1  0.64120000  0.33000000  0.59460000  1.0 0.1299278633
H  H21  1  0.85200000  0.37660000  0.98610000  1.0 0.1019254323
H  H22  1  0.37660000  0.85200000  0.51390000  1.0 0.1019254323
H  H23  1  0.14800000  0.62340000  0.01390000  1.0 0.1019254323
H  H24  1  0.62340000  0.14800000  0.48610000  1.0 0.1019254323
H  H25  1  0.78630000  0.41450000  0.88750000  1.0 0.0937713847
H  H26  1  0.41450000  0.78630000  0.61250000  1.0 0.0937713847
H  H27  1  0.21370000  0.58550000  0.11250000  1.0 0.0937713847
H  H28  1  0.58550000  0.21370000  0.38750000  1.0 0.0937713847
H  H29  1  0.13990000  0.36630000  0.32780000  1.0 0.1151469272
H  H30  1  0.36630000  0.13990000  0.17220000  1.0 0.1131755602
H  H31  1  0.86010000  0.63370000  0.67220000  1.0 0.1151469272
H  H32  1  0.63370000  0.86010000  0.82780000  1.0 0.1131755602
H  H33  1  0.81100000  0.17100000  0.36280000  1.0 0.1131755602
H  H34  1  0.17100000  0.81100000  0.13720000  1.0 0.1131755602
H  H35  1  0.18900000  0.82900000  0.63720000  1.0 0.1131755602
H  H36  1  0.82900000  0.18900000  0.86280000  1.0 0.1131755602
H  H37  1  0.78580000  0.03340000  0.22200000  1.0 0.1400204769
H  H38  1  0.03340000  0.78580000  0.27800000  1.0 0.1400204769
H  H39  1  0.21420000  0.96660000  0.77800000  1.0 0.1400204769
H  H40  1  0.96660000  0.21420000  0.72200000  1.0 0.1400204769
H  H41  1  0.86190000  0.96110000  0.08800000  1.0 0.1019254323
H  H42  1  0.96110000  0.86190000  0.41200000  1.0 0.1019254323
H  H43  1  0.13810000  0.03890000  0.91200000  1.0 0.1019254323
H  H44  1  0.03890000  0.13810000  0.58800000  1.0 0.1019254323
C  C1  1  0.63324000  0.20804000  0.05630000  1.0 0.6242395561
C  C2  1  0.20804000  0.63324000  0.44370000  1.0 0.6242395561
C  C3  1  0.36676000  0.79196000  0.94370000  1.0 0.6242395561
C  C4  1  0.79196000  0.36676000  0.55630000  1.0 0.6242395561
C  C5  1  0.89728000  0.52642000  0.05850000  1.0 -0.3280370016
C  C6  1  0.52642000  0.89728000  0.44150000  1.0 -0.3280370016
C  C7  1  0.10272000  0.47358000  0.94150000  1.0 -0.3280370016
C  C8  1  0.47358000  0.10272000  0.55850000  1.0 -0.3280370016
C  C9  1  0.05822000  0.22018000  0.22030000  1.0 -0.1719436798
C  C10  1  0.22018000  0.05822000  0.27970000  1.0 -0.1719436798
C  C11  1  0.94178000  0.77982000  0.77970000  1.0 -0.1719436798
C  C12  1  0.77982000  0.94178000  0.72030000  1.0 -0.1719436798
C  C13  1  0.94417000  0.52483000  0.22170000  1.0 0.6242395561
C  C14  1  0.52483000  0.94417000  0.27830000  1.0 0.6242395561
C  C15  1  0.05583000  0.47517000  0.77830000  1.0 0.6242395561
C  C16  1  0.47517000  0.05583000  0.72170000  1.0 0.6242395561
C  C17  1  0.71318000  0.33070000  0.09840000  1.0 -0.3280370016
C  C18  1  0.33070000  0.71318000  0.40160000  1.0 -0.3280370016
C  C19  1  0.28682000  0.66930000  0.90160000  1.0 -0.3280370016
C  C20  1  0.66930000  0.28682000  0.59840000  1.0 -0.3280370016
C  C21  1  0.81348000  0.40890000  0.99410000  1.0 -0.0964264948
C  C22  1  0.40890000  0.81348000  0.50590000  1.0 -0.0964264948
C  C23  1  0.18652000  0.59110000  0.00590000  1.0 -0.0964264948
C  C24  1  0.59110000  0.18652000  0.49410000  1.0 -0.0964264948
C  C25  1  0.06711000  0.29769000  0.30610000  1.0 0.0806731056
C  C26  1  0.29769000  0.06711000  0.19390000  1.0 0.0806731056
C  C27  1  0.93289000  0.70231000  0.69390000  1.0 0.0806731056
C  C28  1  0.70231000  0.93289000  0.80610000  1.0 0.0806731056
C  C29  1  0.87509000  0.18371000  0.32690000  1.0 0.0937713847
C  C30  1  0.18371000  0.87509000  0.17310000  1.0 0.0937713847
C  C31  1  0.12491000  0.81629000  0.67310000  1.0 0.0937713847
C  C32  1  0.81629000  0.12491000  0.82690000  1.0 0.0937713847
C  C33  1  0.85936000  0.10144000  0.24220000  1.0 -0.1816216786
C  C34  1  0.10144000  0.85936000  0.25780000  1.0 -0.1816216786
C  C35  1  0.14064000  0.89856000  0.75780000  1.0 -0.1816216786
C  C36  1  0.89856000  0.14064000  0.74220000  1.0 -0.1816216786
C  C37  1  0.95191000  0.11949000  0.18760000  1.0 0.1131755602
C  C38  1  0.11949000  0.95191000  0.31240000  1.0 0.1131755602
C  C39  1  0.04809000  0.88051000  0.81240000  1.0 0.1131755602
C  C40  1  0.88051000  0.04809000  0.68760000  1.0 0.1131755602
C  C41  1  0.93505000  0.03115000  0.09950000  1.0 0.0417912599
C  C42  1  0.03115000  0.93505000  0.40050000  1.0 0.0417912599
C  C43  1  0.06495000  0.96885000  0.90050000  1.0 0.0417912599
C  C44  1  0.96885000  0.06495000  0.59950000  1.0 0.0417912599
N  N1  1  0.97767000  0.28075000  0.36020000  1.0 -0.25201311
N  N2  1  0.28075000  0.97767000  0.13980000  1.0 -0.25201311
N  N3  1  0.02233000  0.71925000  0.63980000  1.0 -0.25201311
N  N4  1  0.71925000  0.02233000  0.86020000  1.0 -0.25201311
N  N5  1  0.01746000  0.04774000  0.03890000  1.0 -0.1915501882
N  N6  1  0.04774000  0.01746000  0.46110000  1.0 -0.1915501882
N  N7  1  0.98254000  0.95226000  0.96110000  1.0 -0.1915501882
N  N8  1  0.95226000  0.98254000  0.53890000  1.0 -0.1915501882
O  O1  1  0.67507000  0.16599000  0.01200000  1.0 -0.5198722948
O  O2  1  0.16599000  0.67507000  0.48800000  1.0 -0.5286994463
O  O3  1  0.32493000  0.83401000  0.98800000  1.0 -0.5286994463
O  O4  1  0.83401000  0.32493000  0.51200000  1.0 -0.5286994463
O  O5  1  0.95853000  0.45313000  0.25300000  1.0 -0.5198722948
O  O6  1  0.45313000  0.95853000  0.24700000  1.0 -0.5198722948
O  O7  1  0.04147000  0.54687000  0.74700000  1.0 -0.5198722948
O  O8  1  0.54687000  0.04147000  0.75300000  1.0 -0.5198722948
O  O9  1  0.53036000  0.15594000  0.07370000  1.0 -0.5286994463
O  O10  1  0.15594000  0.53036000  0.42630000  1.0 -0.5286994463
O  O11  1  0.46964000  0.84406000  0.92630000  1.0 -0.5286994463
O  O12  1  0.84406000  0.46964000  0.57370000  1.0 -0.5286994463
O  O13  1  0.96406000  0.59488000  0.31600000  1.0 -0.5399586339
O  O14  1  0.59488000  0.96406000  0.18400000  1.0 -0.5399586339
O  O15  1  0.03594000  0.40512000  0.68400000  1.0 -0.5399586339
O  O16  1  0.40512000  0.03594000  0.81600000  1.0 -0.5399586339
