# DDEC6 charges by PACMAN v1.1 (https://github.com/mtap-research/PACMAN-charge/)
data_LOZSAW02_FSR_pacman
_symmetry_space_group_name_H-M   'P 1'
_cell_length_a   8.00826000
_cell_length_b   8.00826000
_cell_length_c   15.08300000
_cell_angle_alpha   71.94280000
_cell_angle_beta   108.05700000
_cell_angle_gamma   113.92700000
_symmetry_Int_Tables_number   1
_chemical_formula_structural   KCo(CN)6
_chemical_formula_sum   'K2 Co2 C12 N12'
_cell_volume   821.52058283
_cell_formula_units_Z   2
loop_
 _symmetry_equiv_pos_site_id
 _symmetry_equiv_pos_as_xyz
  1  'x, y, z'
loop_
 _atom_site_type_symbol
 _atom_site_label
 _atom_site_symmetry_multiplicity
 _atom_site_fract_x
 _atom_site_fract_y
 _atom_site_fract_z
 _atom_site_occupancy
 _atom_site_charge
K  K1  1  0.24868000  0.24868000  0.25000000  1.0 0.710565914
K  K2  1  0.75132000  0.75132000  0.75000000  1.0 0.7020842923
Co  Co1  1  0.00000000  0.50000000  0.50000000  1.0 0.3323533131
Co  Co2  1  0.50000000  0.00000000  0.00000000  1.0 0.3323533131
C  C1  1  0.10070000  0.42850000  0.42470000  1.0 0.1227280093
C  C2  1  0.42850000  0.10070000  0.07530000  1.0 0.1227280093
C  C3  1  0.89930000  0.57150000  0.57530000  1.0 0.130771509
C  C4  1  0.57150000  0.89930000  0.92470000  1.0 0.130771509
C  C5  1  0.76470000  0.43450000  0.41290000  1.0 0.130771509
C  C6  1  0.43450000  0.76470000  0.08710000  1.0 0.130771509
C  C7  1  0.23530000  0.56550000  0.58710000  1.0 0.130771509
C  C8  1  0.56550000  0.23530000  0.91290000  1.0 0.130771509
C  C9  1  0.07700000  0.74780000  0.42570000  1.0 0.130771509
C  C10  1  0.74780000  0.07700000  0.07430000  1.0 0.130771509
C  C11  1  0.92300000  0.25220000  0.57430000  1.0 0.1362614302
C  C12  1  0.25220000  0.92300000  0.92570000  1.0 0.1362614302
N  N1  1  0.16260000  0.39220000  0.37680000  1.0 -0.2905128071
N  N2  1  0.39220000  0.16260000  0.12320000  1.0 -0.2905128071
N  N3  1  0.83740000  0.60780000  0.62320000  1.0 -0.2905128071
N  N4  1  0.60780000  0.83740000  0.87680000  1.0 -0.2905128071
N  N5  1  0.62540000  0.39040000  0.35900000  1.0 -0.2905128071
N  N6  1  0.39040000  0.62540000  0.14100000  1.0 -0.2905128071
N  N7  1  0.37460000  0.60960000  0.64100000  1.0 -0.2905128071
N  N8  1  0.60960000  0.37460000  0.85900000  1.0 -0.2905128071
N  N9  1  0.13430000  0.89850000  0.38400000  1.0 -0.3293513315
N  N10  1  0.89850000  0.13430000  0.11600000  1.0 -0.3293513315
N  N11  1  0.86570000  0.10150000  0.61600000  1.0 -0.3293513315
N  N12  1  0.10150000  0.86570000  0.88400000  1.0 -0.3293513315
