# DDEC6 charges by PACMAN v1.1 (https://github.com/mtap-research/PACMAN-charge/)
data_LUDKUS_ASR_pacman
_symmetry_space_group_name_H-M   'P 1'
_cell_length_a   18.25910000
_cell_length_b   18.25910000
_cell_length_c   6.62740000
_cell_angle_alpha   90.00000000
_cell_angle_beta   90.00000000
_cell_angle_gamma   120.00000000
_symmetry_Int_Tables_number   1
_chemical_formula_structural   CuH8C11O6
_chemical_formula_sum   'Cu6 H48 C66 O36'
_cell_volume   1913.51798911
_cell_formula_units_Z   6
loop_
 _symmetry_equiv_pos_site_id
 _symmetry_equiv_pos_as_xyz
  1  'x, y, z'
loop_
 _atom_site_type_symbol
 _atom_site_label
 _atom_site_symmetry_multiplicity
 _atom_site_fract_x
 _atom_site_fract_y
 _atom_site_fract_z
 _atom_site_occupancy
 _atom_site_charge
Cu  Cu1  1  0.47513000  0.52487000  0.15650000  1.0 0.8243654778
Cu  Cu2  1  0.47513000  0.95026000  0.15650000  1.0 0.8243654778
Cu  Cu3  1  0.04974000  0.52487000  0.15650000  1.0 0.8243654778
Cu  Cu4  1  0.95026000  0.47513000  0.84350000  1.0 0.8243654778
Cu  Cu5  1  0.52487000  0.04974000  0.84350000  1.0 0.8262250951
Cu  Cu6  1  0.52487000  0.47513000  0.84350000  1.0 0.8243654778
H  H1  1  0.36800000  0.29580000  0.51120000  1.0 0.126891467
H  H2  1  0.70420000  0.07220000  0.51120000  1.0 0.126891467
H  H3  1  0.92780000  0.63200000  0.51120000  1.0 0.126891467
H  H4  1  0.07220000  0.70420000  0.48880000  1.0 0.126891467
H  H5  1  0.63200000  0.92780000  0.48880000  1.0 0.126891467
H  H6  1  0.29580000  0.36800000  0.48880000  1.0 0.126891467
H  H7  1  0.63200000  0.70420000  0.48880000  1.0 0.126891467
H  H8  1  0.29580000  0.92780000  0.48880000  1.0 0.126891467
H  H9  1  0.07220000  0.36800000  0.48880000  1.0 0.126891467
H  H10  1  0.92780000  0.29580000  0.51120000  1.0 0.126891467
H  H11  1  0.36800000  0.07220000  0.51120000  1.0 0.126891467
H  H12  1  0.70420000  0.63200000  0.51120000  1.0 0.126891467
H  H13  1  0.46920000  0.23460000  0.04470000  1.0 0.1355057588
H  H14  1  0.76540000  0.23460000  0.04470000  1.0 0.1355057588
H  H15  1  0.76540000  0.53080000  0.04470000  1.0 0.1355057588
H  H16  1  0.23460000  0.76540000  0.95530000  1.0 0.1355057588
H  H17  1  0.53080000  0.76540000  0.95530000  1.0 0.1355057588
H  H18  1  0.23460000  0.46920000  0.95530000  1.0 0.1355057588
H  H19  1  0.28120000  0.09410000  0.10490000  1.0 0.0795643298
H  H20  1  0.90590000  0.18710000  0.10490000  1.0 0.0795643298
H  H21  1  0.81290000  0.71880000  0.10490000  1.0 0.0795643298
H  H22  1  0.18710000  0.90590000  0.89510000  1.0 0.0795643298
H  H23  1  0.71880000  0.81290000  0.89510000  1.0 0.0795643298
H  H24  1  0.09410000  0.28120000  0.89510000  1.0 0.0795643298
H  H25  1  0.71880000  0.90590000  0.89510000  1.0 0.0795643298
H  H26  1  0.09410000  0.81290000  0.89510000  1.0 0.0795643298
H  H27  1  0.18710000  0.28120000  0.89510000  1.0 0.0795643298
H  H28  1  0.81290000  0.09410000  0.10490000  1.0 0.0795643298
H  H29  1  0.28120000  0.18710000  0.10490000  1.0 0.0795643298
H  H30  1  0.90590000  0.71880000  0.10490000  1.0 0.0795643298
H  H31  1  0.19560000  0.05230000  0.99060000  1.0 0.0795643298
H  H32  1  0.94770000  0.14330000  0.99060000  1.0 0.0795643298
H  H33  1  0.85670000  0.80440000  0.99060000  1.0 0.0795643298
H  H34  1  0.14330000  0.94770000  0.00940000  1.0 0.0795643298
H  H35  1  0.80440000  0.85670000  0.00940000  1.0 0.0795643298
H  H36  1  0.05230000  0.19560000  0.00940000  1.0 0.0795643298
H  H37  1  0.80440000  0.94770000  0.00940000  1.0 0.0795643298
H  H38  1  0.05230000  0.85670000  0.00940000  1.0 0.0795643298
H  H39  1  0.14330000  0.19560000  0.00940000  1.0 0.0795643298
H  H40  1  0.85670000  0.05230000  0.99060000  1.0 0.0795643298
H  H41  1  0.19560000  0.14330000  0.99060000  1.0 0.0795643298
H  H42  1  0.94770000  0.80440000  0.99060000  1.0 0.0795643298
H  H43  1  0.24080000  0.00000000  0.00000000  1.0 0.126891467
H  H44  1  0.00000000  0.24080000  0.00000000  1.0 0.126891467
H  H45  1  0.75920000  0.75920000  0.00000000  1.0 0.126891467
H  H46  1  0.75920000  0.00000000  0.00000000  1.0 0.126891467
H  H47  1  0.00000000  0.75920000  0.00000000  1.0 0.126891467
H  H48  1  0.24080000  0.24080000  0.00000000  1.0 0.126891467
C  C1  1  0.44780000  0.35900000  0.16200000  1.0 0.5530877641
C  C2  1  0.64100000  0.08880000  0.16200000  1.0 0.5530877641
C  C3  1  0.91120000  0.55220000  0.16200000  1.0 0.5530877641
C  C4  1  0.08880000  0.64100000  0.83800000  1.0 0.5530877641
C  C5  1  0.55220000  0.91120000  0.83800000  1.0 0.5530877641
C  C6  1  0.35900000  0.44780000  0.83800000  1.0 0.5530877641
C  C7  1  0.55220000  0.64100000  0.83800000  1.0 0.5530877641
C  C8  1  0.35900000  0.91120000  0.83800000  1.0 0.5530877641
C  C9  1  0.08880000  0.44780000  0.83800000  1.0 0.5530877641
C  C10  1  0.91120000  0.35900000  0.16200000  1.0 0.5530877641
C  C11  1  0.44780000  0.08880000  0.16200000  1.0 0.5530877641
C  C12  1  0.64100000  0.55220000  0.16200000  1.0 0.5530877641
C  C13  1  0.42200000  0.27630000  0.26100000  1.0 -0.024491982
C  C14  1  0.72370000  0.14570000  0.26100000  1.0 -0.024491982
C  C15  1  0.85430000  0.57800000  0.26100000  1.0 -0.024491982
C  C16  1  0.14570000  0.72370000  0.73900000  1.0 -0.024491982
C  C17  1  0.57800000  0.85430000  0.73900000  1.0 -0.024491982
C  C18  1  0.27630000  0.42200000  0.73900000  1.0 -0.024491982
C  C19  1  0.57800000  0.72370000  0.73900000  1.0 -0.024491982
C  C20  1  0.27630000  0.85430000  0.73900000  1.0 -0.024491982
C  C21  1  0.14570000  0.42200000  0.73900000  1.0 -0.024491982
C  C22  1  0.85430000  0.27630000  0.26100000  1.0 -0.024491982
C  C23  1  0.42200000  0.14570000  0.26100000  1.0 -0.024491982
C  C24  1  0.72370000  0.57800000  0.26100000  1.0 -0.024491982
C  C25  1  0.38110000  0.25620000  0.44600000  1.0 -0.0973129322
C  C26  1  0.74380000  0.12490000  0.44600000  1.0 -0.0973129322
C  C27  1  0.87510000  0.61890000  0.44600000  1.0 -0.0973129322
C  C28  1  0.12490000  0.74380000  0.55400000  1.0 -0.0973129322
C  C29  1  0.61890000  0.87510000  0.55400000  1.0 -0.0973129322
C  C30  1  0.25620000  0.38110000  0.55400000  1.0 -0.0973129322
C  C31  1  0.61890000  0.74380000  0.55400000  1.0 -0.0973129322
C  C32  1  0.25620000  0.87510000  0.55400000  1.0 -0.0973129322
C  C33  1  0.12490000  0.38110000  0.55400000  1.0 -0.0973129322
C  C34  1  0.87510000  0.25620000  0.44600000  1.0 -0.0973129322
C  C35  1  0.38110000  0.12490000  0.44600000  1.0 -0.0973129322
C  C36  1  0.74380000  0.61890000  0.44600000  1.0 -0.0973129322
C  C37  1  0.35840000  0.17920000  0.53600000  1.0 -0.0606605405
C  C38  1  0.82080000  0.17920000  0.53600000  1.0 -0.0606605405
C  C39  1  0.82080000  0.64160000  0.53600000  1.0 -0.0606605405
C  C40  1  0.17920000  0.82080000  0.46400000  1.0 -0.0606605405
C  C41  1  0.64160000  0.82080000  0.46400000  1.0 -0.0606605405
C  C42  1  0.17920000  0.35840000  0.46400000  1.0 -0.0606605405
C  C43  1  0.44040000  0.22020000  0.16900000  1.0 -0.1101791779
C  C44  1  0.77980000  0.22020000  0.16900000  1.0 -0.1101791779
C  C45  1  0.77980000  0.55960000  0.16900000  1.0 -0.1101791779
C  C46  1  0.22020000  0.77980000  0.83100000  1.0 -0.1101791779
C  C47  1  0.55960000  0.77980000  0.83100000  1.0 -0.1101791779
C  C48  1  0.22020000  0.44040000  0.83100000  1.0 -0.1101791779
C  C49  1  0.31480000  0.15740000  0.73000000  1.0 0.456346654
C  C50  1  0.84260000  0.15740000  0.73000000  1.0 0.456346654
C  C51  1  0.84260000  0.68520000  0.73000000  1.0 0.456346654
C  C52  1  0.15740000  0.84260000  0.27000000  1.0 0.4548157385
C  C53  1  0.68520000  0.84260000  0.27000000  1.0 0.4548157385
C  C54  1  0.15740000  0.31480000  0.27000000  1.0 0.4548157385
C  C55  1  0.25190000  0.05780000  0.99700000  1.0 -0.1784056295
C  C56  1  0.94220000  0.19410000  0.99700000  1.0 -0.1784056295
C  C57  1  0.80590000  0.74810000  0.99700000  1.0 -0.1784056295
C  C58  1  0.19410000  0.94220000  0.00300000  1.0 -0.1784056295
C  C59  1  0.74810000  0.80590000  0.00300000  1.0 -0.1784056295
C  C60  1  0.05780000  0.25190000  0.00300000  1.0 -0.1784056295
C  C61  1  0.74810000  0.94220000  0.00300000  1.0 -0.1784056295
C  C62  1  0.05780000  0.80590000  0.00300000  1.0 -0.1784056295
C  C63  1  0.19410000  0.25190000  0.00300000  1.0 -0.1784056295
C  C64  1  0.80590000  0.05780000  0.99700000  1.0 -0.1784056295
C  C65  1  0.25190000  0.19410000  0.99700000  1.0 -0.1784056295
C  C66  1  0.94220000  0.74810000  0.99700000  1.0 -0.1784056295
O  O1  1  0.43840000  0.41210000  0.25720000  1.0 -0.4900511001
O  O2  1  0.58790000  0.02630000  0.25720000  1.0 -0.4900511001
O  O3  1  0.97370000  0.56160000  0.25720000  1.0 -0.4900511001
O  O4  1  0.02630000  0.58790000  0.74280000  1.0 -0.4900511001
O  O5  1  0.56160000  0.97370000  0.74280000  1.0 -0.4900511001
O  O6  1  0.41210000  0.43840000  0.74280000  1.0 -0.4900511001
O  O7  1  0.56160000  0.58790000  0.74280000  1.0 -0.4900511001
O  O8  1  0.41210000  0.97370000  0.74280000  1.0 -0.4900511001
O  O9  1  0.02630000  0.43840000  0.74280000  1.0 -0.4900511001
O  O10  1  0.97370000  0.41210000  0.25720000  1.0 -0.4900511001
O  O11  1  0.43840000  0.02630000  0.25720000  1.0 -0.4900511001
O  O12  1  0.58790000  0.56160000  0.25720000  1.0 -0.4900511001
O  O13  1  0.48120000  0.37150000  0.98900000  1.0 -0.5119862824
O  O14  1  0.62850000  0.10970000  0.98900000  1.0 -0.5119862824
O  O15  1  0.89030000  0.51880000  0.98900000  1.0 -0.5119862824
O  O16  1  0.10970000  0.62850000  0.01100000  1.0 -0.5119862824
O  O17  1  0.51880000  0.89030000  0.01100000  1.0 -0.5119862824
O  O18  1  0.37150000  0.48120000  0.01100000  1.0 -0.5119862824
O  O19  1  0.51880000  0.62850000  0.01100000  1.0 -0.5119862824
O  O20  1  0.37150000  0.89030000  0.01100000  1.0 -0.5119862824
O  O21  1  0.10970000  0.48120000  0.01100000  1.0 -0.5119862824
O  O22  1  0.89030000  0.37150000  0.98900000  1.0 -0.5119862824
O  O23  1  0.48120000  0.10970000  0.98900000  1.0 -0.5119862824
O  O24  1  0.62850000  0.51880000  0.98900000  1.0 -0.5119862824
O  O25  1  0.29500000  0.08570000  0.80900000  1.0 -0.2227670234
O  O26  1  0.91430000  0.20930000  0.80900000  1.0 -0.2227670234
O  O27  1  0.79070000  0.70500000  0.80900000  1.0 -0.2227670234
O  O28  1  0.20930000  0.91430000  0.19100000  1.0 -0.2227670234
O  O29  1  0.70500000  0.79070000  0.19100000  1.0 -0.2227670234
O  O30  1  0.08570000  0.29500000  0.19100000  1.0 -0.2227670234
O  O31  1  0.70500000  0.91430000  0.19100000  1.0 -0.2227670234
O  O32  1  0.08570000  0.79070000  0.19100000  1.0 -0.2227670234
O  O33  1  0.20930000  0.29500000  0.19100000  1.0 -0.2227670234
O  O34  1  0.79070000  0.08570000  0.80900000  1.0 -0.2227670234
O  O35  1  0.29500000  0.20930000  0.80900000  1.0 -0.2227670234
O  O36  1  0.91430000  0.70500000  0.80900000  1.0 -0.2227670234
