# DDEC6 charges by PACMAN v1.1 (https://github.com/mtap-research/PACMAN-charge/)
data_LUDKOM_ASR_pacman
_symmetry_space_group_name_H-M   'P 1'
_cell_length_a   18.54200000
_cell_length_b   18.54200000
_cell_length_c   6.81140000
_cell_angle_alpha   90.00000000
_cell_angle_beta   90.00000000
_cell_angle_gamma   120.00000000
_symmetry_Int_Tables_number   1
_chemical_formula_structural   CuH8C11O6
_chemical_formula_sum   'Cu6 H48 C66 O36'
_cell_volume   2028.05706161
_cell_formula_units_Z   6
loop_
 _symmetry_equiv_pos_site_id
 _symmetry_equiv_pos_as_xyz
  1  'x, y, z'
loop_
 _atom_site_type_symbol
 _atom_site_label
 _atom_site_symmetry_multiplicity
 _atom_site_fract_x
 _atom_site_fract_y
 _atom_site_fract_z
 _atom_site_occupancy
 _atom_site_charge
Cu  Cu1  1  0.47635000  0.52365000  0.15600000  1.0 0.8237843155
Cu  Cu2  1  0.47635000  0.95270000  0.15600000  1.0 0.8237843155
Cu  Cu3  1  0.04730000  0.52365000  0.15600000  1.0 0.8237843155
Cu  Cu4  1  0.95270000  0.47635000  0.84400000  1.0 0.8237843155
Cu  Cu5  1  0.52365000  0.04730000  0.84400000  1.0 0.8237843155
Cu  Cu6  1  0.52365000  0.47635000  0.84400000  1.0 0.8237843155
H  H1  1  0.37810000  0.29710000  0.49820000  1.0 0.1318182885
H  H2  1  0.70290000  0.08100000  0.49820000  1.0 0.1318182885
H  H3  1  0.91900000  0.62190000  0.49820000  1.0 0.1318182885
H  H4  1  0.08100000  0.70290000  0.50180000  1.0 0.1318182885
H  H5  1  0.62190000  0.91900000  0.50180000  1.0 0.1318182885
H  H6  1  0.29710000  0.37810000  0.50180000  1.0 0.1318182885
H  H7  1  0.62190000  0.70290000  0.50180000  1.0 0.1318182885
H  H8  1  0.29710000  0.91900000  0.50180000  1.0 0.1318182885
H  H9  1  0.08100000  0.37810000  0.50180000  1.0 0.1318182885
H  H10  1  0.91900000  0.29710000  0.49820000  1.0 0.1318182885
H  H11  1  0.37810000  0.08100000  0.49820000  1.0 0.1318182885
H  H12  1  0.70290000  0.62190000  0.49820000  1.0 0.1318182885
H  H13  1  0.46980000  0.23490000  0.03280000  1.0 0.1318182885
H  H14  1  0.76510000  0.23490000  0.03280000  1.0 0.1318182885
H  H15  1  0.76510000  0.53020000  0.03280000  1.0 0.1318182885
H  H16  1  0.23490000  0.76510000  0.96720000  1.0 0.1318182885
H  H17  1  0.53020000  0.76510000  0.96720000  1.0 0.1318182885
H  H18  1  0.23490000  0.46980000  0.96720000  1.0 0.1318182885
H  H19  1  0.27900000  0.09180000  0.06100000  1.0 0.0865714098
H  H20  1  0.90820000  0.18720000  0.06100000  1.0 0.0865714098
H  H21  1  0.81280000  0.72100000  0.06100000  1.0 0.0865714098
H  H22  1  0.18720000  0.90820000  0.93900000  1.0 0.0865714098
H  H23  1  0.72100000  0.81280000  0.93900000  1.0 0.0865714098
H  H24  1  0.09180000  0.27900000  0.93900000  1.0 0.0865714098
H  H25  1  0.72100000  0.90820000  0.93900000  1.0 0.0865714098
H  H26  1  0.09180000  0.81280000  0.93900000  1.0 0.0865714098
H  H27  1  0.18720000  0.27900000  0.93900000  1.0 0.0865714098
H  H28  1  0.81280000  0.09180000  0.06100000  1.0 0.0865714098
H  H29  1  0.27900000  0.18720000  0.06100000  1.0 0.0865714098
H  H30  1  0.90820000  0.72100000  0.06100000  1.0 0.0865714098
H  H31  1  0.19510000  0.05280000  0.94860000  1.0 0.0865714098
H  H32  1  0.94720000  0.14230000  0.94860000  1.0 0.0865714098
H  H33  1  0.85770000  0.80490000  0.94860000  1.0 0.0865714098
H  H34  1  0.14230000  0.94720000  0.05140000  1.0 0.0865714098
H  H35  1  0.80490000  0.85770000  0.05140000  1.0 0.0865714098
H  H36  1  0.05280000  0.19510000  0.05140000  1.0 0.0865714098
H  H37  1  0.80490000  0.94720000  0.05140000  1.0 0.0865714098
H  H38  1  0.05280000  0.85770000  0.05140000  1.0 0.0865714098
H  H39  1  0.14230000  0.19510000  0.05140000  1.0 0.0865714098
H  H40  1  0.85770000  0.05280000  0.94860000  1.0 0.0865714098
H  H41  1  0.19510000  0.14230000  0.94860000  1.0 0.0865714098
H  H42  1  0.94720000  0.80490000  0.94860000  1.0 0.0865714098
H  H43  1  0.23820000  0.00000000  0.00000000  1.0 0.0966877008
H  H44  1  0.00000000  0.23820000  0.00000000  1.0 0.0966877008
H  H45  1  0.76180000  0.76180000  0.00000000  1.0 0.0966877008
H  H46  1  0.76180000  0.00000000  0.00000000  1.0 0.0966877008
H  H47  1  0.00000000  0.76180000  0.00000000  1.0 0.0966877008
H  H48  1  0.23820000  0.23820000  0.00000000  1.0 0.0966877008
C  C1  1  0.45020000  0.35850000  0.15180000  1.0 0.5606855193
C  C2  1  0.64150000  0.09170000  0.15180000  1.0 0.5606855193
C  C3  1  0.90830000  0.54980000  0.15180000  1.0 0.5606855193
C  C4  1  0.09170000  0.64150000  0.84820000  1.0 0.5606855193
C  C5  1  0.54980000  0.90830000  0.84820000  1.0 0.5606855193
C  C6  1  0.35850000  0.45020000  0.84820000  1.0 0.5606855193
C  C7  1  0.54980000  0.64150000  0.84820000  1.0 0.5606855193
C  C8  1  0.35850000  0.90830000  0.84820000  1.0 0.5606855193
C  C9  1  0.09170000  0.45020000  0.84820000  1.0 0.5606855193
C  C10  1  0.90830000  0.35850000  0.15180000  1.0 0.5606855193
C  C11  1  0.45020000  0.09170000  0.15180000  1.0 0.5606855193
C  C12  1  0.64150000  0.54980000  0.15180000  1.0 0.5606855193
C  C13  1  0.42390000  0.27610000  0.24380000  1.0 -0.0282554283
C  C14  1  0.72390000  0.14780000  0.24380000  1.0 -0.0282554283
C  C15  1  0.85220000  0.57610000  0.24380000  1.0 -0.0282554283
C  C16  1  0.14780000  0.72390000  0.75620000  1.0 -0.0282554283
C  C17  1  0.57610000  0.85220000  0.75620000  1.0 -0.0282554283
C  C18  1  0.27610000  0.42390000  0.75620000  1.0 -0.0282554283
C  C19  1  0.57610000  0.72390000  0.75620000  1.0 -0.0282554283
C  C20  1  0.27610000  0.85220000  0.75620000  1.0 -0.0282554283
C  C21  1  0.14780000  0.42390000  0.75620000  1.0 -0.0282554283
C  C22  1  0.85220000  0.27610000  0.24380000  1.0 -0.0282554283
C  C23  1  0.42390000  0.14780000  0.24380000  1.0 -0.0282554283
C  C24  1  0.72390000  0.57610000  0.24380000  1.0 -0.0282554283
C  C25  1  0.38230000  0.25540000  0.42400000  1.0 -0.0931442664
C  C26  1  0.74460000  0.12690000  0.42400000  1.0 -0.0931442664
C  C27  1  0.87310000  0.61770000  0.42400000  1.0 -0.0931442664
C  C28  1  0.12690000  0.74460000  0.57600000  1.0 -0.0931442664
C  C29  1  0.61770000  0.87310000  0.57600000  1.0 -0.0931442664
C  C30  1  0.25540000  0.38230000  0.57600000  1.0 -0.0931442664
C  C31  1  0.61770000  0.74460000  0.57600000  1.0 -0.0931442664
C  C32  1  0.25540000  0.87310000  0.57600000  1.0 -0.0931442664
C  C33  1  0.12690000  0.38230000  0.57600000  1.0 -0.0931442664
C  C34  1  0.87310000  0.25540000  0.42400000  1.0 -0.0931442664
C  C35  1  0.38230000  0.12690000  0.42400000  1.0 -0.0931442664
C  C36  1  0.74460000  0.61770000  0.42400000  1.0 -0.0931442664
C  C37  1  0.35820000  0.17910000  0.51000000  1.0 -0.0593609504
C  C38  1  0.82090000  0.17910000  0.51000000  1.0 -0.0593609504
C  C39  1  0.82090000  0.64180000  0.51000000  1.0 -0.0593609504
C  C40  1  0.17910000  0.82090000  0.49000000  1.0 -0.0593609504
C  C41  1  0.64180000  0.82090000  0.49000000  1.0 -0.0593609504
C  C42  1  0.17910000  0.35820000  0.49000000  1.0 -0.0593609504
C  C43  1  0.44200000  0.22100000  0.15300000  1.0 -0.1065777203
C  C44  1  0.77900000  0.22100000  0.15300000  1.0 -0.1065777203
C  C45  1  0.77900000  0.55800000  0.15300000  1.0 -0.1065777203
C  C46  1  0.22100000  0.77900000  0.84700000  1.0 -0.1065777203
C  C47  1  0.55800000  0.77900000  0.84700000  1.0 -0.1065777203
C  C48  1  0.22100000  0.44200000  0.84700000  1.0 -0.1065777203
C  C49  1  0.31300000  0.15650000  0.69800000  1.0 0.4817236999
C  C50  1  0.84350000  0.15650000  0.69800000  1.0 0.4817236999
C  C51  1  0.84350000  0.68700000  0.69800000  1.0 0.4817236999
C  C52  1  0.15650000  0.84350000  0.30200000  1.0 0.4817236999
C  C53  1  0.68700000  0.84350000  0.30200000  1.0 0.4817236999
C  C54  1  0.15650000  0.31300000  0.30200000  1.0 0.4817236999
C  C55  1  0.24880000  0.05630000  0.95100000  1.0 -0.2071576837
C  C56  1  0.94370000  0.19250000  0.95100000  1.0 -0.2071576837
C  C57  1  0.80750000  0.75120000  0.95100000  1.0 -0.2071576837
C  C58  1  0.19250000  0.94370000  0.04900000  1.0 -0.2071576837
C  C59  1  0.75120000  0.80750000  0.04900000  1.0 -0.2071576837
C  C60  1  0.05630000  0.24880000  0.04900000  1.0 -0.2071576837
C  C61  1  0.75120000  0.94370000  0.04900000  1.0 -0.2071576837
C  C62  1  0.05630000  0.80750000  0.04900000  1.0 -0.2071576837
C  C63  1  0.19250000  0.24880000  0.04900000  1.0 -0.2071576837
C  C64  1  0.80750000  0.05630000  0.95100000  1.0 -0.2071576837
C  C65  1  0.24880000  0.19250000  0.95100000  1.0 -0.2071576837
C  C66  1  0.94370000  0.75120000  0.95100000  1.0 -0.2071576837
O  O1  1  0.44040000  0.41040000  0.24930000  1.0 -0.5105115037
O  O2  1  0.58960000  0.03000000  0.24930000  1.0 -0.5105115037
O  O3  1  0.97000000  0.55960000  0.24930000  1.0 -0.5105115037
O  O4  1  0.03000000  0.58960000  0.75070000  1.0 -0.5105115037
O  O5  1  0.55960000  0.97000000  0.75070000  1.0 -0.5105115037
O  O6  1  0.41040000  0.44040000  0.75070000  1.0 -0.5105115037
O  O7  1  0.55960000  0.58960000  0.75070000  1.0 -0.5105115037
O  O8  1  0.41040000  0.97000000  0.75070000  1.0 -0.5105115037
O  O9  1  0.03000000  0.44040000  0.75070000  1.0 -0.5105115037
O  O10  1  0.97000000  0.41040000  0.24930000  1.0 -0.5105115037
O  O11  1  0.44040000  0.03000000  0.24930000  1.0 -0.5105115037
O  O12  1  0.58960000  0.55960000  0.24930000  1.0 -0.5105115037
O  O13  1  0.48160000  0.37200000  0.98280000  1.0 -0.5105115037
O  O14  1  0.62800000  0.10960000  0.98280000  1.0 -0.5105115037
O  O15  1  0.89040000  0.51840000  0.98280000  1.0 -0.5105115037
O  O16  1  0.10960000  0.62800000  0.01720000  1.0 -0.5105115037
O  O17  1  0.51840000  0.89040000  0.01720000  1.0 -0.5105115037
O  O18  1  0.37200000  0.48160000  0.01720000  1.0 -0.5105115037
O  O19  1  0.51840000  0.62800000  0.01720000  1.0 -0.5105115037
O  O20  1  0.37200000  0.89040000  0.01720000  1.0 -0.5105115037
O  O21  1  0.10960000  0.48160000  0.01720000  1.0 -0.5105115037
O  O22  1  0.89040000  0.37200000  0.98280000  1.0 -0.5105115037
O  O23  1  0.48160000  0.10960000  0.98280000  1.0 -0.5105115037
O  O24  1  0.62800000  0.51840000  0.98280000  1.0 -0.5105115037
O  O25  1  0.29240000  0.08600000  0.77170000  1.0 -0.2001039086
O  O26  1  0.91400000  0.20640000  0.77170000  1.0 -0.2001039086
O  O27  1  0.79360000  0.70760000  0.77170000  1.0 -0.2001039086
O  O28  1  0.20640000  0.91400000  0.22830000  1.0 -0.2001039086
O  O29  1  0.70760000  0.79360000  0.22830000  1.0 -0.2001039086
O  O30  1  0.08600000  0.29240000  0.22830000  1.0 -0.2001039086
O  O31  1  0.70760000  0.91400000  0.22830000  1.0 -0.2001039086
O  O32  1  0.08600000  0.79360000  0.22830000  1.0 -0.2001039086
O  O33  1  0.20640000  0.29240000  0.22830000  1.0 -0.2001039086
O  O34  1  0.79360000  0.08600000  0.77170000  1.0 -0.2001039086
O  O35  1  0.29240000  0.20640000  0.77170000  1.0 -0.2001039086
O  O36  1  0.91400000  0.70760000  0.77170000  1.0 -0.2001039086
