# DDEC6 charges by PACMAN v1.1 (https://github.com/mtap-research/PACMAN-charge/)
data_LUDTUZ_ASR_pacman
_symmetry_space_group_name_H-M   'P 1'
_cell_length_a   19.53220000
_cell_length_b   19.53220000
_cell_length_c   30.73400000
_cell_angle_alpha   78.49660000
_cell_angle_beta   101.50300000
_cell_angle_gamma   134.90900000
_symmetry_Int_Tables_number   1
_chemical_formula_structural   Zn4H24C36I11N12
_chemical_formula_sum   'Zn16 H96 C144 I44 N48'
_cell_volume   8108.25356556
_cell_formula_units_Z   4
loop_
 _symmetry_equiv_pos_site_id
 _symmetry_equiv_pos_as_xyz
  1  'x, y, z'
loop_
 _atom_site_type_symbol
 _atom_site_label
 _atom_site_symmetry_multiplicity
 _atom_site_fract_x
 _atom_site_fract_y
 _atom_site_fract_z
 _atom_site_occupancy
 _atom_site_charge
Zn  Zn1  1  0.46769000  0.71367000  0.43463000  1.0 0.4171911211
Zn  Zn2  1  0.28633000  0.53231000  0.93463000  1.0 0.4171911211
Zn  Zn3  1  0.95820000  0.78700000  0.58770000  1.0 0.1416121119
Zn  Zn4  1  0.21300000  0.04180000  0.08770000  1.0 0.1416121119
Zn  Zn5  1  0.53756000  0.19188000  0.27398000  1.0 0.2439719544
Zn  Zn6  1  0.80812000  0.46244000  0.77398000  1.0 0.2439719544
Zn  Zn7  1  0.18100000  0.03900000  0.09570000  1.0 0.1272398525
Zn  Zn8  1  0.96100000  0.81900000  0.59570000  1.0 0.1272398525
Zn  Zn9  1  0.53231000  0.28633000  0.56537000  1.0 0.4171911211
Zn  Zn10  1  0.71367000  0.46769000  0.06537000  1.0 0.4171911211
Zn  Zn11  1  0.04180000  0.21300000  0.41230000  1.0 0.1416121119
Zn  Zn12  1  0.78700000  0.95820000  0.91230000  1.0 0.1416121119
Zn  Zn13  1  0.46244000  0.80812000  0.72602000  1.0 0.2439719544
Zn  Zn14  1  0.19188000  0.53756000  0.22602000  1.0 0.2439719544
Zn  Zn15  1  0.81900000  0.96100000  0.90430000  1.0 0.1272398525
Zn  Zn16  1  0.03900000  0.18100000  0.40430000  1.0 0.1272398525
H  H1  1  0.07250000  0.84850000  0.51730000  1.0 0.0696772657
H  H2  1  0.15150000  0.92750000  0.01730000  1.0 0.0696772657
H  H3  1  0.19850000  0.98630000  0.47540000  1.0 0.1203192525
H  H4  1  0.01370000  0.80150000  0.97540000  1.0 0.1203192525
H  H5  1  0.15630000  0.13570000  0.51860000  1.0 0.1203192525
H  H6  1  0.86430000  0.84370000  0.01860000  1.0 0.1203192525
H  H7  1  0.04220000  0.99700000  0.56410000  1.0 0.0696772657
H  H8  1  0.00300000  0.95780000  0.06410000  1.0 0.0696772657
H  H9  1  0.44630000  0.59970000  0.37670000  1.0 0.0782743473
H  H10  1  0.40030000  0.55370000  0.87670000  1.0 0.0782743473
H  H11  1  0.41800000  0.46300000  0.37480000  1.0 0.1203192525
H  H12  1  0.53700000  0.58200000  0.87480000  1.0 0.1203192525
H  H13  1  0.35130000  0.39230000  0.50270000  1.0 0.1203192525
H  H14  1  0.60770000  0.64870000  0.00270000  1.0 0.1203192525
H  H15  1  0.39280000  0.53720000  0.50010000  1.0 0.0696772657
H  H16  1  0.46280000  0.60720000  0.00010000  1.0 0.0696772657
H  H17  1  0.43700000  0.08800000  0.35980000  1.0 0.0696772657
H  H18  1  0.91200000  0.56300000  0.85980000  1.0 0.0696772657
H  H19  1  0.36360000  0.09520000  0.40690000  1.0 0.1203192525
H  H20  1  0.90480000  0.63640000  0.90690000  1.0 0.1203192525
H  H21  1  0.47280000  0.35100000  0.34160000  1.0 0.1272398525
H  H22  1  0.64900000  0.52720000  0.84160000  1.0 0.1272398525
H  H23  1  0.53510000  0.33270000  0.29290000  1.0 0.0782743473
H  H24  1  0.66730000  0.46490000  0.79290000  1.0 0.0782743473
H  H25  1  0.03960000  0.85140000  0.12890000  1.0 0.0782743473
H  H26  1  0.14860000  0.96040000  0.62890000  1.0 0.0782743473
H  H27  1  0.99890000  0.72730000  0.18070000  1.0 0.1203192525
H  H28  1  0.27270000  0.00110000  0.68070000  1.0 0.1203192525
H  H29  1  0.27880000  0.88900000  0.21840000  1.0 0.1018144268
H  H30  1  0.11100000  0.72120000  0.71840000  1.0 0.1018144268
H  H31  1  0.31430000  0.00030000  0.15790000  1.0 0.0594883417
H  H32  1  0.99970000  0.68570000  0.65790000  1.0 0.0594883417
H  H33  1  0.45050000  0.82490000  0.35860000  1.0 0.0782743473
H  H34  1  0.17510000  0.54950000  0.85860000  1.0 0.0782743473
H  H35  1  0.33560000  0.81220000  0.31110000  1.0 0.1018144268
H  H36  1  0.18780000  0.66440000  0.81110000  1.0 0.1018144268
H  H37  1  0.12990000  0.53950000  0.36750000  1.0 0.1143012897
H  H38  1  0.46050000  0.87010000  0.86750000  1.0 0.1143012897
H  H39  1  0.25610000  0.56430000  0.41320000  1.0 0.0696772657
H  H40  1  0.43570000  0.74390000  0.91320000  1.0 0.0696772657
H  H41  1  0.72980000  0.26320000  0.32060000  1.0 0.0696772657
H  H42  1  0.73680000  0.27020000  0.82060000  1.0 0.0696772657
H  H43  1  0.89300000  0.40120000  0.32450000  1.0 0.1203192525
H  H44  1  0.59880000  0.10700000  0.82450000  1.0 0.1203192525
H  H45  1  0.83440000  0.53340000  0.22880000  1.0 0.1272398525
H  H46  1  0.46660000  0.16560000  0.72880000  1.0 0.1272398525
H  H47  1  0.67330000  0.39270000  0.22960000  1.0 0.0594883417
H  H48  1  0.60730000  0.32670000  0.72960000  1.0 0.0594883417
H  H49  1  0.92750000  0.15150000  0.48270000  1.0 0.0696772657
H  H50  1  0.84850000  0.07250000  0.98270000  1.0 0.0696772657
H  H51  1  0.80150000  0.01370000  0.52460000  1.0 0.1203192525
H  H52  1  0.98630000  0.19850000  0.02460000  1.0 0.1203192525
H  H53  1  0.84370000  0.86430000  0.48140000  1.0 0.1203192525
H  H54  1  0.13570000  0.15630000  0.98140000  1.0 0.1203192525
H  H55  1  0.95780000  0.00300000  0.43590000  1.0 0.0696772657
H  H56  1  0.99700000  0.04220000  0.93590000  1.0 0.0696772657
H  H57  1  0.55370000  0.40030000  0.62330000  1.0 0.0782743473
H  H58  1  0.59970000  0.44630000  0.12330000  1.0 0.0782743473
H  H59  1  0.58200000  0.53700000  0.62520000  1.0 0.1203192525
H  H60  1  0.46300000  0.41800000  0.12520000  1.0 0.1203192525
H  H61  1  0.64870000  0.60770000  0.49730000  1.0 0.1203192525
H  H62  1  0.39230000  0.35130000  0.99730000  1.0 0.1203192525
H  H63  1  0.60720000  0.46280000  0.49990000  1.0 0.0696772657
H  H64  1  0.53720000  0.39280000  0.99990000  1.0 0.0696772657
H  H65  1  0.56300000  0.91200000  0.64020000  1.0 0.0696772657
H  H66  1  0.08800000  0.43700000  0.14020000  1.0 0.0696772657
H  H67  1  0.63640000  0.90480000  0.59310000  1.0 0.1203192525
H  H68  1  0.09520000  0.36360000  0.09310000  1.0 0.1203192525
H  H69  1  0.52720000  0.64900000  0.65840000  1.0 0.1272398525
H  H70  1  0.35100000  0.47280000  0.15840000  1.0 0.1272398525
H  H71  1  0.46490000  0.66730000  0.70710000  1.0 0.0782743473
H  H72  1  0.33270000  0.53510000  0.20710000  1.0 0.0782743473
H  H73  1  0.96040000  0.14860000  0.87110000  1.0 0.0782743473
H  H74  1  0.85140000  0.03960000  0.37110000  1.0 0.0782743473
H  H75  1  0.00110000  0.27270000  0.81930000  1.0 0.1203192525
H  H76  1  0.72730000  0.99890000  0.31930000  1.0 0.1203192525
H  H77  1  0.72120000  0.11100000  0.78160000  1.0 0.1018144268
H  H78  1  0.88900000  0.27880000  0.28160000  1.0 0.1018144268
H  H79  1  0.68570000  0.99970000  0.84210000  1.0 0.0594883417
H  H80  1  0.00030000  0.31430000  0.34210000  1.0 0.0594883417
H  H81  1  0.54950000  0.17510000  0.64140000  1.0 0.0782743473
H  H82  1  0.82490000  0.45050000  0.14140000  1.0 0.0782743473
H  H83  1  0.66440000  0.18780000  0.68890000  1.0 0.1018144268
H  H84  1  0.81220000  0.33560000  0.18890000  1.0 0.1018144268
H  H85  1  0.87010000  0.46050000  0.63250000  1.0 0.1143012897
H  H86  1  0.53950000  0.12990000  0.13250000  1.0 0.1143012897
H  H87  1  0.74390000  0.43570000  0.58680000  1.0 0.0696772657
H  H88  1  0.56430000  0.25610000  0.08680000  1.0 0.0696772657
H  H89  1  0.27020000  0.73680000  0.67940000  1.0 0.0696772657
H  H90  1  0.26320000  0.72980000  0.17940000  1.0 0.0696772657
H  H91  1  0.10700000  0.59880000  0.67550000  1.0 0.1203192525
H  H92  1  0.40120000  0.89300000  0.17550000  1.0 0.1203192525
H  H93  1  0.16560000  0.46660000  0.77120000  1.0 0.1272398525
H  H94  1  0.53340000  0.83440000  0.27120000  1.0 0.1272398525
H  H95  1  0.32670000  0.60730000  0.77040000  1.0 0.0594883417
H  H96  1  0.39270000  0.67330000  0.27040000  1.0 0.0594883417
C  C1  1  0.26730000  0.16310000  0.46370000  1.0 0.363340367
C  C2  1  0.83690000  0.73270000  0.96370000  1.0 0.363340367
C  C3  1  0.35570000  0.32070000  0.43970000  1.0 0.3522514657
C  C4  1  0.67930000  0.64430000  0.93970000  1.0 0.3522514657
C  C5  1  0.36630000  0.23170000  0.40970000  1.0 0.339660511
C  C6  1  0.76830000  0.63370000  0.90970000  1.0 0.339660511
C  C7  1  0.09220000  0.90860000  0.51860000  1.0 0.0518086461
C  C8  1  0.09140000  0.90780000  0.01860000  1.0 0.0518086461
C  C9  1  0.16600000  0.99020000  0.49260000  1.0 -0.1630952437
C  C10  1  0.00980000  0.83400000  0.99260000  1.0 -0.1630952437
C  C11  1  0.19070000  0.07590000  0.49220000  1.0 0.0518086461
C  C12  1  0.92410000  0.80930000  0.99220000  1.0 0.0518086461
C  C13  1  0.14240000  0.07840000  0.51860000  1.0 -0.1630952437
C  C14  1  0.92160000  0.85760000  0.01860000  1.0 -0.1630952437
C  C15  1  0.07320000  0.99460000  0.54520000  1.0 0.0400501414
C  C16  1  0.00540000  0.92680000  0.04520000  1.0 0.0400501414
C  C17  1  0.42970000  0.55810000  0.40330000  1.0 0.0782743473
C  C18  1  0.44190000  0.57030000  0.90330000  1.0 0.0782743473
C  C19  1  0.41100000  0.47560000  0.40110000  1.0 -0.1782001874
C  C20  1  0.52440000  0.58900000  0.90110000  1.0 -0.1782001874
C  C21  1  0.38130000  0.41170000  0.44000000  1.0 0.0400501414
C  C22  1  0.58830000  0.61870000  0.94000000  1.0 0.0400501414
C  C23  1  0.37320000  0.43480000  0.47620000  1.0 -0.1630952437
C  C24  1  0.56520000  0.62680000  0.97620000  1.0 -0.1630952437
C  C25  1  0.39730000  0.52130000  0.47420000  1.0 0.028016275
C  C26  1  0.47870000  0.60270000  0.97420000  1.0 0.028016275
C  C27  1  0.44220000  0.14100000  0.35550000  1.0 0.0518086461
C  C28  1  0.85900000  0.55780000  0.85550000  1.0 0.0518086461
C  C29  1  0.39960000  0.14580000  0.38410000  1.0 -0.1630952437
C  C30  1  0.85420000  0.60040000  0.88410000  1.0 -0.1680472984
C  C31  1  0.40960000  0.22400000  0.37960000  1.0 0.0400501414
C  C32  1  0.77600000  0.59040000  0.87960000  1.0 0.0400501414
C  C33  1  0.46260000  0.29480000  0.34540000  1.0 -0.1680472984
C  C34  1  0.70520000  0.53740000  0.84540000  1.0 -0.1680472984
C  C35  1  0.50070000  0.28450000  0.31670000  1.0 0.0594883417
C  C36  1  0.71550000  0.49930000  0.81670000  1.0 0.0594883417
C  C37  1  0.10520000  0.72000000  0.24420000  1.0 0.3650387929
C  C38  1  0.28000000  0.89480000  0.74420000  1.0 0.363340367
C  C39  1  0.14370000  0.66170000  0.30230000  1.0 0.339660511
C  C40  1  0.33830000  0.85630000  0.80230000  1.0 0.339660511
C  C41  1  0.98630000  0.57370000  0.27790000  1.0 0.339660511
C  C42  1  0.42630000  0.01370000  0.77790000  1.0 0.339660511
C  C43  1  0.08980000  0.85800000  0.14620000  1.0 0.0518086461
C  C44  1  0.14200000  0.91020000  0.64620000  1.0 0.0518086461
C  C45  1  0.06520000  0.78580000  0.17840000  1.0 -0.1503838046
C  C46  1  0.21420000  0.93480000  0.67840000  1.0 -0.1503838046
C  C47  1  0.13370000  0.79690000  0.20660000  1.0 0.0518086461
C  C48  1  0.20310000  0.86630000  0.70660000  1.0 0.0518086461
C  C49  1  0.22770000  0.87830000  0.19930000  1.0 -0.1782001874
C  C50  1  0.12170000  0.77230000  0.69930000  1.0 -0.1782001874
C  C51  1  0.24850000  0.94570000  0.16380000  1.0 0.020363512
C  C52  1  0.05430000  0.75150000  0.66380000  1.0 0.028016275
C  C53  1  0.38430000  0.76590000  0.36050000  1.0 0.0518086461
C  C54  1  0.23410000  0.61570000  0.86050000  1.0 0.0594883417
C  C55  1  0.31610000  0.75890000  0.33170000  1.0 -0.1680472984
C  C56  1  0.24110000  0.68390000  0.83170000  1.0 -0.1680472984
C  C57  1  0.21870000  0.67330000  0.33300000  1.0 0.0518086461
C  C58  1  0.32670000  0.78130000  0.83300000  1.0 0.0518086461
C  C59  1  0.19540000  0.59920000  0.36450000  1.0 -0.187608074
C  C60  1  0.40080000  0.80460000  0.86450000  1.0 -0.187608074
C  C61  1  0.27220000  0.61560000  0.39210000  1.0 0.0594883417
C  C62  1  0.38440000  0.72780000  0.89210000  1.0 0.0594883417
C  C63  1  0.75140000  0.31980000  0.30240000  1.0 0.0518086461
C  C64  1  0.68020000  0.24860000  0.80240000  1.0 0.0518086461
C  C65  1  0.84910000  0.40170000  0.30480000  1.0 -0.1680472984
C  C66  1  0.59830000  0.15090000  0.80480000  1.0 -0.1680472984
C  C67  1  0.88220000  0.48340000  0.27870000  1.0 0.0400501414
C  C68  1  0.51660000  0.11780000  0.77870000  1.0 0.0400501414
C  C69  1  0.81410000  0.47910000  0.24880000  1.0 -0.1630952437
C  C70  1  0.52090000  0.18590000  0.74880000  1.0 -0.1630952437
C  C71  1  0.71900000  0.39500000  0.24940000  1.0 0.0400501414
C  C72  1  0.60500000  0.28100000  0.74940000  1.0 0.0400501414
C  C73  1  0.73270000  0.83690000  0.53630000  1.0 0.363340367
C  C74  1  0.16310000  0.26730000  0.03630000  1.0 0.363340367
C  C75  1  0.64430000  0.67930000  0.56030000  1.0 0.3522514657
C  C76  1  0.32070000  0.35570000  0.06030000  1.0 0.3522514657
C  C77  1  0.63370000  0.76830000  0.59030000  1.0 0.339660511
C  C78  1  0.23170000  0.36630000  0.09030000  1.0 0.339660511
C  C79  1  0.90780000  0.09140000  0.48140000  1.0 0.0518086461
C  C80  1  0.90860000  0.09220000  0.98140000  1.0 0.0518086461
C  C81  1  0.83400000  0.00980000  0.50740000  1.0 -0.1630952437
C  C82  1  0.99020000  0.16600000  0.00740000  1.0 -0.1630952437
C  C83  1  0.80930000  0.92410000  0.50780000  1.0 0.0518086461
C  C84  1  0.07590000  0.19070000  0.00780000  1.0 0.0518086461
C  C85  1  0.85760000  0.92160000  0.48140000  1.0 -0.1630952437
C  C86  1  0.07840000  0.14240000  0.98140000  1.0 -0.1630952437
C  C87  1  0.92680000  0.00540000  0.45480000  1.0 0.0400501414
C  C88  1  0.99460000  0.07320000  0.95480000  1.0 0.0400501414
C  C89  1  0.57030000  0.44190000  0.59670000  1.0 0.0782743473
C  C90  1  0.55810000  0.42970000  0.09670000  1.0 0.0782743473
C  C91  1  0.58900000  0.52440000  0.59890000  1.0 -0.1782001874
C  C92  1  0.47560000  0.41100000  0.09890000  1.0 -0.1782001874
C  C93  1  0.61870000  0.58830000  0.56000000  1.0 0.0400501414
C  C94  1  0.41170000  0.38130000  0.06000000  1.0 0.0400501414
C  C95  1  0.62680000  0.56520000  0.52380000  1.0 -0.1680472984
C  C96  1  0.43480000  0.37320000  0.02380000  1.0 -0.1630952437
C  C97  1  0.60270000  0.47870000  0.52580000  1.0 0.028016275
C  C98  1  0.52130000  0.39730000  0.02580000  1.0 0.028016275
C  C99  1  0.55780000  0.85900000  0.64450000  1.0 0.0518086461
C  C100  1  0.14100000  0.44220000  0.14450000  1.0 0.0518086461
C  C101  1  0.60040000  0.85420000  0.61590000  1.0 -0.1630952437
C  C102  1  0.14580000  0.39960000  0.11590000  1.0 -0.1630952437
C  C103  1  0.59040000  0.77600000  0.62040000  1.0 0.0400501414
C  C104  1  0.22400000  0.40960000  0.12040000  1.0 0.0400501414
C  C105  1  0.53740000  0.70520000  0.65460000  1.0 -0.1680472984
C  C106  1  0.29480000  0.46260000  0.15460000  1.0 -0.1630952437
C  C107  1  0.49930000  0.71550000  0.68330000  1.0 0.0594883417
C  C108  1  0.28450000  0.50070000  0.18330000  1.0 0.0594883417
C  C109  1  0.89480000  0.28000000  0.75580000  1.0 0.363340367
C  C110  1  0.72000000  0.10520000  0.25580000  1.0 0.363340367
C  C111  1  0.85630000  0.33830000  0.69770000  1.0 0.339660511
C  C112  1  0.66170000  0.14370000  0.19770000  1.0 0.339660511
C  C113  1  0.01370000  0.42630000  0.72210000  1.0 0.339660511
C  C114  1  0.57370000  0.98630000  0.22210000  1.0 0.339660511
C  C115  1  0.91020000  0.14200000  0.85380000  1.0 0.0518086461
C  C116  1  0.85800000  0.08980000  0.35380000  1.0 0.0518086461
C  C117  1  0.93480000  0.21420000  0.82160000  1.0 -0.1503838046
C  C118  1  0.78580000  0.06520000  0.32160000  1.0 -0.1503838046
C  C119  1  0.86630000  0.20310000  0.79340000  1.0 0.0518086461
C  C120  1  0.79690000  0.13370000  0.29340000  1.0 0.0518086461
C  C121  1  0.77230000  0.12170000  0.80070000  1.0 -0.1782001874
C  C122  1  0.87830000  0.22770000  0.30070000  1.0 -0.1782001874
C  C123  1  0.75150000  0.05430000  0.83620000  1.0 0.028016275
C  C124  1  0.94570000  0.24850000  0.33620000  1.0 0.028016275
C  C125  1  0.61570000  0.23410000  0.63950000  1.0 0.0518086461
C  C126  1  0.76590000  0.38430000  0.13950000  1.0 0.0518086461
C  C127  1  0.68390000  0.24110000  0.66830000  1.0 -0.1680472984
C  C128  1  0.75890000  0.31610000  0.16830000  1.0 -0.1680472984
C  C129  1  0.78130000  0.32670000  0.66700000  1.0 0.0518086461
C  C130  1  0.67330000  0.21870000  0.16700000  1.0 0.0518086461
C  C131  1  0.80460000  0.40080000  0.63550000  1.0 -0.187608074
C  C132  1  0.59920000  0.19540000  0.13550000  1.0 -0.187608074
C  C133  1  0.72780000  0.38440000  0.60790000  1.0 0.0594883417
C  C134  1  0.61560000  0.27220000  0.10790000  1.0 0.0594883417
C  C135  1  0.24860000  0.68020000  0.69760000  1.0 0.0594883417
C  C136  1  0.31980000  0.75140000  0.19760000  1.0 0.0518086461
C  C137  1  0.15090000  0.59830000  0.69520000  1.0 -0.1680472984
C  C138  1  0.40170000  0.84910000  0.19520000  1.0 -0.1680472984
C  C139  1  0.11780000  0.51660000  0.72130000  1.0 0.0518086461
C  C140  1  0.48340000  0.88220000  0.22130000  1.0 0.0400501414
C  C141  1  0.18590000  0.52090000  0.75120000  1.0 -0.1680472984
C  C142  1  0.47910000  0.81410000  0.25120000  1.0 -0.1680472984
C  C143  1  0.28100000  0.60500000  0.75060000  1.0 0.0400501414
C  C144  1  0.39500000  0.71900000  0.25060000  1.0 0.0400501414
I  I1  1  0.62741000  0.83939000  0.39859000  1.0 -0.4699987962
I  I2  1  0.16061000  0.37259000  0.89859000  1.0 -0.4699987962
I  I3  1  0.43510000  0.70770000  0.51580000  1.0 0.0400501414
I  I4  1  0.29230000  0.56490000  0.01580000  1.0 0.0400501414
I  I5  1  0.88221000  0.63965000  0.54738000  1.0 0.020363512
I  I6  1  0.36035000  0.11779000  0.04738000  1.0 0.020363512
I  I7  1  0.87005000  0.80411000  0.62608000  1.0 -0.0490465457
I  I8  1  0.19589000  0.12995000  0.12608000  1.0 -0.0490465457
I  I9  1  0.46198000  0.20900000  0.19874000  1.0 0.0594883417
I  I10  1  0.79100000  0.53802000  0.69874000  1.0 0.0594883417
I  I11  1  0.50520000  0.04100000  0.29830000  1.0 0.0084600461
I  I12  1  0.95900000  0.49480000  0.79830000  1.0 0.0084600461
I  I13  1  0.45145000  0.73495000  0.50830000  1.0 -0.0363310764
I  I14  1  0.26505000  0.54855000  0.00830000  1.0 -0.0363310764
I  I15  1  0.34000000  0.13140000  0.06008000  1.0 -0.0490465457
I  I16  1  0.86860000  0.66000000  0.56008000  1.0 -0.0490465457
I  I17  1  0.14550000  0.11190000  0.13485000  1.0 0.028016275
I  I18  1  0.88810000  0.85450000  0.63485000  1.0 0.028016275
I  I19  1  0.45590000  0.18770000  0.21190000  1.0 0.0400501414
I  I20  1  0.81230000  0.54410000  0.71190000  1.0 0.0400501414
I  I21  1  0.53300000  0.05040000  0.31350000  1.0 0.0518086461
I  I22  1  0.94960000  0.46700000  0.81350000  1.0 0.0594883417
I  I23  1  0.37259000  0.16061000  0.60141000  1.0 -0.4699987962
I  I24  1  0.83939000  0.62741000  0.10141000  1.0 -0.4699987962
I  I25  1  0.56490000  0.29230000  0.48420000  1.0 0.0400501414
I  I26  1  0.70770000  0.43510000  0.98420000  1.0 0.0400501414
I  I27  1  0.11779000  0.36035000  0.45262000  1.0 0.020363512
I  I28  1  0.63965000  0.88221000  0.95262000  1.0 0.020363512
I  I29  1  0.12995000  0.19589000  0.37392000  1.0 -0.0490465457
I  I30  1  0.80411000  0.87005000  0.87392000  1.0 -0.0490465457
I  I31  1  0.53802000  0.79100000  0.80126000  1.0 0.0594883417
I  I32  1  0.20900000  0.46198000  0.30126000  1.0 0.0594883417
I  I33  1  0.49480000  0.95900000  0.70170000  1.0 0.0084600461
I  I34  1  0.04100000  0.50520000  0.20170000  1.0 0.0084600461
I  I35  1  0.54855000  0.26505000  0.49170000  1.0 -0.0363310764
I  I36  1  0.73495000  0.45145000  0.99170000  1.0 -0.0363310764
I  I37  1  0.66000000  0.86860000  0.93992000  1.0 -0.0490465457
I  I38  1  0.13140000  0.34000000  0.43992000  1.0 -0.0490465457
I  I39  1  0.85450000  0.88810000  0.86515000  1.0 0.028016275
I  I40  1  0.11190000  0.14550000  0.36515000  1.0 0.028016275
I  I41  1  0.54410000  0.81230000  0.78810000  1.0 0.0400501414
I  I42  1  0.18770000  0.45590000  0.28810000  1.0 0.0400501414
I  I43  1  0.46700000  0.94960000  0.68650000  1.0 0.0518086461
I  I44  1  0.05040000  0.53300000  0.18650000  1.0 0.0518086461
N  N1  1  0.30010000  0.15130000  0.43530000  1.0 -0.4379926782
N  N2  1  0.84870000  0.69990000  0.93530000  1.0 -0.4379926782
N  N3  1  0.29610000  0.24750000  0.46980000  1.0 -0.449039404
N  N4  1  0.75250000  0.70390000  0.96980000  1.0 -0.449039404
N  N5  1  0.39320000  0.31720000  0.40890000  1.0 -0.4379926782
N  N6  1  0.68280000  0.60680000  0.90890000  1.0 -0.4379926782
N  N7  1  0.04920000  0.91220000  0.54490000  1.0 -0.187608074
N  N8  1  0.08780000  0.95080000  0.04490000  1.0 -0.187608074
N  N9  1  0.42650000  0.58350000  0.43770000  1.0 -0.2119922235
N  N10  1  0.41650000  0.57350000  0.93770000  1.0 -0.2119922235
N  N11  1  0.49030000  0.20850000  0.32190000  1.0 -0.2024248007
N  N12  1  0.79150000  0.50970000  0.82190000  1.0 -0.2024248007
N  N13  1  0.17390000  0.73250000  0.26960000  1.0 -0.4134402841
N  N14  1  0.26750000  0.82610000  0.76960000  1.0 -0.4134402841
N  N15  1  0.05060000  0.57860000  0.30710000  1.0 -0.4307208595
N  N16  1  0.42140000  0.94940000  0.80710000  1.0 -0.4307208595
N  N17  1  0.00990000  0.64450000  0.24560000  1.0 -0.4307208595
N  N18  1  0.35550000  0.99010000  0.74560000  1.0 -0.4307208595
N  N19  1  0.18070000  0.93650000  0.13820000  1.0 -0.1782001874
N  N20  1  0.06350000  0.81930000  0.63820000  1.0 -0.1782001874
N  N21  1  0.36400000  0.69620000  0.39060000  1.0 -0.2024248007
N  N22  1  0.30380000  0.63600000  0.89060000  1.0 -0.2024248007
N  N23  1  0.68530000  0.31510000  0.27630000  1.0 -0.2119922235
N  N24  1  0.68490000  0.31470000  0.77630000  1.0 -0.2119922235
N  N25  1  0.69990000  0.84870000  0.56470000  1.0 -0.4379926782
N  N26  1  0.15130000  0.30010000  0.06470000  1.0 -0.4379926782
N  N27  1  0.70390000  0.75250000  0.53020000  1.0 -0.449039404
N  N28  1  0.24750000  0.29610000  0.03020000  1.0 -0.449039404
N  N29  1  0.60680000  0.68280000  0.59110000  1.0 -0.4379926782
N  N30  1  0.31720000  0.39320000  0.09110000  1.0 -0.4379926782
N  N31  1  0.95080000  0.08780000  0.45510000  1.0 -0.1782001874
N  N32  1  0.91220000  0.04920000  0.95510000  1.0 -0.187608074
N  N33  1  0.57350000  0.41650000  0.56230000  1.0 -0.2119922235
N  N34  1  0.58350000  0.42650000  0.06230000  1.0 -0.2119922235
N  N35  1  0.50970000  0.79150000  0.67810000  1.0 -0.2024248007
N  N36  1  0.20850000  0.49030000  0.17810000  1.0 -0.2024248007
N  N37  1  0.82610000  0.26750000  0.73040000  1.0 -0.4134402841
N  N38  1  0.73250000  0.17390000  0.23040000  1.0 -0.4134402841
N  N39  1  0.94940000  0.42140000  0.69290000  1.0 -0.4307208595
N  N40  1  0.57860000  0.05060000  0.19290000  1.0 -0.4307208595
N  N41  1  0.99010000  0.35550000  0.75440000  1.0 -0.4379926782
N  N42  1  0.64450000  0.00990000  0.25440000  1.0 -0.4307208595
N  N43  1  0.81930000  0.06350000  0.86180000  1.0 -0.1782001874
N  N44  1  0.93650000  0.18070000  0.36180000  1.0 -0.1782001874
N  N45  1  0.63600000  0.30380000  0.60940000  1.0 -0.2024248007
N  N46  1  0.69620000  0.36400000  0.10940000  1.0 -0.2024248007
N  N47  1  0.31470000  0.68490000  0.72370000  1.0 -0.2119922235
N  N48  1  0.31510000  0.68530000  0.22370000  1.0 -0.2119922235
