# DDEC6 charges by PACMAN v1.1 (https://github.com/mtap-research/PACMAN-charge/)
data_LUDVEL_FSR_pacman
_symmetry_space_group_name_H-M   'P 1'
_cell_length_a   19.27910000
_cell_length_b   19.27910000
_cell_length_c   31.54200000
_cell_angle_alpha   78.87020000
_cell_angle_beta   101.13000000
_cell_angle_gamma   133.95400000
_symmetry_Int_Tables_number   1
_chemical_formula_structural   Zn3H24C36I7N12
_chemical_formula_sum   'Zn12 H96 C144 I28 N48'
_cell_volume   8252.09584607
_cell_formula_units_Z   4
loop_
 _symmetry_equiv_pos_site_id
 _symmetry_equiv_pos_as_xyz
  1  'x, y, z'
loop_
 _atom_site_type_symbol
 _atom_site_label
 _atom_site_symmetry_multiplicity
 _atom_site_fract_x
 _atom_site_fract_y
 _atom_site_fract_z
 _atom_site_occupancy
 _atom_site_charge
Zn  Zn1  1  0.32013000  0.96849000  0.27908000  1.0 0.3405515707
Zn  Zn2  1  0.03151000  0.67987000  0.77908000  1.0 0.3405515707
Zn  Zn3  1  0.46762000  0.30188000  0.09441000  1.0 0.4525235004
Zn  Zn4  1  0.69812000  0.53238000  0.59441000  1.0 0.4525235004
Zn  Zn5  1  0.79040000  0.04132000  0.43464000  1.0 0.4626938483
Zn  Zn6  1  0.95868000  0.20960000  0.93464000  1.0 0.4626938483
Zn  Zn7  1  0.96849000  0.32013000  0.22092000  1.0 0.3405515707
Zn  Zn8  1  0.67987000  0.03151000  0.72092000  1.0 0.3405515707
Zn  Zn9  1  0.30188000  0.46762000  0.40559000  1.0 0.4525235004
Zn  Zn10  1  0.53238000  0.69812000  0.90559000  1.0 0.4525235004
Zn  Zn11  1  0.04132000  0.79040000  0.06536000  1.0 0.4626938483
Zn  Zn12  1  0.20960000  0.95868000  0.56536000  1.0 0.4626938483
H  H1  1  0.95900000  0.10160000  0.49870000  1.0 0.106409418
H  H2  1  0.89840000  0.04100000  0.99870000  1.0 0.106409418
H  H3  1  0.10350000  0.14110000  0.50250000  1.0 0.1380482326
H  H4  1  0.85890000  0.89650000  0.00250000  1.0 0.1380482326
H  H5  1  0.06040000  0.12040000  0.37330000  1.0 0.1380482326
H  H6  1  0.87960000  0.93960000  0.87330000  1.0 0.1380482326
H  H7  1  0.92010000  0.08650000  0.37330000  1.0 0.1018619814
H  H8  1  0.91350000  0.07990000  0.87330000  1.0 0.1018619814
H  H9  1  0.64820000  0.41380000  0.52660000  1.0 0.106409418
H  H10  1  0.58620000  0.35180000  0.02660000  1.0 0.106409418
H  H11  1  0.51780000  0.30160000  0.48030000  1.0 0.1380482326
H  H12  1  0.69840000  0.48220000  0.98030000  1.0 0.1380482326
H  H13  1  0.36490000  0.34710000  0.51790000  1.0 0.1380482326
H  H14  1  0.65290000  0.63510000  0.01790000  1.0 0.1380482326
H  H15  1  0.49910000  0.46090000  0.56230000  1.0 0.106409418
H  H16  1  0.53910000  0.50090000  0.06230000  1.0 0.106409418
H  H17  1  0.18540000  0.98680000  0.29450000  1.0 0.0888058798
H  H18  1  0.01320000  0.81460000  0.79450000  1.0 0.0888058798
H  H19  1  0.16770000  0.05250000  0.34000000  1.0 0.1311765664
H  H20  1  0.94750000  0.83230000  0.84000000  1.0 0.1311765664
H  H21  1  0.40500000  0.12660000  0.41360000  1.0 0.1311765664
H  H22  1  0.87340000  0.59500000  0.91360000  1.0 0.1311765664
H  H23  1  0.41530000  0.05870000  0.36440000  1.0 0.1018619814
H  H24  1  0.94130000  0.58470000  0.86440000  1.0 0.1018619814
H  H25  1  0.66550000  0.47290000  0.12700000  1.0 0.1018619814
H  H26  1  0.52710000  0.33450000  0.62700000  1.0 0.1018619814
H  H27  1  0.78700000  0.51620000  0.18100000  1.0 0.1311765664
H  H28  1  0.48380000  0.21300000  0.68100000  1.0 0.1311765664
H  H29  1  0.62020000  0.23520000  0.22230000  1.0 0.1311765664
H  H30  1  0.76480000  0.37980000  0.72230000  1.0 0.1311765664
H  H31  1  0.50960000  0.19800000  0.16340000  1.0 0.0815849003
H  H32  1  0.80200000  0.49040000  0.66340000  1.0 0.0815849003
H  H33  1  0.11900000  0.84080000  0.23880000  1.0 0.0815849003
H  H34  1  0.15920000  0.88100000  0.73880000  1.0 0.0815849003
H  H35  1  0.97690000  0.67950000  0.23650000  1.0 0.1380482326
H  H36  1  0.32050000  0.02310000  0.73650000  1.0 0.1380482326
H  H37  1  0.11020000  0.61100000  0.32200000  1.0 0.1380482326
H  H38  1  0.38900000  0.88980000  0.82200000  1.0 0.1311765664
H  H39  1  0.24960000  0.77380000  0.32030000  1.0 0.1018619814
H  H40  1  0.22620000  0.75040000  0.82030000  1.0 0.1018619814
H  H41  1  0.93200000  0.25260000  0.41890000  1.0 0.1018619814
H  H42  1  0.74740000  0.06800000  0.91890000  1.0 0.1018619814
H  H43  1  0.96140000  0.37820000  0.37080000  1.0 0.1311765664
H  H44  1  0.62180000  0.03860000  0.87080000  1.0 0.1311765664
H  H45  1  0.70860000  0.17540000  0.30300000  1.0 0.1311765664
H  H46  1  0.82460000  0.29140000  0.80300000  1.0 0.1311765664
H  H47  1  0.68970000  0.05810000  0.35140000  1.0 0.106409418
H  H48  1  0.94190000  0.31030000  0.85140000  1.0 0.106409418
H  H49  1  0.10160000  0.95900000  0.00130000  1.0 0.106409418
H  H50  1  0.04100000  0.89840000  0.50130000  1.0 0.106409418
H  H51  1  0.14110000  0.10350000  0.99750000  1.0 0.1380482326
H  H52  1  0.89650000  0.85890000  0.49750000  1.0 0.1380482326
H  H53  1  0.12040000  0.06040000  0.12670000  1.0 0.1380482326
H  H54  1  0.93960000  0.87960000  0.62670000  1.0 0.1380482326
H  H55  1  0.08650000  0.92010000  0.12670000  1.0 0.1018619814
H  H56  1  0.07990000  0.91350000  0.62670000  1.0 0.1018619814
H  H57  1  0.41380000  0.64820000  0.97340000  1.0 0.106409418
H  H58  1  0.35180000  0.58620000  0.47340000  1.0 0.106409418
H  H59  1  0.30160000  0.51780000  0.01970000  1.0 0.1380482326
H  H60  1  0.48220000  0.69840000  0.51970000  1.0 0.1380482326
H  H61  1  0.34710000  0.36490000  0.98210000  1.0 0.1380482326
H  H62  1  0.63510000  0.65290000  0.48210000  1.0 0.1380482326
H  H63  1  0.46090000  0.49910000  0.93770000  1.0 0.106409418
H  H64  1  0.50090000  0.53910000  0.43770000  1.0 0.106409418
H  H65  1  0.98680000  0.18540000  0.20550000  1.0 0.0888058798
H  H66  1  0.81460000  0.01320000  0.70550000  1.0 0.0888058798
H  H67  1  0.05250000  0.16770000  0.16000000  1.0 0.1311765664
H  H68  1  0.83230000  0.94750000  0.66000000  1.0 0.1311765664
H  H69  1  0.12660000  0.40500000  0.08640000  1.0 0.1311765664
H  H70  1  0.59500000  0.87340000  0.58640000  1.0 0.1311765664
H  H71  1  0.05870000  0.41530000  0.13560000  1.0 0.1018619814
H  H72  1  0.58470000  0.94130000  0.63560000  1.0 0.1018619814
H  H73  1  0.47290000  0.66550000  0.37300000  1.0 0.1018619814
H  H74  1  0.33450000  0.52710000  0.87300000  1.0 0.1018619814
H  H75  1  0.51620000  0.78700000  0.31900000  1.0 0.1311765664
H  H76  1  0.21300000  0.48380000  0.81900000  1.0 0.1311765664
H  H77  1  0.23520000  0.62020000  0.27770000  1.0 0.1311765664
H  H78  1  0.37980000  0.76480000  0.77770000  1.0 0.1311765664
H  H79  1  0.19800000  0.50960000  0.33660000  1.0 0.0815849003
H  H80  1  0.49040000  0.80200000  0.83660000  1.0 0.0815849003
H  H81  1  0.84080000  0.11900000  0.26120000  1.0 0.0815849003
H  H82  1  0.88100000  0.15920000  0.76120000  1.0 0.0815849003
H  H83  1  0.67950000  0.97690000  0.26350000  1.0 0.1380482326
H  H84  1  0.02310000  0.32050000  0.76350000  1.0 0.1380482326
H  H85  1  0.61100000  0.11020000  0.17800000  1.0 0.1311765664
H  H86  1  0.88980000  0.38900000  0.67800000  1.0 0.1311765664
H  H87  1  0.77380000  0.24960000  0.17970000  1.0 0.1018619814
H  H88  1  0.75040000  0.22620000  0.67970000  1.0 0.106409418
H  H89  1  0.25260000  0.93200000  0.08110000  1.0 0.1018619814
H  H90  1  0.06800000  0.74740000  0.58110000  1.0 0.1018619814
H  H91  1  0.37820000  0.96140000  0.12920000  1.0 0.1311765664
H  H92  1  0.03860000  0.62180000  0.62920000  1.0 0.1311765664
H  H93  1  0.17540000  0.70860000  0.19700000  1.0 0.1311765664
H  H94  1  0.29140000  0.82460000  0.69700000  1.0 0.1311765664
H  H95  1  0.05810000  0.68970000  0.14860000  1.0 0.106409418
H  H96  1  0.31030000  0.94190000  0.64860000  1.0 0.106409418
C  C1  1  0.18870000  0.15590000  0.43920000  1.0 0.3686262882
C  C2  1  0.84410000  0.81130000  0.93920000  1.0 0.3686262882
C  C3  1  0.34140000  0.23720000  0.46580000  1.0 0.3686262882
C  C4  1  0.76280000  0.65860000  0.96580000  1.0 0.3686262882
C  C5  1  0.27720000  0.14160000  0.41180000  1.0 0.3686262882
C  C6  1  0.85840000  0.72280000  0.91180000  1.0 0.3686262882
C  C7  1  0.97940000  0.10420000  0.47280000  1.0 0.0815849003
C  C8  1  0.89580000  0.02060000  0.97280000  1.0 0.0815849003
C  C9  1  0.06580000  0.12800000  0.47550000  1.0 -0.1511904804
C  C10  1  0.87200000  0.93420000  0.97550000  1.0 -0.1511904804
C  C11  1  0.09610000  0.13250000  0.43830000  1.0 0.0686462232
C  C12  1  0.86750000  0.90390000  0.93830000  1.0 0.0686462232
C  C13  1  0.04060000  0.11640000  0.39960000  1.0 -0.1511904804
C  C14  1  0.88360000  0.95940000  0.89960000  1.0 -0.1511904804
C  C15  1  0.95660000  0.09480000  0.40010000  1.0 0.0593053563
C  C16  1  0.90520000  0.04340000  0.90010000  1.0 0.0593053563
C  C17  1  0.58970000  0.39970000  0.52480000  1.0 0.0686462232
C  C18  1  0.60030000  0.41030000  0.02480000  1.0 0.0686462232
C  C19  1  0.51200000  0.33260000  0.49740000  1.0 -0.1383316017
C  C20  1  0.66740000  0.48800000  0.99740000  1.0 -0.1383316017
C  C21  1  0.42680000  0.31020000  0.49440000  1.0 0.0686462232
C  C22  1  0.68980000  0.57320000  0.99440000  1.0 0.0686462232
C  C23  1  0.42240000  0.35980000  0.51930000  1.0 -0.1574111931
C  C24  1  0.64020000  0.57760000  0.01930000  1.0 -0.1574111931
C  C25  1  0.50220000  0.42680000  0.54580000  1.0 0.0686462232
C  C26  1  0.57320000  0.49780000  0.04580000  1.0 0.0686462232
C  C27  1  0.23090000  0.01630000  0.31900000  1.0 0.0593053563
C  C28  1  0.98370000  0.76910000  0.81900000  1.0 0.0593053563
C  C29  1  0.21970000  0.05510000  0.34590000  1.0 -0.1383316017
C  C30  1  0.94490000  0.78030000  0.84590000  1.0 -0.1383316017
C  C31  1  0.28400000  0.09780000  0.38160000  1.0 0.0593053563
C  C32  1  0.90220000  0.71600000  0.88160000  1.0 0.0593053563
C  C33  1  0.35920000  0.09880000  0.38910000  1.0 -0.1383316017
C  C34  1  0.90120000  0.64080000  0.88910000  1.0 -0.1383316017
C  C35  1  0.36460000  0.05780000  0.35960000  1.0 0.0815849003
C  C36  1  0.94220000  0.63540000  0.85960000  1.0 0.0815849003
C  C37  1  0.85010000  0.36710000  0.30080000  1.0 0.3686262882
C  C38  1  0.63290000  0.14990000  0.80080000  1.0 0.3686262882
C  C39  1  0.79180000  0.40860000  0.24430000  1.0 0.3686262882
C  C40  1  0.59140000  0.20820000  0.74430000  1.0 0.3686262882
C  C41  1  0.93750000  0.52290000  0.27730000  1.0 0.35442067
C  C42  1  0.47710000  0.06250000  0.77730000  1.0 0.35442067
C  C43  1  0.65690000  0.42330000  0.14620000  1.0 0.0888058798
C  C44  1  0.57670000  0.34310000  0.64620000  1.0 0.0888058798
C  C45  1  0.72900000  0.45020000  0.17900000  1.0 -0.1383316017
C  C46  1  0.54980000  0.27100000  0.67900000  1.0 -0.1383316017
C  C47  1  0.71530000  0.37990000  0.20820000  1.0 0.0593053563
C  C48  1  0.62010000  0.28470000  0.70820000  1.0 0.0593053563
C  C49  1  0.63210000  0.28570000  0.20250000  1.0 -0.1574111931
C  C50  1  0.71430000  0.36790000  0.70250000  1.0 -0.1511904804
C  C51  1  0.56530000  0.26390000  0.16780000  1.0 0.0686462232
C  C52  1  0.73610000  0.43470000  0.66780000  1.0 0.0686462232
C  C53  1  0.11750000  0.79330000  0.25570000  1.0 0.0686462232
C  C54  1  0.20670000  0.88250000  0.75570000  1.0 0.0686462232
C  C55  1  0.03180000  0.69700000  0.25430000  1.0 -0.1574111931
C  C56  1  0.30300000  0.96820000  0.75430000  1.0 -0.1574111931
C  C57  1  0.02720000  0.62660000  0.27920000  1.0 0.0593053563
C  C58  1  0.37340000  0.97280000  0.77920000  1.0 0.0593053563
C  C59  1  0.11020000  0.65680000  0.30430000  1.0 -0.1574111931
C  C60  1  0.34320000  0.88980000  0.80430000  1.0 -0.1574111931
C  C61  1  0.19290000  0.75410000  0.30330000  1.0 0.0686462232
C  C62  1  0.24590000  0.80710000  0.80330000  1.0 0.0686462232
C  C63  1  0.88640000  0.23720000  0.39490000  1.0 0.0888058798
C  C64  1  0.76280000  0.11360000  0.89490000  1.0 0.0888058798
C  C65  1  0.90430000  0.31270000  0.36660000  1.0 -0.1574111931
C  C66  1  0.68730000  0.09570000  0.86660000  1.0 -0.1574111931
C  C67  1  0.83630000  0.28930000  0.33240000  1.0 0.0542547113
C  C68  1  0.71070000  0.16370000  0.83240000  1.0 0.0542547113
C  C69  1  0.75570000  0.19330000  0.32660000  1.0 -0.1511904804
C  C70  1  0.80670000  0.24430000  0.82660000  1.0 -0.1511904804
C  C71  1  0.74490000  0.12430000  0.35560000  1.0 0.0686462232
C  C72  1  0.87570000  0.25510000  0.85560000  1.0 0.0686462232
C  C73  1  0.15590000  0.18870000  0.06080000  1.0 0.3686262882
C  C74  1  0.81130000  0.84410000  0.56080000  1.0 0.3686262882
C  C75  1  0.23720000  0.34140000  0.03420000  1.0 0.3686262882
C  C76  1  0.65860000  0.76280000  0.53420000  1.0 0.3686262882
C  C77  1  0.14160000  0.27720000  0.08820000  1.0 0.3686262882
C  C78  1  0.72280000  0.85840000  0.58820000  1.0 0.3686262882
C  C79  1  0.10420000  0.97940000  0.02720000  1.0 0.0815849003
C  C80  1  0.02060000  0.89580000  0.52720000  1.0 0.0815849003
C  C81  1  0.12800000  0.06580000  0.02450000  1.0 -0.1511904804
C  C82  1  0.93420000  0.87200000  0.52450000  1.0 -0.1511904804
C  C83  1  0.13250000  0.09610000  0.06170000  1.0 0.0686462232
C  C84  1  0.90390000  0.86750000  0.56170000  1.0 0.0686462232
C  C85  1  0.11640000  0.04060000  0.10040000  1.0 -0.1511904804
C  C86  1  0.95940000  0.88360000  0.60040000  1.0 -0.1511904804
C  C87  1  0.09480000  0.95660000  0.09990000  1.0 0.0593053563
C  C88  1  0.04340000  0.90520000  0.59990000  1.0 0.0593053563
C  C89  1  0.39970000  0.58970000  0.97520000  1.0 0.0686462232
C  C90  1  0.41030000  0.60030000  0.47520000  1.0 0.0686462232
C  C91  1  0.33260000  0.51200000  0.00260000  1.0 -0.1383316017
C  C92  1  0.48800000  0.66740000  0.50260000  1.0 -0.1383316017
C  C93  1  0.31020000  0.42680000  0.00560000  1.0 0.0686462232
C  C94  1  0.57320000  0.68980000  0.50560000  1.0 0.0686462232
C  C95  1  0.35980000  0.42240000  0.98070000  1.0 -0.1574111931
C  C96  1  0.57760000  0.64020000  0.48070000  1.0 -0.1574111931
C  C97  1  0.42680000  0.50220000  0.95420000  1.0 0.0686462232
C  C98  1  0.49780000  0.57320000  0.45420000  1.0 0.0686462232
C  C99  1  0.01630000  0.23090000  0.18100000  1.0 0.0593053563
C  C100  1  0.76910000  0.98370000  0.68100000  1.0 0.0593053563
C  C101  1  0.05510000  0.21970000  0.15410000  1.0 -0.1383316017
C  C102  1  0.78030000  0.94490000  0.65410000  1.0 -0.1383316017
C  C103  1  0.09780000  0.28400000  0.11840000  1.0 0.0593053563
C  C104  1  0.71600000  0.90220000  0.61840000  1.0 0.0593053563
C  C105  1  0.09880000  0.35920000  0.11090000  1.0 -0.1383316017
C  C106  1  0.64080000  0.90120000  0.61090000  1.0 -0.1383316017
C  C107  1  0.05780000  0.36460000  0.14040000  1.0 0.0815849003
C  C108  1  0.63540000  0.94220000  0.64040000  1.0 0.0815849003
C  C109  1  0.36710000  0.85010000  0.19920000  1.0 0.3686262882
C  C110  1  0.14990000  0.63290000  0.69920000  1.0 0.3686262882
C  C111  1  0.40860000  0.79180000  0.25570000  1.0 0.3686262882
C  C112  1  0.20820000  0.59140000  0.75570000  1.0 0.3686262882
C  C113  1  0.52290000  0.93750000  0.22270000  1.0 0.35442067
C  C114  1  0.06250000  0.47710000  0.72270000  1.0 0.35442067
C  C115  1  0.42330000  0.65690000  0.35380000  1.0 0.0888058798
C  C116  1  0.34310000  0.57670000  0.85380000  1.0 0.0888058798
C  C117  1  0.45020000  0.72900000  0.32100000  1.0 -0.1383316017
C  C118  1  0.27100000  0.54980000  0.82100000  1.0 -0.1383316017
C  C119  1  0.37990000  0.71530000  0.29180000  1.0 0.0593053563
C  C120  1  0.28470000  0.62010000  0.79180000  1.0 0.0593053563
C  C121  1  0.28570000  0.63210000  0.29750000  1.0 -0.1574111931
C  C122  1  0.36790000  0.71430000  0.79750000  1.0 -0.1574111931
C  C123  1  0.26390000  0.56530000  0.33220000  1.0 0.0686462232
C  C124  1  0.43470000  0.73610000  0.83220000  1.0 0.0686462232
C  C125  1  0.79330000  0.11750000  0.24430000  1.0 0.0686462232
C  C126  1  0.88250000  0.20670000  0.74430000  1.0 0.0686462232
C  C127  1  0.69700000  0.03180000  0.24570000  1.0 -0.1511904804
C  C128  1  0.96820000  0.30300000  0.74570000  1.0 -0.1574111931
C  C129  1  0.62660000  0.02720000  0.22080000  1.0 0.0593053563
C  C130  1  0.97280000  0.37340000  0.72080000  1.0 0.0593053563
C  C131  1  0.65680000  0.11020000  0.19570000  1.0 -0.1574111931
C  C132  1  0.88980000  0.34320000  0.69570000  1.0 -0.1574111931
C  C133  1  0.75410000  0.19290000  0.19670000  1.0 0.0686462232
C  C134  1  0.80710000  0.24590000  0.69670000  1.0 0.0686462232
C  C135  1  0.23720000  0.88640000  0.10510000  1.0 0.0888058798
C  C136  1  0.11360000  0.76280000  0.60510000  1.0 0.0888058798
C  C137  1  0.31270000  0.90430000  0.13340000  1.0 -0.1574111931
C  C138  1  0.09570000  0.68730000  0.63340000  1.0 -0.1574111931
C  C139  1  0.28930000  0.83630000  0.16760000  1.0 0.0542547113
C  C140  1  0.16370000  0.71070000  0.66760000  1.0 0.0542547113
C  C141  1  0.19330000  0.75570000  0.17340000  1.0 -0.1511904804
C  C142  1  0.24430000  0.80670000  0.67340000  1.0 -0.1511904804
C  C143  1  0.12430000  0.74490000  0.14440000  1.0 0.0686462232
C  C144  1  0.25510000  0.87570000  0.64440000  1.0 0.0686462232
I  I1  1  0.46903000  0.99419000  0.30593000  1.0 -0.4523438321
I  I2  1  0.00581000  0.53097000  0.80593000  1.0 -0.4523438321
I  I3  1  0.30620000  0.04640000  0.20390000  1.0 0.0399887729
I  I4  1  0.95360000  0.69380000  0.70390000  1.0 0.0399887729
I  I5  1  0.38263000  0.32751000  0.13252000  1.0 -0.4437812635
I  I6  1  0.67249000  0.61737000  0.63252000  1.0 -0.4437812635
I  I7  1  0.38369000  0.14819000  0.06141000  1.0 -0.4523438321
I  I8  1  0.85181000  0.61631000  0.56141000  1.0 -0.4523438321
I  I9  1  0.66945000  0.87997000  0.40161000  1.0 -0.4680296996
I  I10  1  0.12003000  0.33055000  0.90161000  1.0 -0.4680296996
I  I11  1  0.77414000  0.06262000  0.50794000  1.0 -0.4576691085
I  I12  1  0.93738000  0.22586000  0.00794000  1.0 -0.4576691085
I  I13  1  0.32620000  0.04380000  0.21090000  1.0 0.0060567415
I  I14  1  0.95620000  0.67380000  0.71090000  1.0 0.0060567415
I  I15  1  0.99419000  0.46903000  0.19407000  1.0 -0.4523438321
I  I16  1  0.53097000  0.00581000  0.69407000  1.0 -0.4523438321
I  I17  1  0.04640000  0.30620000  0.29610000  1.0 0.0347430861
I  I18  1  0.69380000  0.95360000  0.79610000  1.0 0.0399887729
I  I19  1  0.32751000  0.38263000  0.36748000  1.0 -0.4437812635
I  I20  1  0.61737000  0.67249000  0.86748000  1.0 -0.4437812635
I  I21  1  0.14819000  0.38369000  0.43859000  1.0 -0.4523438321
I  I22  1  0.61631000  0.85181000  0.93859000  1.0 -0.4523438321
I  I23  1  0.87997000  0.66945000  0.09839000  1.0 -0.4680296996
I  I24  1  0.33055000  0.12003000  0.59839000  1.0 -0.4680296996
I  I25  1  0.06262000  0.77414000  0.99206000  1.0 -0.4576691085
I  I26  1  0.22586000  0.93738000  0.49206000  1.0 -0.4576691085
I  I27  1  0.04380000  0.32620000  0.28910000  1.0 0.0041909541
I  I28  1  0.67380000  0.95620000  0.78910000  1.0 0.0060567415
N  N1  1  0.25826000  0.21314000  0.46890000  1.0 -0.3875276018
N  N2  1  0.78686000  0.74174000  0.96890000  1.0 -0.3875276018
N  N3  1  0.35555000  0.20405000  0.43830000  1.0 -0.3987441876
N  N4  1  0.79595000  0.64445000  0.93830000  1.0 -0.3987441876
N  N5  1  0.19320000  0.11840000  0.40940000  1.0 -0.3987441876
N  N6  1  0.88160000  0.80680000  0.90940000  1.0 -0.3987441876
N  N7  1  0.92296000  0.08464000  0.43680000  1.0 -0.1889822244
N  N8  1  0.91536000  0.07704000  0.93680000  1.0 -0.1889822244
N  N9  1  0.58330000  0.44510000  0.54900000  1.0 -0.1889822244
N  N10  1  0.55490000  0.41670000  0.04900000  1.0 -0.1889822244
N  N11  1  0.30180000  0.01740000  0.32510000  1.0 -0.1889822244
N  N12  1  0.98260000  0.69820000  0.82510000  1.0 -0.1889822244
N  N13  1  0.77865000  0.33715000  0.27090000  1.0 -0.3875276018
N  N14  1  0.66285000  0.22135000  0.77090000  1.0 -0.3875276018
N  N15  1  0.86824000  0.50216000  0.24720000  1.0 -0.3875276018
N  N16  1  0.49784000  0.13176000  0.74720000  1.0 -0.3875276018
N  N17  1  0.93236000  0.45864000  0.30580000  1.0 -0.3987441876
N  N18  1  0.54136000  0.06764000  0.80580000  1.0 -0.3987441876
N  N19  1  0.57650000  0.33230000  0.14030000  1.0 -0.1741674499
N  N20  1  0.66770000  0.42350000  0.64030000  1.0 -0.1741674499
N  N21  1  0.19670000  0.82230000  0.27900000  1.0 -0.1826537693
N  N22  1  0.17770000  0.80330000  0.77900000  1.0 -0.1826537693
N  N23  1  0.80859000  0.14561000  0.38970000  1.0 -0.1889822244
N  N24  1  0.85439000  0.19141000  0.88970000  1.0 -0.1889822244
N  N25  1  0.21314000  0.25826000  0.03110000  1.0 -0.3875276018
N  N26  1  0.74174000  0.78686000  0.53110000  1.0 -0.3875276018
N  N27  1  0.20405000  0.35555000  0.06170000  1.0 -0.3987441876
N  N28  1  0.64445000  0.79595000  0.56170000  1.0 -0.3987441876
N  N29  1  0.11840000  0.19320000  0.09060000  1.0 -0.3987441876
N  N30  1  0.80680000  0.88160000  0.59060000  1.0 -0.3987441876
N  N31  1  0.08464000  0.92296000  0.06320000  1.0 -0.1889822244
N  N32  1  0.07704000  0.91536000  0.56320000  1.0 -0.1889822244
N  N33  1  0.44510000  0.58330000  0.95100000  1.0 -0.1889822244
N  N34  1  0.41670000  0.55490000  0.45100000  1.0 -0.1889822244
N  N35  1  0.01740000  0.30180000  0.17490000  1.0 -0.1889822244
N  N36  1  0.69820000  0.98260000  0.67490000  1.0 -0.1889822244
N  N37  1  0.33715000  0.77865000  0.22910000  1.0 -0.3875276018
N  N38  1  0.22135000  0.66285000  0.72910000  1.0 -0.3875276018
N  N39  1  0.50216000  0.86824000  0.25280000  1.0 -0.3875276018
N  N40  1  0.13176000  0.49784000  0.75280000  1.0 -0.3875276018
N  N41  1  0.45864000  0.93236000  0.19420000  1.0 -0.3987441876
N  N42  1  0.06764000  0.54136000  0.69420000  1.0 -0.3987441876
N  N43  1  0.33230000  0.57650000  0.35970000  1.0 -0.1741674499
N  N44  1  0.42350000  0.66770000  0.85970000  1.0 -0.1741674499
N  N45  1  0.82230000  0.19670000  0.22100000  1.0 -0.1826537693
N  N46  1  0.80330000  0.17770000  0.72100000  1.0 -0.1826537693
N  N47  1  0.14561000  0.80859000  0.11030000  1.0 -0.1889822244
N  N48  1  0.19141000  0.85439000  0.61030000  1.0 -0.1889822244
