# DDEC6 charges by PACMAN v1.1 (https://github.com/mtap-research/PACMAN-charge/)
data_LUDVIP_ASR_pacman
_symmetry_space_group_name_H-M   'P 1'
_cell_length_a   15.67760000
_cell_length_b   15.67760000
_cell_length_c   31.84600000
_cell_angle_alpha   86.36950000
_cell_angle_beta   93.63050000
_cell_angle_gamma   122.44000000
_symmetry_Int_Tables_number   1
_chemical_formula_structural   ZnH8C12I3N4
_chemical_formula_sum   'Zn12 H96 C144 I36 N48'
_cell_volume   6588.64756626
_cell_formula_units_Z   12
loop_
 _symmetry_equiv_pos_site_id
 _symmetry_equiv_pos_as_xyz
  1  'x, y, z'
loop_
 _atom_site_type_symbol
 _atom_site_label
 _atom_site_symmetry_multiplicity
 _atom_site_fract_x
 _atom_site_fract_y
 _atom_site_fract_z
 _atom_site_occupancy
 _atom_site_charge
Zn  Zn1  1  0.35235000  0.93855000  0.80425000  1.0 0.4482539249
Zn  Zn2  1  0.06145000  0.64765000  0.30425000  1.0 0.4482539249
Zn  Zn3  1  0.68922000  0.54568000  0.11647000  1.0 0.3292641369
Zn  Zn4  1  0.45432000  0.31078000  0.61647000  1.0 0.3292641369
Zn  Zn5  1  0.72144000  0.10126000  0.99779000  1.0 0.4482539249
Zn  Zn6  1  0.89874000  0.27856000  0.49779000  1.0 0.4482539249
Zn  Zn7  1  0.64765000  0.06145000  0.19575000  1.0 0.4482539249
Zn  Zn8  1  0.93855000  0.35235000  0.69575000  1.0 0.4482539249
Zn  Zn9  1  0.31078000  0.45432000  0.88353000  1.0 0.3292641369
Zn  Zn10  1  0.54568000  0.68922000  0.38353000  1.0 0.3292641369
Zn  Zn11  1  0.27856000  0.89874000  0.00221000  1.0 0.4482539249
Zn  Zn12  1  0.10126000  0.72144000  0.50221000  1.0 0.4482539249
H  H1  1  0.92800000  0.19620000  0.04870000  1.0 0.1012966642
H  H2  1  0.80380000  0.07200000  0.54870000  1.0 0.1012966642
H  H3  1  0.08660000  0.22980000  0.03920000  1.0 0.1309530544
H  H4  1  0.77020000  0.91340000  0.53920000  1.0 0.1309530544
H  H5  1  0.97490000  0.04290000  0.94060000  1.0 0.1309530544
H  H6  1  0.95710000  0.02510000  0.44060000  1.0 0.1309530544
H  H7  1  0.81810000  0.01690000  0.95200000  1.0 0.1012966642
H  H8  1  0.98310000  0.18190000  0.45200000  1.0 0.1012966642
H  H9  1  0.64120000  0.41020000  0.04710000  1.0 0.0796803109
H  H10  1  0.58980000  0.35880000  0.54710000  1.0 0.0796803109
H  H11  1  0.50970000  0.30690000  0.99960000  1.0 0.1309530544
H  H12  1  0.69310000  0.49030000  0.49960000  1.0 0.1309530544
H  H13  1  0.34420000  0.40420000  0.04540000  1.0 0.1309530544
H  H14  1  0.59580000  0.65580000  0.54540000  1.0 0.1309530544
H  H15  1  0.48510000  0.51450000  0.08750000  1.0 0.0910992561
H  H16  1  0.48550000  0.51490000  0.58750000  1.0 0.0910992561
H  H17  1  0.45600000  0.10820000  0.86110000  1.0 0.1012966642
H  H18  1  0.89180000  0.54400000  0.36110000  1.0 0.1012966642
H  H19  1  0.43010000  0.18350000  0.91450000  1.0 0.1309530544
H  H20  1  0.81650000  0.56990000  0.41450000  1.0 0.1309530544
H  H21  1  0.13080000  0.98680000  0.89760000  1.0 0.1197396793
H  H22  1  0.01320000  0.86920000  0.39760000  1.0 0.1197396793
H  H23  1  0.16470000  0.91150000  0.84590000  1.0 0.1061470089
H  H24  1  0.08850000  0.83530000  0.34590000  1.0 0.1061470089
H  H25  1  0.61790000  0.10010000  0.91310000  1.0 0.1061470089
H  H26  1  0.89990000  0.38210000  0.41310000  1.0 0.1061470089
H  H27  1  0.64770000  0.19850000  0.85220000  1.0 0.135720226
H  H28  1  0.80150000  0.35230000  0.35220000  1.0 0.135720226
H  H29  1  0.93330000  0.38990000  0.89700000  1.0 0.1197396793
H  H30  1  0.61010000  0.06670000  0.39700000  1.0 0.1197396793
H  H31  1  0.89060000  0.28880000  0.95820000  1.0 0.0910992561
H  H32  1  0.71120000  0.10940000  0.45820000  1.0 0.0910992561
H  H33  1  0.64290000  0.50170000  0.65270000  1.0 0.0910992561
H  H34  1  0.49830000  0.35710000  0.15270000  1.0 0.0910992561
H  H35  1  0.75990000  0.54390000  0.70900000  1.0 0.1197396793
H  H36  1  0.45610000  0.24010000  0.20900000  1.0 0.1197396793
H  H37  1  0.61760000  0.24700000  0.74270000  1.0 0.1309530544
H  H38  1  0.75300000  0.38240000  0.24270000  1.0 0.1309530544
H  H39  1  0.51480000  0.21180000  0.68230000  1.0 0.0796803109
H  H40  1  0.78820000  0.48520000  0.18230000  1.0 0.0796803109
H  H41  1  0.17020000  0.82560000  0.74250000  1.0 0.1012966642
H  H42  1  0.17440000  0.82980000  0.24250000  1.0 0.1012966642
H  H43  1  0.01220000  0.68000000  0.74170000  1.0 0.1309530544
H  H44  1  0.32000000  0.98780000  0.24170000  1.0 0.1309530544
H  H45  1  0.08150000  0.59650000  0.85470000  1.0 0.1309530544
H  H46  1  0.40350000  0.91850000  0.35470000  1.0 0.1309530544
H  H47  1  0.23890000  0.74230000  0.85270000  1.0 0.1012966642
H  H48  1  0.25770000  0.76110000  0.35270000  1.0 0.1012966642
H  H49  1  0.07200000  0.80380000  0.95130000  1.0 0.1012966642
H  H50  1  0.19620000  0.92800000  0.45130000  1.0 0.1012966642
H  H51  1  0.91340000  0.77020000  0.96080000  1.0 0.1309530544
H  H52  1  0.22980000  0.08660000  0.46080000  1.0 0.1309530544
H  H53  1  0.02510000  0.95710000  0.05940000  1.0 0.1309530544
H  H54  1  0.04290000  0.97490000  0.55940000  1.0 0.1309530544
H  H55  1  0.18190000  0.98310000  0.04800000  1.0 0.1012966642
H  H56  1  0.01690000  0.81810000  0.54800000  1.0 0.1012966642
H  H57  1  0.35880000  0.58980000  0.95290000  1.0 0.0796803109
H  H58  1  0.41020000  0.64120000  0.45290000  1.0 0.0796803109
H  H59  1  0.49030000  0.69310000  0.00040000  1.0 0.1309530544
H  H60  1  0.30690000  0.50970000  0.50040000  1.0 0.1309530544
H  H61  1  0.65580000  0.59580000  0.95460000  1.0 0.1309530544
H  H62  1  0.40420000  0.34420000  0.45460000  1.0 0.1309530544
H  H63  1  0.51490000  0.48550000  0.91250000  1.0 0.0910992561
H  H64  1  0.51450000  0.48510000  0.41250000  1.0 0.0910992561
H  H65  1  0.54400000  0.89180000  0.13890000  1.0 0.1012966642
H  H66  1  0.10820000  0.45600000  0.63890000  1.0 0.1012966642
H  H67  1  0.56990000  0.81650000  0.08550000  1.0 0.1309530544
H  H68  1  0.18350000  0.43010000  0.58550000  1.0 0.1309530544
H  H69  1  0.86920000  0.01320000  0.10240000  1.0 0.1197396793
H  H70  1  0.98680000  0.13080000  0.60240000  1.0 0.1197396793
H  H71  1  0.83530000  0.08850000  0.15410000  1.0 0.1061470089
H  H72  1  0.91150000  0.16470000  0.65410000  1.0 0.1061470089
H  H73  1  0.38210000  0.89990000  0.08690000  1.0 0.1061470089
H  H74  1  0.10010000  0.61790000  0.58690000  1.0 0.1061470089
H  H75  1  0.35230000  0.80150000  0.14780000  1.0 0.135720226
H  H76  1  0.19850000  0.64770000  0.64780000  1.0 0.135720226
H  H77  1  0.06670000  0.61010000  0.10300000  1.0 0.1197396793
H  H78  1  0.38990000  0.93330000  0.60300000  1.0 0.1197396793
H  H79  1  0.10940000  0.71120000  0.04180000  1.0 0.0910992561
H  H80  1  0.28880000  0.89060000  0.54180000  1.0 0.0910992561
H  H81  1  0.35710000  0.49830000  0.34730000  1.0 0.0910992561
H  H82  1  0.50170000  0.64290000  0.84730000  1.0 0.0910992561
H  H83  1  0.24010000  0.45610000  0.29100000  1.0 0.1197396793
H  H84  1  0.54390000  0.75990000  0.79100000  1.0 0.1197396793
H  H85  1  0.38240000  0.75300000  0.25730000  1.0 0.1309530544
H  H86  1  0.24700000  0.61760000  0.75730000  1.0 0.1309530544
H  H87  1  0.48520000  0.78820000  0.31770000  1.0 0.0796803109
H  H88  1  0.21180000  0.51480000  0.81770000  1.0 0.0796803109
H  H89  1  0.82980000  0.17440000  0.25750000  1.0 0.1012966642
H  H90  1  0.82560000  0.17020000  0.75750000  1.0 0.1012966642
H  H91  1  0.98780000  0.32000000  0.25830000  1.0 0.1309530544
H  H92  1  0.68000000  0.01220000  0.75830000  1.0 0.1309530544
H  H93  1  0.91850000  0.40350000  0.14530000  1.0 0.1309530544
H  H94  1  0.59650000  0.08150000  0.64530000  1.0 0.1309530544
H  H95  1  0.76110000  0.25770000  0.14730000  1.0 0.1012966642
H  H96  1  0.74230000  0.23890000  0.64730000  1.0 0.1012966642
C  C1  1  0.25930000  0.14870000  0.94250000  1.0 0.3647070853
C  C2  1  0.85130000  0.74070000  0.44250000  1.0 0.3647070853
C  C3  1  0.32310000  0.26670000  0.99240000  1.0 0.3966083405
C  C4  1  0.73330000  0.67690000  0.49240000  1.0 0.3966083405
C  C5  1  0.15320000  0.16940000  0.97970000  1.0 0.3548001823
C  C6  1  0.83060000  0.84680000  0.47970000  1.0 0.3548001823
C  C7  1  0.93840000  0.16640000  0.02610000  1.0 0.0489925144
C  C8  1  0.83360000  0.06160000  0.52610000  1.0 0.0489925144
C  C9  1  0.03260000  0.18620000  0.02060000  1.0 -0.1605531347
C  C10  1  0.81380000  0.96740000  0.52060000  1.0 -0.1605531347
C  C11  1  0.05090000  0.14370000  0.98840000  1.0 0.0489925144
C  C12  1  0.85630000  0.94910000  0.48840000  1.0 0.0489925144
C  C13  1  0.96720000  0.07660000  0.96250000  1.0 -0.1774690993
C  C14  1  0.92340000  0.03280000  0.46250000  1.0 -0.1774690993
C  C15  1  0.87390000  0.06130000  0.96980000  1.0 0.1012966642
C  C16  1  0.93870000  0.12610000  0.46980000  1.0 0.1012966642
C  C17  1  0.58050000  0.41010000  0.04630000  1.0 0.0796803109
C  C18  1  0.58990000  0.41950000  0.54630000  1.0 0.0796803109
C  C19  1  0.50160000  0.34660000  0.01840000  1.0 -0.1392403254
C  C20  1  0.65340000  0.49840000  0.51840000  1.0 -0.1392403254
C  C21  1  0.41100000  0.34280000  0.01900000  1.0 0.0489925144
C  C22  1  0.65720000  0.58900000  0.51900000  1.0 0.0489925144
C  C23  1  0.40490000  0.40470000  0.04470000  1.0 -0.1515884707
C  C24  1  0.59530000  0.59510000  0.54470000  1.0 -0.1515884707
C  C25  1  0.48920000  0.46960000  0.07040000  1.0 0.0681859497
C  C26  1  0.53040000  0.51080000  0.57040000  1.0 0.0681859497
C  C27  1  0.38870000  0.08210000  0.86920000  1.0 0.0796803109
C  C28  1  0.91790000  0.61130000  0.36920000  1.0 0.0796803109
C  C29  1  0.37400000  0.12940000  0.90010000  1.0 -0.1515884707
C  C30  1  0.87060000  0.62600000  0.40010000  1.0 -0.1515884707
C  C31  1  0.27700000  0.09740000  0.90990000  1.0 0.0344642167
C  C32  1  0.90260000  0.72300000  0.40990000  1.0 0.0344642167
C  C33  1  0.19870000  0.01350000  0.89030000  1.0 -0.1605531347
C  C34  1  0.98650000  0.80130000  0.39030000  1.0 -0.1605531347
C  C35  1  0.21940000  0.96800000  0.85980000  1.0 0.0910992561
C  C36  1  0.03200000  0.78060000  0.35980000  1.0 0.0910992561
C  C37  1  0.81820000  0.37800000  0.83090000  1.0 0.3710941164
C  C38  1  0.62200000  0.18180000  0.33090000  1.0 0.3710941164
C  C39  1  0.77300000  0.42240000  0.76830000  1.0 0.3755116491
C  C40  1  0.57760000  0.22700000  0.26830000  1.0 0.3755116491
C  C41  1  0.92620000  0.52840000  0.79950000  1.0 0.3710941164
C  C42  1  0.47160000  0.07380000  0.29950000  1.0 0.3710941164
C  C43  1  0.68220000  0.16080000  0.91000000  1.0 0.0910992561
C  C44  1  0.83920000  0.31780000  0.41000000  1.0 0.0910992561
C  C45  1  0.69930000  0.21910000  0.87360000  1.0 -0.1605531347
C  C46  1  0.78090000  0.30070000  0.37360000  1.0 -0.1605531347
C  C47  1  0.79340000  0.30900000  0.86820000  1.0 0.0681859497
C  C48  1  0.69100000  0.20660000  0.36820000  1.0 0.0681859497
C  C49  1  0.86680000  0.33240000  0.89990000  1.0 -0.1515884707
C  C50  1  0.66760000  0.13320000  0.39990000  1.0 -0.1515884707
C  C51  1  0.84150000  0.27030000  0.93580000  1.0 0.0681859497
C  C52  1  0.72970000  0.15850000  0.43580000  1.0 0.0681859497
C  C53  1  0.63910000  0.44910000  0.67070000  1.0 0.0796803109
C  C54  1  0.55090000  0.36090000  0.17070000  1.0 0.0796803109
C  C55  1  0.70830000  0.47510000  0.70470000  1.0 -0.1392403254
C  C56  1  0.52490000  0.29170000  0.20470000  1.0 -0.1392403254
C  C57  1  0.70070000  0.39930000  0.73200000  1.0 0.0489925144
C  C58  1  0.60070000  0.29930000  0.23200000  1.0 0.0489925144
C  C59  1  0.62590000  0.30050000  0.72400000  1.0 -0.1268810565
C  C60  1  0.69950000  0.37410000  0.22400000  1.0 -0.1268810565
C  C61  1  0.56310000  0.28030000  0.68850000  1.0 0.0681859497
C  C62  1  0.71970000  0.43690000  0.18850000  1.0 0.0681859497
C  C63  1  0.15180000  0.77860000  0.76570000  1.0 0.0796803109
C  C64  1  0.22140000  0.84820000  0.26570000  1.0 0.0796803109
C  C65  1  0.05800000  0.69200000  0.76490000  1.0 -0.1392403254
C  C66  1  0.30800000  0.94200000  0.26490000  1.0 -0.1392403254
C  C67  1  0.02980000  0.62180000  0.79810000  1.0 0.0641670875
C  C68  1  0.37820000  0.97020000  0.29810000  1.0 0.0641670875
C  C69  1  0.09870000  0.64270000  0.83130000  1.0 -0.1392403254
C  C70  1  0.35730000  0.90130000  0.33130000  1.0 -0.1392403254
C  C71  1  0.19150000  0.72990000  0.83010000  1.0 0.0641670875
C  C72  1  0.27010000  0.80850000  0.33010000  1.0 0.0641670875
C  C73  1  0.74070000  0.85130000  0.05750000  1.0 0.3647070853
C  C74  1  0.14870000  0.25930000  0.55750000  1.0 0.3647070853
C  C75  1  0.67690000  0.73330000  0.00760000  1.0 0.3966083405
C  C76  1  0.26670000  0.32310000  0.50760000  1.0 0.3966083405
C  C77  1  0.84680000  0.83060000  0.02030000  1.0 0.3548001823
C  C78  1  0.16940000  0.15320000  0.52030000  1.0 0.3548001823
C  C79  1  0.06160000  0.83360000  0.97390000  1.0 0.0489925144
C  C80  1  0.16640000  0.93840000  0.47390000  1.0 0.0489925144
C  C81  1  0.96740000  0.81380000  0.97940000  1.0 -0.1605531347
C  C82  1  0.18620000  0.03260000  0.47940000  1.0 -0.1605531347
C  C83  1  0.94910000  0.85630000  0.01160000  1.0 0.0489925144
C  C84  1  0.14370000  0.05090000  0.51160000  1.0 0.0489925144
C  C85  1  0.03280000  0.92340000  0.03750000  1.0 -0.1774690993
C  C86  1  0.07660000  0.96720000  0.53750000  1.0 -0.1774690993
C  C87  1  0.12610000  0.93870000  0.03020000  1.0 0.1012966642
C  C88  1  0.06130000  0.87390000  0.53020000  1.0 0.1012966642
C  C89  1  0.41950000  0.58990000  0.95370000  1.0 0.0796803109
C  C90  1  0.41010000  0.58050000  0.45370000  1.0 0.0796803109
C  C91  1  0.49840000  0.65340000  0.98160000  1.0 -0.1392403254
C  C92  1  0.34660000  0.50160000  0.48160000  1.0 -0.1392403254
C  C93  1  0.58900000  0.65720000  0.98100000  1.0 0.0489925144
C  C94  1  0.34280000  0.41100000  0.48100000  1.0 0.0489925144
C  C95  1  0.59510000  0.59530000  0.95530000  1.0 -0.1515884707
C  C96  1  0.40470000  0.40490000  0.45530000  1.0 -0.1515884707
C  C97  1  0.51080000  0.53040000  0.92960000  1.0 0.0681859497
C  C98  1  0.46960000  0.48920000  0.42960000  1.0 0.0681859497
C  C99  1  0.61130000  0.91790000  0.13080000  1.0 0.0796803109
C  C100  1  0.08210000  0.38870000  0.63080000  1.0 0.0796803109
C  C101  1  0.62600000  0.87060000  0.09990000  1.0 -0.1515884707
C  C102  1  0.12940000  0.37400000  0.59990000  1.0 -0.1515884707
C  C103  1  0.72300000  0.90260000  0.09010000  1.0 0.0344642167
C  C104  1  0.09740000  0.27700000  0.59010000  1.0 0.0344642167
C  C105  1  0.80130000  0.98650000  0.10970000  1.0 -0.1605531347
C  C106  1  0.01350000  0.19870000  0.60970000  1.0 -0.1605531347
C  C107  1  0.78060000  0.03200000  0.14020000  1.0 0.0910992561
C  C108  1  0.96800000  0.21940000  0.64020000  1.0 0.0910992561
C  C109  1  0.18180000  0.62200000  0.16910000  1.0 0.3710941164
C  C110  1  0.37800000  0.81820000  0.66910000  1.0 0.3710941164
C  C111  1  0.22700000  0.57760000  0.23170000  1.0 0.3710941164
C  C112  1  0.42240000  0.77300000  0.73170000  1.0 0.3710941164
C  C113  1  0.07380000  0.47160000  0.20050000  1.0 0.3710941164
C  C114  1  0.52840000  0.92620000  0.70050000  1.0 0.3710941164
C  C115  1  0.31780000  0.83920000  0.09000000  1.0 0.0910992561
C  C116  1  0.16080000  0.68220000  0.59000000  1.0 0.0910992561
C  C117  1  0.30070000  0.78090000  0.12640000  1.0 -0.1605531347
C  C118  1  0.21910000  0.69930000  0.62640000  1.0 -0.1605531347
C  C119  1  0.20660000  0.69100000  0.13180000  1.0 0.0681859497
C  C120  1  0.30900000  0.79340000  0.63180000  1.0 0.0681859497
C  C121  1  0.13320000  0.66760000  0.10010000  1.0 -0.1515884707
C  C122  1  0.33240000  0.86680000  0.60010000  1.0 -0.1515884707
C  C123  1  0.15850000  0.72970000  0.06420000  1.0 0.0681859497
C  C124  1  0.27030000  0.84150000  0.56420000  1.0 0.0681859497
C  C125  1  0.36090000  0.55090000  0.32930000  1.0 0.0796803109
C  C126  1  0.44910000  0.63910000  0.82930000  1.0 0.0796803109
C  C127  1  0.29170000  0.52490000  0.29530000  1.0 -0.1392403254
C  C128  1  0.47510000  0.70830000  0.79530000  1.0 -0.1392403254
C  C129  1  0.29930000  0.60070000  0.26800000  1.0 0.0489925144
C  C130  1  0.39930000  0.70070000  0.76800000  1.0 0.0489925144
C  C131  1  0.37410000  0.69950000  0.27600000  1.0 -0.1268810565
C  C132  1  0.30050000  0.62590000  0.77600000  1.0 -0.1268810565
C  C133  1  0.43690000  0.71970000  0.31150000  1.0 0.0681859497
C  C134  1  0.28030000  0.56310000  0.81150000  1.0 0.0681859497
C  C135  1  0.84820000  0.22140000  0.23430000  1.0 0.0796803109
C  C136  1  0.77860000  0.15180000  0.73430000  1.0 0.0796803109
C  C137  1  0.94200000  0.30800000  0.23510000  1.0 -0.1392403254
C  C138  1  0.69200000  0.05800000  0.73510000  1.0 -0.1392403254
C  C139  1  0.97020000  0.37820000  0.20190000  1.0 0.0641670875
C  C140  1  0.62180000  0.02980000  0.70190000  1.0 0.0641670875
C  C141  1  0.90130000  0.35730000  0.16870000  1.0 -0.1392403254
C  C142  1  0.64270000  0.09870000  0.66870000  1.0 -0.1392403254
C  C143  1  0.80850000  0.27010000  0.16990000  1.0 0.0641670875
C  C144  1  0.72990000  0.19150000  0.66990000  1.0 0.0641670875
I  I1  1  0.37320000  0.02760000  0.73270000  1.0 -0.450034813
I  I2  1  0.97240000  0.62680000  0.23270000  1.0 -0.450034813
I  I3  1  0.49706000  0.93000000  0.84008000  1.0 -0.4390813606
I  I4  1  0.07000000  0.50294000  0.34008000  1.0 -0.4390813606
I  I5  1  0.66050000  0.67490000  0.15250000  1.0 0.0093340696
I  I6  1  0.32510000  0.33950000  0.65250000  1.0 0.0093340696
I  I7  1  0.85660000  0.58360000  0.08345000  1.0 0.0641670875
I  I8  1  0.41640000  0.14340000  0.58345000  1.0 0.0641670875
I  I9  1  0.74087000  0.22149000  0.05292000  1.0 -0.4390813606
I  I10  1  0.77851000  0.25913000  0.55292000  1.0 -0.4390813606
I  I11  1  0.57713000  0.92615000  0.98109000  1.0 -0.4024032848
I  I12  1  0.07385000  0.42287000  0.48109000  1.0 -0.4024032848
I  I13  1  0.37326000  0.03068000  0.73335000  1.0 -0.450034813
I  I14  1  0.96932000  0.62674000  0.23335000  1.0 -0.450034813
I  I15  1  0.31450000  0.30130000  0.65140000  1.0 -0.0063475098
I  I16  1  0.69870000  0.68550000  0.15140000  1.0 -0.0063475098
I  I17  1  0.39320000  0.15300000  0.58490000  1.0 0.039365475
I  I18  1  0.84700000  0.60680000  0.08490000  1.0 0.039365475
I  I19  1  0.62680000  0.97240000  0.26730000  1.0 -0.450034813
I  I20  1  0.02760000  0.37320000  0.76730000  1.0 -0.450034813
I  I21  1  0.50294000  0.07000000  0.15992000  1.0 -0.4390813606
I  I22  1  0.93000000  0.49706000  0.65992000  1.0 -0.4390813606
I  I23  1  0.33950000  0.32510000  0.84750000  1.0 0.0093340696
I  I24  1  0.67490000  0.66050000  0.34750000  1.0 0.0093340696
I  I25  1  0.14340000  0.41640000  0.91655000  1.0 0.0641670875
I  I26  1  0.58360000  0.85660000  0.41655000  1.0 0.0641670875
I  I27  1  0.25913000  0.77851000  0.94708000  1.0 -0.4390813606
I  I28  1  0.22149000  0.74087000  0.44708000  1.0 -0.4390813606
I  I29  1  0.42287000  0.07385000  0.01891000  1.0 -0.4024032848
I  I30  1  0.92615000  0.57713000  0.51891000  1.0 -0.4024032848
I  I31  1  0.62674000  0.96932000  0.26665000  1.0 -0.450034813
I  I32  1  0.03068000  0.37326000  0.76665000  1.0 -0.450034813
I  I33  1  0.68550000  0.69870000  0.34860000  1.0 -0.0063475098
I  I34  1  0.30130000  0.31450000  0.84860000  1.0 -0.0063475098
I  I35  1  0.60680000  0.84700000  0.41510000  1.0 0.039365475
I  I36  1  0.15300000  0.39320000  0.91510000  1.0 0.039365475
N  N1  1  0.34230000  0.22590000  0.96240000  1.0 -0.4123685779
N  N2  1  0.77410000  0.65770000  0.46240000  1.0 -0.4123685779
N  N3  1  0.23100000  0.24360000  0.00280000  1.0 -0.4390813606
N  N4  1  0.75640000  0.76900000  0.50280000  1.0 -0.4390813606
N  N5  1  0.16430000  0.11830000  0.95063000  1.0 -0.4123685779
N  N6  1  0.88170000  0.83570000  0.45063000  1.0 -0.4123685779
N  N7  1  0.85740000  0.10440000  0.99980000  1.0 -0.1926079439
N  N8  1  0.89560000  0.14260000  0.49980000  1.0 -0.1926079439
N  N9  1  0.57390000  0.47030000  0.07160000  1.0 -0.1990239146
N  N10  1  0.52970000  0.42610000  0.57160000  1.0 -0.1990239146
N  N11  1  0.31320000  0.00100000  0.84960000  1.0 -0.1695170077
N  N12  1  0.99900000  0.68680000  0.34960000  1.0 -0.1695170077
N  N13  1  0.74930000  0.35230000  0.79910000  1.0 -0.3781081758
N  N14  1  0.64770000  0.25070000  0.29910000  1.0 -0.3781081758
N  N15  1  0.86030000  0.51470000  0.76720000  1.0 -0.3781081758
N  N16  1  0.48530000  0.13970000  0.26720000  1.0 -0.3781081758
N  N17  1  0.90760000  0.46520000  0.83265000  1.0 -0.3781081758
N  N18  1  0.53480000  0.09240000  0.33265000  1.0 -0.3781081758
N  N19  1  0.75020000  0.18500000  0.94040000  1.0 -0.1774690993
N  N20  1  0.81500000  0.24980000  0.44040000  1.0 -0.1774690993
N  N21  1  0.56740000  0.35300000  0.66260000  1.0 -0.1990239146
N  N22  1  0.64700000  0.43260000  0.16260000  1.0 -0.1990239146
N  N23  1  0.21890000  0.79990000  0.79794000  1.0 -0.1774690993
N  N24  1  0.20010000  0.78110000  0.29794000  1.0 -0.1774690993
N  N25  1  0.65770000  0.77410000  0.03760000  1.0 -0.4123685779
N  N26  1  0.22590000  0.34230000  0.53760000  1.0 -0.4123685779
N  N27  1  0.76900000  0.75640000  0.99720000  1.0 -0.4390813606
N  N28  1  0.24360000  0.23100000  0.49720000  1.0 -0.4390813606
N  N29  1  0.83570000  0.88170000  0.04937000  1.0 -0.4123685779
N  N30  1  0.11830000  0.16430000  0.54937000  1.0 -0.4123685779
N  N31  1  0.14260000  0.89560000  0.00020000  1.0 -0.1926079439
N  N32  1  0.10440000  0.85740000  0.50020000  1.0 -0.1926079439
N  N33  1  0.42610000  0.52970000  0.92840000  1.0 -0.1990239146
N  N34  1  0.47030000  0.57390000  0.42840000  1.0 -0.1990239146
N  N35  1  0.68680000  0.99900000  0.15040000  1.0 -0.1695170077
N  N36  1  0.00100000  0.31320000  0.65040000  1.0 -0.1695170077
N  N37  1  0.25070000  0.64770000  0.20090000  1.0 -0.3781081758
N  N38  1  0.35230000  0.74930000  0.70090000  1.0 -0.3781081758
N  N39  1  0.13970000  0.48530000  0.23280000  1.0 -0.3781081758
N  N40  1  0.51470000  0.86030000  0.73280000  1.0 -0.3781081758
N  N41  1  0.09240000  0.53480000  0.16735000  1.0 -0.3781081758
N  N42  1  0.46520000  0.90760000  0.66735000  1.0 -0.3781081758
N  N43  1  0.24980000  0.81500000  0.05960000  1.0 -0.1774690993
N  N44  1  0.18500000  0.75020000  0.55960000  1.0 -0.1774690993
N  N45  1  0.43260000  0.64700000  0.33740000  1.0 -0.1990239146
N  N46  1  0.35300000  0.56740000  0.83740000  1.0 -0.1990239146
N  N47  1  0.78110000  0.20010000  0.20206000  1.0 -0.1774690993
N  N48  1  0.79990000  0.21890000  0.70206000  1.0 -0.1774690993
