# DDEC6 charges by PACMAN v1.1 (https://github.com/mtap-research/PACMAN-charge/)
data_LUDVOV_ASR_pacman
_symmetry_space_group_name_H-M   'P 1'
_cell_length_a   19.13140000
_cell_length_b   19.13140000
_cell_length_c   31.76600000
_cell_angle_alpha   79.02280000
_cell_angle_beta   100.97700000
_cell_angle_gamma   134.73300000
_symmetry_Int_Tables_number   1
_chemical_formula_structural   Zn3H24C36I7N12
_chemical_formula_sum   'Zn12 H96 C144 I28 N48'
_cell_volume   8081.85086506
_cell_formula_units_Z   4
loop_
 _symmetry_equiv_pos_site_id
 _symmetry_equiv_pos_as_xyz
  1  'x, y, z'
loop_
 _atom_site_type_symbol
 _atom_site_label
 _atom_site_symmetry_multiplicity
 _atom_site_fract_x
 _atom_site_fract_y
 _atom_site_fract_z
 _atom_site_occupancy
 _atom_site_charge
Zn  Zn1  1  0.28297000  0.53187000  0.93489000  1.0 0.4706510066
Zn  Zn2  1  0.46813000  0.71703000  0.43489000  1.0 0.4706510066
Zn  Zn3  1  0.20621000  0.03419000  0.09489000  1.0 0.4407650031
Zn  Zn4  1  0.96581000  0.79379000  0.59489000  1.0 0.4407650031
Zn  Zn5  1  0.82384000  0.47900000  0.77190000  1.0 0.4407650031
Zn  Zn6  1  0.52100000  0.17616000  0.27190000  1.0 0.4407650031
Zn  Zn7  1  0.53187000  0.28297000  0.56511000  1.0 0.4706510066
Zn  Zn8  1  0.71703000  0.46813000  0.06511000  1.0 0.4706510066
Zn  Zn9  1  0.03419000  0.20621000  0.40511000  1.0 0.4407650031
Zn  Zn10  1  0.79379000  0.96581000  0.90511000  1.0 0.4407650031
Zn  Zn11  1  0.47900000  0.82384000  0.72810000  1.0 0.4407650031
Zn  Zn12  1  0.17616000  0.52100000  0.22810000  1.0 0.4407650031
H  H1  1  0.14600000  0.89820000  0.03240000  1.0 0.1107012262
H  H2  1  0.10180000  0.85400000  0.53240000  1.0 0.1107012262
H  H3  1  0.01220000  0.77900000  0.98800000  1.0 0.1408320691
H  H4  1  0.22100000  0.98780000  0.48800000  1.0 0.1408320691
H  H5  1  0.86820000  0.84640000  0.01650000  1.0 0.1408320691
H  H6  1  0.15360000  0.13180000  0.51650000  1.0 0.1408320691
H  H7  1  0.00580000  0.96200000  0.06030000  1.0 0.1107012262
H  H8  1  0.03800000  0.99420000  0.56030000  1.0 0.1107012262
H  H9  1  0.39930000  0.54470000  0.87880000  1.0 0.1107012262
H  H10  1  0.45530000  0.60070000  0.37880000  1.0 0.1107012262
H  H11  1  0.53680000  0.57020000  0.88040000  1.0 0.1408320691
H  H12  1  0.42980000  0.46320000  0.38040000  1.0 0.1408320691
H  H13  1  0.60900000  0.65080000  0.00070000  1.0 0.1408320691
H  H14  1  0.34920000  0.39100000  0.50070000  1.0 0.1408320691
H  H15  1  0.46430000  0.61170000  0.99730000  1.0 0.1107012262
H  H16  1  0.38830000  0.53570000  0.49730000  1.0 0.1107012262
H  H17  1  0.92050000  0.56450000  0.85960000  1.0 0.1107012262
H  H18  1  0.43550000  0.07950000  0.35960000  1.0 0.1107012262
H  H19  1  0.90420000  0.61980000  0.91090000  1.0 0.1408320691
H  H20  1  0.38020000  0.09580000  0.41090000  1.0 0.1408320691
H  H21  1  0.67470000  0.56170000  0.83660000  1.0 0.1408320691
H  H22  1  0.43830000  0.32530000  0.33660000  1.0 0.1408320691
H  H23  1  0.69880000  0.50840000  0.78680000  1.0 0.1003902167
H  H24  1  0.49160000  0.30120000  0.28680000  1.0 0.1003902167
H  H25  1  0.15110000  0.96730000  0.63610000  1.0 0.1107012262
H  H26  1  0.03270000  0.84890000  0.13610000  1.0 0.1107012262
H  H27  1  0.26860000  0.01340000  0.69200000  1.0 0.1307621341
H  H28  1  0.98660000  0.73140000  0.19200000  1.0 0.1307621341
H  H29  1  0.11940000  0.72500000  0.72230000  1.0 0.1307621341
H  H30  1  0.27500000  0.88060000  0.22230000  1.0 0.1307621341
H  H31  1  0.00790000  0.68730000  0.66300000  1.0 0.1107012262
H  H32  1  0.31270000  0.99210000  0.16300000  1.0 0.1107012262
H  H33  1  0.20050000  0.55190000  0.84630000  1.0 0.1107012262
H  H34  1  0.44810000  0.79950000  0.34630000  1.0 0.1107012262
H  H35  1  0.22000000  0.67140000  0.79930000  1.0 0.1248056501
H  H36  1  0.32860000  0.78000000  0.29930000  1.0 0.1248056501
H  H37  1  0.44300000  0.87580000  0.88090000  1.0 0.1408320691
H  H38  1  0.12420000  0.55700000  0.38090000  1.0 0.1408320691
H  H39  1  0.41240000  0.74940000  0.92760000  1.0 0.1107012262
H  H40  1  0.25060000  0.58760000  0.42760000  1.0 0.1107012262
H  H41  1  0.75190000  0.28510000  0.82220000  1.0 0.1107012262
H  H42  1  0.71490000  0.24810000  0.32220000  1.0 0.1107012262
H  H43  1  0.60980000  0.12020000  0.82780000  1.0 0.1408320691
H  H44  1  0.87980000  0.39020000  0.32780000  1.0 0.1408320691
H  H45  1  0.47010000  0.17850000  0.74020000  1.0 0.1408320691
H  H46  1  0.82150000  0.52990000  0.24020000  1.0 0.1408320691
H  H47  1  0.61480000  0.34380000  0.73950000  1.0 0.1107012262
H  H48  1  0.65620000  0.38520000  0.23950000  1.0 0.1107012262
H  H49  1  0.89820000  0.14600000  0.46760000  1.0 0.1107012262
H  H50  1  0.85400000  0.10180000  0.96760000  1.0 0.1107012262
H  H51  1  0.77900000  0.01220000  0.51200000  1.0 0.1408320691
H  H52  1  0.98780000  0.22100000  0.01200000  1.0 0.1408320691
H  H53  1  0.84640000  0.86820000  0.48350000  1.0 0.1408320691
H  H54  1  0.13180000  0.15360000  0.98350000  1.0 0.1408320691
H  H55  1  0.96200000  0.00580000  0.43970000  1.0 0.1107012262
H  H56  1  0.99420000  0.03800000  0.93970000  1.0 0.1107012262
H  H57  1  0.54470000  0.39930000  0.62120000  1.0 0.1107012262
H  H58  1  0.60070000  0.45530000  0.12120000  1.0 0.1107012262
H  H59  1  0.57020000  0.53680000  0.61960000  1.0 0.1408320691
H  H60  1  0.46320000  0.42980000  0.11960000  1.0 0.1408320691
H  H61  1  0.65080000  0.60900000  0.49930000  1.0 0.1408320691
H  H62  1  0.39100000  0.34920000  0.99930000  1.0 0.1408320691
H  H63  1  0.61170000  0.46430000  0.50270000  1.0 0.1107012262
H  H64  1  0.53570000  0.38830000  0.00270000  1.0 0.1107012262
H  H65  1  0.56450000  0.92050000  0.64040000  1.0 0.1107012262
H  H66  1  0.07950000  0.43550000  0.14040000  1.0 0.1107012262
H  H67  1  0.61980000  0.90420000  0.58910000  1.0 0.1408320691
H  H68  1  0.09580000  0.38020000  0.08910000  1.0 0.1408320691
H  H69  1  0.56170000  0.67470000  0.66340000  1.0 0.1408320691
H  H70  1  0.32530000  0.43830000  0.16340000  1.0 0.1408320691
H  H71  1  0.50840000  0.69880000  0.71320000  1.0 0.1003902167
H  H72  1  0.30120000  0.49160000  0.21320000  1.0 0.1003902167
H  H73  1  0.96730000  0.15110000  0.86390000  1.0 0.1107012262
H  H74  1  0.84890000  0.03270000  0.36390000  1.0 0.1107012262
H  H75  1  0.01340000  0.26860000  0.80800000  1.0 0.1307621341
H  H76  1  0.73140000  0.98660000  0.30800000  1.0 0.1307621341
H  H77  1  0.72500000  0.11940000  0.77770000  1.0 0.1307621341
H  H78  1  0.88060000  0.27500000  0.27770000  1.0 0.1307621341
H  H79  1  0.68730000  0.00790000  0.83700000  1.0 0.1107012262
H  H80  1  0.99210000  0.31270000  0.33700000  1.0 0.1107012262
H  H81  1  0.55190000  0.20050000  0.65370000  1.0 0.1107012262
H  H82  1  0.79950000  0.44810000  0.15370000  1.0 0.1107012262
H  H83  1  0.67140000  0.22000000  0.70070000  1.0 0.1248056501
H  H84  1  0.78000000  0.32860000  0.20070000  1.0 0.1248056501
H  H85  1  0.87580000  0.44300000  0.61910000  1.0 0.1408320691
H  H86  1  0.55700000  0.12420000  0.11910000  1.0 0.1408320691
H  H87  1  0.74940000  0.41240000  0.57240000  1.0 0.1107012262
H  H88  1  0.58760000  0.25060000  0.07240000  1.0 0.1107012262
H  H89  1  0.28510000  0.75190000  0.67780000  1.0 0.1107012262
H  H90  1  0.24810000  0.71490000  0.17780000  1.0 0.1107012262
H  H91  1  0.12020000  0.60980000  0.67220000  1.0 0.1408320691
H  H92  1  0.39020000  0.87980000  0.17220000  1.0 0.1408320691
H  H93  1  0.17850000  0.47010000  0.75980000  1.0 0.1408320691
H  H94  1  0.52990000  0.82150000  0.25980000  1.0 0.1408320691
H  H95  1  0.34380000  0.61480000  0.76050000  1.0 0.1107012262
H  H96  1  0.38520000  0.65620000  0.26050000  1.0 0.1107012262
C  C1  1  0.83962000  0.72778000  0.96780000  1.0 0.3801907919
C  C2  1  0.27222000  0.16038000  0.46780000  1.0 0.3801907919
C  C3  1  0.68380000  0.64220000  0.94100000  1.0 0.371563217
C  C4  1  0.35780000  0.31620000  0.44100000  1.0 0.371563217
C  C5  1  0.77635000  0.63565000  0.91160000  1.0 0.3801907919
C  C6  1  0.36435000  0.22365000  0.41160000  1.0 0.3801907919
C  C7  1  0.08820000  0.88660000  0.02930000  1.0 0.0885026067
C  C8  1  0.11340000  0.91180000  0.52930000  1.0 0.0885026067
C  C9  1  0.00940000  0.81620000  0.00230000  1.0 -0.1308356874
C  C10  1  0.18380000  0.99060000  0.50230000  1.0 -0.1308356874
C  C11  1  0.92635000  0.80125000  0.99660000  1.0 0.0713628129
C  C12  1  0.19875000  0.07365000  0.49660000  1.0 0.0713628129
C  C13  1  0.92480000  0.85600000  0.01920000  1.0 -0.1308356874
C  C14  1  0.14400000  0.07520000  0.51920000  1.0 -0.1308356874
C  C15  1  0.00640000  0.92380000  0.04540000  1.0 0.0713628129
C  C16  1  0.07620000  0.99360000  0.54540000  1.0 0.0713628129
C  C17  1  0.44130000  0.56370000  0.90470000  1.0 0.078256205
C  C18  1  0.43630000  0.55870000  0.40470000  1.0 0.078256205
C  C19  1  0.52440000  0.58140000  0.90470000  1.0 -0.1308356874
C  C20  1  0.41860000  0.47560000  0.40470000  1.0 -0.1308356874
C  C21  1  0.58920000  0.61580000  0.94090000  1.0 0.0713628129
C  C22  1  0.38420000  0.41080000  0.44090000  1.0 0.0713628129
C  C23  1  0.56580000  0.62700000  0.97530000  1.0 -0.1383266666
C  C24  1  0.37300000  0.43420000  0.47530000  1.0 -0.1383266666
C  C25  1  0.47930000  0.60390000  0.97280000  1.0 0.078256205
C  C26  1  0.39610000  0.52070000  0.47280000  1.0 0.078256205
C  C27  1  0.86940000  0.56360000  0.85490000  1.0 0.078256205
C  C28  1  0.43640000  0.13060000  0.35490000  1.0 0.078256205
C  C29  1  0.86070000  0.59730000  0.88550000  1.0 -0.1308356874
C  C30  1  0.40270000  0.13930000  0.38550000  1.0 -0.1308356874
C  C31  1  0.78770000  0.59850000  0.87950000  1.0 0.0713628129
C  C32  1  0.40150000  0.21230000  0.37950000  1.0 0.0713628129
C  C33  1  0.72640000  0.56340000  0.84200000  1.0 -0.1383266666
C  C34  1  0.43660000  0.27360000  0.34200000  1.0 -0.1383266666
C  C35  1  0.74080000  0.53100000  0.81270000  1.0 0.0713628129
C  C36  1  0.46900000  0.25920000  0.31270000  1.0 0.0713628129
C  C37  1  0.28491000  0.90269000  0.74870000  1.0 0.3801907919
C  C38  1  0.09731000  0.71509000  0.24870000  1.0 0.3801907919
C  C39  1  0.34543000  0.86417000  0.80580000  1.0 0.3801907919
C  C40  1  0.13583000  0.65457000  0.30580000  1.0 0.3801907919
C  C41  1  0.43179000  0.02341000  0.78380000  1.0 0.371563217
C  C42  1  0.97659000  0.56821000  0.28380000  1.0 0.371563217
C  C43  1  0.14560000  0.91760000  0.65350000  1.0 0.0885026067
C  C44  1  0.08240000  0.85440000  0.15350000  1.0 0.0885026067
C  C45  1  0.21570000  0.94570000  0.68670000  1.0 -0.1383266666
C  C46  1  0.05430000  0.78430000  0.18670000  1.0 -0.1383266666
C  C47  1  0.20850000  0.87350000  0.71290000  1.0 0.0538181312
C  C48  1  0.12650000  0.79150000  0.21290000  1.0 0.0538181312
C  C49  1  0.12860000  0.77640000  0.70440000  1.0 -0.1383266666
C  C50  1  0.22360000  0.87140000  0.20440000  1.0 -0.1383266666
C  C51  1  0.06150000  0.75410000  0.66940000  1.0 0.0885026067
C  C52  1  0.24590000  0.93850000  0.16940000  1.0 0.0885026067
C  C53  1  0.24970000  0.61850000  0.85350000  1.0 0.078256205
C  C54  1  0.38150000  0.75030000  0.35350000  1.0 0.078256205
C  C55  1  0.26110000  0.68910000  0.82530000  1.0 -0.1383266666
C  C56  1  0.31090000  0.73890000  0.32530000  1.0 -0.1383266666
C  C57  1  0.33304000  0.78616000  0.83510000  1.0 0.0556282192
C  C58  1  0.21384000  0.66696000  0.33510000  1.0 0.0556282192
C  C59  1  0.39180000  0.80940000  0.87360000  1.0 -0.1308356874
C  C60  1  0.19060000  0.60820000  0.37360000  1.0 -0.1308356874
C  C61  1  0.37420000  0.73380000  0.90080000  1.0 0.1003902167
C  C62  1  0.26620000  0.62580000  0.40080000  1.0 0.1003902167
C  C63  1  0.69350000  0.26290000  0.80540000  1.0 0.0713628129
C  C64  1  0.73710000  0.30650000  0.30540000  1.0 0.0713628129
C  C65  1  0.60940000  0.16460000  0.80870000  1.0 -0.1565290109
C  C66  1  0.83540000  0.39060000  0.30870000  1.0 -0.1565290109
C  C67  1  0.52370000  0.12970000  0.78430000  1.0 0.0713628129
C  C68  1  0.87030000  0.47630000  0.28430000  1.0 0.0713628129
C  C69  1  0.52720000  0.19880000  0.75770000  1.0 -0.1499823124
C  C70  1  0.80120000  0.47280000  0.25770000  1.0 -0.1499823124
C  C71  1  0.61390000  0.29690000  0.75690000  1.0 0.0713628129
C  C72  1  0.70310000  0.38610000  0.25690000  1.0 0.0713628129
C  C73  1  0.72778000  0.83962000  0.53220000  1.0 0.3801907919
C  C74  1  0.16038000  0.27222000  0.03220000  1.0 0.3801907919
C  C75  1  0.64220000  0.68380000  0.55900000  1.0 0.371563217
C  C76  1  0.31620000  0.35780000  0.05900000  1.0 0.371563217
C  C77  1  0.63565000  0.77635000  0.58840000  1.0 0.3801907919
C  C78  1  0.22365000  0.36435000  0.08840000  1.0 0.3801907919
C  C79  1  0.88660000  0.08820000  0.47070000  1.0 0.0885026067
C  C80  1  0.91180000  0.11340000  0.97070000  1.0 0.0885026067
C  C81  1  0.81620000  0.00940000  0.49770000  1.0 -0.1308356874
C  C82  1  0.99060000  0.18380000  0.99770000  1.0 -0.1308356874
C  C83  1  0.80125000  0.92635000  0.50340000  1.0 0.0713628129
C  C84  1  0.07365000  0.19875000  0.00340000  1.0 0.0713628129
C  C85  1  0.85600000  0.92480000  0.48080000  1.0 -0.1308356874
C  C86  1  0.07520000  0.14400000  0.98080000  1.0 -0.1308356874
C  C87  1  0.92380000  0.00640000  0.45460000  1.0 0.0713628129
C  C88  1  0.99360000  0.07620000  0.95460000  1.0 0.0713628129
C  C89  1  0.56370000  0.44130000  0.59530000  1.0 0.078256205
C  C90  1  0.55870000  0.43630000  0.09530000  1.0 0.078256205
C  C91  1  0.58140000  0.52440000  0.59530000  1.0 -0.1308356874
C  C92  1  0.47560000  0.41860000  0.09530000  1.0 -0.1308356874
C  C93  1  0.61580000  0.58920000  0.55910000  1.0 0.0713628129
C  C94  1  0.41080000  0.38420000  0.05910000  1.0 0.0713628129
C  C95  1  0.62700000  0.56580000  0.52470000  1.0 -0.1383266666
C  C96  1  0.43420000  0.37300000  0.02470000  1.0 -0.1383266666
C  C97  1  0.60390000  0.47930000  0.52720000  1.0 0.078256205
C  C98  1  0.52070000  0.39610000  0.02720000  1.0 0.078256205
C  C99  1  0.56360000  0.86940000  0.64510000  1.0 0.078256205
C  C100  1  0.13060000  0.43640000  0.14510000  1.0 0.078256205
C  C101  1  0.59730000  0.86070000  0.61450000  1.0 -0.1308356874
C  C102  1  0.13930000  0.40270000  0.11450000  1.0 -0.1308356874
C  C103  1  0.59850000  0.78770000  0.62050000  1.0 0.0713628129
C  C104  1  0.21230000  0.40150000  0.12050000  1.0 0.0713628129
C  C105  1  0.56340000  0.72640000  0.65800000  1.0 -0.1383266666
C  C106  1  0.27360000  0.43660000  0.15800000  1.0 -0.1383266666
C  C107  1  0.53100000  0.74080000  0.68730000  1.0 0.0713628129
C  C108  1  0.25920000  0.46900000  0.18730000  1.0 0.0713628129
C  C109  1  0.90269000  0.28491000  0.75130000  1.0 0.3801907919
C  C110  1  0.71509000  0.09731000  0.25130000  1.0 0.3801907919
C  C111  1  0.86417000  0.34543000  0.69420000  1.0 0.3801907919
C  C112  1  0.65457000  0.13583000  0.19420000  1.0 0.3801907919
C  C113  1  0.02341000  0.43179000  0.71620000  1.0 0.371563217
C  C114  1  0.56821000  0.97659000  0.21620000  1.0 0.371563217
C  C115  1  0.91760000  0.14560000  0.84650000  1.0 0.0885026067
C  C116  1  0.85440000  0.08240000  0.34650000  1.0 0.0885026067
C  C117  1  0.94570000  0.21570000  0.81330000  1.0 -0.1383266666
C  C118  1  0.78430000  0.05430000  0.31330000  1.0 -0.1383266666
C  C119  1  0.87350000  0.20850000  0.78710000  1.0 0.0538181312
C  C120  1  0.79150000  0.12650000  0.28710000  1.0 0.0556282192
C  C121  1  0.77640000  0.12860000  0.79560000  1.0 -0.1383266666
C  C122  1  0.87140000  0.22360000  0.29560000  1.0 -0.1383266666
C  C123  1  0.75410000  0.06150000  0.83060000  1.0 0.0885026067
C  C124  1  0.93850000  0.24590000  0.33060000  1.0 0.0885026067
C  C125  1  0.61850000  0.24970000  0.64650000  1.0 0.078256205
C  C126  1  0.75030000  0.38150000  0.14650000  1.0 0.078256205
C  C127  1  0.68910000  0.26110000  0.67470000  1.0 -0.1383266666
C  C128  1  0.73890000  0.31090000  0.17470000  1.0 -0.1383266666
C  C129  1  0.78616000  0.33304000  0.66490000  1.0 0.0556282192
C  C130  1  0.66696000  0.21384000  0.16490000  1.0 0.0556282192
C  C131  1  0.80940000  0.39180000  0.62640000  1.0 -0.1308356874
C  C132  1  0.60820000  0.19060000  0.12640000  1.0 -0.1308356874
C  C133  1  0.73380000  0.37420000  0.59920000  1.0 0.1003902167
C  C134  1  0.62580000  0.26620000  0.09920000  1.0 0.1003902167
C  C135  1  0.26290000  0.69350000  0.69460000  1.0 0.0713628129
C  C136  1  0.30650000  0.73710000  0.19460000  1.0 0.0713628129
C  C137  1  0.16460000  0.60940000  0.69130000  1.0 -0.1565290109
C  C138  1  0.39060000  0.83540000  0.19130000  1.0 -0.1565290109
C  C139  1  0.12970000  0.52370000  0.71570000  1.0 0.0713628129
C  C140  1  0.47630000  0.87030000  0.21570000  1.0 0.0713628129
C  C141  1  0.19880000  0.52720000  0.74230000  1.0 -0.1499823124
C  C142  1  0.47280000  0.80120000  0.24230000  1.0 -0.1499823124
C  C143  1  0.29690000  0.61390000  0.74310000  1.0 0.0713628129
C  C144  1  0.38610000  0.70310000  0.24310000  1.0 0.0713628129
I  I1  1  0.26623000  0.55639000  0.00682000  1.0 -0.4385462121
I  I2  1  0.44361000  0.73377000  0.50682000  1.0 -0.4385462121
I  I3  1  0.15591000  0.37079000  0.89840000  1.0 -0.4592416302
I  I4  1  0.62921000  0.84409000  0.39840000  1.0 -0.4592416302
I  I5  1  0.35990000  0.11078000  0.06265000  1.0 -0.448552014
I  I6  1  0.88922000  0.64010000  0.56265000  1.0 -0.448552014
I  I7  1  0.17484000  0.12402000  0.12470000  1.0 -0.4290207156
I  I8  1  0.87598000  0.82516000  0.62470000  1.0 -0.4290207156
I  I9  1  0.79491000  0.53841000  0.69774000  1.0 -0.413512142
I  I10  1  0.46159000  0.20509000  0.19774000  1.0 -0.413512142
I  I11  1  0.97740000  0.50894000  0.79335000  1.0 -0.4290207156
I  I12  1  0.49106000  0.02261000  0.29335000  1.0 -0.4290207156
I  I13  1  0.87660000  0.82380000  0.61840000  1.0 -0.4000072197
I  I14  1  0.17620000  0.12340000  0.11840000  1.0 -0.4000072197
I  I15  1  0.55639000  0.26623000  0.49318000  1.0 -0.4385462121
I  I16  1  0.73377000  0.44361000  0.99318000  1.0 -0.4385462121
I  I17  1  0.37079000  0.15591000  0.60160000  1.0 -0.4592416302
I  I18  1  0.84409000  0.62921000  0.10160000  1.0 -0.4592416302
I  I19  1  0.11078000  0.35990000  0.43735000  1.0 -0.448552014
I  I20  1  0.64010000  0.88922000  0.93735000  1.0 -0.448552014
I  I21  1  0.12402000  0.17484000  0.37530000  1.0 -0.4290207156
I  I22  1  0.82516000  0.87598000  0.87530000  1.0 -0.4290207156
I  I23  1  0.53841000  0.79491000  0.80226000  1.0 -0.413512142
I  I24  1  0.20509000  0.46159000  0.30226000  1.0 -0.413512142
I  I25  1  0.50894000  0.97740000  0.70665000  1.0 -0.4290207156
I  I26  1  0.02261000  0.49106000  0.20665000  1.0 -0.4290207156
I  I27  1  0.82380000  0.87660000  0.88160000  1.0 -0.4000072197
I  I28  1  0.12340000  0.17620000  0.38160000  1.0 -0.4000072197
N  N1  1  0.85490000  0.69790000  0.93848000  1.0 -0.3714055062
N  N2  1  0.30210000  0.14510000  0.43848000  1.0 -0.3714055062
N  N3  1  0.75481000  0.69979000  0.97087000  1.0 -0.3600258321
N  N4  1  0.30021000  0.24519000  0.47087000  1.0 -0.3600258321
N  N5  1  0.68986000  0.60794000  0.91077000  1.0 -0.3714055062
N  N6  1  0.39206000  0.31014000  0.41077000  1.0 -0.3714055062
N  N7  1  0.08755000  0.93865000  0.05104000  1.0 -0.1727646543
N  N8  1  0.06135000  0.91245000  0.55104000  1.0 -0.1727646543
N  N9  1  0.41532000  0.57128000  0.93839000  1.0 -0.1802522145
N  N10  1  0.42872000  0.58468000  0.43839000  1.0 -0.1802522145
N  N11  1  0.81059000  0.52941000  0.81857000  1.0 -0.1802522145
N  N12  1  0.47059000  0.18941000  0.31857000  1.0 -0.1802522145
N  N13  1  0.27375000  0.83205000  0.77377000  1.0 -0.3796051942
N  N14  1  0.16795000  0.72625000  0.27377000  1.0 -0.3796051942
N  N15  1  0.42711000  0.95849000  0.81170000  1.0 -0.3796051942
N  N16  1  0.04151000  0.57289000  0.31170000  1.0 -0.3796051942
N  N17  1  0.36156000  0.99964000  0.75253000  1.0 -0.3866654129
N  N18  1  0.00036000  0.63844000  0.25253000  1.0 -0.3866654129
N  N19  1  0.07031000  0.82449000  0.64435000  1.0 -0.1499823124
N  N20  1  0.17551000  0.92969000  0.14435000  1.0 -0.1499823124
N  N21  1  0.30551000  0.63949000  0.89121000  1.0 -0.1727646543
N  N22  1  0.36051000  0.69449000  0.39121000  1.0 -0.1727646543
N  N23  1  0.69697000  0.32883000  0.77957000  1.0 -0.1727646543
N  N24  1  0.67117000  0.30303000  0.27957000  1.0 -0.1727646543
N  N25  1  0.69790000  0.85490000  0.56152000  1.0 -0.3714055062
N  N26  1  0.14510000  0.30210000  0.06152000  1.0 -0.3714055062
N  N27  1  0.69979000  0.75481000  0.52913000  1.0 -0.3600258321
N  N28  1  0.24519000  0.30021000  0.02913000  1.0 -0.3600258321
N  N29  1  0.60794000  0.68986000  0.58923000  1.0 -0.3714055062
N  N30  1  0.31014000  0.39206000  0.08923000  1.0 -0.3714055062
N  N31  1  0.93865000  0.08755000  0.44896000  1.0 -0.1727646543
N  N32  1  0.91245000  0.06135000  0.94896000  1.0 -0.1727646543
N  N33  1  0.57128000  0.41532000  0.56161000  1.0 -0.1802522145
N  N34  1  0.58468000  0.42872000  0.06161000  1.0 -0.1802522145
N  N35  1  0.52941000  0.81059000  0.68143000  1.0 -0.1802522145
N  N36  1  0.18941000  0.47059000  0.18143000  1.0 -0.1802522145
N  N37  1  0.83205000  0.27375000  0.72623000  1.0 -0.3796051942
N  N38  1  0.72625000  0.16795000  0.22623000  1.0 -0.3796051942
N  N39  1  0.95849000  0.42711000  0.68830000  1.0 -0.3796051942
N  N40  1  0.57289000  0.04151000  0.18830000  1.0 -0.3796051942
N  N41  1  0.99964000  0.36156000  0.74747000  1.0 -0.3866654129
N  N42  1  0.63844000  0.00036000  0.24747000  1.0 -0.3866654129
N  N43  1  0.82449000  0.07031000  0.85565000  1.0 -0.1499823124
N  N44  1  0.92969000  0.17551000  0.35565000  1.0 -0.1499823124
N  N45  1  0.63949000  0.30551000  0.60879000  1.0 -0.1727646543
N  N46  1  0.69449000  0.36051000  0.10879000  1.0 -0.1727646543
N  N47  1  0.32883000  0.69697000  0.72043000  1.0 -0.1727646543
N  N48  1  0.30303000  0.67117000  0.22043000  1.0 -0.1727646543
