# DDEC6 charges by PACMAN v1.1 (https://github.com/mtap-research/PACMAN-charge/)
data_LUDVAH_FSR_pacman
_symmetry_space_group_name_H-M   'P 1'
_cell_length_a   14.29700000
_cell_length_b   17.16400000
_cell_length_c   27.33300000
_cell_angle_alpha   89.97000000
_cell_angle_beta   102.89600000
_cell_angle_gamma   105.40900000
_symmetry_Int_Tables_number   1
_chemical_formula_structural   Zn2H16C24I5N8
_chemical_formula_sum   'Zn12 H96 C144 I30 N48'
_cell_volume   6290.80098975
_cell_formula_units_Z   6
loop_
 _symmetry_equiv_pos_site_id
 _symmetry_equiv_pos_as_xyz
  1  'x, y, z'
loop_
 _atom_site_type_symbol
 _atom_site_label
 _atom_site_symmetry_multiplicity
 _atom_site_fract_x
 _atom_site_fract_y
 _atom_site_fract_z
 _atom_site_occupancy
 _atom_site_charge
Zn  Zn1  1  0.57080000  0.37255000  0.99867000  1.0 0.440819028
Zn  Zn2  1  0.49840000  0.69155000  0.24291000  1.0 0.4574792712
Zn  Zn3  1  0.06650000  0.55890000  0.64221000  1.0 0.4242874115
Zn  Zn4  1  0.01420000  0.84303000  0.89533000  1.0 0.4299584358
Zn  Zn5  1  0.82010000  0.04578000  0.27999000  1.0 0.440819028
Zn  Zn6  1  0.69890000  0.20920000  0.56360000  1.0 0.2529291986
Zn  Zn7  1  0.42920000  0.62745000  0.00133000  1.0 0.440819028
Zn  Zn8  1  0.50160000  0.30845000  0.75709000  1.0 0.4574792712
Zn  Zn9  1  0.93350000  0.44110000  0.35779000  1.0 0.4299584358
Zn  Zn10  1  0.98580000  0.15697000  0.10467000  1.0 0.440819028
Zn  Zn11  1  0.17990000  0.95422000  0.72001000  1.0 0.440819028
Zn  Zn12  1  0.30110000  0.79080000  0.43640000  1.0 0.2529291986
H  H1  1  0.94250000  0.98110000  0.92050000  1.0 0.1005811839
H  H2  1  0.82270000  0.01430000  0.95180000  1.0 0.1386269956
H  H3  1  0.76690000  0.79580000  0.99940000  1.0 0.1311332775
H  H4  1  0.87300000  0.76730000  0.95760000  1.0 0.1077315181
H  H5  1  0.53020000  0.23550000  0.06390000  1.0 0.1005811839
H  H6  1  0.54840000  0.10320000  0.07860000  1.0 0.1386269956
H  H7  1  0.67940000  0.12920000  0.96280000  1.0 0.1386269956
H  H8  1  0.65180000  0.25220000  0.94940000  1.0 0.1005811839
H  H9  1  0.57840000  0.68580000  0.14830000  1.0 0.1005811839
H  H10  1  0.62010000  0.76370000  0.08560000  1.0 0.1311332775
H  H11  1  0.52980000  0.93530000  0.14130000  1.0 0.1386269956
H  H12  1  0.49460000  0.85560000  0.20290000  1.0 0.1077315181
H  H13  1  0.21110000  0.52090000  0.58510000  1.0 0.0929800534
H  H14  1  0.37610000  0.52420000  0.59560000  1.0 0.1311332775
H  H15  1  0.42970000  0.64960000  0.72790000  1.0 0.1311332775
H  H16  1  0.26610000  0.63940000  0.71380000  1.0 0.1077315181
H  H17  1  0.54130000  0.28150000  0.57070000  1.0 0.1005811839
H  H18  1  0.51240000  0.39870000  0.59730000  1.0 0.1311332775
H  H19  1  0.78890000  0.45930000  0.67810000  1.0 0.1311332775
H  H20  1  0.81440000  0.34230000  0.64390000  1.0 0.0798104723
H  H21  1  0.97790000  0.69990000  0.82270000  1.0 0.1077315181
H  H22  1  0.85350000  0.60700000  0.77420000  1.0 0.1311332775
H  H23  1  0.69260000  0.76120000  0.76440000  1.0 0.1311332775
H  H24  1  0.81020000  0.83950000  0.83000000  1.0 0.1077315181
H  H25  1  0.78000000  0.38900000  0.06600000  1.0 0.1077315181
H  H26  1  0.89510000  0.48440000  0.12100000  1.0 0.1386269956
H  H27  1  0.68440000  0.58180000  0.14000000  1.0 0.1311332775
H  H28  1  0.56820000  0.48870000  0.07950000  1.0 0.1077315181
H  H29  1  0.99290000  0.99920000  0.25450000  1.0 0.1077315181
H  H30  1  0.03310000  0.88210000  0.24270000  1.0 0.1210471694
H  H31  1  0.74840000  0.75570000  0.21700000  1.0 0.1311332775
H  H32  1  0.72480000  0.87340000  0.24600000  1.0 0.1005811839
H  H33  1  0.36090000  0.78270000  0.27290000  1.0 0.1077315181
H  H34  1  0.20170000  0.77820000  0.25710000  1.0 0.1210471694
H  H35  1  0.13180000  0.56090000  0.18100000  1.0 0.1386269956
H  H36  1  0.29810000  0.58250000  0.18900000  1.0 0.1077315181
H  H37  1  0.51410000  0.14470000  0.47460000  1.0 0.0798104723
H  H38  1  0.35280000  0.07870000  0.46600000  1.0 0.1386269956
H  H39  1  0.40260000  0.00730000  0.60120000  1.0 0.1386269956
H  H40  1  0.56870000  0.08810000  0.61610000  1.0 0.0929800534
H  H41  1  0.94090000  0.64510000  0.56660000  1.0 0.1005811839
H  H42  1  0.99120000  0.74720000  0.51250000  1.0 0.1311332775
H  H43  1  0.20900000  0.84640000  0.63070000  1.0 0.1210471694
H  H44  1  0.18200000  0.73160000  0.66450000  1.0 0.1077315181
H  H45  1  0.01920000  0.11190000  0.34720000  1.0 0.1077315181
H  H46  1  0.11790000  0.09780000  0.41880000  1.0 0.1386269956
H  H47  1  0.90040000  0.89930000  0.43620000  1.0 0.1386269956
H  H48  1  0.80890000  0.93800000  0.36610000  1.0 0.1005811839
H  H49  1  0.05750000  0.01890000  0.07950000  1.0 0.1005811839
H  H50  1  0.17730000  0.98570000  0.04820000  1.0 0.1386269956
H  H51  1  0.23310000  0.20420000  0.00060000  1.0 0.1311332775
H  H52  1  0.12700000  0.23270000  0.04240000  1.0 0.1077315181
H  H53  1  0.46980000  0.76450000  0.93610000  1.0 0.1005811839
H  H54  1  0.45160000  0.89680000  0.92140000  1.0 0.1386269956
H  H55  1  0.32060000  0.87080000  0.03720000  1.0 0.1386269956
H  H56  1  0.34820000  0.74780000  0.05060000  1.0 0.1005811839
H  H57  1  0.42160000  0.31420000  0.85170000  1.0 0.1005811839
H  H58  1  0.37990000  0.23630000  0.91440000  1.0 0.1311332775
H  H59  1  0.47020000  0.06470000  0.85870000  1.0 0.1386269956
H  H60  1  0.50540000  0.14440000  0.79710000  1.0 0.1077315181
H  H61  1  0.78890000  0.47910000  0.41490000  1.0 0.0929800534
H  H62  1  0.62390000  0.47580000  0.40440000  1.0 0.1311332775
H  H63  1  0.57030000  0.35040000  0.27210000  1.0 0.1311332775
H  H64  1  0.73390000  0.36060000  0.28620000  1.0 0.1077315181
H  H65  1  0.45870000  0.71850000  0.42930000  1.0 0.1005811839
H  H66  1  0.48760000  0.60130000  0.40270000  1.0 0.1311332775
H  H67  1  0.21110000  0.54070000  0.32190000  1.0 0.1311332775
H  H68  1  0.18560000  0.65770000  0.35610000  1.0 0.0798104723
H  H69  1  0.02210000  0.30010000  0.17730000  1.0 0.1077315181
H  H70  1  0.14650000  0.39300000  0.22580000  1.0 0.1311332775
H  H71  1  0.30740000  0.23880000  0.23560000  1.0 0.1311332775
H  H72  1  0.18980000  0.16050000  0.17000000  1.0 0.1077315181
H  H73  1  0.22000000  0.61100000  0.93400000  1.0 0.1077315181
H  H74  1  0.10490000  0.51560000  0.87900000  1.0 0.1386269956
H  H75  1  0.31560000  0.41820000  0.86000000  1.0 0.1311332775
H  H76  1  0.43180000  0.51130000  0.92050000  1.0 0.1077315181
H  H77  1  0.00710000  0.00080000  0.74550000  1.0 0.1077315181
H  H78  1  0.96690000  0.11790000  0.75730000  1.0 0.1210471694
H  H79  1  0.25160000  0.24430000  0.78300000  1.0 0.1311332775
H  H80  1  0.27520000  0.12660000  0.75400000  1.0 0.1005811839
H  H81  1  0.63910000  0.21730000  0.72710000  1.0 0.1077315181
H  H82  1  0.79830000  0.22180000  0.74290000  1.0 0.1210471694
H  H83  1  0.86820000  0.43910000  0.81900000  1.0 0.1386269956
H  H84  1  0.70190000  0.41750000  0.81100000  1.0 0.1077315181
H  H85  1  0.48590000  0.85530000  0.52540000  1.0 0.0798104723
H  H86  1  0.64720000  0.92130000  0.53400000  1.0 0.1386269956
H  H87  1  0.59740000  0.99270000  0.39880000  1.0 0.1386269956
H  H88  1  0.43130000  0.91190000  0.38390000  1.0 0.0929800534
H  H89  1  0.05910000  0.35490000  0.43340000  1.0 0.1005811839
H  H90  1  0.00880000  0.25280000  0.48750000  1.0 0.1311332775
H  H91  1  0.79100000  0.15360000  0.36930000  1.0 0.1210471694
H  H92  1  0.81800000  0.26840000  0.33550000  1.0 0.1077315181
H  H93  1  0.98080000  0.88810000  0.65280000  1.0 0.1077315181
H  H94  1  0.88210000  0.90220000  0.58120000  1.0 0.1386269956
H  H95  1  0.09960000  0.10070000  0.56380000  1.0 0.1386269956
H  H96  1  0.19110000  0.06200000  0.63390000  1.0 0.1005811839
C  C1  1  0.71980000  0.93550000  0.00950000  1.0 0.3485072582
C  C2  1  0.63840000  0.02490000  0.03040000  1.0 0.359893921
C  C3  1  0.62600000  0.90940000  0.06900000  1.0 0.3407866885
C  C4  1  0.90300000  0.94100000  0.93560000  1.0 0.0798104723
C  C5  1  0.83400000  0.96400000  0.95760000  1.0 -0.1422009863
C  C6  1  0.78700000  0.91740000  0.98500000  1.0 0.0291088489
C  C7  1  0.80200000  0.83660000  0.98290000  1.0 -0.1908382744
C  C8  1  0.86600000  0.81960000  0.95750000  1.0 0.0929800534
C  C9  1  0.56100000  0.21260000  0.04310000  1.0 0.0929800534
C  C10  1  0.57000000  0.13250000  0.05280000  1.0 -0.1604163234
C  C11  1  0.61610000  0.10300000  0.02000000  1.0 0.0586386154
C  C12  1  0.64700000  0.14940000  0.98360000  1.0 -0.1422009863
C  C13  1  0.63280000  0.22360000  0.97610000  1.0 0.0586386154
C  C14  1  0.56880000  0.73730000  0.14730000  1.0 0.0708032702
C  C15  1  0.59600000  0.78490000  0.11010000  1.0 -0.1695575673
C  C16  1  0.58930000  0.86190000  0.10780000  1.0 0.0477470714
C  C17  1  0.54400000  0.88530000  0.14270000  1.0 -0.1695575673
C  C18  1  0.51990000  0.83600000  0.17850000  1.0 0.0477470714
C  C19  1  0.52350000  0.57820000  0.67120000  1.0 0.3188321619
C  C20  1  0.68000000  0.62130000  0.72250000  1.0 0.378009732
C  C21  1  0.62800000  0.51180000  0.66790000  1.0 0.359893921
C  C22  1  0.25600000  0.54600000  0.61450000  1.0 0.0230693604
C  C23  1  0.35500000  0.54900000  0.61980000  1.0 -0.1506590268
C  C24  1  0.42290000  0.59080000  0.66410000  1.0 0.0586386154
C  C25  1  0.38690000  0.62280000  0.69840000  1.0 -0.1422009863
C  C26  1  0.28810000  0.61540000  0.68970000  1.0 0.0798104723
C  C27  1  0.59400000  0.31900000  0.59170000  1.0 0.1005811839
C  C28  1  0.57300000  0.38770000  0.60910000  1.0 -0.1506590268
C  C29  1  0.64790000  0.43740000  0.64440000  1.0 0.0586386154
C  C30  1  0.73600000  0.42310000  0.65590000  1.0 -0.1316851974
C  C31  1  0.75290000  0.35350000  0.63500000  1.0 0.0027468653
C  C32  1  0.91540000  0.70950000  0.81440000  1.0 0.0586386154
C  C33  1  0.84430000  0.65670000  0.78220000  1.0 -0.1316851974
C  C34  1  0.76200000  0.67380000  0.76160000  1.0 0.0379208284
C  C35  1  0.74950000  0.74540000  0.77880000  1.0 -0.1695575673
C  C36  1  0.82100000  0.79340000  0.81720000  1.0 0.0477470714
C  C37  1  0.88200000  0.60890000  0.17050000  1.0 0.378009732
C  C38  1  0.92400000  0.73280000  0.21250000  1.0 0.3941881686
C  C39  1  0.04430000  0.67120000  0.20530000  1.0 0.3485072582
C  C40  1  0.76100000  0.43140000  0.07860000  1.0 0.0798104723
C  C41  1  0.82900000  0.48670000  0.11220000  1.0 -0.1422009863
C  C42  1  0.80180000  0.54480000  0.13310000  1.0 0.0586386154
C  C43  1  0.70450000  0.54470000  0.12290000  1.0 -0.1316851974
C  C44  1  0.63520000  0.48950000  0.08700000  1.0 0.0708032702
C  C45  1  0.94600000  0.94900000  0.25000000  1.0 0.0379208284
C  C46  1  0.96700000  0.88040000  0.24100000  1.0 -0.1774768651
C  C47  1  0.89490000  0.80550000  0.22910000  1.0 0.0586386154
C  C48  1  0.80090000  0.80210000  0.22740000  1.0 -0.1506590268
C  C49  1  0.78900000  0.87500000  0.24280000  1.0 0.1005811839
C  C50  1  0.31510000  0.73840000  0.25370000  1.0 0.0379208284
C  C51  1  0.22000000  0.73540000  0.24470000  1.0 -0.1422009863
C  C52  1  0.14750000  0.67280000  0.21810000  1.0 0.0379208284
C  C53  1  0.17800000  0.60730000  0.19800000  1.0 -0.1604163234
C  C54  1  0.27730000  0.61920000  0.20600000  1.0 0.0798104723
C  C55  1  0.25580000  0.99250000  0.52440000  1.0 0.333593431
C  C56  1  0.13930000  0.88730000  0.53890000  1.0 0.3407866885
C  C57  1  0.09800000  0.96640000  0.47470000  1.0 0.3407866885
C  C58  1  0.49200000  0.12400000  0.50260000  1.0 0.1005811839
C  C59  1  0.39600000  0.07970000  0.49720000  1.0 -0.1990175777
C  C60  1  0.35800000  0.03830000  0.53200000  1.0 0.0477470714
C  C61  1  0.42400000  0.03900000  0.57620000  1.0 -0.1422009863
C  C62  1  0.52300000  0.08700000  0.58570000  1.0 0.0291088489
C  C63  1  0.00500000  0.68000000  0.57400000  1.0 0.0477470714
C  C64  1  0.02800000  0.74800000  0.54510000  1.0 -0.1695575673
C  C65  1  0.10710000  0.81440000  0.56500000  1.0 0.0379208284
C  C66  1  0.16000000  0.80300000  0.61280000  1.0 -0.1604163234
C  C67  1  0.14200000  0.73400000  0.63290000  1.0 0.0586386154
C  C68  1  0.99500000  0.07090000  0.36700000  1.0 0.0798104723
C  C69  1  0.05700000  0.05940000  0.40680000  1.0 -0.1908382744
C  C70  1  0.03100000  0.98710000  0.43180000  1.0 0.0477470714
C  C71  1  0.92800000  0.94230000  0.41850000  1.0 -0.1695575673
C  C72  1  0.87500000  0.96870000  0.37760000  1.0 0.0798104723
C  C73  1  0.28020000  0.06450000  0.99050000  1.0 0.3485072582
C  C74  1  0.36160000  0.97510000  0.96960000  1.0 0.359893921
C  C75  1  0.37400000  0.09060000  0.93100000  1.0 0.3407866885
C  C76  1  0.09700000  0.05900000  0.06440000  1.0 0.0798104723
C  C77  1  0.16600000  0.03600000  0.04240000  1.0 -0.1422009863
C  C78  1  0.21300000  0.08260000  0.01500000  1.0 0.0291088489
C  C79  1  0.19800000  0.16340000  0.01710000  1.0 -0.1908382744
C  C80  1  0.13400000  0.18040000  0.04250000  1.0 0.0929800534
C  C81  1  0.43900000  0.78740000  0.95690000  1.0 0.0929800534
C  C82  1  0.43000000  0.86750000  0.94720000  1.0 -0.1604163234
C  C83  1  0.38390000  0.89700000  0.98000000  1.0 0.0586386154
C  C84  1  0.35300000  0.85060000  0.01640000  1.0 -0.1422009863
C  C85  1  0.36720000  0.77640000  0.02390000  1.0 0.0586386154
C  C86  1  0.43120000  0.26270000  0.85270000  1.0 0.0708032702
C  C87  1  0.40400000  0.21510000  0.88990000  1.0 -0.1695575673
C  C88  1  0.41070000  0.13810000  0.89220000  1.0 0.0477470714
C  C89  1  0.45600000  0.11470000  0.85730000  1.0 -0.1604163234
C  C90  1  0.48010000  0.16400000  0.82150000  1.0 0.0477470714
C  C91  1  0.47650000  0.42180000  0.32880000  1.0 0.3188321619
C  C92  1  0.32000000  0.37870000  0.27750000  1.0 0.378009732
C  C93  1  0.37200000  0.48820000  0.33210000  1.0 0.359893921
C  C94  1  0.74400000  0.45400000  0.38550000  1.0 0.0230693604
C  C95  1  0.64500000  0.45100000  0.38020000  1.0 -0.1506590268
C  C96  1  0.57710000  0.40920000  0.33590000  1.0 0.0586386154
C  C97  1  0.61310000  0.37720000  0.30160000  1.0 -0.1422009863
C  C98  1  0.71190000  0.38460000  0.31030000  1.0 0.0798104723
C  C99  1  0.40600000  0.68100000  0.40830000  1.0 0.1005811839
C  C100  1  0.42700000  0.61230000  0.39090000  1.0 -0.1506590268
C  C101  1  0.35210000  0.56260000  0.35560000  1.0 0.0586386154
C  C102  1  0.26400000  0.57690000  0.34410000  1.0 -0.1316851974
C  C103  1  0.24710000  0.64650000  0.36500000  1.0 0.0027468653
C  C104  1  0.08460000  0.29050000  0.18560000  1.0 0.0586386154
C  C105  1  0.15570000  0.34330000  0.21780000  1.0 -0.1316851974
C  C106  1  0.23800000  0.32620000  0.23840000  1.0 0.0379208284
C  C107  1  0.25050000  0.25460000  0.22120000  1.0 -0.1695575673
C  C108  1  0.17900000  0.20660000  0.18280000  1.0 0.0477470714
C  C109  1  0.11800000  0.39110000  0.82950000  1.0 0.378009732
C  C110  1  0.07600000  0.26720000  0.78750000  1.0 0.3941881686
C  C111  1  0.95570000  0.32880000  0.79470000  1.0 0.3485072582
C  C112  1  0.23900000  0.56860000  0.92140000  1.0 0.0798104723
C  C113  1  0.17100000  0.51330000  0.88780000  1.0 -0.1422009863
C  C114  1  0.19820000  0.45520000  0.86690000  1.0 0.0586386154
C  C115  1  0.29550000  0.45530000  0.87710000  1.0 -0.1422009863
C  C116  1  0.36480000  0.51050000  0.91300000  1.0 0.0708032702
C  C117  1  0.05400000  0.05100000  0.75000000  1.0 0.0379208284
C  C118  1  0.03300000  0.11960000  0.75900000  1.0 -0.1774768651
C  C119  1  0.10510000  0.19450000  0.77090000  1.0 0.0586386154
C  C120  1  0.19910000  0.19790000  0.77260000  1.0 -0.1506590268
C  C121  1  0.21100000  0.12500000  0.75720000  1.0 0.1005811839
C  C122  1  0.68490000  0.26160000  0.74630000  1.0 0.0379208284
C  C123  1  0.78000000  0.26460000  0.75530000  1.0 -0.1422009863
C  C124  1  0.85250000  0.32720000  0.78190000  1.0 0.0379208284
C  C125  1  0.82200000  0.39270000  0.80200000  1.0 -0.1604163234
C  C126  1  0.72270000  0.38080000  0.79400000  1.0 0.0798104723
C  C127  1  0.74420000  0.00750000  0.47560000  1.0 0.333593431
C  C128  1  0.86070000  0.11270000  0.46110000  1.0 0.3407866885
C  C129  1  0.90200000  0.03360000  0.52530000  1.0 0.3407866885
C  C130  1  0.50800000  0.87600000  0.49740000  1.0 0.1005811839
C  C131  1  0.60400000  0.92030000  0.50280000  1.0 -0.1990175777
C  C132  1  0.64200000  0.96170000  0.46800000  1.0 0.0477470714
C  C133  1  0.57600000  0.96100000  0.42380000  1.0 -0.1422009863
C  C134  1  0.47700000  0.91300000  0.41430000  1.0 0.0291088489
C  C135  1  0.99500000  0.32000000  0.42600000  1.0 0.0379208284
C  C136  1  0.97200000  0.25200000  0.45490000  1.0 -0.1695575673
C  C137  1  0.89290000  0.18560000  0.43500000  1.0 0.0379208284
C  C138  1  0.84000000  0.19700000  0.38720000  1.0 -0.1604163234
C  C139  1  0.85800000  0.26600000  0.36710000  1.0 0.0586386154
C  C140  1  0.00500000  0.92910000  0.63300000  1.0 0.0798104723
C  C141  1  0.94300000  0.94060000  0.59320000  1.0 -0.1908382744
C  C142  1  0.96900000  0.01290000  0.56820000  1.0 0.0477470714
C  C143  1  0.07200000  0.05770000  0.58150000  1.0 -0.1695575673
C  C144  1  0.12500000  0.03130000  0.62240000  1.0 0.0798104723
I  I1  1  0.64278000  0.42895000  0.92498000  1.0 -0.4101242453
I  I2  1  0.39544000  0.36198000  0.00611000  1.0 -0.4196442523
I  I3  1  0.58632000  0.78062000  0.32314000  1.0 -0.4510404736
I  I4  1  0.52483000  0.55379000  0.22785000  1.0 -0.4196442523
I  I5  1  0.97270000  0.43240000  0.57370000  1.0 0.0291088489
I  I6  1  0.03956000  0.55173000  0.73117000  1.0 -0.4369980962
I  I7  1  0.11118000  0.97777000  0.87185000  1.0 -0.4196442523
I  I8  1  0.09894000  0.74537000  0.94358000  1.0 -0.4369980962
I  I9  1  0.91600000  0.17664000  0.25151000  1.0 -0.3906026938
I  I10  1  0.63874000  0.02559000  0.27871000  1.0 -0.4303073675
I  I11  1  0.80850000  0.14930000  0.61120000  1.0 0.0230693604
I  I12  1  0.70130000  0.28720000  0.47090000  1.0 0.0586386154
I  I13  1  0.95960000  0.47100000  0.57490000  1.0 -0.0250677065
I  I14  1  0.81350000  0.11910000  0.64070000  1.0 0.0708032702
I  I15  1  0.74950000  0.25340000  0.49630000  1.0 0.0027468653
I  I16  1  0.35722000  0.57105000  0.07502000  1.0 -0.4101242453
I  I17  1  0.60456000  0.63802000  0.99389000  1.0 -0.4196442523
I  I18  1  0.41368000  0.21938000  0.67686000  1.0 -0.4510404736
I  I19  1  0.47517000  0.44621000  0.77215000  1.0 -0.4196442523
I  I20  1  0.02730000  0.56760000  0.42630000  1.0 0.0291088489
I  I21  1  0.96044000  0.44827000  0.26883000  1.0 -0.4369980962
I  I22  1  0.88882000  0.02223000  0.12815000  1.0 -0.4303073675
I  I23  1  0.90106000  0.25463000  0.05642000  1.0 -0.4369980962
I  I24  1  0.08400000  0.82336000  0.74849000  1.0 -0.3906026938
I  I25  1  0.36126000  0.97441000  0.72129000  1.0 -0.4303073675
I  I26  1  0.19150000  0.85070000  0.38880000  1.0 0.0230693604
I  I27  1  0.29870000  0.71280000  0.52910000  1.0 0.0586386154
I  I28  1  0.04040000  0.52900000  0.42510000  1.0 -0.0250677065
I  I29  1  0.18650000  0.88090000  0.35930000  1.0 0.0708032702
I  I30  1  0.25050000  0.74660000  0.50370000  1.0 0.0027468653
N  N1  1  0.69490000  0.00360000  0.00130000  1.0 -0.4101242453
N  N2  1  0.60180000  0.98080000  0.06370000  1.0 -0.3906026938
N  N3  1  0.68330000  0.88680000  0.04100000  1.0 -0.3787419767
N  N4  1  0.91580000  0.86970000  0.93420000  1.0 -0.1908382744
N  N5  1  0.59090000  0.25580000  0.00760000  1.0 -0.1908382744
N  N6  1  0.52950000  0.76060000  0.18200000  1.0 -0.1908382744
N  N7  1  0.54030000  0.52080000  0.65010000  1.0 -0.3529894919
N  N8  1  0.70520000  0.55630000  0.70170000  1.0 -0.3906026938
N  N9  1  0.58940000  0.63500000  0.71110000  1.0 -0.4013822944
N  N10  1  0.22030000  0.57770000  0.65030000  1.0 -0.1774768651
N  N11  1  0.67400000  0.30340000  0.60090000  1.0 -0.1908382744
N  N12  1  0.90560000  0.77440000  0.83590000  1.0 -0.1774768651
N  N13  1  0.85150000  0.67640000  0.18540000  1.0 -0.3906026938
N  N14  1  0.02070000  0.73530000  0.22440000  1.0 -0.4196442523
N  N15  1  0.97610000  0.60670000  0.17840000  1.0 -0.3787419767
N  N16  1  0.66830000  0.43560000  0.06270000  1.0 -0.1695575673
N  N17  1  0.84950000  0.94080000  0.25260000  1.0 -0.1695575673
N  N18  1  0.35080000  0.67820000  0.23570000  1.0 -0.2112837181
N  N19  1  0.22750000  0.93150000  0.55290000  1.0 -0.3787419767
N  N20  1  0.07070000  0.89910000  0.49990000  1.0 -0.4303073675
N  N21  1  0.19370000  0.01100000  0.48460000  1.0 -0.4101242453
N  N22  1  0.55100000  0.13590000  0.54440000  1.0 -0.2186322779
N  N23  1  0.07340000  0.66680000  0.61310000  1.0 -0.1908382744
N  N24  1  0.90380000  0.03140000  0.35240000  1.0 -0.1990175777
N  N25  1  0.30510000  0.99640000  0.99870000  1.0 -0.4196442523
N  N26  1  0.39820000  0.01920000  0.93630000  1.0 -0.3906026938
N  N27  1  0.31670000  0.11320000  0.95900000  1.0 -0.3787419767
N  N28  1  0.08420000  0.13030000  0.06580000  1.0 -0.1908382744
N  N29  1  0.40910000  0.74420000  0.99240000  1.0 -0.1908382744
N  N30  1  0.47050000  0.23940000  0.81800000  1.0 -0.1908382744
N  N31  1  0.45970000  0.47920000  0.34990000  1.0 -0.3529894919
N  N32  1  0.29480000  0.44370000  0.29830000  1.0 -0.3906026938
N  N33  1  0.41060000  0.36500000  0.28890000  1.0 -0.4013822944
N  N34  1  0.77970000  0.42230000  0.34970000  1.0 -0.1774768651
N  N35  1  0.32600000  0.69660000  0.39910000  1.0 -0.1908382744
N  N36  1  0.09440000  0.22560000  0.16410000  1.0 -0.1774768651
N  N37  1  0.14850000  0.32360000  0.81460000  1.0 -0.3906026938
N  N38  1  0.97930000  0.26470000  0.77560000  1.0 -0.4196442523
N  N39  1  0.02390000  0.39330000  0.82160000  1.0 -0.3787419767
N  N40  1  0.33170000  0.56440000  0.93730000  1.0 -0.1695575673
N  N41  1  0.15050000  0.05920000  0.74740000  1.0 -0.1695575673
N  N42  1  0.64920000  0.32180000  0.76430000  1.0 -0.2112837181
N  N43  1  0.77250000  0.06850000  0.44710000  1.0 -0.3787419767
N  N44  1  0.92930000  0.10090000  0.50010000  1.0 -0.4303073675
N  N45  1  0.80630000  0.98900000  0.51540000  1.0 -0.4101242453
N  N46  1  0.44900000  0.86410000  0.45560000  1.0 -0.2186322779
N  N47  1  0.92660000  0.33320000  0.38690000  1.0 -0.1908382744
N  N48  1  0.09620000  0.96860000  0.64760000  1.0 -0.1990175777
