# DDEC6 charges by PACMAN v1.1 (https://github.com/mtap-research/PACMAN-charge/)
data_LUFNAC05_FSR_pacman
_symmetry_space_group_name_H-M   'P 1'
_cell_length_a   11.86470000
_cell_length_b   11.86470000
_cell_length_c   16.34300000
_cell_angle_alpha   73.31140000
_cell_angle_beta   106.68900000
_cell_angle_gamma   101.24900000
_symmetry_Int_Tables_number   1
_chemical_formula_structural   MnH10C14N2O5
_chemical_formula_sum   'Mn4 H40 C56 N8 O20'
_cell_volume   2094.93631046
_cell_formula_units_Z   4
loop_
 _symmetry_equiv_pos_site_id
 _symmetry_equiv_pos_as_xyz
  1  'x, y, z'
loop_
 _atom_site_type_symbol
 _atom_site_label
 _atom_site_symmetry_multiplicity
 _atom_site_fract_x
 _atom_site_fract_y
 _atom_site_fract_z
 _atom_site_occupancy
 _atom_site_charge
Mn  Mn1  1  0.61570000  0.16672000  0.45312000  1.0 0.9699053549
Mn  Mn2  1  0.16672000  0.61570000  0.04688000  1.0 0.9699053549
Mn  Mn3  1  0.38430000  0.83328000  0.54688000  1.0 0.9699053549
Mn  Mn4  1  0.83328000  0.38430000  0.95312000  1.0 0.9699053549
H  H1  1  0.45320000  0.83480000  0.96340000  1.0 0.2730691292
H  H2  1  0.83480000  0.45320000  0.53660000  1.0 0.2730691292
H  H3  1  0.54680000  0.16520000  0.03660000  1.0 0.2730691292
H  H4  1  0.16520000  0.54680000  0.46340000  1.0 0.2730691292
H  H5  1  0.66350000  0.18730000  0.72520000  1.0 0.1186910671
H  H6  1  0.18730000  0.66350000  0.77480000  1.0 0.1186910671
H  H7  1  0.33650000  0.81270000  0.27480000  1.0 0.1186910671
H  H8  1  0.81270000  0.33650000  0.22520000  1.0 0.1186910671
H  H9  1  0.48530000  0.85870000  0.75480000  1.0 0.1289933418
H  H10  1  0.85870000  0.48530000  0.74520000  1.0 0.1289933418
H  H11  1  0.51470000  0.14130000  0.24520000  1.0 0.1289933418
H  H12  1  0.14130000  0.51470000  0.25480000  1.0 0.1289933418
H  H13  1  0.36190000  0.67370000  0.92380000  1.0 0.1289933418
H  H14  1  0.67370000  0.36190000  0.57620000  1.0 0.1401370169
H  H15  1  0.63810000  0.32630000  0.07620000  1.0 0.1401370169
H  H16  1  0.32630000  0.63810000  0.42380000  1.0 0.1401370169
H  H17  1  0.37640000  0.73480000  0.82830000  1.0 0.1289933418
H  H18  1  0.73480000  0.37640000  0.67170000  1.0 0.1289933418
H  H19  1  0.62360000  0.26520000  0.17170000  1.0 0.1289933418
H  H20  1  0.26520000  0.62360000  0.32830000  1.0 0.1289933418
H  H21  1  0.57680000  0.02040000  0.95420000  1.0 0.1289933418
H  H22  1  0.02040000  0.57680000  0.54580000  1.0 0.1289933418
H  H23  1  0.42320000  0.97960000  0.04580000  1.0 0.1289933418
H  H24  1  0.97960000  0.42320000  0.45420000  1.0 0.1289933418
H  H25  1  0.42250000  0.54270000  0.81990000  1.0 0.1506524169
H  H26  1  0.54270000  0.42250000  0.68010000  1.0 0.1506524169
H  H27  1  0.57750000  0.45730000  0.18010000  1.0 0.1506524169
H  H28  1  0.45730000  0.57750000  0.31990000  1.0 0.1506524169
H  H29  1  0.63710000  0.70690000  0.99850000  1.0 0.1401370169
H  H30  1  0.70690000  0.63710000  0.50150000  1.0 0.1401370169
H  H31  1  0.36290000  0.29310000  0.00150000  1.0 0.1401370169
H  H32  1  0.29310000  0.36290000  0.49850000  1.0 0.1401370169
H  H33  1  0.56570000  0.42430000  0.84740000  1.0 0.1059926086
H  H34  1  0.42430000  0.56570000  0.65260000  1.0 0.1059926086
H  H35  1  0.43430000  0.57570000  0.15260000  1.0 0.1059926086
H  H36  1  0.57570000  0.43430000  0.34740000  1.0 0.1059926086
H  H37  1  0.77550000  0.58910000  0.01560000  1.0 0.1186910671
H  H38  1  0.58910000  0.77550000  0.48440000  1.0 0.1186910671
H  H39  1  0.22450000  0.41090000  0.98440000  1.0 0.1186910671
H  H40  1  0.41090000  0.22450000  0.51560000  1.0 0.1186910671
C  C1  1  0.57420000  0.02420000  0.72580000  1.0 -0.0192026897
C  C2  1  0.02420000  0.57420000  0.77420000  1.0 -0.0192026897
C  C3  1  0.42580000  0.97580000  0.27420000  1.0 -0.0192026897
C  C4  1  0.97580000  0.42580000  0.22580000  1.0 -0.0192026897
C  C5  1  0.51780000  0.92220000  0.86380000  1.0 0.230470308
C  C6  1  0.92220000  0.51780000  0.63620000  1.0 0.230470308
C  C7  1  0.48220000  0.07780000  0.13620000  1.0 0.230470308
C  C8  1  0.07780000  0.48220000  0.36380000  1.0 0.230470308
C  C9  1  0.62720000  0.11940000  0.84520000  1.0 -0.0034995748
C  C10  1  0.11940000  0.62720000  0.65480000  1.0 -0.0034995748
C  C11  1  0.37280000  0.88060000  0.15480000  1.0 -0.0034995748
C  C12  1  0.88060000  0.37280000  0.34520000  1.0 -0.0034995748
C  C13  1  0.62760000  0.12120000  0.75940000  1.0 -0.1359345737
C  C14  1  0.12120000  0.62760000  0.74060000  1.0 -0.1359345737
C  C15  1  0.37240000  0.87880000  0.24060000  1.0 -0.1359345737
C  C16  1  0.87880000  0.37240000  0.25940000  1.0 -0.1359345737
C  C17  1  0.69080000  0.22240000  0.88340000  1.0 0.5308488988
C  C18  1  0.22240000  0.69080000  0.61660000  1.0 0.5308488988
C  C19  1  0.30920000  0.77760000  0.11660000  1.0 0.5308488988
C  C20  1  0.77760000  0.30920000  0.38340000  1.0 0.5308488988
C  C21  1  0.51270000  0.64150000  0.90370000  1.0 0.1401370169
C  C22  1  0.64150000  0.51270000  0.59630000  1.0 0.1401370169
C  C23  1  0.48730000  0.35850000  0.09630000  1.0 0.1401370169
C  C24  1  0.35850000  0.48730000  0.40370000  1.0 0.1401370169
C  C25  1  0.52000000  0.92420000  0.77760000  1.0 -0.1963850177
C  C26  1  0.92420000  0.52000000  0.72240000  1.0 -0.1963850177
C  C27  1  0.48000000  0.07580000  0.22240000  1.0 -0.1963850177
C  C28  1  0.07580000  0.48000000  0.27760000  1.0 -0.1963850177
C  C29  1  0.57380000  0.02440000  0.63390000  1.0 0.5746402227
C  C30  1  0.02440000  0.57380000  0.86610000  1.0 0.5750674688
C  C31  1  0.42620000  0.97560000  0.36610000  1.0 0.5750674688
C  C32  1  0.97560000  0.42620000  0.13390000  1.0 0.5750674688
C  C33  1  0.41850000  0.71790000  0.89000000  1.0 -0.1359345737
C  C34  1  0.71790000  0.41850000  0.61000000  1.0 -0.1359345737
C  C35  1  0.58150000  0.28210000  0.11000000  1.0 -0.1359345737
C  C36  1  0.28210000  0.58150000  0.39000000  1.0 -0.1359345737
C  C37  1  0.57450000  0.02090000  0.89670000  1.0 -0.2204221702
C  C38  1  0.02090000  0.57450000  0.60330000  1.0 -0.2204221702
C  C39  1  0.42550000  0.97910000  0.10330000  1.0 -0.2204221702
C  C40  1  0.97910000  0.42550000  0.39670000  1.0 -0.2204221702
C  C41  1  0.49410000  0.55470000  0.86050000  1.0 -0.2145897812
C  C42  1  0.55470000  0.49410000  0.63950000  1.0 -0.2145897812
C  C43  1  0.50590000  0.44530000  0.13950000  1.0 -0.2145897812
C  C44  1  0.44530000  0.50590000  0.36050000  1.0 -0.2145897812
C  C45  1  0.62100000  0.65160000  0.96500000  1.0 -0.1915386255
C  C46  1  0.65160000  0.62100000  0.53500000  1.0 -0.1915386255
C  C47  1  0.37900000  0.34840000  0.03500000  1.0 -0.1915386255
C  C48  1  0.34840000  0.37900000  0.46500000  1.0 -0.1915386255
C  C49  1  0.58210000  0.48410000  0.87690000  1.0 0.0801239842
C  C50  1  0.48410000  0.58210000  0.62310000  1.0 0.0801239842
C  C51  1  0.41790000  0.51590000  0.12310000  1.0 0.0801239842
C  C52  1  0.51590000  0.41790000  0.37690000  1.0 0.0801239842
C  C53  1  0.70310000  0.57950000  0.97520000  1.0 0.0705651724
C  C54  1  0.57950000  0.70310000  0.52480000  1.0 0.0705651724
C  C55  1  0.29690000  0.42050000  0.02480000  1.0 0.0705651724
C  C56  1  0.42050000  0.29690000  0.47520000  1.0 0.0705651724
N  N1  1  0.46220000  0.82780000  0.91470000  1.0 -0.2788398481
N  N2  1  0.82780000  0.46220000  0.58530000  1.0 -0.2788398481
N  N3  1  0.53780000  0.17220000  0.08530000  1.0 -0.2788398481
N  N4  1  0.17220000  0.53780000  0.41470000  1.0 -0.2788398481
N  N5  1  0.68730000  0.49550000  0.93120000  1.0 -0.2477505869
N  N6  1  0.49550000  0.68730000  0.56880000  1.0 -0.2477505869
N  N7  1  0.31270000  0.50450000  0.06880000  1.0 -0.2477505869
N  N8  1  0.50450000  0.31270000  0.43120000  1.0 -0.2477505869
O  O1  1  0.73890000  0.31150000  0.83620000  1.0 -0.5424223757
O  O2  1  0.31150000  0.73890000  0.66380000  1.0 -0.5424223757
O  O3  1  0.26110000  0.68850000  0.16380000  1.0 -0.5424223757
O  O4  1  0.68850000  0.26110000  0.33620000  1.0 -0.5424223757
O  O5  1  0.69780000  0.21600000  0.96400000  1.0 -0.5656726277
O  O6  1  0.21600000  0.69780000  0.53600000  1.0 -0.5656726277
O  O7  1  0.30220000  0.78400000  0.03600000  1.0 -0.5656726277
O  O8  1  0.78400000  0.30220000  0.46400000  1.0 -0.5656726277
O  O9  1  0.61350000  0.12050000  0.58810000  1.0 -0.5424223757
O  O10  1  0.12050000  0.61350000  0.91190000  1.0 -0.5424223757
O  O11  1  0.38650000  0.87950000  0.41190000  1.0 -0.5424223757
O  O12  1  0.87950000  0.38650000  0.08810000  1.0 -0.5424223757
O  O13  1  0.53620000  0.93060000  0.60860000  1.0 -0.5424223757
O  O14  1  0.93060000  0.53620000  0.89140000  1.0 -0.5424223757
O  O15  1  0.46380000  0.06940000  0.39140000  1.0 -0.5424223757
O  O16  1  0.06940000  0.46380000  0.10860000  1.0 -0.5424223757
O  O17  1  0.72950000  0.02790000  0.47680000  1.0 -0.1915386255
O  O18  1  0.02790000  0.72950000  0.02320000  1.0 -0.1915386255
O  O19  1  0.27050000  0.97210000  0.52320000  1.0 -0.1915386255
O  O20  1  0.97210000  0.27050000  0.97680000  1.0 -0.1915386255
