# DDEC6 charges by PACMAN v1.1 (https://github.com/mtap-research/PACMAN-charge/)
data_LUFNAC04_FSR_pacman
_symmetry_space_group_name_H-M   'P 1'
_cell_length_a   11.88700000
_cell_length_b   11.88700000
_cell_length_c   16.35500000
_cell_angle_alpha   73.37590000
_cell_angle_beta   106.62400000
_cell_angle_gamma   101.58100000
_symmetry_Int_Tables_number   1
_chemical_formula_structural   MnH10C14N2O5
_chemical_formula_sum   'Mn4 H40 C56 N8 O20'
_cell_volume   2103.95749208
_cell_formula_units_Z   4
loop_
 _symmetry_equiv_pos_site_id
 _symmetry_equiv_pos_as_xyz
  1  'x, y, z'
loop_
 _atom_site_type_symbol
 _atom_site_label
 _atom_site_symmetry_multiplicity
 _atom_site_fract_x
 _atom_site_fract_y
 _atom_site_fract_z
 _atom_site_occupancy
 _atom_site_charge
Mn  Mn1  1  0.61587000  0.16757000  0.45333000  1.0 0.9582405636
Mn  Mn2  1  0.16757000  0.61587000  0.04667000  1.0 0.9582405636
Mn  Mn3  1  0.38413000  0.83243000  0.54667000  1.0 0.9582405636
Mn  Mn4  1  0.83243000  0.38413000  0.95333000  1.0 0.9582405636
H  H1  1  0.45260000  0.83340000  0.96280000  1.0 0.2707069019
H  H2  1  0.83340000  0.45260000  0.53720000  1.0 0.2707069019
H  H3  1  0.54740000  0.16660000  0.03720000  1.0 0.2707069019
H  H4  1  0.16660000  0.54740000  0.46280000  1.0 0.2707069019
H  H5  1  0.66330000  0.18650000  0.72550000  1.0 0.1177004227
H  H6  1  0.18650000  0.66330000  0.77450000  1.0 0.1177004227
H  H7  1  0.33670000  0.81350000  0.27450000  1.0 0.1177004227
H  H8  1  0.81350000  0.33670000  0.22550000  1.0 0.1177004227
H  H9  1  0.48600000  0.85720000  0.75460000  1.0 0.1288367795
H  H10  1  0.85720000  0.48600000  0.74540000  1.0 0.1288367795
H  H11  1  0.51400000  0.14280000  0.24540000  1.0 0.1288367795
H  H12  1  0.14280000  0.51400000  0.25460000  1.0 0.1288367795
H  H13  1  0.57390000  0.02010000  0.95340000  1.0 0.1288367795
H  H14  1  0.02010000  0.57390000  0.54660000  1.0 0.1288367795
H  H15  1  0.42610000  0.97990000  0.04660000  1.0 0.1288367795
H  H16  1  0.97990000  0.42610000  0.45340000  1.0 0.1288367795
H  H17  1  0.36080000  0.67180000  0.92190000  1.0 0.139472451
H  H18  1  0.67180000  0.36080000  0.57810000  1.0 0.139472451
H  H19  1  0.63920000  0.32820000  0.07810000  1.0 0.139472451
H  H20  1  0.32820000  0.63920000  0.42190000  1.0 0.139472451
H  H21  1  0.37810000  0.73310000  0.82710000  1.0 0.1288367795
H  H22  1  0.73310000  0.37810000  0.67290000  1.0 0.1288367795
H  H23  1  0.62190000  0.26690000  0.17290000  1.0 0.1288367795
H  H24  1  0.26690000  0.62190000  0.32710000  1.0 0.1288367795
H  H25  1  0.63620000  0.70620000  0.99700000  1.0 0.139472451
H  H26  1  0.70620000  0.63620000  0.50300000  1.0 0.139472451
H  H27  1  0.36380000  0.29380000  0.00300000  1.0 0.139472451
H  H28  1  0.29380000  0.36380000  0.49700000  1.0 0.139472451
H  H29  1  0.42390000  0.54130000  0.81970000  1.0 0.1503199885
H  H30  1  0.54130000  0.42390000  0.68030000  1.0 0.1503199885
H  H31  1  0.57610000  0.45870000  0.18030000  1.0 0.1503199885
H  H32  1  0.45870000  0.57610000  0.31970000  1.0 0.1503199885
H  H33  1  0.56620000  0.42300000  0.84760000  1.0 0.1053262899
H  H34  1  0.42300000  0.56620000  0.65240000  1.0 0.1053262899
H  H35  1  0.43380000  0.57700000  0.15240000  1.0 0.1053262899
H  H36  1  0.57700000  0.43380000  0.34760000  1.0 0.1053262899
H  H37  1  0.77360000  0.58580000  0.01820000  1.0 0.1177004227
H  H38  1  0.58580000  0.77360000  0.48180000  1.0 0.1177004227
H  H39  1  0.22640000  0.41420000  0.98180000  1.0 0.1177004227
H  H40  1  0.41420000  0.22640000  0.51820000  1.0 0.1177004227
C  C1  1  0.57320000  0.02320000  0.72620000  1.0 -0.012351562
C  C2  1  0.02320000  0.57320000  0.77380000  1.0 -0.012351562
C  C3  1  0.42680000  0.97680000  0.27380000  1.0 -0.012351562
C  C4  1  0.97680000  0.42680000  0.22620000  1.0 -0.012351562
C  C5  1  0.51800000  0.92160000  0.86240000  1.0 0.2250166932
C  C6  1  0.92160000  0.51800000  0.63760000  1.0 0.2250166932
C  C7  1  0.48200000  0.07840000  0.13760000  1.0 0.2250166932
C  C8  1  0.07840000  0.48200000  0.36240000  1.0 0.2250166932
C  C9  1  0.68920000  0.22220000  0.88330000  1.0 0.5311217705
C  C10  1  0.22220000  0.68920000  0.61670000  1.0 0.5311217705
C  C11  1  0.31080000  0.77780000  0.11670000  1.0 0.5311217705
C  C12  1  0.77780000  0.31080000  0.38330000  1.0 0.5311217705
C  C13  1  0.62690000  0.12050000  0.75970000  1.0 -0.1366659155
C  C14  1  0.12050000  0.62690000  0.74030000  1.0 -0.1366659155
C  C15  1  0.37310000  0.87950000  0.24030000  1.0 -0.1366659155
C  C16  1  0.87950000  0.37310000  0.25970000  1.0 -0.1366659155
C  C17  1  0.62600000  0.11900000  0.84480000  1.0 -0.0033382751
C  C18  1  0.11900000  0.62600000  0.65520000  1.0 -0.0033382751
C  C19  1  0.37400000  0.88100000  0.15520000  1.0 -0.0033382751
C  C20  1  0.88100000  0.37400000  0.34480000  1.0 -0.0033382751
C  C21  1  0.51990000  0.92290000  0.77730000  1.0 -0.1987424245
C  C22  1  0.92290000  0.51990000  0.72270000  1.0 -0.1987424245
C  C23  1  0.48010000  0.07710000  0.22270000  1.0 -0.1987424245
C  C24  1  0.07710000  0.48010000  0.27730000  1.0 -0.1987424245
C  C25  1  0.57310000  0.02330000  0.63350000  1.0 0.5726094642
C  C26  1  0.02330000  0.57310000  0.86650000  1.0 0.5726094642
C  C27  1  0.42690000  0.97670000  0.36650000  1.0 0.5726094642
C  C28  1  0.97670000  0.42690000  0.13350000  1.0 0.5726094642
C  C29  1  0.57310000  0.02070000  0.89620000  1.0 -0.2169385957
C  C30  1  0.02070000  0.57310000  0.60380000  1.0 -0.2169385957
C  C31  1  0.42690000  0.97930000  0.10380000  1.0 -0.2169385957
C  C32  1  0.97930000  0.42690000  0.39620000  1.0 -0.2169385957
C  C33  1  0.51210000  0.64010000  0.90380000  1.0 0.139472451
C  C34  1  0.64010000  0.51210000  0.59620000  1.0 0.139472451
C  C35  1  0.48790000  0.35990000  0.09620000  1.0 0.139472451
C  C36  1  0.35990000  0.48790000  0.40380000  1.0 0.139472451
C  C37  1  0.41860000  0.71620000  0.88900000  1.0 -0.1366659155
C  C38  1  0.71620000  0.41860000  0.61100000  1.0 -0.1366659155
C  C39  1  0.58140000  0.28380000  0.11100000  1.0 -0.1366659155
C  C40  1  0.28380000  0.58140000  0.38900000  1.0 -0.1366659155
C  C41  1  0.61970000  0.64990000  0.96430000  1.0 -0.19246084
C  C42  1  0.64990000  0.61970000  0.53570000  1.0 -0.19246084
C  C43  1  0.38030000  0.35010000  0.03570000  1.0 -0.19246084
C  C44  1  0.35010000  0.38030000  0.46430000  1.0 -0.19246084
C  C45  1  0.49490000  0.55330000  0.86060000  1.0 -0.2169385957
C  C46  1  0.55330000  0.49490000  0.63940000  1.0 -0.2169385957
C  C47  1  0.50510000  0.44670000  0.13940000  1.0 -0.2169385957
C  C48  1  0.44670000  0.50510000  0.36060000  1.0 -0.2169385957
C  C49  1  0.58230000  0.48290000  0.87710000  1.0 0.0813915828
C  C50  1  0.48290000  0.58230000  0.62290000  1.0 0.0813915828
C  C51  1  0.41770000  0.51710000  0.12290000  1.0 0.0813915828
C  C52  1  0.51710000  0.41770000  0.37710000  1.0 0.0813915828
C  C53  1  0.70250000  0.57730000  0.97650000  1.0 0.0735956008
C  C54  1  0.57730000  0.70250000  0.52350000  1.0 0.0735956008
C  C55  1  0.29750000  0.42270000  0.02350000  1.0 0.0735956008
C  C56  1  0.42270000  0.29750000  0.47650000  1.0 0.0735956008
N  N1  1  0.46180000  0.82640000  0.91420000  1.0 -0.2954099974
N  N2  1  0.82640000  0.46180000  0.58580000  1.0 -0.294987311
N  N3  1  0.53820000  0.17360000  0.08580000  1.0 -0.294987311
N  N4  1  0.17360000  0.53820000  0.41420000  1.0 -0.294987311
N  N5  1  0.68650000  0.49470000  0.93170000  1.0 -0.2445205202
N  N6  1  0.49470000  0.68650000  0.56830000  1.0 -0.2445205202
N  N7  1  0.31350000  0.50530000  0.06830000  1.0 -0.2445205202
N  N8  1  0.50530000  0.31350000  0.43170000  1.0 -0.2445205202
O  O1  1  0.73740000  0.31100000  0.83620000  1.0 -0.5441428622
O  O2  1  0.31100000  0.73740000  0.66380000  1.0 -0.5441428622
O  O3  1  0.26260000  0.68900000  0.16380000  1.0 -0.5441428622
O  O4  1  0.68900000  0.26260000  0.33620000  1.0 -0.5441428622
O  O5  1  0.69610000  0.21510000  0.96370000  1.0 -0.5613080462
O  O6  1  0.21510000  0.69610000  0.53630000  1.0 -0.5613080462
O  O7  1  0.30390000  0.78490000  0.03630000  1.0 -0.5613080462
O  O8  1  0.78490000  0.30390000  0.46370000  1.0 -0.5613080462
O  O9  1  0.53670000  0.93090000  0.60790000  1.0 -0.5313383391
O  O10  1  0.93090000  0.53670000  0.89210000  1.0 -0.5313383391
O  O11  1  0.46330000  0.06910000  0.39210000  1.0 -0.5313383391
O  O12  1  0.06910000  0.46330000  0.10790000  1.0 -0.5313383391
O  O13  1  0.61340000  0.12040000  0.58760000  1.0 -0.5456514558
O  O14  1  0.12040000  0.61340000  0.91240000  1.0 -0.5456514558
O  O15  1  0.38660000  0.87960000  0.41240000  1.0 -0.5456514558
O  O16  1  0.87960000  0.38660000  0.08760000  1.0 -0.5456514558
O  O17  1  0.73090000  0.02670000  0.48350000  1.0 -0.1725010625
O  O18  1  0.02670000  0.73090000  0.01650000  1.0 -0.1725010625
O  O19  1  0.26910000  0.97330000  0.51650000  1.0 -0.1725010625
O  O20  1  0.97330000  0.26910000  0.98350000  1.0 -0.1725010625
