# DDEC6 charges by PACMAN v1.1 (https://github.com/mtap-research/PACMAN-charge/)
data_LUFNEG_FSR_pacman
_symmetry_space_group_name_H-M   'P 1'
_cell_length_a   14.91800000
_cell_length_b   15.59600000
_cell_length_c   18.99770000
_cell_angle_alpha   90.00000000
_cell_angle_beta   123.53300000
_cell_angle_gamma   90.00000000
_symmetry_Int_Tables_number   1
_chemical_formula_structural   MnH10C14N2O5
_chemical_formula_sum   'Mn8 H80 C112 N16 O40'
_cell_volume   3684.39156808
_cell_formula_units_Z   8
loop_
 _symmetry_equiv_pos_site_id
 _symmetry_equiv_pos_as_xyz
  1  'x, y, z'
loop_
 _atom_site_type_symbol
 _atom_site_label
 _atom_site_symmetry_multiplicity
 _atom_site_fract_x
 _atom_site_fract_y
 _atom_site_fract_z
 _atom_site_occupancy
 _atom_site_charge
Mn  Mn1  1  0.29100000  0.06840000  0.03709000  1.0 0.9727511613
Mn  Mn2  1  0.70900000  0.56840000  0.46291000  1.0 0.9727511613
Mn  Mn3  1  0.70900000  0.93160000  0.96291000  1.0 0.9727511613
Mn  Mn4  1  0.29100000  0.43160000  0.53709000  1.0 0.9727511613
Mn  Mn5  1  0.22989000  0.35406000  0.95401000  1.0 0.9622060417
Mn  Mn6  1  0.77011000  0.85406000  0.54599000  1.0 0.9622060417
Mn  Mn7  1  0.77011000  0.64594000  0.04599000  1.0 0.9622060417
Mn  Mn8  1  0.22989000  0.14594000  0.45401000  1.0 0.9622060417
H  H1  1  0.04140000  0.03450000  0.76490000  1.0 0.1205136103
H  H2  1  0.95860000  0.53450000  0.73510000  1.0 0.1205136103
H  H3  1  0.95860000  0.96550000  0.23510000  1.0 0.1205136103
H  H4  1  0.04140000  0.46550000  0.26490000  1.0 0.1205136103
H  H5  1  0.72370000  0.09480000  0.40810000  1.0 0.2788730173
H  H6  1  0.27630000  0.59480000  0.09190000  1.0 0.2788730173
H  H7  1  0.27630000  0.90520000  0.59190000  1.0 0.2788730173
H  H8  1  0.72370000  0.40520000  0.90810000  1.0 0.2788730173
H  H9  1  0.49050000  0.38840000  0.22560000  1.0 0.1205136103
H  H10  1  0.50950000  0.88840000  0.27440000  1.0 0.1205136103
H  H11  1  0.50950000  0.61160000  0.77440000  1.0 0.1205136103
H  H12  1  0.49050000  0.11160000  0.72560000  1.0 0.1205136103
H  H13  1  0.80870000  0.31800000  0.57030000  1.0 0.2720618753
H  H14  1  0.19130000  0.81800000  0.92970000  1.0 0.2720618753
H  H15  1  0.19130000  0.68200000  0.42970000  1.0 0.2720618753
H  H16  1  0.80870000  0.18200000  0.07030000  1.0 0.2720618753
H  H17  1  0.97310000  0.40420000  0.69600000  1.0 0.1205136103
H  H18  1  0.02690000  0.90420000  0.80400000  1.0 0.1205136103
H  H19  1  0.02690000  0.59580000  0.30400000  1.0 0.1205136103
H  H20  1  0.97310000  0.09580000  0.19600000  1.0 0.1205136103
H  H21  1  0.88200000  0.44480000  0.61050000  1.0 0.1371574038
H  H22  1  0.11800000  0.94480000  0.88950000  1.0 0.1371574038
H  H23  1  0.11800000  0.55520000  0.38950000  1.0 0.1371574038
H  H24  1  0.88200000  0.05520000  0.11050000  1.0 0.1371574038
H  H25  1  0.49270000  0.13160000  0.22000000  1.0 0.1326873417
H  H26  1  0.50730000  0.63160000  0.28000000  1.0 0.1326873417
H  H27  1  0.50730000  0.86840000  0.78000000  1.0 0.1326873417
H  H28  1  0.49270000  0.36840000  0.72000000  1.0 0.1326873417
H  H29  1  0.81250000  0.16400000  0.56070000  1.0 0.1205136103
H  H30  1  0.18750000  0.66400000  0.93930000  1.0 0.1205136103
H  H31  1  0.18750000  0.83600000  0.43930000  1.0 0.1205136103
H  H32  1  0.81250000  0.33600000  0.06070000  1.0 0.1205136103
H  H33  1  0.53900000  0.01900000  0.29970000  1.0 0.1205136103
H  H34  1  0.46100000  0.51900000  0.20030000  1.0 0.1205136103
H  H35  1  0.46100000  0.98100000  0.70030000  1.0 0.1205136103
H  H36  1  0.53900000  0.48100000  0.79970000  1.0 0.1205136103
H  H37  1  0.61810000  0.98430000  0.39140000  1.0 0.1371574038
H  H38  1  0.38190000  0.48430000  0.10860000  1.0 0.1371574038
H  H39  1  0.38190000  0.01570000  0.60860000  1.0 0.1371574038
H  H40  1  0.61810000  0.51570000  0.89140000  1.0 0.1371574038
H  H41  1  0.04770000  0.29170000  0.76020000  1.0 0.1326873417
H  H42  1  0.95230000  0.79170000  0.73980000  1.0 0.1326873417
H  H43  1  0.95230000  0.70830000  0.23980000  1.0 0.1326873417
H  H44  1  0.04770000  0.20830000  0.26020000  1.0 0.1326873417
H  H45  1  0.05750000  0.52770000  0.65070000  1.0 0.1493651747
H  H46  1  0.94250000  0.02770000  0.84930000  1.0 0.1493651747
H  H47  1  0.94250000  0.47230000  0.34930000  1.0 0.1493651747
H  H48  1  0.05750000  0.97230000  0.15070000  1.0 0.1493651747
H  H49  1  0.71030000  0.25910000  0.43320000  1.0 0.1205136103
H  H50  1  0.28970000  0.75910000  0.06680000  1.0 0.1205136103
H  H51  1  0.28970000  0.74090000  0.56680000  1.0 0.1205136103
H  H52  1  0.71030000  0.24090000  0.93320000  1.0 0.1205136103
H  H53  1  0.60640000  0.09970000  0.50080000  1.0 0.1493651747
H  H54  1  0.39360000  0.59970000  0.99920000  1.0 0.1493651747
H  H55  1  0.39360000  0.90030000  0.49920000  1.0 0.1493651747
H  H56  1  0.60640000  0.40030000  0.00080000  1.0 0.1493651747
H  H57  1  0.48600000  0.13500000  0.53160000  1.0 0.1205136103
H  H58  1  0.51400000  0.63500000  0.96840000  1.0 0.1205136103
H  H59  1  0.51400000  0.86500000  0.46840000  1.0 0.1205136103
H  H60  1  0.48600000  0.36500000  0.03160000  1.0 0.1205136103
H  H61  1  0.36440000  0.03160000  0.26990000  1.0 0.1493651747
H  H62  1  0.63560000  0.53160000  0.23010000  1.0 0.1493651747
H  H63  1  0.63560000  0.96840000  0.73010000  1.0 0.1493651747
H  H64  1  0.36440000  0.46840000  0.76990000  1.0 0.1493651747
H  H65  1  0.11730000  0.31160000  0.52090000  1.0 0.1205136103
H  H66  1  0.88270000  0.81160000  0.97910000  1.0 0.1205136103
H  H67  1  0.88270000  0.68840000  0.47910000  1.0 0.1205136103
H  H68  1  0.11730000  0.18840000  0.02090000  1.0 0.1205136103
H  H69  1  0.24780000  0.07090000  0.30540000  1.0 0.1127728506
H  H70  1  0.75220000  0.57090000  0.19460000  1.0 0.1127728506
H  H71  1  0.75220000  0.92910000  0.69460000  1.0 0.1127728506
H  H72  1  0.24780000  0.42910000  0.80540000  1.0 0.1127728506
H  H73  1  0.17230000  0.54430000  0.60960000  1.0 0.1127728506
H  H74  1  0.82770000  0.04430000  0.89040000  1.0 0.1127728506
H  H75  1  0.82770000  0.45570000  0.39040000  1.0 0.1127728506
H  H76  1  0.17230000  0.95570000  0.10960000  1.0 0.1127728506
H  H77  1  0.99320000  0.29310000  0.55380000  1.0 0.1371574038
H  H78  1  0.00680000  0.79310000  0.94620000  1.0 0.1371574038
H  H79  1  0.00680000  0.70690000  0.44620000  1.0 0.1371574038
H  H80  1  0.99320000  0.20690000  0.05380000  1.0 0.1371574038
C  C1  1  0.05740000  0.16350000  0.77670000  1.0 -0.0122547971
C  C2  1  0.94260000  0.66350000  0.72330000  1.0 -0.0122547971
C  C3  1  0.94260000  0.83650000  0.22330000  1.0 -0.0122547971
C  C4  1  0.05740000  0.33650000  0.27670000  1.0 -0.0122547971
C  C5  1  0.91680000  0.08590000  0.65540000  1.0 -0.0042663816
C  C6  1  0.08320000  0.58590000  0.84460000  1.0 -0.0042663816
C  C7  1  0.08320000  0.91410000  0.34460000  1.0 -0.0042663816
C  C8  1  0.91680000  0.41410000  0.15540000  1.0 -0.0042663816
C  C9  1  0.15560000  0.16580000  0.86670000  1.0 0.5826821088
C  C10  1  0.84440000  0.66580000  0.63330000  1.0 0.5826821088
C  C11  1  0.84440000  0.83420000  0.13330000  1.0 0.5826821088
C  C12  1  0.15560000  0.33420000  0.36670000  1.0 0.5826821088
C  C13  1  0.86310000  0.00310000  0.61250000  1.0 0.5304080902
C  C14  1  0.13690000  0.50310000  0.88750000  1.0 0.5304080902
C  C15  1  0.13690000  0.99690000  0.38750000  1.0 0.5304080902
C  C16  1  0.86310000  0.49690000  0.11250000  1.0 0.5304080902
C  C17  1  0.60660000  0.33560000  0.33690000  1.0 -0.0042663816
C  C18  1  0.39340000  0.83560000  0.16310000  1.0 -0.0042663816
C  C19  1  0.39340000  0.66440000  0.66310000  1.0 -0.0042663816
C  C20  1  0.60660000  0.16440000  0.83690000  1.0 -0.0042663816
C  C21  1  0.01070000  0.08600000  0.73730000  1.0 -0.1487333493
C  C22  1  0.98930000  0.58600000  0.76270000  1.0 -0.1487333493
C  C23  1  0.98930000  0.91400000  0.26270000  1.0 -0.1487333493
C  C24  1  0.01070000  0.41400000  0.23730000  1.0 -0.1487333493
C  C25  1  0.64760000  0.41880000  0.38530000  1.0 0.5304080902
C  C26  1  0.35240000  0.91880000  0.11470000  1.0 0.5304080902
C  C27  1  0.35240000  0.58120000  0.61470000  1.0 0.5304080902
C  C28  1  0.64760000  0.08120000  0.88530000  1.0 0.5304080902
C  C29  1  0.52030000  0.33640000  0.25260000  1.0 -0.1435620577
C  C30  1  0.47970000  0.83640000  0.24740000  1.0 -0.1435620577
C  C31  1  0.47970000  0.66360000  0.74740000  1.0 -0.1435620577
C  C32  1  0.52030000  0.16360000  0.75260000  1.0 -0.1435620577
C  C33  1  0.93330000  0.39800000  0.63510000  1.0 -0.1349889727
C  C34  1  0.06670000  0.89800000  0.86490000  1.0 -0.1349889727
C  C35  1  0.06670000  0.60200000  0.36490000  1.0 -0.1349889727
C  C36  1  0.93330000  0.10200000  0.13510000  1.0 -0.1349889727
C  C37  1  0.47890000  0.26040000  0.20900000  1.0 -0.0122547971
C  C38  1  0.52110000  0.76040000  0.29100000  1.0 -0.0122547971
C  C39  1  0.52110000  0.73960000  0.79100000  1.0 -0.0122547971
C  C40  1  0.47890000  0.23960000  0.70900000  1.0 -0.0122547971
C  C41  1  0.61270000  0.18020000  0.33380000  1.0 0.2307942419
C  C42  1  0.38730000  0.68020000  0.16620000  1.0 0.2307942419
C  C43  1  0.38730000  0.81980000  0.66620000  1.0 0.2307942419
C  C44  1  0.61270000  0.31980000  0.83380000  1.0 0.2307942419
C  C45  1  0.52270000  0.18260000  0.24910000  1.0 -0.1993454189
C  C46  1  0.47730000  0.68260000  0.25090000  1.0 -0.1993454189
C  C47  1  0.47730000  0.81740000  0.75090000  1.0 -0.1993454189
C  C48  1  0.52270000  0.31740000  0.74910000  1.0 -0.1993454189
C  C49  1  0.87430000  0.16400000  0.61500000  1.0 -0.2210530059
C  C50  1  0.12570000  0.66400000  0.88500000  1.0 -0.2210530059
C  C51  1  0.12570000  0.83600000  0.38500000  1.0 -0.2210530059
C  C52  1  0.87430000  0.33600000  0.11500000  1.0 -0.2210530059
C  C53  1  0.57870000  0.03460000  0.35890000  1.0 -0.1349889727
C  C54  1  0.42130000  0.53460000  0.14110000  1.0 -0.1349889727
C  C55  1  0.42130000  0.96540000  0.64110000  1.0 -0.1349889727
C  C56  1  0.57870000  0.46540000  0.85890000  1.0 -0.1349889727
C  C57  1  0.01400000  0.24030000  0.73410000  1.0 -0.1946277322
C  C58  1  0.98600000  0.74030000  0.76590000  1.0 -0.1946277322
C  C59  1  0.98600000  0.75970000  0.26590000  1.0 -0.1946277322
C  C60  1  0.01400000  0.25970000  0.23410000  1.0 -0.1946277322
C  C61  1  0.92120000  0.24180000  0.65310000  1.0 0.2165673136
C  C62  1  0.07880000  0.74180000  0.84690000  1.0 0.2165673136
C  C63  1  0.07880000  0.75820000  0.34690000  1.0 0.2165673136
C  C64  1  0.92120000  0.25820000  0.15310000  1.0 0.2165673136
C  C65  1  0.06760000  0.48270000  0.62360000  1.0 -0.212502794
C  C66  1  0.93240000  0.98270000  0.87640000  1.0 -0.212502794
C  C67  1  0.93240000  0.51730000  0.37640000  1.0 -0.212502794
C  C68  1  0.06760000  0.01730000  0.12360000  1.0 -0.212502794
C  C69  1  0.38260000  0.26020000  0.11880000  1.0 0.5747300296
C  C70  1  0.61740000  0.76020000  0.38120000  1.0 0.5747300296
C  C71  1  0.61740000  0.73980000  0.88120000  1.0 0.5747300296
C  C72  1  0.38260000  0.23980000  0.61880000  1.0 0.5747300296
C  C73  1  0.01100000  0.40670000  0.60800000  1.0 0.1493651747
C  C74  1  0.98900000  0.90670000  0.89200000  1.0 0.1493651747
C  C75  1  0.98900000  0.59330000  0.39200000  1.0 0.1493651747
C  C76  1  0.01100000  0.09330000  0.10800000  1.0 0.1493651747
C  C77  1  0.65250000  0.25900000  0.37710000  1.0 -0.2210530059
C  C78  1  0.34750000  0.75900000  0.12290000  1.0 -0.2210530059
C  C79  1  0.34750000  0.74100000  0.62290000  1.0 -0.2210530059
C  C80  1  0.65250000  0.24100000  0.87710000  1.0 -0.2210530059
C  C81  1  0.50010000  0.05950000  0.38140000  1.0 0.1493651747
C  C82  1  0.49990000  0.55950000  0.11860000  1.0 0.1493651747
C  C83  1  0.49990000  0.94050000  0.61860000  1.0 0.1493651747
C  C84  1  0.50010000  0.44050000  0.88140000  1.0 0.1493651747
C  C85  1  0.53350000  0.09250000  0.46010000  1.0 -0.1993454189
C  C86  1  0.46650000  0.59250000  0.03990000  1.0 -0.1993454189
C  C87  1  0.46650000  0.90750000  0.53990000  1.0 -0.1946277322
C  C88  1  0.53350000  0.40750000  0.96010000  1.0 -0.1946277322
C  C89  1  0.46000000  0.11430000  0.47770000  1.0 0.081944492
C  C90  1  0.54000000  0.61430000  0.02230000  1.0 0.081944492
C  C91  1  0.54000000  0.88570000  0.52230000  1.0 0.081944492
C  C92  1  0.46000000  0.38570000  0.97770000  1.0 0.081944492
C  C93  1  0.39090000  0.05260000  0.32380000  1.0 -0.1993454189
C  C94  1  0.60910000  0.55260000  0.17620000  1.0 -0.1993454189
C  C95  1  0.60910000  0.94740000  0.67620000  1.0 -0.1993454189
C  C96  1  0.39090000  0.44740000  0.82380000  1.0 -0.1993454189
C  C97  1  0.10480000  0.35640000  0.54670000  1.0 0.081944492
C  C98  1  0.89520000  0.85640000  0.95330000  1.0 0.081944492
C  C99  1  0.89520000  0.64360000  0.45330000  1.0 0.081944492
C  C100  1  0.10480000  0.14360000  0.04670000  1.0 0.081944492
C  C101  1  0.32100000  0.07650000  0.34570000  1.0 0.0594604902
C  C102  1  0.67900000  0.57650000  0.15430000  1.0 0.0594604902
C  C103  1  0.67900000  0.92350000  0.65430000  1.0 0.0594604902
C  C104  1  0.32100000  0.42350000  0.84570000  1.0 0.0594604902
C  C105  1  0.13740000  0.49190000  0.59950000  1.0 0.066590438
C  C106  1  0.86260000  0.99190000  0.90050000  1.0 0.066590438
C  C107  1  0.86260000  0.50810000  0.40050000  1.0 0.066590438
C  C108  1  0.13740000  0.00810000  0.09950000  1.0 0.066590438
C  C109  1  0.03060000  0.34460000  0.56750000  1.0 -0.1946277322
C  C110  1  0.96940000  0.84460000  0.93250000  1.0 -0.1946277322
C  C111  1  0.96940000  0.65540000  0.43250000  1.0 -0.1946277322
C  C112  1  0.03060000  0.15540000  0.06750000  1.0 -0.1946277322
N  N1  1  0.35240000  0.10840000  0.42360000  1.0 -0.2655678408
N  N2  1  0.64760000  0.60840000  0.07640000  1.0 -0.2655678408
N  N3  1  0.64760000  0.89160000  0.57640000  1.0 -0.2655678408
N  N4  1  0.35240000  0.39160000  0.92360000  1.0 -0.2655678408
N  N5  1  0.65680000  0.10300000  0.37450000  1.0 -0.2773397208
N  N6  1  0.34320000  0.60300000  0.12550000  1.0 -0.2773397208
N  N7  1  0.34320000  0.89700000  0.62550000  1.0 -0.2773397208
N  N8  1  0.65680000  0.39700000  0.87450000  1.0 -0.2773397208
N  N9  1  0.87470000  0.31800000  0.61190000  1.0 -0.2933377937
N  N10  1  0.12530000  0.81800000  0.88810000  1.0 -0.2933377937
N  N11  1  0.12530000  0.68200000  0.38810000  1.0 -0.2933377937
N  N12  1  0.87470000  0.18200000  0.11190000  1.0 -0.2933377937
N  N13  1  0.15960000  0.42960000  0.56200000  1.0 -0.2624728323
N  N14  1  0.84040000  0.92960000  0.93800000  1.0 -0.2624728323
N  N15  1  0.84040000  0.57040000  0.43800000  1.0 -0.2624728323
N  N16  1  0.15960000  0.07040000  0.06200000  1.0 -0.2624728323
O  O1  1  0.89140000  0.93490000  0.65430000  1.0 -0.529222274
O  O2  1  0.10860000  0.43490000  0.84570000  1.0 -0.529222274
O  O3  1  0.10860000  0.06510000  0.34570000  1.0 -0.529222274
O  O4  1  0.89140000  0.56510000  0.15430000  1.0 -0.529222274
O  O5  1  0.60850000  0.48900000  0.34640000  1.0 -0.5366425605
O  O6  1  0.39150000  0.98900000  0.15360000  1.0 -0.5366425605
O  O7  1  0.39150000  0.51100000  0.65360000  1.0 -0.5366425605
O  O8  1  0.60850000  0.01100000  0.84640000  1.0 -0.5366425605
O  O9  1  0.71920000  0.41750000  0.46330000  1.0 -0.5616853924
O  O10  1  0.28080000  0.91750000  0.03670000  1.0 -0.5616853924
O  O11  1  0.28080000  0.58250000  0.53670000  1.0 -0.5616853924
O  O12  1  0.71920000  0.08250000  0.96330000  1.0 -0.5616853924
O  O13  1  0.35590000  0.33050000  0.08120000  1.0 -0.529222274
O  O14  1  0.64410000  0.83050000  0.41880000  1.0 -0.529222274
O  O15  1  0.64410000  0.66950000  0.91880000  1.0 -0.529222274
O  O16  1  0.35590000  0.16950000  0.58120000  1.0 -0.529222274
O  O17  1  0.78970000  0.00360000  0.53510000  1.0 -0.5509096847
O  O18  1  0.21030000  0.50360000  0.96490000  1.0 -0.5509096847
O  O19  1  0.21030000  0.99640000  0.46490000  1.0 -0.5509096847
O  O20  1  0.78970000  0.49640000  0.03510000  1.0 -0.5509096847
O  O21  1  0.18440000  0.09520000  0.90680000  1.0 -0.5509096847
O  O22  1  0.81560000  0.59520000  0.59320000  1.0 -0.5509096847
O  O23  1  0.81560000  0.90480000  0.09320000  1.0 -0.5509096847
O  O24  1  0.18440000  0.40480000  0.40680000  1.0 -0.5509096847
O  O25  1  0.20160000  0.23540000  0.89480000  1.0 -0.529222274
O  O26  1  0.79840000  0.73540000  0.60520000  1.0 -0.529222274
O  O27  1  0.79840000  0.76460000  0.10520000  1.0 -0.529222274
O  O28  1  0.20160000  0.26460000  0.39480000  1.0 -0.529222274
O  O29  1  0.33480000  0.19220000  0.08980000  1.0 -0.522153327
O  O30  1  0.66520000  0.69220000  0.41020000  1.0 -0.522153327
O  O31  1  0.66520000  0.80780000  0.91020000  1.0 -0.522153327
O  O32  1  0.33480000  0.30780000  0.58980000  1.0 -0.522153327
O  O33  1  0.10520000  0.33840000  0.98270000  1.0 -0.2624728323
O  O34  1  0.89480000  0.83840000  0.51730000  1.0 -0.2624728323
O  O35  1  0.89480000  0.66160000  0.01730000  1.0 -0.2624728323
O  O36  1  0.10520000  0.16160000  0.48270000  1.0 -0.2624728323
O  O37  1  0.43000000  0.05820000  0.02920000  1.0 -0.1487333493
O  O38  1  0.57000000  0.55820000  0.47080000  1.0 -0.1487333493
O  O39  1  0.57000000  0.94180000  0.97080000  1.0 -0.1487333493
O  O40  1  0.43000000  0.44180000  0.52920000  1.0 -0.1487333493
