# DDEC6 charges by PACMAN v1.1 (https://github.com/mtap-research/PACMAN-charge/)
data_LUFNAC01_FSR_pacman
_symmetry_space_group_name_H-M   'P 1'
_cell_length_a   11.88500000
_cell_length_b   11.88500000
_cell_length_c   16.34400000
_cell_angle_alpha   73.48310000
_cell_angle_beta   106.51700000
_cell_angle_gamma   101.49000000
_symmetry_Int_Tables_number   1
_chemical_formula_structural   MnH10C14N2O5
_chemical_formula_sum   'Mn4 H40 C56 N8 O20'
_cell_volume   2104.37476566
_cell_formula_units_Z   4
loop_
 _symmetry_equiv_pos_site_id
 _symmetry_equiv_pos_as_xyz
  1  'x, y, z'
loop_
 _atom_site_type_symbol
 _atom_site_label
 _atom_site_symmetry_multiplicity
 _atom_site_fract_x
 _atom_site_fract_y
 _atom_site_fract_z
 _atom_site_occupancy
 _atom_site_charge
Mn  Mn1  1  0.11538000  0.66750000  0.45294000  1.0 0.9455644822
Mn  Mn2  1  0.66750000  0.11538000  0.04706000  1.0 0.9455644822
Mn  Mn3  1  0.88462000  0.33250000  0.54706000  1.0 0.9455644822
Mn  Mn4  1  0.33250000  0.88462000  0.95294000  1.0 0.9455644822
H  H1  1  0.66470000  0.04730000  0.46320000  1.0 0.2723009399
H  H2  1  0.04730000  0.66470000  0.03680000  1.0 0.2723009399
H  H3  1  0.33530000  0.95270000  0.53680000  1.0 0.2723009399
H  H4  1  0.95270000  0.33530000  0.96320000  1.0 0.2723009399
H  H5  1  0.64230000  0.01290000  0.25510000  1.0 0.1311175573
H  H6  1  0.01290000  0.64230000  0.24490000  1.0 0.1311175573
H  H7  1  0.35770000  0.98710000  0.74490000  1.0 0.1311175573
H  H8  1  0.98710000  0.35770000  0.75510000  1.0 0.1311175573
H  H9  1  0.31300000  0.83620000  0.22540000  1.0 0.1209378483
H  H10  1  0.83620000  0.31300000  0.27460000  1.0 0.1209378483
H  H11  1  0.68700000  0.16380000  0.77460000  1.0 0.1209378483
H  H12  1  0.16380000  0.68700000  0.72540000  1.0 0.1209378483
H  H13  1  0.47980000  0.92480000  0.45360000  1.0 0.1209378483
H  H14  1  0.92480000  0.47980000  0.04640000  1.0 0.1209378483
H  H15  1  0.52020000  0.07520000  0.54640000  1.0 0.1209378483
H  H16  1  0.07520000  0.52020000  0.95360000  1.0 0.1209378483
H  H17  1  0.76640000  0.12240000  0.32820000  1.0 0.1311175573
H  H18  1  0.12240000  0.76640000  0.17180000  1.0 0.1311175573
H  H19  1  0.23360000  0.87760000  0.67180000  1.0 0.1311175573
H  H20  1  0.87760000  0.23360000  0.82820000  1.0 0.1311175573
H  H21  1  0.82730000  0.13810000  0.42340000  1.0 0.1311175573
H  H22  1  0.13810000  0.82730000  0.07660000  1.0 0.1311175573
H  H23  1  0.17270000  0.86190000  0.57660000  1.0 0.1311175573
H  H24  1  0.86190000  0.17270000  0.92340000  1.0 0.1311175573
H  H25  1  0.79500000  0.86580000  0.50030000  1.0 0.1410662567
H  H26  1  0.86580000  0.79500000  0.99970000  1.0 0.1410662567
H  H27  1  0.20500000  0.13420000  0.49970000  1.0 0.1410662567
H  H28  1  0.13420000  0.20500000  0.00030000  1.0 0.1410662567
H  H29  1  0.95960000  0.07780000  0.32080000  1.0 0.1499703264
H  H30  1  0.07780000  0.95960000  0.17920000  1.0 0.1499703264
H  H31  1  0.04040000  0.92220000  0.67920000  1.0 0.1499703264
H  H32  1  0.92220000  0.04040000  0.82080000  1.0 0.1499703264
H  H33  1  0.07370000  0.93210000  0.34540000  1.0 0.1025419271
H  H34  1  0.93210000  0.07370000  0.15460000  1.0 0.1025419271
H  H35  1  0.92630000  0.06790000  0.65460000  1.0 0.1025419271
H  H36  1  0.06790000  0.92630000  0.84540000  1.0 0.1025419271
H  H37  1  0.91310000  0.72570000  0.51790000  1.0 0.1144422105
H  H38  1  0.72570000  0.91310000  0.98210000  1.0 0.1144422105
H  H39  1  0.08690000  0.27430000  0.48210000  1.0 0.1144422105
H  H40  1  0.27430000  0.08690000  0.01790000  1.0 0.1144422105
C  C1  1  0.57830000  0.98170000  0.36350000  1.0 0.2279201782
C  C2  1  0.98170000  0.57830000  0.13650000  1.0 0.2279201782
C  C3  1  0.42170000  0.01830000  0.63650000  1.0 0.2279201782
C  C4  1  0.01830000  0.42170000  0.86350000  1.0 0.2279201782
C  C5  1  0.47570000  0.92550000  0.22560000  1.0 -0.018832964
C  C6  1  0.92550000  0.47570000  0.27440000  1.0 -0.018832964
C  C7  1  0.52430000  0.07450000  0.77440000  1.0 -0.018832964
C  C8  1  0.07450000  0.52430000  0.72560000  1.0 -0.018832964
C  C9  1  0.27760000  0.81020000  0.38360000  1.0 0.532492075
C  C10  1  0.81020000  0.27760000  0.11640000  1.0 0.532492075
C  C11  1  0.72240000  0.18980000  0.61640000  1.0 0.532492075
C  C12  1  0.18980000  0.72240000  0.88360000  1.0 0.532492075
C  C13  1  0.38070000  0.87370000  0.34480000  1.0 -0.0032292487
C  C14  1  0.87370000  0.38070000  0.15520000  1.0 -0.0032292487
C  C15  1  0.61930000  0.12630000  0.65520000  1.0 -0.0032292487
C  C16  1  0.12630000  0.61930000  0.84480000  1.0 -0.0032292487
C  C17  1  0.57640000  0.97900000  0.27770000  1.0 -0.1973090546
C  C18  1  0.97900000  0.57640000  0.22230000  1.0 -0.1973090546
C  C19  1  0.42360000  0.02100000  0.72230000  1.0 -0.1973090546
C  C20  1  0.02100000  0.42360000  0.77770000  1.0 -0.1973090546
C  C21  1  0.37900000  0.87260000  0.25940000  1.0 -0.1391497625
C  C22  1  0.87260000  0.37900000  0.24060000  1.0 -0.1391497625
C  C23  1  0.62100000  0.12740000  0.74060000  1.0 -0.1391497625
C  C24  1  0.12740000  0.62100000  0.75940000  1.0 -0.1391497625
C  C25  1  0.85860000  0.98660000  0.40420000  1.0 0.1410662567
C  C26  1  0.98660000  0.85860000  0.09580000  1.0 0.1410662567
C  C27  1  0.14140000  0.01340000  0.59580000  1.0 0.1410662567
C  C28  1  0.01340000  0.14140000  0.90420000  1.0 0.1410662567
C  C29  1  0.47540000  0.92660000  0.13350000  1.0 0.5715128815
C  C30  1  0.92660000  0.47540000  0.36650000  1.0 0.5715128815
C  C31  1  0.52460000  0.07340000  0.86650000  1.0 0.5715128815
C  C32  1  0.07340000  0.52460000  0.63350000  1.0 0.5715128815
C  C33  1  0.47930000  0.92630000  0.39630000  1.0 -0.2198941225
C  C34  1  0.92630000  0.47930000  0.10370000  1.0 -0.2198941225
C  C35  1  0.52070000  0.07370000  0.60370000  1.0 -0.2198941225
C  C36  1  0.07370000  0.52070000  0.89630000  1.0 -0.2198941225
C  C37  1  0.78280000  0.08120000  0.39000000  1.0 -0.1391497625
C  C38  1  0.08120000  0.78280000  0.11000000  1.0 -0.1391497625
C  C39  1  0.21720000  0.91880000  0.61000000  1.0 -0.1391497625
C  C40  1  0.91880000  0.21720000  0.89000000  1.0 -0.1391497625
C  C41  1  0.84940000  0.88080000  0.46610000  1.0 -0.1934979746
C  C42  1  0.88080000  0.84940000  0.03390000  1.0 -0.1934979746
C  C43  1  0.15060000  0.11920000  0.53390000  1.0 -0.1934979746
C  C44  1  0.11920000  0.15060000  0.96610000  1.0 -0.1934979746
C  C45  1  0.94650000  0.00590000  0.36050000  1.0 -0.2198941225
C  C46  1  0.00590000  0.94650000  0.13950000  1.0 -0.2198941225
C  C47  1  0.05350000  0.99410000  0.63950000  1.0 -0.2198941225
C  C48  1  0.99410000  0.05350000  0.86050000  1.0 -0.2198941225
C  C49  1  0.01540000  0.91720000  0.37630000  1.0 0.0859810764
C  C50  1  0.91720000  0.01540000  0.12370000  1.0 0.0859810764
C  C51  1  0.98460000  0.08280000  0.62370000  1.0 0.0859810764
C  C52  1  0.08280000  0.98460000  0.87630000  1.0 0.0859810764
C  C53  1  0.92200000  0.79740000  0.47680000  1.0 0.0756355411
C  C54  1  0.79740000  0.92200000  0.02320000  1.0 0.0756355411
C  C55  1  0.07800000  0.20260000  0.52320000  1.0 0.0756355411
C  C56  1  0.20260000  0.07800000  0.97680000  1.0 0.0756355411
N  N1  1  0.00450000  0.81370000  0.43150000  1.0 -0.2507331932
N  N2  1  0.81370000  0.00450000  0.06850000  1.0 -0.2507331932
N  N3  1  0.99550000  0.18630000  0.56850000  1.0 -0.2507331932
N  N4  1  0.18630000  0.99550000  0.93150000  1.0 -0.2507331932
N  N5  1  0.67220000  0.03780000  0.41490000  1.0 -0.2932058835
N  N6  1  0.03780000  0.67220000  0.08510000  1.0 -0.2932058835
N  N7  1  0.32780000  0.96220000  0.58510000  1.0 -0.2932058835
N  N8  1  0.96220000  0.32780000  0.91490000  1.0 -0.2932058835
O  O1  1  0.18830000  0.76250000  0.33560000  1.0 -0.5502828771
O  O2  1  0.76250000  0.18830000  0.16440000  1.0 -0.5502828771
O  O3  1  0.81170000  0.23750000  0.66440000  1.0 -0.5502828771
O  O4  1  0.23750000  0.81170000  0.83560000  1.0 -0.5502828771
O  O5  1  0.28280000  0.80280000  0.46310000  1.0 -0.5502828771
O  O6  1  0.80280000  0.28280000  0.03690000  1.0 -0.5502828771
O  O7  1  0.71720000  0.19720000  0.53690000  1.0 -0.5502828771
O  O8  1  0.19720000  0.71720000  0.96310000  1.0 -0.5502828771
O  O9  1  0.38000000  0.88560000  0.08880000  1.0 -0.5396931583
O  O10  1  0.88560000  0.38000000  0.41120000  1.0 -0.5396931583
O  O11  1  0.62000000  0.11440000  0.91120000  1.0 -0.5396931583
O  O12  1  0.11440000  0.62000000  0.58880000  1.0 -0.5396931583
O  O13  1  0.56990000  0.96230000  0.10860000  1.0 -0.5396931583
O  O14  1  0.96230000  0.56990000  0.39140000  1.0 -0.5396931583
O  O15  1  0.43010000  0.03770000  0.89140000  1.0 -0.5396931583
O  O16  1  0.03770000  0.43010000  0.60860000  1.0 -0.5396931583
O  O17  1  0.23110000  0.52430000  0.48350000  1.0 -0.1391497625
O  O18  1  0.52430000  0.23110000  0.01650000  1.0 -0.1391497625
O  O19  1  0.76890000  0.47570000  0.51650000  1.0 -0.1391497625
O  O20  1  0.47570000  0.76890000  0.98350000  1.0 -0.1460481548
