# DDEC6 charges by PACMAN v1.1 (https://github.com/mtap-research/PACMAN-charge/)
data_LUFNAC02_FSR_pacman
_symmetry_space_group_name_H-M   'P 1'
_cell_length_a   11.87600000
_cell_length_b   11.87600000
_cell_length_c   16.34100000
_cell_angle_alpha   73.36070000
_cell_angle_beta   106.63900000
_cell_angle_gamma   101.61900000
_symmetry_Int_Tables_number   1
_chemical_formula_structural   MnH10C14N2O5
_chemical_formula_sum   'Mn4 H40 C56 N8 O20'
_cell_volume   2097.77931961
_cell_formula_units_Z   4
loop_
 _symmetry_equiv_pos_site_id
 _symmetry_equiv_pos_as_xyz
  1  'x, y, z'
loop_
 _atom_site_type_symbol
 _atom_site_label
 _atom_site_symmetry_multiplicity
 _atom_site_fract_x
 _atom_site_fract_y
 _atom_site_fract_z
 _atom_site_occupancy
 _atom_site_charge
Mn  Mn1  1  0.61596000  0.16756000  0.45324000  1.0 0.9685251868
Mn  Mn2  1  0.16756000  0.61596000  0.04676000  1.0 0.9685251868
Mn  Mn3  1  0.38404000  0.83244000  0.54676000  1.0 0.9685251868
Mn  Mn4  1  0.83244000  0.38404000  0.95324000  1.0 0.9685251868
H  H1  1  0.16700000  0.54700000  0.46300000  1.0 0.2723062939
H  H2  1  0.54700000  0.16700000  0.03700000  1.0 0.2723062939
H  H3  1  0.83300000  0.45300000  0.53700000  1.0 0.2723062939
H  H4  1  0.45300000  0.83300000  0.96300000  1.0 0.2723062939
H  H5  1  0.81340000  0.33720000  0.22660000  1.0 0.117405147
H  H6  1  0.33720000  0.81340000  0.27340000  1.0 0.117405147
H  H7  1  0.18660000  0.66280000  0.77340000  1.0 0.117405147
H  H8  1  0.66280000  0.18660000  0.72660000  1.0 0.117405147
H  H9  1  0.98210000  0.42670000  0.45300000  1.0 0.1291550007
H  H10  1  0.42670000  0.98210000  0.04700000  1.0 0.1291550007
H  H11  1  0.01790000  0.57330000  0.54700000  1.0 0.1291550007
H  H12  1  0.57330000  0.01790000  0.95300000  1.0 0.1291550007
H  H13  1  0.14370000  0.51330000  0.25530000  1.0 0.1291550007
H  H14  1  0.51330000  0.14370000  0.24470000  1.0 0.1291550007
H  H15  1  0.85630000  0.48670000  0.74470000  1.0 0.1291550007
H  H16  1  0.48670000  0.85630000  0.75530000  1.0 0.1291550007
H  H17  1  0.26700000  0.62200000  0.32740000  1.0 0.1291550007
H  H18  1  0.62200000  0.26700000  0.17260000  1.0 0.1291550007
H  H19  1  0.73300000  0.37800000  0.67260000  1.0 0.1291550007
H  H20  1  0.37800000  0.73300000  0.82740000  1.0 0.1291550007
H  H21  1  0.32840000  0.63880000  0.42240000  1.0 0.1378890531
H  H22  1  0.63880000  0.32840000  0.07760000  1.0 0.1378890531
H  H23  1  0.67160000  0.36120000  0.57760000  1.0 0.1378890531
H  H24  1  0.36120000  0.67160000  0.92240000  1.0 0.1378890531
H  H25  1  0.29350000  0.36650000  0.49820000  1.0 0.1378890531
H  H26  1  0.36650000  0.29350000  0.00180000  1.0 0.1378890531
H  H27  1  0.70650000  0.63350000  0.50180000  1.0 0.1378890531
H  H28  1  0.63350000  0.70650000  0.99820000  1.0 0.1378890531
H  H29  1  0.45960000  0.57700000  0.31960000  1.0 0.1521001614
H  H30  1  0.57700000  0.45960000  0.18040000  1.0 0.1521001614
H  H31  1  0.54040000  0.42300000  0.68040000  1.0 0.1521001614
H  H32  1  0.42300000  0.54040000  0.81960000  1.0 0.1521001614
H  H33  1  0.57830000  0.43650000  0.34820000  1.0 0.1095295108
H  H34  1  0.43650000  0.57830000  0.15180000  1.0 0.1095295108
H  H35  1  0.42170000  0.56350000  0.65180000  1.0 0.1095295108
H  H36  1  0.56350000  0.42170000  0.84820000  1.0 0.1095295108
H  H37  1  0.41280000  0.22480000  0.51590000  1.0 0.117405147
H  H38  1  0.22480000  0.41280000  0.98410000  1.0 0.117405147
H  H39  1  0.58720000  0.77520000  0.48410000  1.0 0.117405147
H  H40  1  0.77520000  0.58720000  0.01590000  1.0 0.117405147
C  C1  1  0.07920000  0.48240000  0.36260000  1.0 0.2200132615
C  C2  1  0.48240000  0.07920000  0.13740000  1.0 0.2200132615
C  C3  1  0.92080000  0.51760000  0.63740000  1.0 0.2200132615
C  C4  1  0.51760000  0.92080000  0.86260000  1.0 0.2200132615
C  C5  1  0.97670000  0.42710000  0.22550000  1.0 -0.0175873919
C  C6  1  0.42710000  0.97670000  0.27450000  1.0 -0.0175873919
C  C7  1  0.02330000  0.57290000  0.77450000  1.0 -0.0175873919
C  C8  1  0.57290000  0.02330000  0.72550000  1.0 -0.0175873919
C  C9  1  0.88150000  0.37450000  0.34540000  1.0 -0.0026638497
C  C10  1  0.37450000  0.88150000  0.15460000  1.0 -0.0026638497
C  C11  1  0.11850000  0.62550000  0.65460000  1.0 -0.0026638497
C  C12  1  0.62550000  0.11850000  0.84540000  1.0 -0.0026638497
C  C13  1  0.87970000  0.37370000  0.26040000  1.0 -0.129707686
C  C14  1  0.37370000  0.87970000  0.23960000  1.0 -0.129707686
C  C15  1  0.12030000  0.62630000  0.73960000  1.0 -0.129707686
C  C16  1  0.62630000  0.12030000  0.76040000  1.0 -0.129707686
C  C17  1  0.77820000  0.31000000  0.38360000  1.0 0.5269550837
C  C18  1  0.31000000  0.77820000  0.11640000  1.0 0.5269550837
C  C19  1  0.22180000  0.69000000  0.61640000  1.0 0.5269550837
C  C20  1  0.69000000  0.22180000  0.88360000  1.0 0.5269550837
C  C21  1  0.98100000  0.42760000  0.39560000  1.0 -0.2086066374
C  C22  1  0.42760000  0.98100000  0.10440000  1.0 -0.2086066374
C  C23  1  0.01900000  0.57240000  0.60440000  1.0 -0.2086066374
C  C24  1  0.57240000  0.01900000  0.89560000  1.0 -0.2086066374
C  C25  1  0.07740000  0.47980000  0.27770000  1.0 -0.1917843365
C  C26  1  0.47980000  0.07740000  0.22230000  1.0 -0.1917843365
C  C27  1  0.92260000  0.52020000  0.72230000  1.0 -0.1917843365
C  C28  1  0.52020000  0.92260000  0.77770000  1.0 -0.1917843365
C  C29  1  0.35970000  0.48650000  0.40420000  1.0 0.1378890531
C  C30  1  0.48650000  0.35970000  0.09580000  1.0 0.1378890531
C  C31  1  0.64030000  0.51350000  0.59580000  1.0 0.1378890531
C  C32  1  0.51350000  0.64030000  0.90420000  1.0 0.1378890531
C  C33  1  0.97570000  0.42730000  0.13360000  1.0 0.5735916055
C  C34  1  0.42730000  0.97570000  0.36640000  1.0 0.5735916055
C  C35  1  0.02430000  0.57270000  0.86640000  1.0 0.5735916055
C  C36  1  0.57270000  0.02430000  0.63360000  1.0 0.5735916055
C  C37  1  0.28390000  0.58130000  0.38940000  1.0 -0.129707686
C  C38  1  0.58130000  0.28390000  0.11060000  1.0 -0.129707686
C  C39  1  0.71610000  0.41870000  0.61060000  1.0 -0.129707686
C  C40  1  0.41870000  0.71610000  0.88940000  1.0 -0.129707686
C  C41  1  0.34870000  0.38190000  0.46460000  1.0 -0.1917843365
C  C42  1  0.38190000  0.34870000  0.03540000  1.0 -0.1917843365
C  C43  1  0.65130000  0.61810000  0.53540000  1.0 -0.1917843365
C  C44  1  0.61810000  0.65130000  0.96460000  1.0 -0.1917843365
C  C45  1  0.44780000  0.50560000  0.36030000  1.0 -0.2086066374
C  C46  1  0.50560000  0.44780000  0.13970000  1.0 -0.2086066374
C  C47  1  0.55220000  0.49440000  0.63970000  1.0 -0.2086066374
C  C48  1  0.49440000  0.55220000  0.86030000  1.0 -0.2086066374
C  C49  1  0.51740000  0.41960000  0.37700000  1.0 0.0632570541
C  C50  1  0.41960000  0.51740000  0.12300000  1.0 0.0632570541
C  C51  1  0.48260000  0.58040000  0.62300000  1.0 0.0632570541
C  C52  1  0.58040000  0.48260000  0.87700000  1.0 0.0632570541
C  C53  1  0.42250000  0.29690000  0.47530000  1.0 0.0969922996
C  C54  1  0.29690000  0.42250000  0.02470000  1.0 0.0969922996
C  C55  1  0.57750000  0.70310000  0.52470000  1.0 0.0969922996
C  C56  1  0.70310000  0.57750000  0.97530000  1.0 0.0969922996
N  N1  1  0.17400000  0.53800000  0.41440000  1.0 -0.2851828479
N  N2  1  0.53800000  0.17400000  0.08560000  1.0 -0.2851828479
N  N3  1  0.82600000  0.46200000  0.58560000  1.0 -0.2851828479
N  N4  1  0.46200000  0.82600000  0.91440000  1.0 -0.2851828479
N  N5  1  0.50460000  0.31280000  0.43170000  1.0 -0.2476637208
N  N6  1  0.31280000  0.50460000  0.06830000  1.0 -0.2476637208
N  N7  1  0.49540000  0.68720000  0.56830000  1.0 -0.2476637208
N  N8  1  0.68720000  0.49540000  0.93170000  1.0 -0.2476637208
O  O1  1  0.68930000  0.26310000  0.33580000  1.0 -0.5402450157
O  O2  1  0.26310000  0.68930000  0.16420000  1.0 -0.5402450157
O  O3  1  0.31070000  0.73690000  0.66420000  1.0 -0.5402450157
O  O4  1  0.73690000  0.31070000  0.83580000  1.0 -0.5402450157
O  O5  1  0.78520000  0.30380000  0.46350000  1.0 -0.5556886935
O  O6  1  0.30380000  0.78520000  0.03650000  1.0 -0.5556886935
O  O7  1  0.21480000  0.69620000  0.53650000  1.0 -0.5556886935
O  O8  1  0.69620000  0.21480000  0.96350000  1.0 -0.5556886935
O  O9  1  0.07010000  0.46370000  0.10830000  1.0 -0.5402450157
O  O10  1  0.46370000  0.07010000  0.39170000  1.0 -0.5402450157
O  O11  1  0.92990000  0.53630000  0.89170000  1.0 -0.5402450157
O  O12  1  0.53630000  0.92990000  0.60830000  1.0 -0.5402450157
O  O13  1  0.87980000  0.38540000  0.08810000  1.0 -0.5402450157
O  O14  1  0.38540000  0.87980000  0.41190000  1.0 -0.5402450157
O  O15  1  0.12020000  0.61460000  0.91190000  1.0 -0.5402450157
O  O16  1  0.61460000  0.12020000  0.58810000  1.0 -0.5402450157
O  O17  1  0.72750000  0.03170000  0.47350000  1.0 -0.229494042
O  O18  1  0.03170000  0.72750000  0.02650000  1.0 -0.229494042
O  O19  1  0.27250000  0.96830000  0.52650000  1.0 -0.229494042
O  O20  1  0.96830000  0.27250000  0.97350000  1.0 -0.229494042
