# DDEC6 charges by PACMAN v1.1 (https://github.com/mtap-research/PACMAN-charge/)
data_LUFVAM_FSR_pacman
_symmetry_space_group_name_H-M   'P 1'
_cell_length_a   8.82390000
_cell_length_b   9.79180000
_cell_length_c   17.84710000
_cell_angle_alpha   81.32100000
_cell_angle_beta   85.69600000
_cell_angle_gamma   71.34100000
_symmetry_Int_Tables_number   1
_chemical_formula_structural   Zn2H16C27N6O7
_chemical_formula_sum   'Zn4 H32 C54 N12 O14'
_cell_volume   1443.65385207
_cell_formula_units_Z   2
loop_
 _symmetry_equiv_pos_site_id
 _symmetry_equiv_pos_as_xyz
  1  'x, y, z'
loop_
 _atom_site_type_symbol
 _atom_site_label
 _atom_site_symmetry_multiplicity
 _atom_site_fract_x
 _atom_site_fract_y
 _atom_site_fract_z
 _atom_site_occupancy
 _atom_site_charge
Zn  Zn1  1  0.60370000  0.59276000  0.96524000  1.0 0.9179574288
Zn  Zn2  1  0.31217000  0.57215000  0.85234000  1.0 0.8548331297
Zn  Zn3  1  0.39630000  0.40724000  0.03476000  1.0 0.9179574288
Zn  Zn4  1  0.68783000  0.42785000  0.14766000  1.0 0.8548331297
H  H1  1  0.54400000  0.39900000  0.90900000  1.0 0.3744512982
H  H2  1  0.02074000  0.97526000  0.27697000  1.0 0.3063523508
H  H3  1  0.67257000  0.74142000  0.50763000  1.0 0.3063523508
H  H4  1  0.05832000  0.40399000  0.90673000  1.0 0.1181137643
H  H5  1  0.46498000  0.99041000  0.70584000  1.0 0.1484270282
H  H6  1  0.78876000  0.22297000  0.51374000  1.0 0.1409299067
H  H7  1  0.05089000  0.42509000  0.27843000  1.0 0.1409299067
H  H8  1  0.21370000  0.02800000  0.20633000  1.0 0.1409299067
H  H9  1  0.19626000  0.50837000  0.17817000  1.0 0.1181137643
H  H10  1  0.34267000  0.87591000  0.80274000  1.0 0.1181137643
H  H11  1  0.07316000  0.05224000  0.06307000  1.0 0.1181137643
H  H12  1  0.34543000  0.12551000  0.10665000  1.0 0.1088566277
H  H13  1  0.85226000  0.81654000  0.37755000  1.0 0.1558150387
H  H14  1  0.43507000  0.53039000  0.69823000  1.0 0.1181137643
H  H15  1  0.40267000  0.01975000  0.89132000  1.0 0.1088566277
H  H16  1  0.56450000  0.63254000  0.59936000  1.0 0.131744448
H  H17  1  0.45600000  0.60100000  0.09100000  1.0 0.3744512982
H  H18  1  0.97926000  0.02474000  0.72303000  1.0 0.3063523508
H  H19  1  0.32743000  0.25858000  0.49237000  1.0 0.3063523508
H  H20  1  0.94168000  0.59601000  0.09327000  1.0 0.1181137643
H  H21  1  0.53502000  0.00959000  0.29416000  1.0 0.1484270282
H  H22  1  0.21124000  0.77703000  0.48626000  1.0 0.1409299067
H  H23  1  0.94911000  0.57491000  0.72157000  1.0 0.1409299067
H  H24  1  0.78630000  0.97200000  0.79367000  1.0 0.1409299067
H  H25  1  0.80374000  0.49163000  0.82183000  1.0 0.1181137643
H  H26  1  0.65733000  0.12409000  0.19726000  1.0 0.1181137643
H  H27  1  0.92684000  0.94776000  0.93693000  1.0 0.1181137643
H  H28  1  0.65457000  0.87449000  0.89335000  1.0 0.1088566277
H  H29  1  0.14774000  0.18346000  0.62245000  1.0 0.1558150387
H  H30  1  0.56493000  0.46961000  0.30177000  1.0 0.1181137643
H  H31  1  0.59733000  0.98025000  0.10868000  1.0 0.1088566277
H  H32  1  0.43550000  0.36746000  0.40064000  1.0 0.131744448
C  C1  1  0.73880000  0.03010000  0.51460000  1.0 0.131744448
C  C2  1  0.62230000  0.88800000  0.58130000  1.0 0.288795296
C  C3  1  0.53400000  0.82190000  0.64230000  1.0 0.0692028961
C  C4  1  0.11160000  0.21710000  0.25220000  1.0 0.0615229643
C  C5  1  0.02020000  0.16020000  0.31390000  1.0 0.2974907048
C  C6  1  0.88370000  0.12930000  0.41700000  1.0 0.1409299067
C  C7  1  0.89890000  0.33470000  0.02950000  1.0 0.6014360226
C  C8  1  0.24270000  0.22340000  0.88890000  1.0 -0.0274850252
C  C9  1  0.90290000  0.00830000  0.37820000  1.0 0.1409299067
C  C10  1  0.33880000  0.85420000  0.01200000  1.0 0.5752856172
C  C11  1  0.10780000  0.30460000  0.92570000  1.0 -0.1268867013
C  C12  1  0.46280000  0.89470000  0.70370000  1.0 -0.1600092166
C  C13  1  0.80130000  0.14300000  0.48700000  1.0 -0.2438330763
C  C14  1  0.76010000  0.91080000  0.47400000  1.0 0.1484270282
C  C15  1  0.11020000  0.36140000  0.24380000  1.0 -0.1600092166
C  C16  1  0.20540000  0.12810000  0.20090000  1.0 -0.1719768011
C  C17  1  0.19780000  0.40990000  0.18350000  1.0 0.0826989151
C  C18  1  0.04410000  0.24130000  0.99060000  1.0 -0.0135272304
C  C19  1  0.38980000  0.82590000  0.76090000  1.0 0.0692028961
C  C20  1  0.11660000  0.09500000  0.01880000  1.0 -0.1268867013
C  C21  1  0.28580000  0.18690000  0.14220000  1.0 0.0918580628
C  C22  1  0.84070000  0.89600000  0.40450000  1.0 -0.2906076872
C  C23  1  0.25130000  0.01250000  0.98250000  1.0 -0.0274850252
C  C24  1  0.44410000  0.62390000  0.70030000  1.0 0.0918580628
C  C25  1  0.31200000  0.07680000  0.91720000  1.0 -0.1195053906
C  C26  1  0.31280000  0.28660000  0.81780000  1.0 0.5711540616
C  C27  1  0.52080000  0.68430000  0.64100000  1.0 -0.1973209419
C  C28  1  0.26120000  0.96990000  0.48540000  1.0 0.131744448
C  C29  1  0.37770000  0.11200000  0.41870000  1.0 0.288795296
C  C30  1  0.46600000  0.17810000  0.35770000  1.0 0.0692028961
C  C31  1  0.88840000  0.78290000  0.74780000  1.0 0.0615229643
C  C32  1  0.97980000  0.83980000  0.68610000  1.0 0.2974907048
C  C33  1  0.11630000  0.87070000  0.58300000  1.0 0.1409299067
C  C34  1  0.10110000  0.66530000  0.97050000  1.0 0.6014360226
C  C35  1  0.75730000  0.77660000  0.11110000  1.0 -0.0274850252
C  C36  1  0.09710000  0.99170000  0.62180000  1.0 0.1409299067
C  C37  1  0.66120000  0.14580000  0.98800000  1.0 0.5752856172
C  C38  1  0.89220000  0.69540000  0.07430000  1.0 -0.1268867013
C  C39  1  0.53720000  0.10530000  0.29630000  1.0 -0.1600092166
C  C40  1  0.19870000  0.85700000  0.51300000  1.0 -0.2438330763
C  C41  1  0.23990000  0.08920000  0.52600000  1.0 0.1484270282
C  C42  1  0.88980000  0.63860000  0.75620000  1.0 -0.1600092166
C  C43  1  0.79460000  0.87190000  0.79910000  1.0 -0.1719768011
C  C44  1  0.80220000  0.59010000  0.81650000  1.0 0.0826989151
C  C45  1  0.95590000  0.75870000  0.00940000  1.0 -0.0135272304
C  C46  1  0.61020000  0.17410000  0.23910000  1.0 0.0692028961
C  C47  1  0.88340000  0.90500000  0.98120000  1.0 -0.1268867013
C  C48  1  0.71420000  0.81310000  0.85780000  1.0 0.0918580628
C  C49  1  0.15930000  0.10400000  0.59550000  1.0 -0.2906076872
C  C50  1  0.74870000  0.98750000  0.01750000  1.0 -0.0274850252
C  C51  1  0.55590000  0.37610000  0.29970000  1.0 0.0918580628
C  C52  1  0.68800000  0.92320000  0.08280000  1.0 -0.1195053906
C  C53  1  0.68720000  0.71340000  0.18220000  1.0 0.5711540616
C  C54  1  0.47920000  0.31570000  0.35900000  1.0 -0.1973209419
N  N1  1  0.38150000  0.69070000  0.76070000  1.0 -0.2483110429
N  N2  1  0.95960000  0.22260000  0.37500000  1.0 -0.4150364661
N  N3  1  0.28460000  0.32640000  0.13230000  1.0 -0.2483110429
N  N4  1  0.99020000  0.03210000  0.31270000  1.0 -0.3168679737
N  N5  1  0.68190000  0.82320000  0.51830000  1.0 -0.3088710868
N  N6  1  0.65310000  0.01170000  0.58270000  1.0 -0.4150364661
N  N7  1  0.61850000  0.30930000  0.23930000  1.0 -0.2483110429
N  N8  1  0.04040000  0.77740000  0.62500000  1.0 -0.4150364661
N  N9  1  0.71540000  0.67360000  0.86770000  1.0 -0.2483110429
N  N10  1  0.00980000  0.96790000  0.68730000  1.0 -0.3168679737
N  N11  1  0.31810000  0.17680000  0.48170000  1.0 -0.3088710868
N  N12  1  0.34690000  0.98830000  0.41730000  1.0 -0.4150364661
O  O1  1  0.82460000  0.45570000  0.99210000  1.0 -0.5687102043
O  O2  1  0.26990000  0.42610000  0.80310000  1.0 -0.5930731856
O  O3  1  0.86260000  0.29090000  0.09610000  1.0 -0.5317692422
O  O4  1  0.44980000  0.79080000  0.96790000  1.0 -0.5779020154
O  O5  1  0.30020000  0.79890000  0.07470000  1.0 -0.5317692422
O  O6  1  0.40650000  0.20280000  0.77840000  1.0 -0.5391722881
O  O7  1  0.48560000  0.47680000  0.92402000  1.0 -0.8291783892
O  O8  1  0.17540000  0.54430000  0.00790000  1.0 -0.5687102043
O  O9  1  0.73010000  0.57390000  0.19690000  1.0 -0.5930731856
O  O10  1  0.13740000  0.70910000  0.90390000  1.0 -0.5317692422
O  O11  1  0.55020000  0.20920000  0.03210000  1.0 -0.5779020154
O  O12  1  0.69980000  0.20110000  0.92530000  1.0 -0.5317692422
O  O13  1  0.59350000  0.79720000  0.22160000  1.0 -0.5391722881
O  O14  1  0.51440000  0.52320000  0.07598000  1.0 -0.8291783892
