# DDEC6 charges by PACMAN v1.1 (https://github.com/mtap-research/PACMAN-charge/)
data_LUHFOM_FSR_pacman
_symmetry_space_group_name_H-M   'P 1'
_cell_length_a   13.77570000
_cell_length_b   13.77570000
_cell_length_c   13.77570000
_cell_angle_alpha   102.59000000
_cell_angle_beta   102.59000000
_cell_angle_gamma   124.33700000
_symmetry_Int_Tables_number   1
_chemical_formula_structural   FeH8C10N2ClO2
_chemical_formula_sum   'Fe4 H32 C40 N8 Cl4 O8'
_cell_volume   1908.93650438
_cell_formula_units_Z   4
loop_
 _symmetry_equiv_pos_site_id
 _symmetry_equiv_pos_as_xyz
  1  'x, y, z'
loop_
 _atom_site_type_symbol
 _atom_site_label
 _atom_site_symmetry_multiplicity
 _atom_site_fract_x
 _atom_site_fract_y
 _atom_site_fract_z
 _atom_site_occupancy
 _atom_site_charge
Fe  Fe1  1  0.94030000  0.94030000  0.00000000  1.0 0.4508763814
Fe  Fe2  1  0.55970000  0.55970000  0.00000000  1.0 0.4508763814
Fe  Fe3  1  0.05970000  0.05970000  0.00000000  1.0 0.4508763814
Fe  Fe4  1  0.44030000  0.44030000  0.00000000  1.0 0.4508763814
H  H1  1  0.41100000  0.18510000  0.90350000  1.0 0.1135961154
H  H2  1  0.50900000  0.09140000  0.91400000  1.0 0.1236523354
H  H3  1  0.28160000  0.50750000  0.09650000  1.0 0.1135961154
H  H4  1  0.17740000  0.59500000  0.08600000  1.0 0.1236523354
H  H5  1  0.50750000  0.41100000  0.22590000  1.0 0.1135961154
H  H6  1  0.59500000  0.50900000  0.41760000  1.0 0.1236523354
H  H7  1  0.18510000  0.28160000  0.77410000  1.0 0.1135961154
H  H8  1  0.09140000  0.17740000  0.58240000  1.0 0.1236523354
H  H9  1  0.08900000  0.99250000  0.77410000  1.0 0.1135961154
H  H10  1  0.99100000  0.90500000  0.58240000  1.0 0.1236523354
H  H11  1  0.21840000  0.31490000  0.22590000  1.0 0.1135961154
H  H12  1  0.32260000  0.40860000  0.41760000  1.0 0.1236523354
H  H13  1  0.99250000  0.21840000  0.90350000  1.0 0.1135961154
H  H14  1  0.90500000  0.32260000  0.91400000  1.0 0.1236523354
H  H15  1  0.31490000  0.08900000  0.09650000  1.0 0.1135961154
H  H16  1  0.40860000  0.99100000  0.08600000  1.0 0.1236523354
H  H17  1  0.58900000  0.81490000  0.09650000  1.0 0.1135961154
H  H18  1  0.49100000  0.90860000  0.08600000  1.0 0.1236523354
H  H19  1  0.71840000  0.49250000  0.90350000  1.0 0.1135961154
H  H20  1  0.82260000  0.40500000  0.91400000  1.0 0.1236523354
H  H21  1  0.49250000  0.58900000  0.77410000  1.0 0.1135961154
H  H22  1  0.40500000  0.49100000  0.58240000  1.0 0.1236523354
H  H23  1  0.81490000  0.71840000  0.22590000  1.0 0.1135961154
H  H24  1  0.90860000  0.82260000  0.41760000  1.0 0.1236523354
H  H25  1  0.91100000  0.00750000  0.22590000  1.0 0.1135961154
H  H26  1  0.00900000  0.09500000  0.41760000  1.0 0.1236523354
H  H27  1  0.78160000  0.68510000  0.77410000  1.0 0.1135961154
H  H28  1  0.67740000  0.59140000  0.58240000  1.0 0.1236523354
H  H29  1  0.00750000  0.78160000  0.09650000  1.0 0.1135961154
H  H30  1  0.09500000  0.67740000  0.08600000  1.0 0.1236523354
H  H31  1  0.68510000  0.91100000  0.90350000  1.0 0.1135961154
H  H32  1  0.59140000  0.00900000  0.91400000  1.0 0.1236523354
C  C1  1  0.49520000  0.22920000  0.90520000  1.0 -0.0223583363
C  C2  1  0.55360000  0.17360000  0.91140000  1.0 -0.1953667836
C  C3  1  0.32400000  0.59000000  0.09480000  1.0 -0.0223583363
C  C4  1  0.26220000  0.64220000  0.08860000  1.0 -0.1953667836
C  C5  1  0.59000000  0.49520000  0.26600000  1.0 -0.0223583363
C  C6  1  0.64220000  0.55360000  0.38000000  1.0 -0.1953667836
C  C7  1  0.22920000  0.32400000  0.73400000  1.0 -0.0223583363
C  C8  1  0.17360000  0.26220000  0.62000000  1.0 -0.1953667836
C  C9  1  0.00480000  0.91000000  0.73400000  1.0 -0.0223583363
C  C10  1  0.94640000  0.85780000  0.62000000  1.0 -0.1953667836
C  C11  1  0.17600000  0.27080000  0.26600000  1.0 -0.0223583363
C  C12  1  0.23780000  0.32640000  0.38000000  1.0 -0.1953667836
C  C13  1  0.91000000  0.17600000  0.90520000  1.0 -0.0223583363
C  C14  1  0.85780000  0.23780000  0.91140000  1.0 -0.1953667836
C  C15  1  0.27080000  0.00480000  0.09480000  1.0 -0.0223583363
C  C16  1  0.32640000  0.94640000  0.08860000  1.0 -0.1953667836
C  C17  1  0.50480000  0.77080000  0.09480000  1.0 -0.0223583363
C  C18  1  0.44640000  0.82640000  0.08860000  1.0 -0.1953667836
C  C19  1  0.67600000  0.41000000  0.90520000  1.0 -0.0223583363
C  C20  1  0.73780000  0.35780000  0.91140000  1.0 -0.1953667836
C  C21  1  0.41000000  0.50480000  0.73400000  1.0 -0.0223583363
C  C22  1  0.35780000  0.44640000  0.62000000  1.0 -0.1953667836
C  C23  1  0.77080000  0.67600000  0.26600000  1.0 -0.0223583363
C  C24  1  0.82640000  0.73780000  0.38000000  1.0 -0.1953667836
C  C25  1  0.99520000  0.09000000  0.26600000  1.0 -0.0223583363
C  C26  1  0.05360000  0.14220000  0.38000000  1.0 -0.1953667836
C  C27  1  0.82400000  0.72920000  0.73400000  1.0 -0.0223583363
C  C28  1  0.76220000  0.67360000  0.62000000  1.0 -0.1953667836
C  C29  1  0.09000000  0.82400000  0.09480000  1.0 -0.0223583363
C  C30  1  0.14220000  0.76220000  0.08860000  1.0 -0.1953667836
C  C31  1  0.72920000  0.99520000  0.90520000  1.0 -0.0223583363
C  C32  1  0.67360000  0.05360000  0.91140000  1.0 -0.1945272422
C  C33  1  0.67630000  0.23720000  0.91350000  1.0 0.0871949198
C  C34  1  0.32370000  0.76280000  0.08650000  1.0 0.0871949198
C  C35  1  0.76280000  0.67630000  0.43910000  1.0 0.0871949198
C  C36  1  0.23720000  0.32370000  0.56090000  1.0 0.0871949198
C  C37  1  0.82370000  0.73720000  0.56090000  1.0 0.0871949198
C  C38  1  0.17630000  0.26280000  0.43910000  1.0 0.0871949198
C  C39  1  0.73720000  0.17630000  0.91350000  1.0 0.0871949198
C  C40  1  0.26280000  0.82370000  0.08650000  1.0 0.0871949198
N  N1  1  0.55740000  0.34420000  0.90160000  1.0 0.2331717649
N  N2  1  0.44260000  0.65580000  0.09840000  1.0 0.2331717649
N  N3  1  0.65580000  0.55740000  0.21320000  1.0 0.2331717649
N  N4  1  0.34420000  0.44260000  0.78680000  1.0 0.2331717649
N  N5  1  0.94260000  0.84420000  0.78680000  1.0 0.2331717649
N  N6  1  0.05740000  0.15580000  0.21320000  1.0 0.2331717649
N  N7  1  0.84420000  0.05740000  0.90160000  1.0 0.2331717649
N  N8  1  0.15580000  0.94260000  0.09840000  1.0 0.2331717649
Cl  Cl1  1  0.76250000  0.76250000  0.00000000  1.0 -0.3038926309
Cl  Cl2  1  0.73750000  0.73750000  0.00000000  1.0 -0.3038926309
Cl  Cl3  1  0.23750000  0.23750000  0.00000000  1.0 -0.3038926309
Cl  Cl4  1  0.26250000  0.26250000  0.00000000  1.0 -0.3038926309
O  O1  1  0.49430000  0.39180000  0.88610000  1.0 -0.4330101645
O  O2  1  0.50570000  0.60820000  0.11390000  1.0 -0.4330101645
O  O3  1  0.60820000  0.49430000  0.10250000  1.0 -0.4330101645
O  O4  1  0.39180000  0.50570000  0.89750000  1.0 -0.4330101645
O  O5  1  0.00570000  0.89180000  0.89750000  1.0 -0.4330101645
O  O6  1  0.99430000  0.10820000  0.10250000  1.0 -0.4330101645
O  O7  1  0.89180000  0.99430000  0.88610000  1.0 -0.4330101645
O  O8  1  0.10820000  0.00570000  0.11390000  1.0 -0.4330101645
