# DDEC6 charges by PACMAN v1.1 (https://github.com/mtap-research/PACMAN-charge/)
data_LUJPUC_ion_pacman
_symmetry_space_group_name_H-M   'P 1'
_cell_length_a   10.99460000
_cell_length_b   10.99460000
_cell_length_c   11.15100000
_cell_angle_alpha   79.96360000
_cell_angle_beta   100.03600000
_cell_angle_gamma   51.42410000
_symmetry_Int_Tables_number   1
_chemical_formula_structural   Li2Ni3H24(C10O13)2
_chemical_formula_sum   'Li2 Ni3 H24 C20 O26'
_cell_volume   965.04823330
_cell_formula_units_Z   1
loop_
 _symmetry_equiv_pos_site_id
 _symmetry_equiv_pos_as_xyz
  1  'x, y, z'
loop_
 _atom_site_type_symbol
 _atom_site_label
 _atom_site_symmetry_multiplicity
 _atom_site_fract_x
 _atom_site_fract_y
 _atom_site_fract_z
 _atom_site_occupancy
 _atom_site_charge
Li  Li1  1  0.98500000  0.01500000  0.25200000  1.0 0.7836597958
Li  Li2  1  0.01500000  0.98500000  0.74800000  1.0 0.7852809229
Ni  Ni1  1  0.50000000  0.50000000  0.00000000  1.0 1.0074831047
Ni  Ni2  1  0.00000000  0.50000000  0.50000000  1.0 0.9793457189
Ni  Ni3  1  0.50000000  0.00000000  0.50000000  1.0 0.9793457189
H  H1  1  0.67500000  0.38180000  0.23850000  1.0 0.2657646933
H  H2  1  0.38180000  0.67500000  0.76150000  1.0 0.2657646933
H  H3  1  0.32500000  0.61820000  0.76150000  1.0 0.2657646933
H  H4  1  0.61820000  0.32500000  0.23850000  1.0 0.2657646933
H  H5  1  0.23510000  0.36970000  0.40570000  1.0 0.3698826009
H  H6  1  0.36970000  0.23510000  0.59430000  1.0 0.3698826009
H  H7  1  0.76490000  0.63030000  0.59430000  1.0 0.3698826009
H  H8  1  0.63030000  0.76490000  0.40570000  1.0 0.3698826009
H  H9  1  0.12080000  0.54060000  0.33210000  1.0 0.3634551713
H  H10  1  0.54060000  0.12080000  0.66790000  1.0 0.3634551713
H  H11  1  0.87920000  0.45940000  0.66790000  1.0 0.3634551713
H  H12  1  0.45940000  0.87920000  0.33210000  1.0 0.3634551713
H  H13  1  0.96160000  0.29360000  0.47730000  1.0 0.3777945177
H  H14  1  0.29360000  0.96160000  0.52270000  1.0 0.3777945177
H  H15  1  0.03840000  0.70640000  0.52270000  1.0 0.3777945177
H  H16  1  0.70640000  0.03840000  0.47730000  1.0 0.3777945177
H  H17  1  0.98780000  0.33580000  0.36470000  1.0 0.3777945177
H  H18  1  0.33580000  0.98780000  0.63530000  1.0 0.3777945177
H  H19  1  0.01220000  0.66420000  0.63530000  1.0 0.3777945177
H  H20  1  0.66420000  0.01220000  0.36470000  1.0 0.3777945177
H  H21  1  0.62330000  0.73490000  0.12240000  1.0 0.1312920102
H  H22  1  0.73490000  0.62330000  0.87760000  1.0 0.1312920102
H  H23  1  0.37670000  0.26510000  0.87760000  1.0 0.1312920102
H  H24  1  0.26510000  0.37670000  0.12240000  1.0 0.1312920102
C  C1  1  0.57360000  0.84240000  0.07270000  1.0 -0.1170682921
C  C2  1  0.84240000  0.57360000  0.92730000  1.0 -0.1170682921
C  C3  1  0.42640000  0.15760000  0.92730000  1.0 -0.1170682921
C  C4  1  0.15760000  0.42640000  0.07270000  1.0 -0.1170682921
C  C5  1  0.44020000  0.92760000  0.95200000  1.0 -0.0341057395
C  C6  1  0.92760000  0.44020000  0.04800000  1.0 -0.0341057395
C  C7  1  0.55980000  0.07240000  0.04800000  1.0 -0.0341057395
C  C8  1  0.07240000  0.55980000  0.95200000  1.0 -0.0341057395
C  C9  1  0.36550000  0.09190000  0.87900000  1.0 -0.0484641543
C  C10  1  0.09190000  0.36550000  0.12100000  1.0 -0.0484641543
C  C11  1  0.63450000  0.90810000  0.12100000  1.0 -0.0484641543
C  C12  1  0.90810000  0.63450000  0.87900000  1.0 -0.0484641543
C  C13  1  0.40280000  0.83040000  0.90840000  1.0 0.551271955
C  C14  1  0.83040000  0.40280000  0.09160000  1.0 0.551271955
C  C15  1  0.59720000  0.16960000  0.09160000  1.0 0.551271955
C  C16  1  0.16960000  0.59720000  0.90840000  1.0 0.551271955
C  C17  1  0.20580000  0.20980000  0.76320000  1.0 0.5707950541
C  C18  1  0.20980000  0.20580000  0.23680000  1.0 0.5707950541
C  C19  1  0.79420000  0.79020000  0.23680000  1.0 0.5707950541
C  C20  1  0.79020000  0.79420000  0.76320000  1.0 0.5707950541
O  O1  1  0.41770000  0.72750000  0.99400000  1.0 -0.5228208578
O  O2  1  0.72750000  0.41770000  0.00600000  1.0 -0.5228208578
O  O3  1  0.58230000  0.27250000  0.00600000  1.0 -0.5228208578
O  O4  1  0.27250000  0.58230000  0.99400000  1.0 -0.5228208578
O  O5  1  0.36840000  0.84980000  0.79050000  1.0 -0.5672317943
O  O6  1  0.84980000  0.36840000  0.20950000  1.0 -0.5672317943
O  O7  1  0.63160000  0.15020000  0.20950000  1.0 -0.5672317943
O  O8  1  0.15020000  0.63160000  0.79050000  1.0 -0.5672317943
O  O9  1  0.20080000  0.30020000  0.66890000  1.0 -0.5956526003
O  O10  1  0.30020000  0.20080000  0.33110000  1.0 -0.5956526003
O  O11  1  0.79920000  0.69980000  0.33110000  1.0 -0.5956526003
O  O12  1  0.69980000  0.79920000  0.66890000  1.0 -0.5956526003
O  O13  1  0.09170000  0.21450000  0.76310000  1.0 -0.5228208578
O  O14  1  0.21450000  0.09170000  0.23690000  1.0 -0.5228208578
O  O15  1  0.90830000  0.78550000  0.23690000  1.0 -0.5228208578
O  O16  1  0.78550000  0.90830000  0.76310000  1.0 -0.5228208578
O  O17  1  0.56760000  0.43240000  0.20070000  1.0 -0.6797847153
O  O18  1  0.43240000  0.56760000  0.79930000  1.0 -0.6797847153
O  O19  1  0.16030000  0.47010000  0.41000000  1.0 -0.7139879665
O  O20  1  0.47010000  0.16030000  0.59000000  1.0 -0.7139879665
O  O21  1  0.83970000  0.52990000  0.59000000  1.0 -0.7139879665
O  O22  1  0.52990000  0.83970000  0.41000000  1.0 -0.7139879665
O  O23  1  0.00180000  0.33120000  0.44470000  1.0 -0.6797847153
O  O24  1  0.33120000  0.00180000  0.55530000  1.0 -0.6797847153
O  O25  1  0.99820000  0.66880000  0.55530000  1.0 -0.6797847153
O  O26  1  0.66880000  0.99820000  0.44470000  1.0 -0.6797847153
