# DDEC6 charges by PACMAN v1.1 (https://github.com/mtap-research/PACMAN-charge/)
data_LUJREQ_FSR_pacman
_symmetry_space_group_name_H-M   'P 1'
_cell_length_a   23.15480000
_cell_length_b   23.15480000
_cell_length_c   23.15480000
_cell_angle_alpha   60.00000000
_cell_angle_beta   60.00000000
_cell_angle_gamma   60.00000000
_symmetry_Int_Tables_number   1
_chemical_formula_structural   Zr3H40C84(O5F12)4
_chemical_formula_sum   'Zr6 H80 C168 O40 F96'
_cell_volume   8778.25322111
_cell_formula_units_Z   2
loop_
 _symmetry_equiv_pos_site_id
 _symmetry_equiv_pos_as_xyz
  1  'x, y, z'
loop_
 _atom_site_type_symbol
 _atom_site_label
 _atom_site_symmetry_multiplicity
 _atom_site_fract_x
 _atom_site_fract_y
 _atom_site_fract_z
 _atom_site_occupancy
 _atom_site_charge
Zr  Zr1  1  0.42479000  0.57521000  0.42479000  1.0 2.1052033835
Zr  Zr2  1  0.57521000  0.42479000  0.57521000  1.0 2.1042211586
Zr  Zr3  1  0.57521000  0.42479000  0.42479000  1.0 2.1052033835
Zr  Zr4  1  0.42479000  0.57521000  0.57521000  1.0 2.1052033835
Zr  Zr5  1  0.42479000  0.42479000  0.57521000  1.0 2.1042211586
Zr  Zr6  1  0.57521000  0.57521000  0.42479000  1.0 2.1052033835
H  H1  1  0.44340000  0.66980000  0.44340000  1.0 0.3466563978
H  H2  1  0.44340000  0.44340000  0.44340000  1.0 0.3466563978
H  H3  1  0.66980000  0.44340000  0.44340000  1.0 0.3466563978
H  H4  1  0.44340000  0.44340000  0.66980000  1.0 0.3466563978
H  H5  1  0.55660000  0.55660000  0.55660000  1.0 0.3466563978
H  H6  1  0.55660000  0.33020000  0.55660000  1.0 0.3466563978
H  H7  1  0.33020000  0.55660000  0.55660000  1.0 0.3466563978
H  H8  1  0.55660000  0.55660000  0.33020000  1.0 0.3466563978
H  H9  1  0.58664000  0.41336000  0.23662000  1.0 0.1279043936
H  H10  1  0.58675000  0.41325000  0.13371000  1.0 0.1402546548
H  H11  1  0.23662000  0.76338000  0.58664000  1.0 0.1279043936
H  H12  1  0.13371000  0.86629000  0.58675000  1.0 0.1402546548
H  H13  1  0.41336000  0.58664000  0.76338000  1.0 0.1279043936
H  H14  1  0.41325000  0.58675000  0.86629000  1.0 0.1402546548
H  H15  1  0.76338000  0.23662000  0.41336000  1.0 0.1279043936
H  H16  1  0.86629000  0.13371000  0.41325000  1.0 0.1402546548
H  H17  1  0.41336000  0.23662000  0.58664000  1.0 0.1279043936
H  H18  1  0.41325000  0.13371000  0.58675000  1.0 0.1402546548
H  H19  1  0.76338000  0.58664000  0.23662000  1.0 0.1279043936
H  H20  1  0.86629000  0.58675000  0.13371000  1.0 0.1402546548
H  H21  1  0.58664000  0.76338000  0.41336000  1.0 0.1279043936
H  H22  1  0.58675000  0.86629000  0.41325000  1.0 0.1402546548
H  H23  1  0.23662000  0.41336000  0.76338000  1.0 0.1279043936
H  H24  1  0.13371000  0.41325000  0.86629000  1.0 0.1402546548
H  H25  1  0.23662000  0.58664000  0.41336000  1.0 0.1279043936
H  H26  1  0.13371000  0.58675000  0.41325000  1.0 0.1402546548
H  H27  1  0.58664000  0.23662000  0.76338000  1.0 0.1279043936
H  H28  1  0.58675000  0.13371000  0.86629000  1.0 0.1402546548
H  H29  1  0.76338000  0.41336000  0.58664000  1.0 0.1279043936
H  H30  1  0.86629000  0.41325000  0.58675000  1.0 0.1402546548
H  H31  1  0.41336000  0.76338000  0.23662000  1.0 0.1279043936
H  H32  1  0.41325000  0.86629000  0.13371000  1.0 0.1402546548
H  H33  1  0.41336000  0.23662000  0.76338000  1.0 0.1279043936
H  H34  1  0.41325000  0.13371000  0.86629000  1.0 0.1402546548
H  H35  1  0.76338000  0.58664000  0.41336000  1.0 0.1279043936
H  H36  1  0.86629000  0.58675000  0.41325000  1.0 0.1402546548
H  H37  1  0.58664000  0.76338000  0.23662000  1.0 0.1279043936
H  H38  1  0.58675000  0.86629000  0.13371000  1.0 0.1402546548
H  H39  1  0.23662000  0.41336000  0.58664000  1.0 0.1279043936
H  H40  1  0.13371000  0.41325000  0.58675000  1.0 0.1402546548
H  H41  1  0.58664000  0.23662000  0.41336000  1.0 0.1279043936
H  H42  1  0.58675000  0.13371000  0.41325000  1.0 0.1402546548
H  H43  1  0.23662000  0.58664000  0.76338000  1.0 0.1279043936
H  H44  1  0.13371000  0.58675000  0.86629000  1.0 0.1402546548
H  H45  1  0.41336000  0.76338000  0.58664000  1.0 0.1279043936
H  H46  1  0.41325000  0.86629000  0.58675000  1.0 0.1402546548
H  H47  1  0.76338000  0.41336000  0.23662000  1.0 0.1279043936
H  H48  1  0.86629000  0.41325000  0.13371000  1.0 0.1402546548
H  H49  1  0.76338000  0.23662000  0.58664000  1.0 0.1279043936
H  H50  1  0.86629000  0.13371000  0.58675000  1.0 0.1402546548
H  H51  1  0.41336000  0.58664000  0.23662000  1.0 0.1279043936
H  H52  1  0.41325000  0.58675000  0.13371000  1.0 0.1402546548
H  H53  1  0.23662000  0.76338000  0.41336000  1.0 0.1279043936
H  H54  1  0.13371000  0.86629000  0.41325000  1.0 0.1402546548
H  H55  1  0.58664000  0.41336000  0.76338000  1.0 0.1279043936
H  H56  1  0.58675000  0.41325000  0.86629000  1.0 0.1402546548
H  H57  1  0.43961000  0.43961000  0.11213000  1.0 0.11361438
H  H58  1  0.11213000  0.00865000  0.43961000  1.0 0.1168111969
H  H59  1  0.43961000  0.43961000  0.00865000  1.0 0.1168111969
H  H60  1  0.00865000  0.11213000  0.43961000  1.0 0.1168111969
H  H61  1  0.43961000  0.11213000  0.43961000  1.0 0.1168111969
H  H62  1  0.00865000  0.43961000  0.11213000  1.0 0.11361438
H  H63  1  0.43961000  0.00865000  0.43961000  1.0 0.11361438
H  H64  1  0.11213000  0.43961000  0.00865000  1.0 0.1168111969
H  H65  1  0.11213000  0.43961000  0.43961000  1.0 0.1168111969
H  H66  1  0.43961000  0.11213000  0.00865000  1.0 0.1168111969
H  H67  1  0.00865000  0.43961000  0.43961000  1.0 0.1168111969
H  H68  1  0.43961000  0.00865000  0.11213000  1.0 0.1168111969
H  H69  1  0.56039000  0.99135000  0.88787000  1.0 0.1168111969
H  H70  1  0.88787000  0.56039000  0.56039000  1.0 0.11361438
H  H71  1  0.56039000  0.88787000  0.99135000  1.0 0.11361438
H  H72  1  0.99135000  0.56039000  0.56039000  1.0 0.1168111969
H  H73  1  0.56039000  0.99135000  0.56039000  1.0 0.11361438
H  H74  1  0.99135000  0.56039000  0.88787000  1.0 0.1168111969
H  H75  1  0.56039000  0.88787000  0.56039000  1.0 0.11361438
H  H76  1  0.88787000  0.56039000  0.99135000  1.0 0.11361438
H  H77  1  0.88787000  0.99135000  0.56039000  1.0 0.11361438
H  H78  1  0.56039000  0.56039000  0.99135000  1.0 0.11361438
H  H79  1  0.99135000  0.88787000  0.56039000  1.0 0.11361438
H  H80  1  0.56039000  0.56039000  0.88787000  1.0 0.11361438
C  C1  1  0.45370000  0.38550000  0.12990000  1.0 0.2405858913
C  C2  1  0.12990000  0.03090000  0.45370000  1.0 0.2405858913
C  C3  1  0.38550000  0.45370000  0.03090000  1.0 0.2405858913
C  C4  1  0.03090000  0.12990000  0.38550000  1.0 0.2405858913
C  C5  1  0.38550000  0.12990000  0.45370000  1.0 0.2405858913
C  C6  1  0.03090000  0.45370000  0.12990000  1.0 0.2405858913
C  C7  1  0.45370000  0.03090000  0.38550000  1.0 0.2405858913
C  C8  1  0.12990000  0.38550000  0.03090000  1.0 0.2405858913
C  C9  1  0.12990000  0.45370000  0.38550000  1.0 0.2405858913
C  C10  1  0.45370000  0.12990000  0.03090000  1.0 0.2405858913
C  C11  1  0.03090000  0.38550000  0.45370000  1.0 0.2405858913
C  C12  1  0.38550000  0.03090000  0.12990000  1.0 0.2405858913
C  C13  1  0.54630000  0.96910000  0.87010000  1.0 0.2405858913
C  C14  1  0.87010000  0.61450000  0.54630000  1.0 0.2405858913
C  C15  1  0.61450000  0.87010000  0.96910000  1.0 0.2405858913
C  C16  1  0.96910000  0.54630000  0.61450000  1.0 0.2405858913
C  C17  1  0.61450000  0.96910000  0.54630000  1.0 0.2405858913
C  C18  1  0.96910000  0.61450000  0.87010000  1.0 0.2405858913
C  C19  1  0.54630000  0.87010000  0.61450000  1.0 0.2405858913
C  C20  1  0.87010000  0.54630000  0.96910000  1.0 0.2450364464
C  C21  1  0.87010000  0.96910000  0.61450000  1.0 0.2405858913
C  C22  1  0.54630000  0.61450000  0.96910000  1.0 0.2405858913
C  C23  1  0.96910000  0.87010000  0.54630000  1.0 0.2405858913
C  C24  1  0.61450000  0.54630000  0.87010000  1.0 0.2405858913
C  C25  1  0.54630000  0.61450000  0.87010000  1.0 0.2405858913
C  C26  1  0.87010000  0.96910000  0.54630000  1.0 0.2405858913
C  C27  1  0.61450000  0.54630000  0.96910000  1.0 0.2405858913
C  C28  1  0.96910000  0.87010000  0.61450000  1.0 0.2405858913
C  C29  1  0.61450000  0.87010000  0.54630000  1.0 0.2450364464
C  C30  1  0.96910000  0.54630000  0.87010000  1.0 0.2405858913
C  C31  1  0.54630000  0.96910000  0.61450000  1.0 0.2405858913
C  C32  1  0.87010000  0.61450000  0.96910000  1.0 0.2405858913
C  C33  1  0.87010000  0.54630000  0.61450000  1.0 0.2405858913
C  C34  1  0.54630000  0.87010000  0.96910000  1.0 0.2405858913
C  C35  1  0.96910000  0.61450000  0.54630000  1.0 0.2405858913
C  C36  1  0.61450000  0.96910000  0.87010000  1.0 0.2405858913
C  C37  1  0.45370000  0.03090000  0.12990000  1.0 0.2405858913
C  C38  1  0.12990000  0.38550000  0.45370000  1.0 0.2405858913
C  C39  1  0.38550000  0.12990000  0.03090000  1.0 0.2405858913
C  C40  1  0.03090000  0.45370000  0.38550000  1.0 0.2405858913
C  C41  1  0.38550000  0.03090000  0.45370000  1.0 0.2405858913
C  C42  1  0.03090000  0.38550000  0.12990000  1.0 0.2405858913
C  C43  1  0.45370000  0.12990000  0.38550000  1.0 0.2405858913
C  C44  1  0.12990000  0.45370000  0.03090000  1.0 0.2405858913
C  C45  1  0.12990000  0.03090000  0.38550000  1.0 0.2405858913
C  C46  1  0.45370000  0.38550000  0.03090000  1.0 0.2405858913
C  C47  1  0.03090000  0.12990000  0.45370000  1.0 0.2405858913
C  C48  1  0.38550000  0.45370000  0.12990000  1.0 0.2405858913
C  C49  1  0.55130000  0.44870000  0.21570000  1.0 -0.0918524563
C  C50  1  0.55110000  0.44890000  0.15410000  1.0 -0.1097271552
C  C51  1  0.21570000  0.78430000  0.55130000  1.0 -0.0918524563
C  C52  1  0.15410000  0.84590000  0.55110000  1.0 -0.1097271552
C  C53  1  0.44870000  0.55130000  0.78430000  1.0 -0.0918524563
C  C54  1  0.44890000  0.55110000  0.84590000  1.0 -0.1097271552
C  C55  1  0.78430000  0.21570000  0.44870000  1.0 -0.0918524563
C  C56  1  0.84590000  0.15410000  0.44890000  1.0 -0.1097271552
C  C57  1  0.44870000  0.21570000  0.55130000  1.0 -0.0918524563
C  C58  1  0.44890000  0.15410000  0.55110000  1.0 -0.1097271552
C  C59  1  0.78430000  0.55130000  0.21570000  1.0 -0.0918524563
C  C60  1  0.84590000  0.55110000  0.15410000  1.0 -0.1097271552
C  C61  1  0.55130000  0.78430000  0.44870000  1.0 -0.0918524563
C  C62  1  0.55110000  0.84590000  0.44890000  1.0 -0.1097271552
C  C63  1  0.21570000  0.44870000  0.78430000  1.0 -0.0918524563
C  C64  1  0.15410000  0.44890000  0.84590000  1.0 -0.1097271552
C  C65  1  0.21570000  0.55130000  0.44870000  1.0 -0.0918524563
C  C66  1  0.15410000  0.55110000  0.44890000  1.0 -0.1097271552
C  C67  1  0.55130000  0.21570000  0.78430000  1.0 -0.0918524563
C  C68  1  0.55110000  0.15410000  0.84590000  1.0 -0.1097271552
C  C69  1  0.78430000  0.44870000  0.55130000  1.0 -0.0918524563
C  C70  1  0.84590000  0.44890000  0.55110000  1.0 -0.1097271552
C  C71  1  0.44870000  0.78430000  0.21570000  1.0 -0.0918524563
C  C72  1  0.44890000  0.84590000  0.15410000  1.0 -0.1097271552
C  C73  1  0.44870000  0.21570000  0.78430000  1.0 -0.0918524563
C  C74  1  0.44890000  0.15410000  0.84590000  1.0 -0.1097271552
C  C75  1  0.78430000  0.55130000  0.44870000  1.0 -0.0918524563
C  C76  1  0.84590000  0.55110000  0.44890000  1.0 -0.1097271552
C  C77  1  0.55130000  0.78430000  0.21570000  1.0 -0.0918524563
C  C78  1  0.55110000  0.84590000  0.15410000  1.0 -0.1097271552
C  C79  1  0.21570000  0.44870000  0.55130000  1.0 -0.0918524563
C  C80  1  0.15410000  0.44890000  0.55110000  1.0 -0.1097271552
C  C81  1  0.55130000  0.21570000  0.44870000  1.0 -0.0918524563
C  C82  1  0.55110000  0.15410000  0.44890000  1.0 -0.1097271552
C  C83  1  0.21570000  0.55130000  0.78430000  1.0 -0.0918524563
C  C84  1  0.15410000  0.55110000  0.84590000  1.0 -0.1097271552
C  C85  1  0.44870000  0.78430000  0.55130000  1.0 -0.0918524563
C  C86  1  0.44890000  0.84590000  0.55110000  1.0 -0.1097271552
C  C87  1  0.78430000  0.44870000  0.21570000  1.0 -0.0918524563
C  C88  1  0.84590000  0.44890000  0.15410000  1.0 -0.1097271552
C  C89  1  0.78430000  0.21570000  0.55130000  1.0 -0.0918524563
C  C90  1  0.84590000  0.15410000  0.55110000  1.0 -0.1097271552
C  C91  1  0.44870000  0.55130000  0.21570000  1.0 -0.0918524563
C  C92  1  0.44890000  0.55110000  0.15410000  1.0 -0.1097271552
C  C93  1  0.21570000  0.78430000  0.44870000  1.0 -0.0918524563
C  C94  1  0.15410000  0.84590000  0.44890000  1.0 -0.1097271552
C  C95  1  0.55130000  0.44870000  0.78430000  1.0 -0.0918524563
C  C96  1  0.55110000  0.44890000  0.84590000  1.0 -0.1097271552
C  C97  1  0.50000000  0.50000000  0.30890000  1.0 0.5921623244
C  C98  1  0.50000000  0.50000000  0.24360000  1.0 -0.019728898
C  C99  1  0.50000000  0.50000000  0.12400000  1.0 0.0825661839
C  C100  1  0.50000000  0.50000000  0.06080000  1.0 -0.0417395999
C  C101  1  0.30890000  0.69110000  0.50000000  1.0 0.5921623244
C  C102  1  0.24360000  0.75640000  0.50000000  1.0 -0.019728898
C  C103  1  0.12400000  0.87600000  0.50000000  1.0 0.0825661839
C  C104  1  0.06080000  0.93920000  0.50000000  1.0 -0.0454683961
C  C105  1  0.50000000  0.50000000  0.69110000  1.0 0.5921623244
C  C106  1  0.50000000  0.50000000  0.75640000  1.0 -0.019728898
C  C107  1  0.50000000  0.50000000  0.87600000  1.0 0.0825661839
C  C108  1  0.50000000  0.50000000  0.93920000  1.0 -0.0454683961
C  C109  1  0.69110000  0.30890000  0.50000000  1.0 0.5921623244
C  C110  1  0.75640000  0.24360000  0.50000000  1.0 -0.019728898
C  C111  1  0.87600000  0.12400000  0.50000000  1.0 0.0825661839
C  C112  1  0.93920000  0.06080000  0.50000000  1.0 -0.0454683961
C  C113  1  0.50000000  0.30890000  0.50000000  1.0 0.5921623244
C  C114  1  0.50000000  0.24360000  0.50000000  1.0 -0.019728898
C  C115  1  0.50000000  0.12400000  0.50000000  1.0 0.0825661839
C  C116  1  0.50000000  0.06080000  0.50000000  1.0 -0.0454683961
C  C117  1  0.69110000  0.50000000  0.30890000  1.0 0.5921623244
C  C118  1  0.75640000  0.50000000  0.24360000  1.0 -0.019728898
C  C119  1  0.87600000  0.50000000  0.12400000  1.0 0.0825661839
C  C120  1  0.93920000  0.50000000  0.06080000  1.0 -0.0454683961
C  C121  1  0.50000000  0.69110000  0.50000000  1.0 0.5921623244
C  C122  1  0.50000000  0.75640000  0.50000000  1.0 -0.019728898
C  C123  1  0.50000000  0.87600000  0.50000000  1.0 0.0825661839
C  C124  1  0.50000000  0.93920000  0.50000000  1.0 -0.0454683961
C  C125  1  0.30890000  0.50000000  0.69110000  1.0 0.5921623244
C  C126  1  0.24360000  0.50000000  0.75640000  1.0 -0.019728898
C  C127  1  0.12400000  0.50000000  0.87600000  1.0 0.0825661839
C  C128  1  0.06080000  0.50000000  0.93920000  1.0 -0.0454683961
C  C129  1  0.30890000  0.50000000  0.50000000  1.0 0.5921623244
C  C130  1  0.24360000  0.50000000  0.50000000  1.0 -0.019728898
C  C131  1  0.12400000  0.50000000  0.50000000  1.0 0.0825661839
C  C132  1  0.06080000  0.50000000  0.50000000  1.0 -0.0417395999
C  C133  1  0.50000000  0.30890000  0.69110000  1.0 0.5921623244
C  C134  1  0.50000000  0.24360000  0.75640000  1.0 -0.019728898
C  C135  1  0.50000000  0.12400000  0.87600000  1.0 0.0825661839
C  C136  1  0.50000000  0.06080000  0.93920000  1.0 -0.0454683961
C  C137  1  0.69110000  0.50000000  0.50000000  1.0 0.5921623244
C  C138  1  0.75640000  0.50000000  0.50000000  1.0 -0.019728898
C  C139  1  0.87600000  0.50000000  0.50000000  1.0 0.0825661839
C  C140  1  0.93920000  0.50000000  0.50000000  1.0 -0.0417395999
C  C141  1  0.50000000  0.69110000  0.30890000  1.0 0.5921623244
C  C142  1  0.50000000  0.75640000  0.24360000  1.0 -0.019728898
C  C143  1  0.50000000  0.87600000  0.12400000  1.0 0.0825661839
C  C144  1  0.50000000  0.93920000  0.06080000  1.0 -0.0417395999
C  C145  1  0.46480000  0.46480000  0.06660000  1.0 -0.0840763688
C  C146  1  0.06660000  0.00380000  0.46480000  1.0 -0.0840763688
C  C147  1  0.46480000  0.46480000  0.00380000  1.0 -0.0840763688
C  C148  1  0.00380000  0.06660000  0.46480000  1.0 -0.0840763688
C  C149  1  0.46480000  0.06660000  0.46480000  1.0 -0.0840763688
C  C150  1  0.00380000  0.46480000  0.06660000  1.0 -0.0840763688
C  C151  1  0.46480000  0.00380000  0.46480000  1.0 -0.0840763688
C  C152  1  0.06660000  0.46480000  0.00380000  1.0 -0.0840763688
C  C153  1  0.06660000  0.46480000  0.46480000  1.0 -0.0840763688
C  C154  1  0.46480000  0.06660000  0.00380000  1.0 -0.0840763688
C  C155  1  0.00380000  0.46480000  0.46480000  1.0 -0.0918524563
C  C156  1  0.46480000  0.00380000  0.06660000  1.0 -0.0840763688
C  C157  1  0.53520000  0.99620000  0.93340000  1.0 -0.0840763688
C  C158  1  0.93340000  0.53520000  0.53520000  1.0 -0.0840763688
C  C159  1  0.53520000  0.93340000  0.99620000  1.0 -0.0918524563
C  C160  1  0.99620000  0.53520000  0.53520000  1.0 -0.0840763688
C  C161  1  0.53520000  0.99620000  0.53520000  1.0 -0.0840763688
C  C162  1  0.99620000  0.53520000  0.93340000  1.0 -0.0840763688
C  C163  1  0.53520000  0.93340000  0.53520000  1.0 -0.0840763688
C  C164  1  0.93340000  0.53520000  0.99620000  1.0 -0.0840763688
C  C165  1  0.93340000  0.99620000  0.53520000  1.0 -0.0840763688
C  C166  1  0.53520000  0.53520000  0.99620000  1.0 -0.0840763688
C  C167  1  0.99620000  0.93340000  0.53520000  1.0 -0.0840763688
C  C168  1  0.53520000  0.53520000  0.93340000  1.0 -0.0840763688
O  O1  1  0.45820000  0.62540000  0.45820000  1.0 -0.3575115568
O  O2  1  0.46850000  0.59450000  0.46850000  1.0 -0.3498465187
O  O3  1  0.45820000  0.45820000  0.45820000  1.0 -0.3575115568
O  O4  1  0.46850000  0.46850000  0.46850000  1.0 -0.3498465187
O  O5  1  0.62540000  0.45820000  0.45820000  1.0 -0.3575115568
O  O6  1  0.59450000  0.46850000  0.46850000  1.0 -0.3498465187
O  O7  1  0.45820000  0.45820000  0.62540000  1.0 -0.3575115568
O  O8  1  0.46850000  0.46850000  0.59450000  1.0 -0.3498465187
O  O9  1  0.54180000  0.54180000  0.54180000  1.0 -0.3575115568
O  O10  1  0.53150000  0.53150000  0.53150000  1.0 -0.3498465187
O  O11  1  0.54180000  0.37460000  0.54180000  1.0 -0.3575115568
O  O12  1  0.53150000  0.40550000  0.53150000  1.0 -0.3498465187
O  O13  1  0.37460000  0.54180000  0.54180000  1.0 -0.3575115568
O  O14  1  0.40550000  0.53150000  0.53150000  1.0 -0.3498465187
O  O15  1  0.54180000  0.54180000  0.37460000  1.0 -0.3575115568
O  O16  1  0.53150000  0.53150000  0.40550000  1.0 -0.3498465187
O  O17  1  0.45058000  0.54942000  0.33268000  1.0 -0.6309203323
O  O18  1  0.33268000  0.66732000  0.45058000  1.0 -0.6309203323
O  O19  1  0.54942000  0.45058000  0.66732000  1.0 -0.6309203323
O  O20  1  0.66732000  0.33268000  0.54942000  1.0 -0.6309203323
O  O21  1  0.54942000  0.33268000  0.45058000  1.0 -0.6309203323
O  O22  1  0.66732000  0.45058000  0.33268000  1.0 -0.6309203323
O  O23  1  0.45058000  0.66732000  0.54942000  1.0 -0.6309203323
O  O24  1  0.33268000  0.54942000  0.66732000  1.0 -0.6309203323
O  O25  1  0.33268000  0.45058000  0.54942000  1.0 -0.6309203323
O  O26  1  0.45058000  0.33268000  0.66732000  1.0 -0.6309203323
O  O27  1  0.66732000  0.54942000  0.45058000  1.0 -0.6309203323
O  O28  1  0.54942000  0.66732000  0.33268000  1.0 -0.6309203323
O  O29  1  0.54942000  0.33268000  0.66732000  1.0 -0.6309203323
O  O30  1  0.66732000  0.45058000  0.54942000  1.0 -0.6309203323
O  O31  1  0.45058000  0.66732000  0.33268000  1.0 -0.6309203323
O  O32  1  0.33268000  0.54942000  0.45058000  1.0 -0.6309203323
O  O33  1  0.45058000  0.33268000  0.54942000  1.0 -0.6309203323
O  O34  1  0.33268000  0.45058000  0.66732000  1.0 -0.6309203323
O  O35  1  0.54942000  0.66732000  0.45058000  1.0 -0.6309203323
O  O36  1  0.66732000  0.54942000  0.33268000  1.0 -0.6309203323
O  O37  1  0.66732000  0.33268000  0.45058000  1.0 -0.6309203323
O  O38  1  0.54942000  0.45058000  0.33268000  1.0 -0.6309203323
O  O39  1  0.33268000  0.66732000  0.54942000  1.0 -0.6309203323
O  O40  1  0.45058000  0.54942000  0.66732000  1.0 -0.6309203323
F  F1  1  0.52250000  0.33490000  0.13730000  1.0 -0.2530317143
F  F2  1  0.13730000  0.00530000  0.52250000  1.0 -0.2530317143
F  F3  1  0.33490000  0.52250000  0.00530000  1.0 -0.2530317143
F  F4  1  0.00530000  0.13730000  0.33490000  1.0 -0.2530317143
F  F5  1  0.33490000  0.13730000  0.52250000  1.0 -0.2530317143
F  F6  1  0.00530000  0.52250000  0.13730000  1.0 -0.2530317143
F  F7  1  0.52250000  0.00530000  0.33490000  1.0 -0.2530317143
F  F8  1  0.13730000  0.33490000  0.00530000  1.0 -0.2530317143
F  F9  1  0.13730000  0.52250000  0.33490000  1.0 -0.2530317143
F  F10  1  0.52250000  0.13730000  0.00530000  1.0 -0.2530317143
F  F11  1  0.00530000  0.33490000  0.52250000  1.0 -0.2530317143
F  F12  1  0.33490000  0.00530000  0.13730000  1.0 -0.2530317143
F  F13  1  0.47750000  0.99470000  0.86270000  1.0 -0.2530317143
F  F14  1  0.86270000  0.66510000  0.47750000  1.0 -0.2530317143
F  F15  1  0.66510000  0.86270000  0.99470000  1.0 -0.2530317143
F  F16  1  0.99470000  0.47750000  0.66510000  1.0 -0.2530317143
F  F17  1  0.66510000  0.99470000  0.47750000  1.0 -0.2530317143
F  F18  1  0.99470000  0.66510000  0.86270000  1.0 -0.2530317143
F  F19  1  0.47750000  0.86270000  0.66510000  1.0 -0.2530317143
F  F20  1  0.86270000  0.47750000  0.99470000  1.0 -0.2530317143
F  F21  1  0.86270000  0.99470000  0.66510000  1.0 -0.2530317143
F  F22  1  0.47750000  0.66510000  0.99470000  1.0 -0.2530317143
F  F23  1  0.99470000  0.86270000  0.47750000  1.0 -0.2530317143
F  F24  1  0.66510000  0.47750000  0.86270000  1.0 -0.2530317143
F  F25  1  0.47750000  0.66510000  0.86270000  1.0 -0.2530317143
F  F26  1  0.86270000  0.99470000  0.47750000  1.0 -0.2530317143
F  F27  1  0.66510000  0.47750000  0.99470000  1.0 -0.2530317143
F  F28  1  0.99470000  0.86270000  0.66510000  1.0 -0.2530317143
F  F29  1  0.66510000  0.86270000  0.47750000  1.0 -0.2530317143
F  F30  1  0.99470000  0.47750000  0.86270000  1.0 -0.2530317143
F  F31  1  0.47750000  0.99470000  0.66510000  1.0 -0.2530317143
F  F32  1  0.86270000  0.66510000  0.99470000  1.0 -0.2530317143
F  F33  1  0.86270000  0.47750000  0.66510000  1.0 -0.2530317143
F  F34  1  0.47750000  0.86270000  0.99470000  1.0 -0.2530317143
F  F35  1  0.99470000  0.66510000  0.47750000  1.0 -0.2530317143
F  F36  1  0.66510000  0.99470000  0.86270000  1.0 -0.2530317143
F  F37  1  0.52250000  0.00530000  0.13730000  1.0 -0.2530317143
F  F38  1  0.13730000  0.33490000  0.52250000  1.0 -0.2530317143
F  F39  1  0.33490000  0.13730000  0.00530000  1.0 -0.2530317143
F  F40  1  0.00530000  0.52250000  0.33490000  1.0 -0.2530317143
F  F41  1  0.33490000  0.00530000  0.52250000  1.0 -0.2530317143
F  F42  1  0.00530000  0.33490000  0.13730000  1.0 -0.2530317143
F  F43  1  0.52250000  0.13730000  0.33490000  1.0 -0.2530317143
F  F44  1  0.13730000  0.52250000  0.00530000  1.0 -0.2530317143
F  F45  1  0.13730000  0.00530000  0.33490000  1.0 -0.2530317143
F  F46  1  0.52250000  0.33490000  0.00530000  1.0 -0.2530317143
F  F47  1  0.00530000  0.13730000  0.52250000  1.0 -0.2530317143
F  F48  1  0.33490000  0.52250000  0.13730000  1.0 -0.2530317143
F  F49  1  0.40260000  0.40260000  0.19460000  1.0 -0.1315473987
F  F50  1  0.19460000  0.00020000  0.40260000  1.0 -0.1315473987
F  F51  1  0.40260000  0.40260000  0.00020000  1.0 -0.1315473987
F  F52  1  0.00020000  0.19460000  0.40260000  1.0 -0.1315473987
F  F53  1  0.40260000  0.19460000  0.40260000  1.0 -0.1315473987
F  F54  1  0.00020000  0.40260000  0.19460000  1.0 -0.1315473987
F  F55  1  0.40260000  0.00020000  0.40260000  1.0 -0.1315473987
F  F56  1  0.19460000  0.40260000  0.00020000  1.0 -0.1315473987
F  F57  1  0.19460000  0.40260000  0.40260000  1.0 -0.1315473987
F  F58  1  0.40260000  0.19460000  0.00020000  1.0 -0.1315473987
F  F59  1  0.00020000  0.40260000  0.40260000  1.0 -0.1315473987
F  F60  1  0.40260000  0.00020000  0.19460000  1.0 -0.1315473987
F  F61  1  0.59740000  0.99980000  0.80540000  1.0 -0.1315473987
F  F62  1  0.80540000  0.59740000  0.59740000  1.0 -0.1315473987
F  F63  1  0.59740000  0.80540000  0.99980000  1.0 -0.1315473987
F  F64  1  0.99980000  0.59740000  0.59740000  1.0 -0.1315473987
F  F65  1  0.59740000  0.99980000  0.59740000  1.0 -0.1315473987
F  F66  1  0.99980000  0.59740000  0.80540000  1.0 -0.1315473987
F  F67  1  0.59740000  0.80540000  0.59740000  1.0 -0.1315473987
F  F68  1  0.80540000  0.59740000  0.99980000  1.0 -0.1315473987
F  F69  1  0.80540000  0.99980000  0.59740000  1.0 -0.1315473987
F  F70  1  0.59740000  0.59740000  0.99980000  1.0 -0.1315473987
F  F71  1  0.99980000  0.80540000  0.59740000  1.0 -0.1315473987
F  F72  1  0.59740000  0.59740000  0.80540000  1.0 -0.1315473987
F  F73  1  0.42380000  0.35940000  0.10840000  1.0 -0.019728898
F  F74  1  0.10840000  0.10840000  0.42380000  1.0 -0.019728898
F  F75  1  0.35940000  0.42380000  0.10840000  1.0 -0.019728898
F  F76  1  0.10840000  0.10840000  0.35940000  1.0 -0.019728898
F  F77  1  0.35940000  0.10840000  0.42380000  1.0 -0.019728898
F  F78  1  0.10840000  0.42380000  0.10840000  1.0 -0.019728898
F  F79  1  0.42380000  0.10840000  0.35940000  1.0 -0.019728898
F  F80  1  0.10840000  0.35940000  0.10840000  1.0 -0.019728898
F  F81  1  0.10840000  0.42380000  0.35940000  1.0 -0.019728898
F  F82  1  0.42380000  0.10840000  0.10840000  1.0 -0.019728898
F  F83  1  0.10840000  0.35940000  0.42380000  1.0 -0.019728898
F  F84  1  0.35940000  0.10840000  0.10840000  1.0 -0.019728898
F  F85  1  0.57620000  0.89160000  0.89160000  1.0 -0.0256350517
F  F86  1  0.89160000  0.64060000  0.57620000  1.0 -0.019728898
F  F87  1  0.64060000  0.89160000  0.89160000  1.0 -0.0256350517
F  F88  1  0.89160000  0.57620000  0.64060000  1.0 -0.019728898
F  F89  1  0.64060000  0.89160000  0.57620000  1.0 -0.019728898
F  F90  1  0.89160000  0.64060000  0.89160000  1.0 -0.0256350517
F  F91  1  0.57620000  0.89160000  0.64060000  1.0 -0.0256350517
F  F92  1  0.89160000  0.57620000  0.89160000  1.0 -0.0256350517
F  F93  1  0.89160000  0.89160000  0.64060000  1.0 -0.019728898
F  F94  1  0.57620000  0.64060000  0.89160000  1.0 -0.019728898
F  F95  1  0.89160000  0.89160000  0.57620000  1.0 -0.0256350517
F  F96  1  0.64060000  0.57620000  0.89160000  1.0 -0.0256350517
