# DDEC6 charges by PACMAN v1.1 (https://github.com/mtap-research/PACMAN-charge/)
data_LUJRAM_FSR_pacman
_symmetry_space_group_name_H-M   'P 1'
_cell_length_a   23.18060000
_cell_length_b   23.18060000
_cell_length_c   23.18060000
_cell_angle_alpha   60.00000000
_cell_angle_beta   60.00000000
_cell_angle_gamma   60.00000000
_symmetry_Int_Tables_number   1
_chemical_formula_structural   Zr3H28C72(O5F9)4
_chemical_formula_sum   'Zr6 H56 C144 O40 F72'
_cell_volume   8807.62916631
_cell_formula_units_Z   2
loop_
 _symmetry_equiv_pos_site_id
 _symmetry_equiv_pos_as_xyz
  1  'x, y, z'
loop_
 _atom_site_type_symbol
 _atom_site_label
 _atom_site_symmetry_multiplicity
 _atom_site_fract_x
 _atom_site_fract_y
 _atom_site_fract_z
 _atom_site_occupancy
 _atom_site_charge
Zr  Zr1  1  0.42479000  0.57521000  0.57521000  1.0 1.7114890746
Zr  Zr2  1  0.57521000  0.42479000  0.42479000  1.0 1.7114890746
Zr  Zr3  1  0.57521000  0.57521000  0.42479000  1.0 1.7114890746
Zr  Zr4  1  0.42479000  0.42479000  0.57521000  1.0 1.7114890746
Zr  Zr5  1  0.57521000  0.42479000  0.57521000  1.0 1.7114890746
Zr  Zr6  1  0.42479000  0.57521000  0.42479000  1.0 1.7114890746
H  H1  1  0.32900000  0.55700000  0.55700000  1.0 0.2072446676
H  H2  1  0.55700000  0.55700000  0.32900000  1.0 0.203144021
H  H3  1  0.55700000  0.32900000  0.55700000  1.0 0.203144021
H  H4  1  0.55700000  0.55700000  0.55700000  1.0 0.203144021
H  H5  1  0.67100000  0.44300000  0.44300000  1.0 0.2072446676
H  H6  1  0.44300000  0.44300000  0.67100000  1.0 0.203144021
H  H7  1  0.44300000  0.44300000  0.44300000  1.0 0.2072446676
H  H8  1  0.44300000  0.67100000  0.44300000  1.0 0.203144021
H  H9  1  0.41355000  0.58645000  0.76425000  1.0 0.1208640194
H  H10  1  0.41343000  0.58657000  0.86555000  1.0 0.1208640194
H  H11  1  0.76425000  0.23575000  0.41355000  1.0 0.1208640194
H  H12  1  0.86555000  0.13445000  0.41343000  1.0 0.1208640194
H  H13  1  0.58645000  0.41355000  0.23575000  1.0 0.1208640194
H  H14  1  0.58657000  0.41343000  0.13445000  1.0 0.1208640194
H  H15  1  0.23575000  0.76425000  0.58645000  1.0 0.1208640194
H  H16  1  0.13445000  0.86555000  0.58657000  1.0 0.1208640194
H  H17  1  0.58645000  0.76425000  0.41355000  1.0 0.1208640194
H  H18  1  0.58657000  0.86555000  0.41343000  1.0 0.1208640194
H  H19  1  0.23575000  0.41355000  0.76425000  1.0 0.1208640194
H  H20  1  0.13445000  0.41343000  0.86555000  1.0 0.1208640194
H  H21  1  0.41355000  0.23575000  0.58645000  1.0 0.1208640194
H  H22  1  0.41343000  0.13445000  0.58657000  1.0 0.1208640194
H  H23  1  0.76425000  0.58645000  0.23575000  1.0 0.1208640194
H  H24  1  0.86555000  0.58657000  0.13445000  1.0 0.1208640194
H  H25  1  0.76425000  0.41355000  0.58645000  1.0 0.1208640194
H  H26  1  0.86555000  0.41343000  0.58657000  1.0 0.1208640194
H  H27  1  0.41355000  0.76425000  0.23575000  1.0 0.1208640194
H  H28  1  0.41343000  0.86555000  0.13445000  1.0 0.1208640194
H  H29  1  0.23575000  0.58645000  0.41355000  1.0 0.1208640194
H  H30  1  0.13445000  0.58657000  0.41343000  1.0 0.1208640194
H  H31  1  0.58645000  0.23575000  0.76425000  1.0 0.1208640194
H  H32  1  0.58657000  0.13445000  0.86555000  1.0 0.1208640194
H  H33  1  0.58645000  0.76425000  0.23575000  1.0 0.1208640194
H  H34  1  0.58657000  0.86555000  0.13445000  1.0 0.1208640194
H  H35  1  0.23575000  0.41355000  0.58645000  1.0 0.1208640194
H  H36  1  0.13445000  0.41343000  0.58657000  1.0 0.1208640194
H  H37  1  0.41355000  0.23575000  0.76425000  1.0 0.1208640194
H  H38  1  0.41343000  0.13445000  0.86555000  1.0 0.1208640194
H  H39  1  0.76425000  0.58645000  0.41355000  1.0 0.1208640194
H  H40  1  0.86555000  0.58657000  0.41343000  1.0 0.1208640194
H  H41  1  0.41355000  0.76425000  0.58645000  1.0 0.1208640194
H  H42  1  0.41343000  0.86555000  0.58657000  1.0 0.1208640194
H  H43  1  0.76425000  0.41355000  0.23575000  1.0 0.1208640194
H  H44  1  0.86555000  0.41343000  0.13445000  1.0 0.1208640194
H  H45  1  0.58645000  0.23575000  0.41355000  1.0 0.1208640194
H  H46  1  0.58657000  0.13445000  0.41343000  1.0 0.1208640194
H  H47  1  0.23575000  0.58645000  0.76425000  1.0 0.1208640194
H  H48  1  0.13445000  0.58657000  0.86555000  1.0 0.1208640194
H  H49  1  0.23575000  0.76425000  0.41355000  1.0 0.1208640194
H  H50  1  0.13445000  0.86555000  0.41343000  1.0 0.1208640194
H  H51  1  0.58645000  0.41355000  0.76425000  1.0 0.1208640194
H  H52  1  0.58657000  0.41343000  0.86555000  1.0 0.1208640194
H  H53  1  0.76425000  0.23575000  0.58645000  1.0 0.1208640194
H  H54  1  0.86555000  0.13445000  0.58657000  1.0 0.1208640194
H  H55  1  0.41355000  0.58645000  0.23575000  1.0 0.1208640194
H  H56  1  0.41343000  0.58657000  0.13445000  1.0 0.1208640194
C  C1  1  0.44243000  0.49957000  0.99861000  1.0 0.0626410891
C  C2  1  0.99861000  0.05939000  0.44243000  1.0 0.0692696553
C  C3  1  0.49957000  0.44243000  0.05939000  1.0 0.0626410891
C  C4  1  0.05939000  0.99861000  0.49957000  1.0 0.0692696553
C  C5  1  0.49957000  0.99861000  0.44243000  1.0 0.0626410891
C  C6  1  0.05939000  0.44243000  0.99861000  1.0 0.0626410891
C  C7  1  0.44243000  0.05939000  0.49957000  1.0 0.0626410891
C  C8  1  0.99861000  0.49957000  0.05939000  1.0 0.0626410891
C  C9  1  0.99861000  0.44243000  0.49957000  1.0 0.0692696553
C  C10  1  0.44243000  0.99861000  0.05939000  1.0 0.0692696553
C  C11  1  0.05939000  0.49957000  0.44243000  1.0 0.0692696553
C  C12  1  0.49957000  0.05939000  0.99861000  1.0 0.0626410891
C  C13  1  0.55757000  0.94061000  0.00139000  1.0 0.0692696553
C  C14  1  0.00139000  0.50043000  0.55757000  1.0 0.0626410891
C  C15  1  0.50043000  0.00139000  0.94061000  1.0 0.0692696553
C  C16  1  0.94061000  0.55757000  0.50043000  1.0 0.0692696553
C  C17  1  0.50043000  0.94061000  0.55757000  1.0 0.0692696553
C  C18  1  0.94061000  0.50043000  0.00139000  1.0 0.0626410891
C  C19  1  0.55757000  0.00139000  0.50043000  1.0 0.0626410891
C  C20  1  0.00139000  0.55757000  0.94061000  1.0 0.0626410891
C  C21  1  0.00139000  0.94061000  0.50043000  1.0 0.0626410891
C  C22  1  0.55757000  0.50043000  0.94061000  1.0 0.0626410891
C  C23  1  0.94061000  0.00139000  0.55757000  1.0 0.0626410891
C  C24  1  0.50043000  0.55757000  0.00139000  1.0 0.0626410891
C  C25  1  0.55757000  0.50043000  0.00139000  1.0 0.0626410891
C  C26  1  0.00139000  0.94061000  0.55757000  1.0 0.0692696553
C  C27  1  0.50043000  0.55757000  0.94061000  1.0 0.0626410891
C  C28  1  0.94061000  0.00139000  0.50043000  1.0 0.0626410891
C  C29  1  0.50043000  0.00139000  0.55757000  1.0 0.0626410891
C  C30  1  0.94061000  0.55757000  0.00139000  1.0 0.0626410891
C  C31  1  0.55757000  0.94061000  0.50043000  1.0 0.0626410891
C  C32  1  0.00139000  0.50043000  0.94061000  1.0 0.0626410891
C  C33  1  0.00139000  0.55757000  0.50043000  1.0 0.0692696553
C  C34  1  0.55757000  0.00139000  0.94061000  1.0 0.0626410891
C  C35  1  0.94061000  0.50043000  0.55757000  1.0 0.0692696553
C  C36  1  0.50043000  0.94061000  0.00139000  1.0 0.0692696553
C  C37  1  0.44243000  0.05939000  0.99861000  1.0 0.0692696553
C  C38  1  0.99861000  0.49957000  0.44243000  1.0 0.0692696553
C  C39  1  0.49957000  0.99861000  0.05939000  1.0 0.0626410891
C  C40  1  0.05939000  0.44243000  0.49957000  1.0 0.0626410891
C  C41  1  0.49957000  0.05939000  0.44243000  1.0 0.0626410891
C  C42  1  0.05939000  0.49957000  0.99861000  1.0 0.0626410891
C  C43  1  0.44243000  0.99861000  0.49957000  1.0 0.0626410891
C  C44  1  0.99861000  0.44243000  0.05939000  1.0 0.0626410891
C  C45  1  0.99861000  0.05939000  0.49957000  1.0 0.0692696553
C  C46  1  0.44243000  0.49957000  0.05939000  1.0 0.0626410891
C  C47  1  0.05939000  0.99861000  0.44243000  1.0 0.0692696553
C  C48  1  0.49957000  0.44243000  0.99861000  1.0 0.0626410891
C  C49  1  0.44899000  0.55101000  0.78485000  1.0 -0.112154515
C  C50  1  0.44892000  0.55108000  0.84504000  1.0 -0.1161414477
C  C51  1  0.78485000  0.21515000  0.44899000  1.0 -0.112154515
C  C52  1  0.84504000  0.15496000  0.44892000  1.0 -0.1161414477
C  C53  1  0.55101000  0.44899000  0.21515000  1.0 -0.112154515
C  C54  1  0.55108000  0.44892000  0.15496000  1.0 -0.1161414477
C  C55  1  0.21515000  0.78485000  0.55101000  1.0 -0.112154515
C  C56  1  0.15496000  0.84504000  0.55108000  1.0 -0.1161414477
C  C57  1  0.55101000  0.78485000  0.44899000  1.0 -0.112154515
C  C58  1  0.55108000  0.84504000  0.44892000  1.0 -0.1161414477
C  C59  1  0.21515000  0.44899000  0.78485000  1.0 -0.112154515
C  C60  1  0.15496000  0.44892000  0.84504000  1.0 -0.1161414477
C  C61  1  0.44899000  0.21515000  0.55101000  1.0 -0.112154515
C  C62  1  0.44892000  0.15496000  0.55108000  1.0 -0.1161414477
C  C63  1  0.78485000  0.55101000  0.21515000  1.0 -0.112154515
C  C64  1  0.84504000  0.55108000  0.15496000  1.0 -0.1161414477
C  C65  1  0.78485000  0.44899000  0.55101000  1.0 -0.112154515
C  C66  1  0.84504000  0.44892000  0.55108000  1.0 -0.112154515
C  C67  1  0.44899000  0.78485000  0.21515000  1.0 -0.112154515
C  C68  1  0.44892000  0.84504000  0.15496000  1.0 -0.1161414477
C  C69  1  0.21515000  0.55101000  0.44899000  1.0 -0.112154515
C  C70  1  0.15496000  0.55108000  0.44892000  1.0 -0.1161414477
C  C71  1  0.55101000  0.21515000  0.78485000  1.0 -0.112154515
C  C72  1  0.55108000  0.15496000  0.84504000  1.0 -0.1161414477
C  C73  1  0.55101000  0.78485000  0.21515000  1.0 -0.112154515
C  C74  1  0.55108000  0.84504000  0.15496000  1.0 -0.1161414477
C  C75  1  0.21515000  0.44899000  0.55101000  1.0 -0.112154515
C  C76  1  0.15496000  0.44892000  0.55108000  1.0 -0.1161414477
C  C77  1  0.44899000  0.21515000  0.78485000  1.0 -0.112154515
C  C78  1  0.44892000  0.15496000  0.84504000  1.0 -0.1161414477
C  C79  1  0.78485000  0.55101000  0.44899000  1.0 -0.112154515
C  C80  1  0.84504000  0.55108000  0.44892000  1.0 -0.112154515
C  C81  1  0.44899000  0.78485000  0.55101000  1.0 -0.112154515
C  C82  1  0.44892000  0.84504000  0.55108000  1.0 -0.1161414477
C  C83  1  0.78485000  0.44899000  0.21515000  1.0 -0.112154515
C  C84  1  0.84504000  0.44892000  0.15496000  1.0 -0.1161414477
C  C85  1  0.55101000  0.21515000  0.44899000  1.0 -0.112154515
C  C86  1  0.55108000  0.15496000  0.44892000  1.0 -0.1161414477
C  C87  1  0.21515000  0.55101000  0.78485000  1.0 -0.112154515
C  C88  1  0.15496000  0.55108000  0.84504000  1.0 -0.1161414477
C  C89  1  0.21515000  0.78485000  0.44899000  1.0 -0.112154515
C  C90  1  0.15496000  0.84504000  0.44892000  1.0 -0.1161414477
C  C91  1  0.55101000  0.44899000  0.78485000  1.0 -0.112154515
C  C92  1  0.55108000  0.44892000  0.84504000  1.0 -0.1161414477
C  C93  1  0.78485000  0.21515000  0.55101000  1.0 -0.112154515
C  C94  1  0.84504000  0.15496000  0.55108000  1.0 -0.1161414477
C  C95  1  0.44899000  0.55101000  0.21515000  1.0 -0.112154515
C  C96  1  0.44892000  0.55108000  0.15496000  1.0 -0.1161414477
C  C97  1  0.50000000  0.50000000  0.69094000  1.0 0.1926473597
C  C98  1  0.50000000  0.50000000  0.75572000  1.0 -0.0907573345
C  C99  1  0.50000000  0.50000000  0.87442000  1.0 0.0692696553
C  C100  1  0.50000000  0.50000000  0.93904000  1.0 -0.0785534996
C  C101  1  0.69094000  0.30906000  0.50000000  1.0 0.1926473597
C  C102  1  0.75572000  0.24428000  0.50000000  1.0 -0.0907573345
C  C103  1  0.87442000  0.12558000  0.50000000  1.0 0.0692696553
C  C104  1  0.93904000  0.06096000  0.50000000  1.0 -0.0743127856
C  C105  1  0.50000000  0.50000000  0.30906000  1.0 0.1926473597
C  C106  1  0.50000000  0.50000000  0.24428000  1.0 -0.0907573345
C  C107  1  0.50000000  0.50000000  0.12558000  1.0 0.0692696553
C  C108  1  0.50000000  0.50000000  0.06096000  1.0 -0.0743127856
C  C109  1  0.30906000  0.69094000  0.50000000  1.0 0.1926473597
C  C110  1  0.24428000  0.75572000  0.50000000  1.0 -0.0907573345
C  C111  1  0.12558000  0.87442000  0.50000000  1.0 0.0692696553
C  C112  1  0.06096000  0.93904000  0.50000000  1.0 -0.0743127856
C  C113  1  0.50000000  0.69094000  0.50000000  1.0 0.1926473597
C  C114  1  0.50000000  0.75572000  0.50000000  1.0 -0.0907573345
C  C115  1  0.50000000  0.87442000  0.50000000  1.0 0.0692696553
C  C116  1  0.50000000  0.93904000  0.50000000  1.0 -0.0743127856
C  C117  1  0.30906000  0.50000000  0.69094000  1.0 0.1926473597
C  C118  1  0.24428000  0.50000000  0.75572000  1.0 -0.0907573345
C  C119  1  0.12558000  0.50000000  0.87442000  1.0 0.0692696553
C  C120  1  0.06096000  0.50000000  0.93904000  1.0 -0.0743127856
C  C121  1  0.50000000  0.30906000  0.50000000  1.0 0.1926473597
C  C122  1  0.50000000  0.24428000  0.50000000  1.0 -0.0907573345
C  C123  1  0.50000000  0.12558000  0.50000000  1.0 0.0692696553
C  C124  1  0.50000000  0.06096000  0.50000000  1.0 -0.0785534996
C  C125  1  0.69094000  0.50000000  0.30906000  1.0 0.1926473597
C  C126  1  0.75572000  0.50000000  0.24428000  1.0 -0.0907573345
C  C127  1  0.87442000  0.50000000  0.12558000  1.0 0.0692696553
C  C128  1  0.93904000  0.50000000  0.06096000  1.0 -0.0785534996
C  C129  1  0.69094000  0.50000000  0.50000000  1.0 0.1926473597
C  C130  1  0.75572000  0.50000000  0.50000000  1.0 -0.0907573345
C  C131  1  0.87442000  0.50000000  0.50000000  1.0 0.0692696553
C  C132  1  0.93904000  0.50000000  0.50000000  1.0 -0.0785534996
C  C133  1  0.50000000  0.69094000  0.30906000  1.0 0.1926473597
C  C134  1  0.50000000  0.75572000  0.24428000  1.0 -0.0907573345
C  C135  1  0.50000000  0.87442000  0.12558000  1.0 0.0692696553
C  C136  1  0.50000000  0.93904000  0.06096000  1.0 -0.0743127856
C  C137  1  0.30906000  0.50000000  0.50000000  1.0 0.1926473597
C  C138  1  0.24428000  0.50000000  0.50000000  1.0 -0.0907573345
C  C139  1  0.12558000  0.50000000  0.50000000  1.0 0.0692696553
C  C140  1  0.06096000  0.50000000  0.50000000  1.0 -0.0785534996
C  C141  1  0.50000000  0.30906000  0.69094000  1.0 0.1926473597
C  C142  1  0.50000000  0.24428000  0.75572000  1.0 -0.0907573345
C  C143  1  0.50000000  0.12558000  0.87442000  1.0 0.0692696553
C  C144  1  0.50000000  0.06096000  0.93904000  1.0 -0.0785534996
O  O1  1  0.37340000  0.54220000  0.54220000  1.0 -0.3935603555
O  O2  1  0.40493000  0.53169000  0.53169000  1.0 -0.367776541
O  O3  1  0.54220000  0.54220000  0.37340000  1.0 -0.3935603555
O  O4  1  0.53169000  0.53169000  0.40493000  1.0 -0.367776541
O  O5  1  0.54220000  0.37340000  0.54220000  1.0 -0.3935603555
O  O6  1  0.53169000  0.40493000  0.53169000  1.0 -0.367776541
O  O7  1  0.54220000  0.54220000  0.54220000  1.0 -0.3935603555
O  O8  1  0.53169000  0.53169000  0.53169000  1.0 -0.367776541
O  O9  1  0.62660000  0.45780000  0.45780000  1.0 -0.3935603555
O  O10  1  0.59507000  0.46831000  0.46831000  1.0 -0.367776541
O  O11  1  0.45780000  0.45780000  0.62660000  1.0 -0.3935603555
O  O12  1  0.46831000  0.46831000  0.59507000  1.0 -0.367776541
O  O13  1  0.45780000  0.45780000  0.45780000  1.0 -0.3935603555
O  O14  1  0.46831000  0.46831000  0.46831000  1.0 -0.367776541
O  O15  1  0.45780000  0.62660000  0.45780000  1.0 -0.3935603555
O  O16  1  0.46831000  0.59507000  0.46831000  1.0 -0.367776541
O  O17  1  0.45146000  0.54854000  0.66692000  1.0 -0.2525207837
O  O18  1  0.66692000  0.33308000  0.45146000  1.0 -0.2525207837
O  O19  1  0.54854000  0.45146000  0.33308000  1.0 -0.2525207837
O  O20  1  0.33308000  0.66692000  0.54854000  1.0 -0.2525207837
O  O21  1  0.54854000  0.66692000  0.45146000  1.0 -0.2525207837
O  O22  1  0.33308000  0.45146000  0.66692000  1.0 -0.2525207837
O  O23  1  0.45146000  0.33308000  0.54854000  1.0 -0.2525207837
O  O24  1  0.66692000  0.54854000  0.33308000  1.0 -0.2525207837
O  O25  1  0.66692000  0.45146000  0.54854000  1.0 -0.2525207837
O  O26  1  0.45146000  0.66692000  0.33308000  1.0 -0.2552950549
O  O27  1  0.33308000  0.54854000  0.45146000  1.0 -0.2552950549
O  O28  1  0.54854000  0.33308000  0.66692000  1.0 -0.2525207837
O  O29  1  0.54854000  0.66692000  0.33308000  1.0 -0.2552950549
O  O30  1  0.33308000  0.45146000  0.54854000  1.0 -0.2525207837
O  O31  1  0.45146000  0.33308000  0.66692000  1.0 -0.2525207837
O  O32  1  0.66692000  0.54854000  0.45146000  1.0 -0.2525207837
O  O33  1  0.45146000  0.66692000  0.54854000  1.0 -0.2525207837
O  O34  1  0.66692000  0.45146000  0.33308000  1.0 -0.2525207837
O  O35  1  0.54854000  0.33308000  0.45146000  1.0 -0.2525207837
O  O36  1  0.33308000  0.54854000  0.66692000  1.0 -0.2525207837
O  O37  1  0.33308000  0.66692000  0.45146000  1.0 -0.2525207837
O  O38  1  0.54854000  0.45146000  0.66692000  1.0 -0.2525207837
O  O39  1  0.66692000  0.33308000  0.54854000  1.0 -0.2525207837
O  O40  1  0.45146000  0.54854000  0.33308000  1.0 -0.2525207837
F  F1  1  0.38486000  0.49554000  0.00284000  1.0 -0.112154515
F  F2  1  0.00284000  0.11676000  0.38486000  1.0 -0.1161414477
F  F3  1  0.49554000  0.38486000  0.11676000  1.0 -0.112154515
F  F4  1  0.11676000  0.00284000  0.49554000  1.0 -0.112154515
F  F5  1  0.49554000  0.00284000  0.38486000  1.0 -0.112154515
F  F6  1  0.11676000  0.38486000  0.00284000  1.0 -0.112154515
F  F7  1  0.38486000  0.11676000  0.49554000  1.0 -0.112154515
F  F8  1  0.00284000  0.49554000  0.11676000  1.0 -0.112154515
F  F9  1  0.00284000  0.38486000  0.49554000  1.0 -0.112154515
F  F10  1  0.38486000  0.00284000  0.11676000  1.0 -0.112154515
F  F11  1  0.11676000  0.49554000  0.38486000  1.0 -0.112154515
F  F12  1  0.49554000  0.11676000  0.00284000  1.0 -0.112154515
F  F13  1  0.61514000  0.88324000  0.99716000  1.0 -0.112154515
F  F14  1  0.99716000  0.50446000  0.61514000  1.0 -0.112154515
F  F15  1  0.50446000  0.99716000  0.88324000  1.0 -0.1161414477
F  F16  1  0.88324000  0.61514000  0.50446000  1.0 -0.112154515
F  F17  1  0.50446000  0.88324000  0.61514000  1.0 -0.112154515
F  F18  1  0.88324000  0.50446000  0.99716000  1.0 -0.112154515
F  F19  1  0.61514000  0.99716000  0.50446000  1.0 -0.112154515
F  F20  1  0.99716000  0.61514000  0.88324000  1.0 -0.112154515
F  F21  1  0.99716000  0.88324000  0.50446000  1.0 -0.112154515
F  F22  1  0.61514000  0.50446000  0.88324000  1.0 -0.112154515
F  F23  1  0.88324000  0.99716000  0.61514000  1.0 -0.112154515
F  F24  1  0.50446000  0.61514000  0.99716000  1.0 -0.112154515
F  F25  1  0.61514000  0.50446000  0.99716000  1.0 -0.112154515
F  F26  1  0.99716000  0.88324000  0.61514000  1.0 -0.112154515
F  F27  1  0.50446000  0.61514000  0.88324000  1.0 -0.112154515
F  F28  1  0.88324000  0.99716000  0.50446000  1.0 -0.112154515
F  F29  1  0.50446000  0.99716000  0.61514000  1.0 -0.112154515
F  F30  1  0.88324000  0.61514000  0.99716000  1.0 -0.112154515
F  F31  1  0.61514000  0.88324000  0.50446000  1.0 -0.112154515
F  F32  1  0.99716000  0.50446000  0.88324000  1.0 -0.112154515
F  F33  1  0.99716000  0.61514000  0.50446000  1.0 -0.1161414477
F  F34  1  0.61514000  0.99716000  0.88324000  1.0 -0.112154515
F  F35  1  0.88324000  0.50446000  0.61514000  1.0 -0.112154515
F  F36  1  0.50446000  0.88324000  0.99716000  1.0 -0.112154515
F  F37  1  0.38486000  0.11676000  0.00284000  1.0 -0.1161414477
F  F38  1  0.00284000  0.49554000  0.38486000  1.0 -0.1161414477
F  F39  1  0.49554000  0.00284000  0.11676000  1.0 -0.112154515
F  F40  1  0.11676000  0.38486000  0.49554000  1.0 -0.112154515
F  F41  1  0.49554000  0.11676000  0.38486000  1.0 -0.112154515
F  F42  1  0.11676000  0.49554000  0.00284000  1.0 -0.112154515
F  F43  1  0.38486000  0.00284000  0.49554000  1.0 -0.112154515
F  F44  1  0.00284000  0.38486000  0.11676000  1.0 -0.112154515
F  F45  1  0.00284000  0.11676000  0.49554000  1.0 -0.1161414477
F  F46  1  0.38486000  0.49554000  0.11676000  1.0 -0.112154515
F  F47  1  0.11676000  0.00284000  0.38486000  1.0 -0.112154515
F  F48  1  0.49554000  0.38486000  0.00284000  1.0 -0.112154515
F  F49  1  0.42980000  0.57020000  0.67500000  1.0 0.0442890109
F  F50  1  0.67500000  0.32500000  0.42980000  1.0 0.0461240517
F  F51  1  0.57020000  0.42980000  0.32500000  1.0 0.0442890109
F  F52  1  0.32500000  0.67500000  0.57020000  1.0 0.0442890109
F  F53  1  0.57020000  0.67500000  0.42980000  1.0 0.0442890109
F  F54  1  0.32500000  0.42980000  0.67500000  1.0 0.0442890109
F  F55  1  0.42980000  0.32500000  0.57020000  1.0 0.0442890109
F  F56  1  0.67500000  0.57020000  0.32500000  1.0 0.0461240517
F  F57  1  0.67500000  0.42980000  0.57020000  1.0 0.0461240517
F  F58  1  0.42980000  0.67500000  0.32500000  1.0 0.0442890109
F  F59  1  0.32500000  0.57020000  0.42980000  1.0 0.0442890109
F  F60  1  0.57020000  0.32500000  0.67500000  1.0 0.0442890109
F  F61  1  0.57020000  0.67500000  0.32500000  1.0 0.0442890109
F  F62  1  0.32500000  0.42980000  0.57020000  1.0 0.0461240517
F  F63  1  0.42980000  0.32500000  0.67500000  1.0 0.0461240517
F  F64  1  0.67500000  0.57020000  0.42980000  1.0 0.0442890109
F  F65  1  0.42980000  0.67500000  0.57020000  1.0 0.0442890109
F  F66  1  0.67500000  0.42980000  0.32500000  1.0 0.0442890109
F  F67  1  0.57020000  0.32500000  0.42980000  1.0 0.0461240517
F  F68  1  0.32500000  0.57020000  0.67500000  1.0 0.0442890109
F  F69  1  0.32500000  0.67500000  0.42980000  1.0 0.0442890109
F  F70  1  0.57020000  0.42980000  0.67500000  1.0 0.0442890109
F  F71  1  0.67500000  0.32500000  0.57020000  1.0 0.0442890109
F  F72  1  0.42980000  0.57020000  0.32500000  1.0 0.0442890109
