# DDEC6 charges by PACMAN v1.1 (https://github.com/mtap-research/PACMAN-charge/)
data_LUKLOV_ASR_pacman
_symmetry_space_group_name_H-M   'P 1'
_cell_length_a   15.84210000
_cell_length_b   17.62690000
_cell_length_c   18.98550000
_cell_angle_alpha   108.76200000
_cell_angle_beta   112.45700000
_cell_angle_gamma   92.02400000
_symmetry_Int_Tables_number   1
_chemical_formula_structural   CaH10C16(NO)4
_chemical_formula_sum   'Ca6 H60 C96 N24 O24'
_cell_volume   4562.82618496
_cell_formula_units_Z   6
loop_
 _symmetry_equiv_pos_site_id
 _symmetry_equiv_pos_as_xyz
  1  'x, y, z'
loop_
 _atom_site_type_symbol
 _atom_site_label
 _atom_site_symmetry_multiplicity
 _atom_site_fract_x
 _atom_site_fract_y
 _atom_site_fract_z
 _atom_site_occupancy
 _atom_site_charge
Ca  Ca1  1  0.22976000  0.98021000  0.96605000  1.0 1.3588667699
Ca  Ca2  1  0.63141000  0.83325000  0.00726000  1.0 1.3588667699
Ca  Ca3  1  0.77024000  0.01979000  0.03395000  1.0 1.3588667699
Ca  Ca4  1  0.36859000  0.16675000  0.99274000  1.0 1.3588667699
Ca  Ca5  1  0.00000000  0.00000000  0.00000000  1.0 1.3930652031
Ca  Ca6  1  0.50000000  0.00000000  0.00000000  1.0 1.3255607971
H  H1  1  0.69995000  0.81415000  0.60756000  1.0 0.2883946232
H  H2  1  0.39241000  0.89922000  0.43508000  1.0 0.2883946232
H  H3  1  0.11152000  0.16867000  0.15298000  1.0 0.1117894334
H  H4  1  0.97832000  0.56422000  0.09672000  1.0 0.2951137313
H  H5  1  0.25382000  0.40630000  0.18488000  1.0 0.281777798
H  H6  1  0.69152000  0.84919000  0.84379000  1.0 0.1202250181
H  H7  1  0.03417000  0.83695000  0.06639000  1.0 0.1202250181
H  H8  1  0.21837000  0.27574000  0.17562000  1.0 0.1202250181
H  H9  1  0.72895000  0.81695000  0.73317000  1.0 0.1202250181
H  H10  1  0.24865000  0.79978000  0.00124000  1.0 0.1268052944
H  H11  1  0.35219000  0.92282000  0.16416000  1.0 0.1117894334
H  H12  1  0.59754000  0.94029000  0.18330000  1.0 0.1202250181
H  H13  1  0.91286000  0.30433000  0.12171000  1.0 0.1117894334
H  H14  1  0.77668000  0.88746000  0.44449000  1.0 0.2883946232
H  H15  1  0.37183000  0.59030000  0.13017000  1.0 0.281777798
H  H16  1  0.17396000  0.98262000  0.26515000  1.0 0.1202250181
H  H17  1  0.10172000  0.73061000  0.09300000  1.0 0.1202250181
H  H18  1  0.21012000  0.69982000  0.04316000  1.0 0.1202250181
H  H19  1  0.58641000  0.90085000  0.28290000  1.0 0.1202250181
H  H20  1  0.45646000  0.91375000  0.71860000  1.0 0.1202250181
H  H21  1  0.49295000  0.87978000  0.60684000  1.0 0.1268052944
H  H22  1  0.01669000  0.41149000  0.14062000  1.0 0.1202250181
H  H23  1  0.78601000  0.72342000  0.02124000  1.0 0.0986915269
H  H24  1  0.44633000  0.89081000  0.27237000  1.0 0.1202250181
H  H25  1  0.26780000  0.95395000  0.37465000  1.0 0.1202250181
H  H26  1  0.84976000  0.61390000  0.04200000  1.0 0.1268052944
H  H27  1  0.87520000  0.99839000  0.30610000  1.0 0.1202250181
H  H28  1  0.51275000  0.77661000  0.08826000  1.0 0.1117894334
H  H29  1  0.86351000  0.96070000  0.40816000  1.0 0.1268052944
H  H30  1  0.47654000  0.67791000  0.13149000  1.0 0.1202250181
H  H31  1  0.30005000  0.18585000  0.39244000  1.0 0.2883946232
H  H32  1  0.60759000  0.10078000  0.56492000  1.0 0.2883946232
H  H33  1  0.88848000  0.83133000  0.84702000  1.0 0.1117894334
H  H34  1  0.02168000  0.43578000  0.90328000  1.0 0.2951137313
H  H35  1  0.74618000  0.59370000  0.81512000  1.0 0.2883946232
H  H36  1  0.30848000  0.15081000  0.15621000  1.0 0.1202250181
H  H37  1  0.96583000  0.16305000  0.93361000  1.0 0.1202250181
H  H38  1  0.78163000  0.72426000  0.82438000  1.0 0.1202250181
H  H39  1  0.27105000  0.18305000  0.26683000  1.0 0.1202250181
H  H40  1  0.75135000  0.20022000  0.99876000  1.0 0.1268052944
H  H41  1  0.64781000  0.07718000  0.83584000  1.0 0.1117894334
H  H42  1  0.40246000  0.05971000  0.81670000  1.0 0.1202250181
H  H43  1  0.08714000  0.69567000  0.87829000  1.0 0.1117894334
H  H44  1  0.22332000  0.11254000  0.55551000  1.0 0.2883946232
H  H45  1  0.62817000  0.40970000  0.86983000  1.0 0.281777798
H  H46  1  0.82604000  0.01738000  0.73485000  1.0 0.1202250181
H  H47  1  0.89828000  0.26939000  0.90700000  1.0 0.1202250181
H  H48  1  0.78988000  0.30018000  0.95684000  1.0 0.1202250181
H  H49  1  0.41359000  0.09915000  0.71710000  1.0 0.1202250181
H  H50  1  0.54354000  0.08625000  0.28140000  1.0 0.1202250181
H  H51  1  0.50705000  0.12022000  0.39316000  1.0 0.1268052944
H  H52  1  0.98331000  0.58851000  0.85938000  1.0 0.1202250181
H  H53  1  0.21399000  0.27658000  0.97876000  1.0 0.0986915269
H  H54  1  0.55367000  0.10919000  0.72763000  1.0 0.1202250181
H  H55  1  0.73220000  0.04605000  0.62535000  1.0 0.1202250181
H  H56  1  0.15024000  0.38610000  0.95800000  1.0 0.1268052944
H  H57  1  0.12480000  0.00161000  0.69390000  1.0 0.1202250181
H  H58  1  0.48725000  0.22339000  0.91174000  1.0 0.1117894334
H  H59  1  0.13649000  0.03930000  0.59184000  1.0 0.1268052944
H  H60  1  0.52346000  0.32209000  0.86851000  1.0 0.1202250181
C  C1  1  0.09250000  0.21730000  0.15010000  1.0 -0.0888888965
C  C2  1  0.92700000  0.15460000  0.11200000  1.0 0.580543209
C  C3  1  0.90270000  0.79270000  0.04130000  1.0 -0.074669551
C  C4  1  0.85990000  0.86210000  0.02560000  1.0 0.6168163904
C  C5  1  0.57180000  0.88610000  0.79350000  1.0 -0.0504294603
C  C6  1  0.99950000  0.22440000  0.13330000  1.0 -0.0504294603
C  C7  1  0.25170000  0.95360000  0.20150000  1.0 -0.0504294603
C  C8  1  0.41090000  0.85800000  0.00810000  1.0 0.6115570554
C  C9  1  0.55110000  0.91430000  0.86640000  1.0 0.5916647354
C  C10  1  0.65220000  0.85650000  0.79640000  1.0 -0.0802180446
C  C11  1  0.99740000  0.79230000  0.06280000  1.0 -0.0802180446
C  C12  1  0.15650000  0.28100000  0.16250000  1.0 -0.2200644499
C  C13  1  0.67520000  0.83770000  0.73090000  1.0 -0.2025965265
C  C14  1  0.19110000  0.97310000  0.12900000  1.0 0.5916647354
C  C15  1  0.29420000  0.77270000  0.02480000  1.0 -0.0802180446
C  C16  1  0.61690000  0.85030000  0.66100000  1.0 0.235650275
C  C17  1  0.74530000  0.99550000  0.16780000  1.0 0.571709145
C  C18  1  0.51280000  0.89230000  0.43800000  1.0 0.5168241152
C  C19  1  0.38350000  0.79340000  0.03440000  1.0 -0.0504294603
C  C20  1  0.33470000  0.92800000  0.20680000  1.0 -0.0888888965
C  C21  1  0.36840000  0.92060000  0.33700000  1.0 0.2294727428
C  C22  1  0.65110000  0.94460000  0.22880000  1.0 -0.0991429214
C  C23  1  0.97380000  0.29800000  0.13100000  1.0 -0.0888888965
C  C24  1  0.10030000  0.56970000  0.10530000  1.0 0.5106523671
C  C25  1  0.62140000  0.86030000  0.53500000  1.0 0.5106523671
C  C26  1  0.73680000  0.97550000  0.23520000  1.0 -0.0504294603
C  C27  1  0.12820000  0.35240000  0.15520000  1.0 0.2456690558
C  C28  1  0.18440000  0.47850000  0.13950000  1.0 0.5106523671
C  C29  1  0.22850000  0.96410000  0.26620000  1.0 -0.0888888965
C  C30  1  0.03840000  0.72910000  0.07880000  1.0 -0.1890196672
C  C31  1  0.98260000  0.66170000  0.07320000  1.0 0.2456690558
C  C32  1  0.27070000  0.71260000  0.04940000  1.0 -0.1795832178
C  C33  1  0.64420000  0.92090000  0.28770000  1.0 -0.1795832178
C  C34  1  0.51140000  0.89490000  0.72170000  1.0 -0.0802180446
C  C35  1  0.53380000  0.87570000  0.65540000  1.0 -0.1890196672
C  C36  1  0.03550000  0.36240000  0.14190000  1.0 -0.1890196672
C  C37  1  0.84920000  0.72480000  0.03510000  1.0 -0.0991429214
C  C38  1  0.65620000  0.88820000  0.44180000  1.0 0.5106523671
C  C39  1  0.39220000  0.90990000  0.27190000  1.0 -0.1890196672
C  C40  1  0.24610000  0.57700000  0.11420000  1.0 0.5168241152
C  C41  1  0.28510000  0.94730000  0.33170000  1.0 -0.2104854508
C  C42  1  0.88750000  0.65970000  0.04890000  1.0 -0.2200644499
C  C43  1  0.33660000  0.67270000  0.08280000  1.0 0.2294727428
C  C44  1  0.72390000  0.92660000  0.35520000  1.0 0.2294727428
C  C45  1  0.81730000  0.97990000  0.30220000  1.0 -0.0802180446
C  C46  1  0.45110000  0.75930000  0.07650000  1.0 -0.0991429214
C  C47  1  0.81030000  0.95650000  0.36240000  1.0 -0.2104854508
C  C48  1  0.42970000  0.70010000  0.10180000  1.0 -0.1890196672
C  C49  1  0.90750000  0.78270000  0.84990000  1.0 -0.0888888965
C  C50  1  0.07300000  0.84540000  0.88800000  1.0 0.580543209
C  C51  1  0.09730000  0.20730000  0.95870000  1.0 -0.074669551
C  C52  1  0.14010000  0.13790000  0.97440000  1.0 0.6168163904
C  C53  1  0.42820000  0.11390000  0.20650000  1.0 -0.0504294603
C  C54  1  0.00050000  0.77560000  0.86670000  1.0 -0.0504294603
C  C55  1  0.74830000  0.04640000  0.79850000  1.0 -0.0504294603
C  C56  1  0.58910000  0.14200000  0.99190000  1.0 0.6115570554
C  C57  1  0.44890000  0.08570000  0.13360000  1.0 0.5916647354
C  C58  1  0.34780000  0.14350000  0.20360000  1.0 -0.0802180446
C  C59  1  0.00260000  0.20770000  0.93720000  1.0 -0.0802180446
C  C60  1  0.84350000  0.71900000  0.83750000  1.0 -0.2200644499
C  C61  1  0.32480000  0.16230000  0.26910000  1.0 -0.2025965265
C  C62  1  0.80890000  0.02690000  0.87100000  1.0 0.5916647354
C  C63  1  0.70580000  0.22730000  0.97520000  1.0 -0.0802180446
C  C64  1  0.38310000  0.14970000  0.33900000  1.0 0.235650275
C  C65  1  0.25470000  0.00450000  0.83220000  1.0 0.571709145
C  C66  1  0.48720000  0.10770000  0.56200000  1.0 0.5168241152
C  C67  1  0.61650000  0.20660000  0.96560000  1.0 -0.0504294603
C  C68  1  0.66530000  0.07200000  0.79320000  1.0 -0.0888888965
C  C69  1  0.63160000  0.07940000  0.66300000  1.0 0.2294727428
C  C70  1  0.34890000  0.05540000  0.77120000  1.0 -0.0991429214
C  C71  1  0.02620000  0.70200000  0.86900000  1.0 -0.0888888965
C  C72  1  0.89970000  0.43030000  0.89470000  1.0 0.5106523671
C  C73  1  0.37860000  0.13970000  0.46500000  1.0 0.5106523671
C  C74  1  0.26320000  0.02450000  0.76480000  1.0 -0.0504294603
C  C75  1  0.87180000  0.64760000  0.84480000  1.0 0.2456690558
C  C76  1  0.81560000  0.52150000  0.86050000  1.0 0.5106523671
C  C77  1  0.77150000  0.03590000  0.73380000  1.0 -0.0888888965
C  C78  1  0.96160000  0.27090000  0.92120000  1.0 -0.1890196672
C  C79  1  0.01740000  0.33830000  0.92680000  1.0 0.2456690558
C  C80  1  0.72930000  0.28740000  0.95060000  1.0 -0.1795832178
C  C81  1  0.35580000  0.07910000  0.71230000  1.0 -0.1795832178
C  C82  1  0.48860000  0.10510000  0.27830000  1.0 -0.0802180446
C  C83  1  0.46620000  0.12430000  0.34460000  1.0 -0.1890196672
C  C84  1  0.96450000  0.63760000  0.85810000  1.0 -0.1890196672
C  C85  1  0.15080000  0.27520000  0.96490000  1.0 -0.0991429214
C  C86  1  0.34380000  0.11180000  0.55820000  1.0 0.5106523671
C  C87  1  0.60780000  0.09010000  0.72810000  1.0 -0.1890196672
C  C88  1  0.75390000  0.42300000  0.88580000  1.0 0.5168241152
C  C89  1  0.71490000  0.05270000  0.66830000  1.0 -0.2104854508
C  C90  1  0.11250000  0.34030000  0.95110000  1.0 -0.2200644499
C  C91  1  0.66340000  0.32730000  0.91720000  1.0 0.2294727428
C  C92  1  0.27610000  0.07340000  0.64480000  1.0 0.2294727428
C  C93  1  0.18270000  0.02010000  0.69780000  1.0 -0.0802180446
C  C94  1  0.54890000  0.24070000  0.92350000  1.0 -0.0991429214
C  C95  1  0.18970000  0.04350000  0.63760000  1.0 -0.2104854508
C  C96  1  0.57030000  0.29990000  0.89820000  1.0 -0.1890196672
N  N1  1  0.53330000  0.87070000  0.50310000  1.0 -0.5271448902
N  N2  1  0.10510000  0.50470000  0.12670000  1.0 -0.5207291356
N  N3  1  0.65280000  0.83820000  0.60110000  1.0 -0.3480922765
N  N4  1  0.56960000  0.90270000  0.40390000  1.0 -0.5207291356
N  N5  1  0.42200000  0.90350000  0.40650000  1.0 -0.3668361417
N  N6  1  0.16820000  0.60850000  0.09630000  1.0 -0.5271448902
N  N7  1  0.68660000  0.86540000  0.50620000  1.0 -0.5632300488
N  N8  1  0.01760000  0.59530000  0.09230000  1.0 -0.3564053885
N  N9  1  0.19720000  0.41240000  0.16290000  1.0 -0.3668361417
N  N10  1  0.26010000  0.51210000  0.13630000  1.0 -0.5683495911
N  N11  1  0.72470000  0.89910000  0.41760000  1.0 -0.3427818528
N  N12  1  0.32310000  0.61050000  0.11140000  1.0 -0.3480922765
N  N13  1  0.46670000  0.12930000  0.49690000  1.0 -0.5271448902
N  N14  1  0.89490000  0.49530000  0.87330000  1.0 -0.5207291356
N  N15  1  0.34720000  0.16180000  0.39890000  1.0 -0.3480922765
N  N16  1  0.43040000  0.09730000  0.59610000  1.0 -0.5207291356
N  N17  1  0.57800000  0.09650000  0.59350000  1.0 -0.3668361417
N  N18  1  0.83180000  0.39150000  0.90370000  1.0 -0.5271448902
N  N19  1  0.31340000  0.13460000  0.49380000  1.0 -0.5632300488
N  N20  1  0.98240000  0.40470000  0.90770000  1.0 -0.3564053885
N  N21  1  0.80280000  0.58760000  0.83710000  1.0 -0.3668361417
N  N22  1  0.73990000  0.48790000  0.86370000  1.0 -0.5683495911
N  N23  1  0.27530000  0.10090000  0.58240000  1.0 -0.3427818528
N  N24  1  0.67690000  0.38950000  0.88860000  1.0 -0.3480922765
O  O1  1  0.94389000  0.08410000  0.08787000  1.0 -0.6535065285
O  O2  1  0.61361000  0.91849000  0.93398000  1.0 -0.6972158662
O  O3  1  0.22030000  0.96670000  0.07570000  1.0 -0.6291663161
O  O4  1  0.90160000  0.91362000  0.01340000  1.0 -0.6041979304
O  O5  1  0.35867000  0.90596000  0.98910000  1.0 -0.5683495911
O  O6  1  0.84978000  0.16549000  0.11420000  1.0 -0.5818773917
O  O7  1  0.11349000  0.99440000  0.12470000  1.0 -0.6367205492
O  O8  1  0.67469000  0.97259000  0.09956000  1.0 -0.6839438191
O  O9  1  0.78040000  0.86950000  0.02590000  1.0 -0.6972158662
O  O10  1  0.49200000  0.86498000  0.00830000  1.0 -0.7086283079
O  O11  1  0.47420000  0.93700000  0.86010000  1.0 -0.5818773917
O  O12  1  0.82160000  0.03260000  0.17830000  1.0 -0.5683495911
O  O13  1  0.05611000  0.91590000  0.91213000  1.0 -0.6535065285
O  O14  1  0.38639000  0.08151000  0.06602000  1.0 -0.6972158662
O  O15  1  0.77970000  0.03330000  0.92430000  1.0 -0.6291663161
O  O16  1  0.09840000  0.08638000  0.98660000  1.0 -0.6041979304
O  O17  1  0.64133000  0.09404000  0.01090000  1.0 -0.5683495911
O  O18  1  0.15022000  0.83451000  0.88580000  1.0 -0.5818773917
O  O19  1  0.88651000  0.00560000  0.87530000  1.0 -0.6367205492
O  O20  1  0.32531000  0.02741000  0.90044000  1.0 -0.6839438191
O  O21  1  0.21960000  0.13050000  0.97410000  1.0 -0.6972158662
O  O22  1  0.50800000  0.13502000  0.99170000  1.0 -0.7086283079
O  O23  1  0.52580000  0.06300000  0.13990000  1.0 -0.5818773917
O  O24  1  0.17840000  0.96740000  0.82170000  1.0 -0.5683495911
