# DDEC6 charges by PACMAN v1.1 (https://github.com/mtap-research/PACMAN-charge/)
data_LUKRUE_ASR_pacman
_symmetry_space_group_name_H-M   'P 1'
_cell_length_a   8.21100000
_cell_length_b   13.43080000
_cell_length_c   25.66400000
_cell_angle_alpha   90.00000000
_cell_angle_beta   90.00000000
_cell_angle_gamma   90.00000000
_symmetry_Int_Tables_number   1
_chemical_formula_structural   Cu4P8H65(C13O4)8
_chemical_formula_sum   'Cu4 P8 H65 C104 O32'
_cell_volume   2830.23358840
_cell_formula_units_Z   1
loop_
 _symmetry_equiv_pos_site_id
 _symmetry_equiv_pos_as_xyz
  1  'x, y, z'
loop_
 _atom_site_type_symbol
 _atom_site_label
 _atom_site_symmetry_multiplicity
 _atom_site_fract_x
 _atom_site_fract_y
 _atom_site_fract_z
 _atom_site_occupancy
 _atom_site_charge
Cu  Cu1  1  0.15638000  0.69020000  0.99707000  1.0 1.0907282224
Cu  Cu2  1  0.34362000  0.30980000  0.49707000  1.0 1.0907282224
Cu  Cu3  1  0.84362000  0.19020000  0.50293000  1.0 1.0812794955
Cu  Cu4  1  0.65638000  0.80980000  0.00293000  1.0 1.0907282224
P  P1  1  0.86500000  0.68809000  0.92571000  1.0 1.2475704939
P  P2  1  0.61450000  0.33246000  0.58099000  1.0 1.2652518542
P  P3  1  0.63500000  0.31191000  0.42571000  1.0 1.2475704939
P  P4  1  0.88550000  0.66754000  0.08099000  1.0 1.279090503
P  P5  1  0.13500000  0.18809000  0.57429000  1.0 1.2417858631
P  P6  1  0.38550000  0.83246000  0.91901000  1.0 1.279090503
P  P7  1  0.36500000  0.81191000  0.07429000  1.0 1.2475704939
P  P8  1  0.11450000  0.16754000  0.41901000  1.0 1.279090503
H  H1  1  0.78463000  0.86068000  0.86579000  1.0 0.1092197024
H  H2  1  0.97710000  0.56152000  0.84100000  1.0 0.0990562649
H  H3  1  0.74580000  0.97467000  0.78947000  1.0 0.0908842491
H  H4  1  0.74682000  0.00837000  0.69348000  1.0 0.0990562649
H  H5  1  0.00552000  0.59950000  0.74230000  1.0 0.0908842491
H  H6  1  0.60934000  0.92819000  0.60904000  1.0 0.0813393981
H  H7  1  0.76612000  0.96039000  0.55942000  1.0 0.1092197024
H  H8  1  0.77007000  0.02135000  0.62455000  1.0 0.0908842491
H  H9  1  0.66134000  0.64297000  0.68203000  1.0 0.0908842491
H  H10  1  0.43907000  0.82636000  0.66844000  1.0 0.0813393981
H  H11  1  0.34467000  0.71548000  0.69979000  1.0 0.0696327292
H  H12  1  0.28785000  0.84291000  0.72179000  1.0 0.0908842491
H  H13  1  0.95031000  0.39282000  0.56619000  1.0 0.1092197024
H  H14  1  0.51216000  0.49617000  0.64807000  1.0 0.0990562649
H  H15  1  0.44680000  0.13308000  0.73255000  1.0 0.1699104648
H  H16  1  0.75126000  0.34370000  0.92916000  1.0 0.2256423027
H  H17  1  0.71525000  0.13965000  0.36601000  1.0 0.1092197024
H  H18  1  0.52290000  0.43848000  0.34100000  1.0 0.0990562649
H  H19  1  0.75420000  0.02533000  0.28947000  1.0 0.0908842491
H  H20  1  0.75318000  0.99163000  0.19348000  1.0 0.0990562649
H  H21  1  0.49380000  0.40235000  0.24355000  1.0 0.0908842491
H  H22  1  0.75185000  0.04935000  0.05842000  1.0 0.1092197024
H  H23  1  0.71420000  0.97611000  0.11882000  1.0 0.0908842491
H  H24  1  0.88842000  0.06461000  0.11577000  1.0 0.0813393981
H  H25  1  0.83866000  0.35703000  0.18203000  1.0 0.0908842491
H  H26  1  0.15017000  0.12553000  0.20054000  1.0 0.0908842491
H  H27  1  0.06301000  0.23751000  0.16814000  1.0 0.0696327292
H  H28  1  0.21523000  0.25222000  0.22134000  1.0 0.0813393981
H  H29  1  0.29475000  0.51167000  0.07306000  1.0 0.1160889283
H  H30  1  0.98784000  0.50383000  0.14807000  1.0 0.0990562649
H  H31  1  0.15136000  0.34662000  0.09744000  1.0 0.1092197024
H  H32  1  0.05320000  0.86692000  0.23255000  1.0 0.1699104648
H  H33  1  0.74874000  0.65630000  0.42916000  1.0 0.2201907948
H  H34  1  0.21537000  0.36068000  0.63421000  1.0 0.1092197024
H  H35  1  0.02290000  0.06152000  0.65900000  1.0 0.0990562649
H  H36  1  0.25420000  0.47467000  0.71053000  1.0 0.0908842491
H  H37  1  0.25318000  0.50837000  0.80652000  1.0 0.0908842491
H  H38  1  0.99448000  0.09950000  0.75770000  1.0 0.0908842491
H  H39  1  0.31780000  0.48930000  0.86308000  1.0 0.0908842491
H  H40  1  0.35545000  0.41606000  0.92348000  1.0 0.0908842491
H  H41  1  0.18122000  0.50456000  0.92043000  1.0 0.1092197024
H  H42  1  0.33866000  0.14297000  0.81797000  1.0 0.0908842491
H  H43  1  0.63544000  0.21536000  0.80720000  1.0 0.0696327292
H  H44  1  0.72260000  0.32734000  0.77479000  1.0 0.0908842491
H  H45  1  0.57037000  0.34205000  0.82800000  1.0 0.0908842491
H  H46  1  0.48784000  0.99617000  0.85193000  1.0 0.0990562649
H  H47  1  0.55320000  0.63308000  0.76745000  1.0 0.1699104648
H  H48  1  0.24874000  0.84370000  0.57084000  1.0 0.2201907948
H  H49  1  0.28463000  0.63932000  0.13421000  1.0 0.1092197024
H  H50  1  0.47710000  0.93848000  0.15900000  1.0 0.0990562649
H  H51  1  0.24580000  0.52533000  0.21053000  1.0 0.0908842491
H  H52  1  0.24682000  0.49163000  0.30652000  1.0 0.0908842491
H  H53  1  0.50620000  0.90235000  0.25645000  1.0 0.0908842491
H  H54  1  0.32101000  0.48824000  0.41370000  1.0 0.1092197024
H  H55  1  0.16424000  0.52044000  0.36408000  1.0 0.0813393981
H  H56  1  0.16029000  0.58140000  0.42921000  1.0 0.0908842491
H  H57  1  0.16134000  0.85703000  0.31797000  1.0 0.0908842491
H  H58  1  0.77533000  0.73653000  0.27510000  1.0 0.0813393981
H  H59  1  0.86972000  0.62565000  0.30644000  1.0 0.0908842491
H  H60  1  0.92654000  0.75308000  0.32844000  1.0 0.0696327292
H  H61  1  0.70525000  0.01167000  0.42694000  1.0 0.1160889283
H  H62  1  0.01216000  0.00383000  0.35193000  1.0 0.0990562649
H  H63  1  0.84865000  0.84770000  0.40287000  1.0 0.1092197024
H  H64  1  0.94680000  0.36692000  0.26745000  1.0 0.1699104648
H  H65  1  0.25126000  0.15630000  0.07084000  1.0 0.213828528
C  C1  1  0.84330000  0.82070000  0.78390000  1.0 0.0627491746
C  C2  1  0.88070000  0.71180000  0.85680000  1.0 -0.1625378489
C  C3  1  0.83300000  0.80110000  0.83820000  1.0 -0.0504504076
C  C4  1  0.98150000  0.69240000  0.65950000  1.0 -0.0585709171
C  C5  1  0.90510000  0.76560000  0.69480000  1.0 -0.0504504076
C  C6  1  0.90150000  0.74470000  0.74940000  1.0 0.0498542646
C  C7  1  0.94010000  0.63660000  0.82400000  1.0 -0.0504504076
C  C8  1  0.89410000  0.60470000  0.64260000  1.0 0.0627491746
C  C9  1  0.79030000  0.91280000  0.76260000  1.0 -0.1076596384
C  C10  1  0.78950000  0.93280000  0.70840000  1.0 -0.2181013807
C  C11  1  0.95200000  0.65740000  0.76990000  1.0 -0.1076596384
C  C12  1  0.13720000  0.70650000  0.64280000  1.0 0.1766246648
C  C13  1  0.84230000  0.85700000  0.67550000  1.0 0.1971253893
C  C14  1  0.74240000  0.94930000  0.60280000  1.0 -0.1193915623
C  C15  1  0.72820000  0.58800000  0.65580000  1.0 -0.1193915623
C  C16  1  0.32300000  0.79550000  0.68670000  1.0 -0.04159315
C  C17  1  0.97420000  0.53360000  0.60990000  1.0 0.0440469102
C  C18  1  0.13770000  0.54800000  0.59610000  1.0 0.0198649202
C  C19  1  0.88770000  0.45000000  0.59220000  1.0 -0.0504504076
C  C20  1  0.64600000  0.50700000  0.63770000  1.0 -0.04159315
C  C21  1  0.72900000  0.43480000  0.60530000  1.0 -0.2093395203
C  C22  1  0.21900000  0.63750000  0.61100000  1.0 -0.2093395203
C  C23  1  0.64720000  0.22610000  0.66460000  1.0 0.1590446374
C  C24  1  0.53130000  0.17230000  0.70390000  1.0 -0.5371781001
C  C25  1  0.74000000  0.42660000  0.93800000  1.0 -0.4529072751
C  C26  1  0.72700000  0.52230000  0.94820000  1.0 0.3466160686
C  C27  1  0.65670000  0.17930000  0.28390000  1.0 0.0627491746
C  C28  1  0.61930000  0.28820000  0.35680000  1.0 -0.1625378489
C  C29  1  0.66700000  0.19890000  0.33820000  1.0 -0.0504504076
C  C30  1  0.51850000  0.30760000  0.15950000  1.0 -0.0585709171
C  C31  1  0.59490000  0.23440000  0.19480000  1.0 -0.0504504076
C  C32  1  0.59850000  0.25530000  0.24940000  1.0 0.0498542646
C  C33  1  0.55990000  0.36340000  0.32400000  1.0 -0.0504504076
C  C34  1  0.60590000  0.39530000  0.14260000  1.0 0.0627491746
C  C35  1  0.70970000  0.08720000  0.26260000  1.0 -0.1076596384
C  C36  1  0.71050000  0.06720000  0.20840000  1.0 -0.2181013807
C  C37  1  0.54800000  0.34260000  0.26990000  1.0 -0.1076596384
C  C38  1  0.36280000  0.29350000  0.14280000  1.0 0.1699104648
C  C39  1  0.65770000  0.14300000  0.17550000  1.0 0.1971253893
C  C40  1  0.75760000  0.05070000  0.10280000  1.0 -0.1193915623
C  C41  1  0.77180000  0.41200000  0.15580000  1.0 -0.1193915623
C  C42  1  0.17700000  0.20450000  0.18670000  1.0 -0.0504504076
C  C43  1  0.52580000  0.46640000  0.10990000  1.0 0.0498542646
C  C44  1  0.36230000  0.45200000  0.09610000  1.0 -0.0950764774
C  C45  1  0.61230000  0.55000000  0.09220000  1.0 0.0308652387
C  C46  1  0.85400000  0.49300000  0.13770000  1.0 -0.04159315
C  C47  1  0.77100000  0.56520000  0.10530000  1.0 -0.2357511976
C  C48  1  0.28100000  0.36250000  0.11100000  1.0 -0.2181013807
C  C49  1  0.85280000  0.77390000  0.16460000  1.0 0.1590446374
C  C50  1  0.96870000  0.82770000  0.20390000  1.0 -0.5371781001
C  C51  1  0.76000000  0.57340000  0.43800000  1.0 -0.4529072751
C  C52  1  0.77300000  0.47770000  0.44820000  1.0 0.367448637
C  C53  1  0.15670000  0.32070000  0.71610000  1.0 0.0627491746
C  C54  1  0.11930000  0.21180000  0.64320000  1.0 -0.170590946
C  C55  1  0.16700000  0.30110000  0.66180000  1.0 -0.0504504076
C  C56  1  0.01850000  0.19240000  0.84050000  1.0 -0.0585709171
C  C57  1  0.09490000  0.26560000  0.80520000  1.0 -0.0504504076
C  C58  1  0.09850000  0.24470000  0.75060000  1.0 0.0498542646
C  C59  1  0.05990000  0.13660000  0.67600000  1.0 -0.0504504076
C  C60  1  0.10590000  0.10470000  0.85740000  1.0 0.0627491746
C  C61  1  0.20970000  0.41280000  0.73740000  1.0 -0.1076596384
C  C62  1  0.21050000  0.43280000  0.79160000  1.0 -0.2005890219
C  C63  1  0.04800000  0.15740000  0.73010000  1.0 -0.1076596384
C  C64  1  0.86280000  0.20650000  0.85720000  1.0 0.1766246648
C  C65  1  0.15770000  0.35700000  0.82450000  1.0 0.1946194113
C  C66  1  0.25760000  0.44930000  0.89720000  1.0 -0.1193915623
C  C67  1  0.27180000  0.08800000  0.84420000  1.0 -0.1076596384
C  C68  1  0.67700000  0.29550000  0.81330000  1.0 -0.04159315
C  C69  1  0.02580000  0.03360000  0.89010000  1.0 0.0308652387
C  C70  1  0.86230000  0.04800000  0.90390000  1.0 0.0440469102
C  C71  1  0.11230000  0.95000000  0.90780000  1.0 0.0440469102
C  C72  1  0.35400000  0.00700000  0.86230000  1.0 -0.0331550076
C  C73  1  0.27100000  0.93480000  0.89470000  1.0 -0.2357511976
C  C74  1  0.78100000  0.13750000  0.88900000  1.0 -0.2093395203
C  C75  1  0.35280000  0.72610000  0.83540000  1.0 0.1520617248
C  C76  1  0.46870000  0.67230000  0.79610000  1.0 -0.5329328983
C  C77  1  0.26000000  0.92660000  0.56200000  1.0 -0.4529072751
C  C78  1  0.27300000  0.02230000  0.55180000  1.0 0.3415310473
C  C79  1  0.34330000  0.67930000  0.21610000  1.0 0.0627491746
C  C80  1  0.38070000  0.78820000  0.14320000  1.0 -0.1625378489
C  C81  1  0.33300000  0.69890000  0.16180000  1.0 -0.0504504076
C  C82  1  0.48150000  0.80760000  0.34050000  1.0 -0.0585709171
C  C83  1  0.40510000  0.73440000  0.30520000  1.0 -0.0504504076
C  C84  1  0.40150000  0.75530000  0.25060000  1.0 0.0498542646
C  C85  1  0.44010000  0.86340000  0.17600000  1.0 -0.0504504076
C  C86  1  0.39410000  0.89530000  0.35740000  1.0 0.0627491746
C  C87  1  0.29030000  0.58720000  0.23740000  1.0 -0.1076596384
C  C88  1  0.28950000  0.56720000  0.29160000  1.0 -0.2093395203
C  C89  1  0.45200000  0.84260000  0.23010000  1.0 -0.1076596384
C  C90  1  0.63720000  0.79350000  0.35720000  1.0 0.1699104648
C  C91  1  0.34230000  0.64300000  0.32450000  1.0 0.1971253893
C  C92  1  0.24240000  0.55070000  0.39720000  1.0 -0.1193915623
C  C93  1  0.22820000  0.91200000  0.34420000  1.0 -0.1193915623
C  C94  1  0.82300000  0.70450000  0.31330000  1.0 -0.0504504076
C  C95  1  0.47420000  0.96640000  0.39010000  1.0 0.0498542646
C  C96  1  0.63770000  0.95200000  0.40390000  1.0 -0.0950764774
C  C97  1  0.38770000  0.05000000  0.40780000  1.0 0.0308652387
C  C98  1  0.14600000  0.99300000  0.36230000  1.0 -0.04159315
C  C99  1  0.22900000  0.06520000  0.39470000  1.0 -0.2357511976
C  C100  1  0.71900000  0.86250000  0.38900000  1.0 -0.2181013807
C  C101  1  0.14720000  0.27390000  0.33540000  1.0 0.1590446374
C  C102  1  0.03130000  0.32770000  0.29610000  1.0 -0.5371781001
C  C103  1  0.24000000  0.07340000  0.06200000  1.0 -0.4579640537
C  C104  1  0.22700000  0.97770000  0.05180000  1.0 0.3799491019
O  O1  1  0.01880000  0.63690000  0.94340000  1.0 -0.7104566305
O  O2  1  0.20640000  0.79750000  0.65270000  1.0 -0.1193915623
O  O3  1  0.84800000  0.86910000  0.62270000  1.0 -0.170590946
O  O4  1  0.71400000  0.61690000  0.93190000  1.0 -0.330425313
O  O5  1  0.73080000  0.26500000  0.55540000  1.0 -0.7355733722
O  O6  1  0.53970000  0.27950000  0.63063000  1.0 -0.3572113622
O  O7  1  0.47310000  0.37120000  0.54990000  1.0 -0.7104566305
O  O8  1  0.82340000  0.78510000  0.95287000  1.0 -0.7477631926
O  O9  1  0.48120000  0.36310000  0.44340000  1.0 -0.7104566305
O  O10  1  0.29360000  0.20250000  0.15270000  1.0 -0.1076596384
O  O11  1  0.65200000  0.13090000  0.12270000  1.0 -0.170590946
O  O12  1  0.78600000  0.38310000  0.43190000  1.0 -0.3368410229
O  O13  1  0.76920000  0.73500000  0.05540000  1.0 -0.7216837763
O  O14  1  0.96030000  0.72050000  0.13063000  1.0 -0.3572113622
O  O15  1  0.02690000  0.62880000  0.04990000  1.0 -0.7216837763
O  O16  1  0.67660000  0.21490000  0.45287000  1.0 -0.7477631926
O  O17  1  0.98120000  0.13690000  0.55660000  1.0 -0.7104566305
O  O18  1  0.79360000  0.29750000  0.84730000  1.0 -0.1193915623
O  O19  1  0.15200000  0.36910000  0.87730000  1.0 -0.170590946
O  O20  1  0.28600000  0.11690000  0.56810000  1.0 -0.330425313
O  O21  1  0.26920000  0.76500000  0.94460000  1.0 -0.7268757432
O  O22  1  0.46030000  0.77950000  0.86937000  1.0 -0.3518876641
O  O23  1  0.52690000  0.87120000  0.95010000  1.0 -0.7104566305
O  O24  1  0.17660000  0.28510000  0.54713000  1.0 -0.7477631926
O  O25  1  0.51880000  0.86310000  0.05660000  1.0 -0.7104566305
O  O26  1  0.70640000  0.70250000  0.34730000  1.0 -0.1076596384
O  O27  1  0.34800000  0.63090000  0.37730000  1.0 -0.170590946
O  O28  1  0.21400000  0.88310000  0.06810000  1.0 -0.3368410229
O  O29  1  0.23080000  0.23500000  0.44460000  1.0 -0.7216837763
O  O30  1  0.03970000  0.22050000  0.36937000  1.0 -0.3572113622
O  O31  1  0.97310000  0.12880000  0.45010000  1.0 -0.7216837763
O  O32  1  0.32340000  0.71490000  0.04713000  1.0 -0.7477631926
