# DDEC6 charges by PACMAN v1.1 (https://github.com/mtap-research/PACMAN-charge/)
data_LULJAG_FSR_pacman
_symmetry_space_group_name_H-M   'P 1'
_cell_length_a   7.41590000
_cell_length_b   10.18290000
_cell_length_c   22.71560000
_cell_angle_alpha   90.00000000
_cell_angle_beta   90.00000000
_cell_angle_gamma   90.00000000
_symmetry_Int_Tables_number   1
_chemical_formula_structural   NaCu3H26C24N2ClO15
_chemical_formula_sum   'Na2 Cu6 H52 C48 N4 Cl2 O30'
_cell_volume   1715.37689584
_cell_formula_units_Z   2
loop_
 _symmetry_equiv_pos_site_id
 _symmetry_equiv_pos_as_xyz
  1  'x, y, z'
loop_
 _atom_site_type_symbol
 _atom_site_label
 _atom_site_symmetry_multiplicity
 _atom_site_fract_x
 _atom_site_fract_y
 _atom_site_fract_z
 _atom_site_occupancy
 _atom_site_charge
Na  Na1  1  0.00000000  0.75860000  0.00000000  1.0 0.7790247642
Na  Na2  1  0.50000000  0.24140000  0.50000000  1.0 0.7790247642
Cu  Cu1  1  0.29394000  0.25219000  0.03404000  1.0 0.8310535543
Cu  Cu2  1  0.70606000  0.25219000  0.96596000  1.0 0.8310535543
Cu  Cu3  1  0.50000000  0.66432000  0.00000000  1.0 0.9484196448
Cu  Cu4  1  0.79394000  0.74781000  0.46596000  1.0 0.8310535543
Cu  Cu5  1  0.20606000  0.74781000  0.53404000  1.0 0.8310535543
Cu  Cu6  1  0.00000000  0.33568000  0.50000000  1.0 0.9484196448
H  H1  1  0.06220000  0.26400000  0.22110000  1.0 0.1197894171
H  H2  1  0.90460000  0.43870000  0.26340000  1.0 0.1106529769
H  H3  1  0.91810000  0.64860000  0.21990000  1.0 0.1197894171
H  H4  1  0.09990000  0.68200000  0.13770000  1.0 0.1311538784
H  H5  1  0.45400000  0.12360000  0.13530000  1.0 0.1197894171
H  H6  1  0.38850000  0.19260000  0.19470000  1.0 0.1046398555
H  H7  1  0.51620000  0.39400000  0.15720000  1.0 0.1311538784
H  H8  1  0.65620000  0.28460000  0.17780000  1.0 0.1393848651
H  H9  1  0.11920000  0.09750000  0.16700000  1.0 0.1311538784
H  H10  1  0.98620000  0.16970000  0.12190000  1.0 0.1556856924
H  H11  1  0.25500000  0.59500000  0.93800000  1.0 0.2994641208
H  H12  1  0.19400000  0.69500000  0.96200000  1.0 0.2161946886
H  H13  1  0.41600000  0.93600000  0.00000000  1.0 0.319245673
H  H14  1  0.93780000  0.26400000  0.77890000  1.0 0.1197894171
H  H15  1  0.09540000  0.43870000  0.73660000  1.0 0.1106529769
H  H16  1  0.08190000  0.64860000  0.78010000  1.0 0.1197894171
H  H17  1  0.90010000  0.68200000  0.86230000  1.0 0.1311538784
H  H18  1  0.54600000  0.12360000  0.86470000  1.0 0.1197894171
H  H19  1  0.61150000  0.19260000  0.80530000  1.0 0.1046398555
H  H20  1  0.48380000  0.39400000  0.84280000  1.0 0.1311538784
H  H21  1  0.34380000  0.28460000  0.82220000  1.0 0.1393848651
H  H22  1  0.88080000  0.09750000  0.83300000  1.0 0.1311538784
H  H23  1  0.01380000  0.16970000  0.87810000  1.0 0.1556856924
H  H24  1  0.74500000  0.59500000  0.06200000  1.0 0.2994641208
H  H25  1  0.80600000  0.69500000  0.03800000  1.0 0.2161946886
H  H26  1  0.58400000  0.93600000  0.00000000  1.0 0.319245673
H  H27  1  0.56220000  0.73600000  0.27890000  1.0 0.1197894171
H  H28  1  0.40460000  0.56130000  0.23660000  1.0 0.1106529769
H  H29  1  0.41810000  0.35140000  0.28010000  1.0 0.1197894171
H  H30  1  0.59990000  0.31800000  0.36230000  1.0 0.1311538784
H  H31  1  0.95400000  0.87640000  0.36470000  1.0 0.1197894171
H  H32  1  0.88850000  0.80740000  0.30530000  1.0 0.1046398555
H  H33  1  0.01620000  0.60600000  0.34280000  1.0 0.1311538784
H  H34  1  0.15620000  0.71540000  0.32220000  1.0 0.1393848651
H  H35  1  0.61920000  0.90250000  0.33300000  1.0 0.1311538784
H  H36  1  0.48620000  0.83030000  0.37810000  1.0 0.1556856924
H  H37  1  0.75500000  0.40500000  0.56200000  1.0 0.2994641208
H  H38  1  0.69400000  0.30500000  0.53800000  1.0 0.2161946886
H  H39  1  0.91600000  0.06400000  0.50000000  1.0 0.319245673
H  H40  1  0.43780000  0.73600000  0.72110000  1.0 0.1197894171
H  H41  1  0.59540000  0.56130000  0.76340000  1.0 0.1106529769
H  H42  1  0.58190000  0.35140000  0.71990000  1.0 0.1197894171
H  H43  1  0.40010000  0.31800000  0.63770000  1.0 0.1311538784
H  H44  1  0.04600000  0.87640000  0.63530000  1.0 0.1197894171
H  H45  1  0.11150000  0.80740000  0.69470000  1.0 0.1046398555
H  H46  1  0.98380000  0.60600000  0.65720000  1.0 0.1311538784
H  H47  1  0.84380000  0.71540000  0.67780000  1.0 0.1393848651
H  H48  1  0.38080000  0.90250000  0.66700000  1.0 0.1311538784
H  H49  1  0.51380000  0.83030000  0.62190000  1.0 0.1556856924
H  H50  1  0.24500000  0.40500000  0.43800000  1.0 0.2994641208
H  H51  1  0.30600000  0.30500000  0.46200000  1.0 0.2161946886
H  H52  1  0.08400000  0.06400000  0.50000000  1.0 0.319245673
C  C1  1  0.29510000  0.52410000  0.07520000  1.0 0.5650711202
C  C2  1  0.17900000  0.49110000  0.12720000  1.0 -0.1002404585
C  C3  1  0.16080000  0.36470000  0.15060000  1.0 0.1715063818
C  C4  1  0.06500000  0.34790000  0.20290000  1.0 -0.1865675158
C  C5  1  0.97350000  0.45220000  0.22870000  1.0 -0.0524096775
C  C6  1  0.98330000  0.57740000  0.20330000  1.0 -0.1075777642
C  C7  1  0.08860000  0.59640000  0.15390000  1.0 -0.0801243248
C  C8  1  0.41360000  0.20800000  0.15250000  1.0 -0.0801243248
C  C9  1  0.56540000  0.30630000  0.14730000  1.0 -0.3583254001
C  C10  1  0.66260000  0.31770000  0.08880000  1.0 0.6414993995
C  C11  1  0.11070000  0.13650000  0.12720000  1.0 -0.2766282267
C  C12  1  0.14860000  0.03070000  0.08130000  1.0 0.6126906865
C  C13  1  0.70490000  0.52410000  0.92480000  1.0 0.5650711202
C  C14  1  0.82100000  0.49110000  0.87280000  1.0 -0.1002404585
C  C15  1  0.83920000  0.36470000  0.84940000  1.0 0.1715063818
C  C16  1  0.93500000  0.34790000  0.79710000  1.0 -0.1865675158
C  C17  1  0.02650000  0.45220000  0.77130000  1.0 -0.0524096775
C  C18  1  0.01670000  0.57740000  0.79670000  1.0 -0.1075777642
C  C19  1  0.91140000  0.59640000  0.84610000  1.0 -0.0801243248
C  C20  1  0.58640000  0.20800000  0.84750000  1.0 -0.0801243248
C  C21  1  0.43460000  0.30630000  0.85270000  1.0 -0.3583254001
C  C22  1  0.33740000  0.31770000  0.91120000  1.0 0.6414993995
C  C23  1  0.88930000  0.13650000  0.87280000  1.0 -0.2766282267
C  C24  1  0.85140000  0.03070000  0.91870000  1.0 0.6126906865
C  C25  1  0.79510000  0.47590000  0.42480000  1.0 0.5650711202
C  C26  1  0.67900000  0.50890000  0.37280000  1.0 -0.1002404585
C  C27  1  0.66080000  0.63530000  0.34940000  1.0 0.1715063818
C  C28  1  0.56500000  0.65210000  0.29710000  1.0 -0.1865675158
C  C29  1  0.47350000  0.54780000  0.27130000  1.0 -0.0524096775
C  C30  1  0.48330000  0.42260000  0.29670000  1.0 -0.1075777642
C  C31  1  0.58860000  0.40360000  0.34610000  1.0 -0.0801243248
C  C32  1  0.91360000  0.79200000  0.34750000  1.0 -0.0801243248
C  C33  1  0.06540000  0.69370000  0.35270000  1.0 -0.3583254001
C  C34  1  0.16260000  0.68230000  0.41120000  1.0 0.6414993995
C  C35  1  0.61070000  0.86350000  0.37280000  1.0 -0.2766282267
C  C36  1  0.64860000  0.96930000  0.41870000  1.0 0.6126906865
C  C37  1  0.20490000  0.47590000  0.57520000  1.0 0.5650711202
C  C38  1  0.32100000  0.50890000  0.62720000  1.0 -0.1002404585
C  C39  1  0.33920000  0.63530000  0.65060000  1.0 0.1715063818
C  C40  1  0.43500000  0.65210000  0.70290000  1.0 -0.1865675158
C  C41  1  0.52650000  0.54780000  0.72870000  1.0 -0.0524096775
C  C42  1  0.51670000  0.42260000  0.70330000  1.0 -0.1075777642
C  C43  1  0.41140000  0.40360000  0.65390000  1.0 -0.0801243248
C  C44  1  0.08640000  0.79200000  0.65250000  1.0 -0.0801243248
C  C45  1  0.93460000  0.69370000  0.64730000  1.0 -0.3583254001
C  C46  1  0.83740000  0.68230000  0.58880000  1.0 0.6414993995
C  C47  1  0.38930000  0.86350000  0.62720000  1.0 -0.2766282267
C  C48  1  0.35140000  0.96930000  0.58130000  1.0 0.6126906865
N  N1  1  0.24010000  0.24860000  0.12259000  1.0 -0.1306305348
N  N2  1  0.75990000  0.24860000  0.87741000  1.0 -0.1306305348
N  N3  1  0.74010000  0.75140000  0.37741000  1.0 -0.1306305348
N  N4  1  0.25990000  0.75140000  0.62259000  1.0 -0.1306305348
Cl  Cl1  1  0.00000000  0.30940000  0.00000000  1.0 -0.4891072369
Cl  Cl2  1  0.50000000  0.69060000  0.50000000  1.0 -0.4891072369
O  O1  1  0.34110000  0.64260000  0.06926000  1.0 -0.5138054273
O  O2  1  0.34440000  0.43840000  0.03865000  1.0 -0.5292586914
O  O3  1  0.78280000  0.40190000  0.08461000  1.0 -0.5138054273
O  O4  1  0.61930000  0.23580000  0.04848000  1.0 -0.569174268
O  O5  1  0.08030000  0.92170000  0.08967000  1.0 -0.569174268
O  O6  1  0.24370000  0.06380000  0.03672000  1.0 -0.5292586914
O  O7  1  0.29030000  0.65820000  0.94569000  1.0 -0.5918466456
O  O8  1  0.65890000  0.64260000  0.93074000  1.0 -0.5138054273
O  O9  1  0.65560000  0.43840000  0.96135000  1.0 -0.5292586914
O  O10  1  0.21720000  0.40190000  0.91539000  1.0 -0.5138054273
O  O11  1  0.38070000  0.23580000  0.95152000  1.0 -0.569174268
O  O12  1  0.91970000  0.92170000  0.91033000  1.0 -0.569174268
O  O13  1  0.75630000  0.06380000  0.96328000  1.0 -0.5292586914
O  O14  1  0.70970000  0.65820000  0.05431000  1.0 -0.5918466456
O  O15  1  0.50000000  0.87860000  0.00000000  1.0 -0.7002716816
O  O16  1  0.84110000  0.35740000  0.43074000  1.0 -0.5138054273
O  O17  1  0.84440000  0.56160000  0.46135000  1.0 -0.5292586914
O  O18  1  0.28280000  0.59810000  0.41539000  1.0 -0.5138054273
O  O19  1  0.11930000  0.76420000  0.45152000  1.0 -0.569174268
O  O20  1  0.58030000  0.07830000  0.41033000  1.0 -0.569174268
O  O21  1  0.74370000  0.93620000  0.46328000  1.0 -0.5292586914
O  O22  1  0.79030000  0.34180000  0.55431000  1.0 -0.5918466456
O  O23  1  0.15890000  0.35740000  0.56926000  1.0 -0.5138054273
O  O24  1  0.15560000  0.56160000  0.53865000  1.0 -0.5292586914
O  O25  1  0.71720000  0.59810000  0.58461000  1.0 -0.5138054273
O  O26  1  0.88070000  0.76420000  0.54848000  1.0 -0.569174268
O  O27  1  0.41970000  0.07830000  0.58967000  1.0 -0.569174268
O  O28  1  0.25630000  0.93620000  0.53672000  1.0 -0.5292586914
O  O29  1  0.20970000  0.34180000  0.44569000  1.0 -0.5918466456
O  O30  1  0.00000000  0.12140000  0.50000000  1.0 -0.7002716816
