# DDEC6 charges by PACMAN v1.1 (https://github.com/mtap-research/PACMAN-charge/)
data_LULXOG_ASR_pacman
_symmetry_space_group_name_H-M   'P 1'
_cell_length_a   9.62468000
_cell_length_b   9.62468000
_cell_length_c   12.94800000
_cell_angle_alpha   90.00000000
_cell_angle_beta   90.00000000
_cell_angle_gamma   102.68800000
_symmetry_Int_Tables_number   1
_chemical_formula_structural   Li4CoH24(C11O7)2
_chemical_formula_sum   'Li8 Co2 H48 C44 O28'
_cell_volume   1170.14162792
_cell_formula_units_Z   2
loop_
 _symmetry_equiv_pos_site_id
 _symmetry_equiv_pos_as_xyz
  1  'x, y, z'
loop_
 _atom_site_type_symbol
 _atom_site_label
 _atom_site_symmetry_multiplicity
 _atom_site_fract_x
 _atom_site_fract_y
 _atom_site_fract_z
 _atom_site_occupancy
 _atom_site_charge
Li  Li1  1  0.94600000  0.86520000  0.58960000  1.0 0.2591007075
Li  Li2  1  0.05400000  0.13480000  0.08960000  1.0 0.2591007075
Li  Li3  1  0.13480000  0.05400000  0.91040000  1.0 0.2591007075
Li  Li4  1  0.86520000  0.94600000  0.41040000  1.0 0.2506363811
Li  Li5  1  0.83910000  0.76670000  0.58770000  1.0 0.2207338285
Li  Li6  1  0.16090000  0.23330000  0.08770000  1.0 0.2207338285
Li  Li7  1  0.23330000  0.16090000  0.91230000  1.0 0.2126044305
Li  Li8  1  0.76670000  0.83910000  0.41230000  1.0 0.2207338285
Co  Co1  1  0.93565000  0.06435000  0.75000000  1.0 0.7822339954
Co  Co2  1  0.06435000  0.93565000  0.25000000  1.0 0.785214764
H  H1  1  0.94990000  0.51530000  0.78650000  1.0 0.1214420022
H  H2  1  0.05010000  0.48470000  0.28650000  1.0 0.1214420022
H  H3  1  0.48470000  0.05010000  0.71350000  1.0 0.1214420022
H  H4  1  0.51530000  0.94990000  0.21350000  1.0 0.1214420022
H  H5  1  0.97780000  0.39720000  0.08450000  1.0 0.043950974
H  H6  1  0.02220000  0.60280000  0.58450000  1.0 0.043950974
H  H7  1  0.60280000  0.02220000  0.41550000  1.0 0.043950974
H  H8  1  0.39720000  0.97780000  0.91550000  1.0 0.043950974
H  H9  1  0.98850000  0.63350000  0.13710000  1.0 0.0854842933
H  H10  1  0.01150000  0.36650000  0.63710000  1.0 0.0854842933
H  H11  1  0.36650000  0.01150000  0.36290000  1.0 0.0854842933
H  H12  1  0.63350000  0.98850000  0.86290000  1.0 0.0854842933
H  H13  1  0.94320000  0.79700000  0.01590000  1.0 0.08021094
H  H14  1  0.05680000  0.20300000  0.51590000  1.0 0.08021094
H  H15  1  0.20300000  0.05680000  0.48410000  1.0 0.08021094
H  H16  1  0.79700000  0.94320000  0.98410000  1.0 0.08021094
H  H17  1  0.61820000  0.60480000  0.62460000  1.0 0.1706069233
H  H18  1  0.38180000  0.39520000  0.12460000  1.0 0.1706069233
H  H19  1  0.39520000  0.38180000  0.87540000  1.0 0.1706069233
H  H20  1  0.60480000  0.61820000  0.37540000  1.0 0.1706069233
H  H21  1  0.66190000  0.51750000  0.55850000  1.0 0.0957059534
H  H22  1  0.33810000  0.48250000  0.05850000  1.0 0.0957059534
H  H23  1  0.48250000  0.33810000  0.94150000  1.0 0.0957059534
H  H24  1  0.51750000  0.66190000  0.44150000  1.0 0.0957059534
H  H25  1  0.07980000  0.43060000  0.07380000  1.0 0.024534543
H  H26  1  0.92020000  0.56940000  0.57380000  1.0 0.024534543
H  H27  1  0.56940000  0.92020000  0.42620000  1.0 0.024534543
H  H28  1  0.43060000  0.07980000  0.92620000  1.0 0.024534543
H  H29  1  0.08420000  0.66000000  0.12420000  1.0 0.08021094
H  H30  1  0.91580000  0.34000000  0.62420000  1.0 0.08021094
H  H31  1  0.34000000  0.91580000  0.37580000  1.0 0.08021094
H  H32  1  0.66000000  0.08420000  0.87580000  1.0 0.08021094
H  H33  1  0.03200000  0.82540000  0.00370000  1.0 0.0689470852
H  H34  1  0.96800000  0.17460000  0.50370000  1.0 0.0689470852
H  H35  1  0.17460000  0.96800000  0.49630000  1.0 0.0689470852
H  H36  1  0.82540000  0.03200000  0.99630000  1.0 0.0689470852
H  H37  1  0.59390000  0.61950000  0.51610000  1.0 0.1494392277
H  H38  1  0.40610000  0.38050000  0.01610000  1.0 0.1494392277
H  H39  1  0.38050000  0.40610000  0.98390000  1.0 0.1494392277
H  H40  1  0.61950000  0.59390000  0.48390000  1.0 0.1494392277
H  H41  1  0.64160000  0.57140000  0.64970000  1.0 0.1614673705
H  H42  1  0.35840000  0.42860000  0.14970000  1.0 0.1614673705
H  H43  1  0.42860000  0.35840000  0.85030000  1.0 0.1614673705
H  H44  1  0.57140000  0.64160000  0.35030000  1.0 0.1614673705
H  H45  1  0.09870000  0.32670000  0.99710000  1.0 0.2024139585
H  H46  1  0.90130000  0.67330000  0.49710000  1.0 0.2024139585
H  H47  1  0.67330000  0.90130000  0.50290000  1.0 0.2024139585
H  H48  1  0.32670000  0.09870000  0.00290000  1.0 0.2024139585
C  C1  1  0.96630000  0.67870000  0.88760000  1.0 -0.0219353649
C  C2  1  0.03370000  0.32130000  0.38760000  1.0 -0.0219353649
C  C3  1  0.32130000  0.03370000  0.61240000  1.0 -0.0219353649
C  C4  1  0.67870000  0.96630000  0.11240000  1.0 -0.0219353649
C  C5  1  0.96760000  0.54200000  0.85670000  1.0 -0.2517218506
C  C6  1  0.03240000  0.45800000  0.35670000  1.0 -0.2517218506
C  C7  1  0.45800000  0.03240000  0.64330000  1.0 -0.2517218506
C  C8  1  0.54200000  0.96760000  0.14330000  1.0 -0.2517218506
C  C9  1  0.99450000  0.44290000  0.92820000  1.0 -0.0964660766
C  C10  1  0.00550000  0.55710000  0.42820000  1.0 -0.0964660766
C  C11  1  0.55710000  0.00550000  0.57180000  1.0 -0.0964660766
C  C12  1  0.44290000  0.99450000  0.07180000  1.0 -0.0964660766
C  C13  1  0.98280000  0.47100000  0.03500000  1.0 -0.0132538602
C  C14  1  0.01720000  0.52900000  0.53500000  1.0 -0.0132538602
C  C15  1  0.52900000  0.01720000  0.46500000  1.0 -0.0132538602
C  C16  1  0.47100000  0.98280000  0.96500000  1.0 -0.0132538602
C  C17  1  0.97860000  0.60840000  0.06610000  1.0 -0.030120963
C  C18  1  0.02140000  0.39160000  0.56610000  1.0 -0.030120963
C  C19  1  0.39160000  0.02140000  0.43390000  1.0 -0.030120963
C  C20  1  0.60840000  0.97860000  0.93390000  1.0 -0.030120963
C  C21  1  0.96020000  0.70820000  0.99390000  1.0 -0.0219353649
C  C22  1  0.03980000  0.29180000  0.49390000  1.0 -0.0219353649
C  C23  1  0.29180000  0.03980000  0.50610000  1.0 -0.0219353649
C  C24  1  0.70820000  0.96020000  0.00610000  1.0 -0.0219353649
C  C25  1  0.94280000  0.79000000  0.81230000  1.0 0.4890731321
C  C26  1  0.05720000  0.21000000  0.31230000  1.0 0.4890731321
C  C27  1  0.21000000  0.05720000  0.68770000  1.0 0.4890731321
C  C28  1  0.79000000  0.94280000  0.18770000  1.0 0.4890731321
C  C29  1  0.00010000  0.29530000  0.89520000  1.0 0.4804914416
C  C30  1  0.99990000  0.70470000  0.39520000  1.0 0.4804914416
C  C31  1  0.70470000  0.99990000  0.60480000  1.0 0.4804914416
C  C32  1  0.29530000  0.00010000  0.10480000  1.0 0.4804914416
C  C33  1  0.04840000  0.49360000  0.02740000  1.0 -0.030120963
C  C34  1  0.95160000  0.50640000  0.52740000  1.0 -0.030120963
C  C35  1  0.50640000  0.95160000  0.47260000  1.0 -0.030120963
C  C36  1  0.49360000  0.04840000  0.97260000  1.0 -0.030120963
C  C37  1  0.05540000  0.63020000  0.05610000  1.0 -0.0488024941
C  C38  1  0.94460000  0.36980000  0.55610000  1.0 -0.0488024941
C  C39  1  0.36980000  0.94460000  0.44390000  1.0 -0.0488024941
C  C40  1  0.63020000  0.05540000  0.94390000  1.0 -0.0488024941
C  C41  1  0.02000000  0.72780000  0.98570000  1.0 -0.0219353649
C  C42  1  0.98000000  0.27220000  0.48570000  1.0 -0.0219353649
C  C43  1  0.27220000  0.98000000  0.51430000  1.0 -0.0219353649
C  C44  1  0.72780000  0.02000000  0.01430000  1.0 -0.0219353649
O  O1  1  0.91740000  0.75800000  0.72071000  1.0 -0.6098578153
O  O2  1  0.08260000  0.24200000  0.22071000  1.0 -0.6098578153
O  O3  1  0.24200000  0.08260000  0.77929000  1.0 -0.6098578153
O  O4  1  0.75800000  0.91740000  0.27929000  1.0 -0.6098578153
O  O5  1  0.94950000  0.91370000  0.84840000  1.0 -0.5664374707
O  O6  1  0.05050000  0.08630000  0.34840000  1.0 -0.5664374707
O  O7  1  0.08630000  0.05050000  0.65160000  1.0 -0.5664374707
O  O8  1  0.91370000  0.94950000  0.15160000  1.0 -0.5664374707
O  O9  1  0.95059000  0.25561000  0.80760000  1.0 -0.5300349472
O  O10  1  0.04941000  0.74439000  0.30760000  1.0 -0.5300349472
O  O11  1  0.74439000  0.04941000  0.69240000  1.0 -0.5300349472
O  O12  1  0.25561000  0.95059000  0.19240000  1.0 -0.5300349472
O  O13  1  0.05319000  0.21821000  0.95450000  1.0 -0.2758376378
O  O14  1  0.94681000  0.78179000  0.45450000  1.0 -0.2747941492
O  O15  1  0.78179000  0.94681000  0.54550000  1.0 -0.2758376378
O  O16  1  0.21821000  0.05319000  0.04550000  1.0 -0.2758376378
O  O17  1  0.68610000  0.59390000  0.59300000  1.0 -0.2261782466
O  O18  1  0.31390000  0.40610000  0.09300000  1.0 -0.2261782466
O  O19  1  0.40610000  0.31390000  0.90700000  1.0 -0.2232913105
O  O20  1  0.59390000  0.68610000  0.40700000  1.0 -0.2261782466
O  O21  1  0.65010000  0.63990000  0.56700000  1.0 -0.1680383599
O  O22  1  0.34990000  0.36010000  0.06700000  1.0 -0.1680383599
O  O23  1  0.36010000  0.34990000  0.93300000  1.0 -0.1680383599
O  O24  1  0.63990000  0.65010000  0.43300000  1.0 -0.1680383599
O  O25  1  0.09900000  0.27300000  0.94500000  1.0 -0.2098329058
O  O26  1  0.90100000  0.72700000  0.44500000  1.0 -0.2098329058
O  O27  1  0.72700000  0.90100000  0.55500000  1.0 -0.2098329058
O  O28  1  0.27300000  0.09900000  0.05500000  1.0 -0.2098329058
