# DDEC6 charges by PACMAN v1.1 (https://github.com/mtap-research/PACMAN-charge/)
data_LUMHUZ_FSR_pacman
_symmetry_space_group_name_H-M   'P 1'
_cell_length_a   10.59200000
_cell_length_b   16.86000000
_cell_length_c   26.94900000
_cell_angle_alpha   90.00000000
_cell_angle_beta   90.00000000
_cell_angle_gamma   90.00000000
_symmetry_Int_Tables_number   1
_chemical_formula_structural   CdH16C28(N2O5)2
_chemical_formula_sum   'Cd4 H64 C112 N16 O40'
_cell_volume   4812.58260288
_cell_formula_units_Z   4
loop_
 _symmetry_equiv_pos_site_id
 _symmetry_equiv_pos_as_xyz
  1  'x, y, z'
loop_
 _atom_site_type_symbol
 _atom_site_label
 _atom_site_symmetry_multiplicity
 _atom_site_fract_x
 _atom_site_fract_y
 _atom_site_fract_z
 _atom_site_occupancy
 _atom_site_charge
Cd  Cd1  1  0.74174000  0.03830000  0.26214000  1.0 0.9974182089
Cd  Cd2  1  0.25826000  0.53830000  0.23786000  1.0 0.9974182089
Cd  Cd3  1  0.75826000  0.96170000  0.76214000  1.0 0.9974182089
Cd  Cd4  1  0.24174000  0.46170000  0.73786000  1.0 0.9974182089
H  H1  1  0.00880000  0.78500000  0.23940000  1.0 0.1387623384
H  H2  1  0.48360000  0.79730000  0.26650000  1.0 0.1387623384
H  H3  1  0.60000000  0.87280000  0.40100000  1.0 0.1387623384
H  H4  1  0.52830000  0.61540000  0.69300000  1.0 0.3587694455
H  H5  1  0.91170000  0.90810000  0.11740000  1.0 0.1387623384
H  H6  1  0.01280000  0.79970000  0.80030000  1.0 0.3587694455
H  H7  1  0.43190000  0.66080000  0.38740000  1.0 0.1387623384
H  H8  1  0.38040000  0.60520000  0.62720000  1.0 0.1524622514
H  H9  1  0.67870000  0.74280000  0.53340000  1.0 0.1218327348
H  H10  1  0.08770000  0.69840000  0.10330000  1.0 0.1308827967
H  H11  1  0.89200000  0.82490000  0.87110000  1.0 0.1524622514
H  H12  1  0.34350000  0.63360000  0.54340000  1.0 0.1308827967
H  H13  1  0.88620000  0.82470000  0.95730000  1.0 0.1218327348
H  H14  1  0.72340000  0.70800000  0.61520000  1.0 0.1387623384
H  H15  1  0.23650000  0.73710000  0.96100000  1.0 0.1218327348
H  H16  1  0.24390000  0.74190000  0.87360000  1.0 0.1308827967
H  H17  1  0.99120000  0.28500000  0.26060000  1.0 0.1387623384
H  H18  1  0.51640000  0.29730000  0.23350000  1.0 0.1387623384
H  H19  1  0.40000000  0.37280000  0.09900000  1.0 0.1387623384
H  H20  1  0.47170000  0.11540000  0.80700000  1.0 0.3587694455
H  H21  1  0.08830000  0.40810000  0.38260000  1.0 0.1387623384
H  H22  1  0.98720000  0.29970000  0.69970000  1.0 0.3587694455
H  H23  1  0.56810000  0.16080000  0.11260000  1.0 0.1387623384
H  H24  1  0.61960000  0.10520000  0.87280000  1.0 0.1524622514
H  H25  1  0.32130000  0.24280000  0.96660000  1.0 0.1218327348
H  H26  1  0.91230000  0.19840000  0.39670000  1.0 0.1308827967
H  H27  1  0.10800000  0.32490000  0.62890000  1.0 0.1524622514
H  H28  1  0.65650000  0.13360000  0.95660000  1.0 0.1308827967
H  H29  1  0.11380000  0.32470000  0.54270000  1.0 0.1218327348
H  H30  1  0.27660000  0.20800000  0.88480000  1.0 0.1387623384
H  H31  1  0.76350000  0.23710000  0.53900000  1.0 0.1218327348
H  H32  1  0.75610000  0.24190000  0.62640000  1.0 0.1308827967
H  H33  1  0.49120000  0.21500000  0.73940000  1.0 0.1387623384
H  H34  1  0.01640000  0.20270000  0.76650000  1.0 0.1387623384
H  H35  1  0.90000000  0.12720000  0.90100000  1.0 0.1387623384
H  H36  1  0.97170000  0.38460000  0.19300000  1.0 0.3587694455
H  H37  1  0.58830000  0.09190000  0.61740000  1.0 0.1387623384
H  H38  1  0.48720000  0.20030000  0.30030000  1.0 0.3587694455
H  H39  1  0.06810000  0.33920000  0.88740000  1.0 0.1387623384
H  H40  1  0.11960000  0.39480000  0.12720000  1.0 0.1524622514
H  H41  1  0.82130000  0.25720000  0.03340000  1.0 0.1218327348
H  H42  1  0.41230000  0.30160000  0.60330000  1.0 0.1308827967
H  H43  1  0.60800000  0.17510000  0.37110000  1.0 0.1524622514
H  H44  1  0.15650000  0.36640000  0.04340000  1.0 0.1308827967
H  H45  1  0.61380000  0.17530000  0.45730000  1.0 0.1218327348
H  H46  1  0.77660000  0.29200000  0.11520000  1.0 0.1387623384
H  H47  1  0.26350000  0.26290000  0.46100000  1.0 0.1218327348
H  H48  1  0.25610000  0.25810000  0.37360000  1.0 0.1308827967
H  H49  1  0.50880000  0.71500000  0.76060000  1.0 0.1387623384
H  H50  1  0.98360000  0.70270000  0.73350000  1.0 0.1387623384
H  H51  1  0.10000000  0.62720000  0.59900000  1.0 0.1387623384
H  H52  1  0.02830000  0.88460000  0.30700000  1.0 0.3587694455
H  H53  1  0.41170000  0.59190000  0.88260000  1.0 0.1387623384
H  H54  1  0.51280000  0.70030000  0.19970000  1.0 0.3587694455
H  H55  1  0.93190000  0.83920000  0.61260000  1.0 0.1387623384
H  H56  1  0.88040000  0.89480000  0.37280000  1.0 0.1524622514
H  H57  1  0.17870000  0.75720000  0.46660000  1.0 0.1218327348
H  H58  1  0.58770000  0.80160000  0.89670000  1.0 0.1308827967
H  H59  1  0.39200000  0.67510000  0.12890000  1.0 0.1524622514
H  H60  1  0.84350000  0.86640000  0.45660000  1.0 0.1308827967
H  H61  1  0.38620000  0.67530000  0.04270000  1.0 0.1218327348
H  H62  1  0.22340000  0.79200000  0.38480000  1.0 0.1387623384
H  H63  1  0.73650000  0.76290000  0.03900000  1.0 0.1218327348
H  H64  1  0.74390000  0.75810000  0.12640000  1.0 0.1308827967
C  C1  1  0.89490000  0.91990000  0.21700000  1.0 0.5480641414
C  C2  1  0.05540000  0.73080000  0.17530000  1.0 0.0315582046
C  C3  1  0.00610000  0.79020000  0.20510000  1.0 -0.0915753218
C  C4  1  0.59940000  0.92140000  0.30500000  1.0 0.5295885195
C  C5  1  0.49170000  0.78930000  0.30050000  1.0 -0.0915753218
C  C6  1  0.56100000  0.83440000  0.38160000  1.0 -0.1590339794
C  C7  1  0.54620000  0.84740000  0.32980000  1.0 0.0315582046
C  C8  1  0.95310000  0.85720000  0.18410000  1.0 0.0074178981
C  C9  1  0.11180000  0.65800000  0.19880000  1.0 0.5295885195
C  C10  1  0.55250000  0.65570000  0.63130000  1.0 0.3070580502
C  C11  1  0.94900000  0.86380000  0.13180000  1.0 -0.1528696726
C  C12  1  0.46160000  0.70750000  0.37320000  1.0 -0.1590339794
C  C13  1  0.00050000  0.80440000  0.10120000  1.0 0.1524622514
C  C14  1  0.39440000  0.65450000  0.28970000  1.0 0.5432066907
C  C15  1  0.44930000  0.71930000  0.32170000  1.0 0.0074178981
C  C16  1  0.06290000  0.78070000  0.96930000  1.0 0.1387623384
C  C17  1  0.44100000  0.63250000  0.60890000  1.0 -0.1934833984
C  C18  1  0.51800000  0.76520000  0.40320000  1.0 0.1524622514
C  C19  1  0.61950000  0.71450000  0.55180000  1.0 -0.1198473192
C  C20  1  0.05340000  0.73820000  0.12300000  1.0 -0.1590339794
C  C21  1  0.96270000  0.80850000  0.88880000  1.0 -0.1773053698
C  C22  1  0.41860000  0.65030000  0.55790000  1.0 -0.1198473192
C  C23  1  0.95860000  0.80750000  0.94110000  1.0 -0.1198473192
C  C24  1  0.50450000  0.69160000  0.52930000  1.0 0.1308827967
C  C25  1  0.06970000  0.78540000  0.86360000  1.0 0.2841387753
C  C26  1  0.64540000  0.69510000  0.60150000  1.0 -0.1590339794
C  C27  1  0.16690000  0.75600000  0.94360000  1.0 -0.1304785918
C  C28  1  0.17150000  0.75860000  0.89020000  1.0 -0.1773053698
C  C29  1  0.10510000  0.41990000  0.28300000  1.0 0.5480641414
C  C30  1  0.94460000  0.23080000  0.32470000  1.0 0.0315582046
C  C31  1  0.99390000  0.29020000  0.29490000  1.0 -0.0915753218
C  C32  1  0.40060000  0.42140000  0.19500000  1.0 0.5295885195
C  C33  1  0.50830000  0.28930000  0.19950000  1.0 -0.0915753218
C  C34  1  0.43900000  0.33440000  0.11840000  1.0 -0.1590339794
C  C35  1  0.45380000  0.34740000  0.17020000  1.0 0.0315582046
C  C36  1  0.04690000  0.35720000  0.31590000  1.0 0.0074178981
C  C37  1  0.88820000  0.15800000  0.30120000  1.0 0.5295885195
C  C38  1  0.44750000  0.15570000  0.86870000  1.0 0.3070580502
C  C39  1  0.05100000  0.36380000  0.36820000  1.0 -0.1528696726
C  C40  1  0.53840000  0.20750000  0.12680000  1.0 -0.1590339794
C  C41  1  0.99950000  0.30440000  0.39880000  1.0 0.1524622514
C  C42  1  0.60560000  0.15450000  0.21030000  1.0 0.5432066907
C  C43  1  0.55070000  0.21930000  0.17830000  1.0 0.0074178981
C  C44  1  0.93710000  0.28070000  0.53070000  1.0 0.1387623384
C  C45  1  0.55900000  0.13250000  0.89110000  1.0 -0.1934833984
C  C46  1  0.48200000  0.26520000  0.09680000  1.0 0.1524622514
C  C47  1  0.38050000  0.21450000  0.94820000  1.0 -0.1198473192
C  C48  1  0.94660000  0.23820000  0.37700000  1.0 -0.1590339794
C  C49  1  0.03730000  0.30850000  0.61120000  1.0 -0.1773053698
C  C50  1  0.58140000  0.15030000  0.94210000  1.0 -0.1198473192
C  C51  1  0.04140000  0.30750000  0.55890000  1.0 -0.1198473192
C  C52  1  0.49550000  0.19160000  0.97070000  1.0 0.1308827967
C  C53  1  0.93030000  0.28540000  0.63640000  1.0 0.2841387753
C  C54  1  0.35460000  0.19510000  0.89850000  1.0 -0.1590339794
C  C55  1  0.83310000  0.25600000  0.55640000  1.0 -0.1304785918
C  C56  1  0.82850000  0.25860000  0.60980000  1.0 -0.1773053698
C  C57  1  0.60510000  0.08010000  0.71700000  1.0 0.5480641414
C  C58  1  0.44460000  0.26920000  0.67530000  1.0 0.0315582046
C  C59  1  0.49390000  0.20980000  0.70510000  1.0 -0.0915753218
C  C60  1  0.90060000  0.07860000  0.80500000  1.0 0.5295885195
C  C61  1  0.00830000  0.21070000  0.80050000  1.0 -0.0915753218
C  C62  1  0.93900000  0.16560000  0.88160000  1.0 -0.1590339794
C  C63  1  0.95380000  0.15260000  0.82980000  1.0 0.0315582046
C  C64  1  0.54690000  0.14280000  0.68410000  1.0 0.0074178981
C  C65  1  0.38820000  0.34200000  0.69880000  1.0 0.5295885195
C  C66  1  0.94750000  0.34430000  0.13130000  1.0 0.3070580502
C  C67  1  0.55100000  0.13620000  0.63180000  1.0 -0.1528696726
C  C68  1  0.03840000  0.29250000  0.87320000  1.0 -0.1590339794
C  C69  1  0.49950000  0.19560000  0.60120000  1.0 0.1524622514
C  C70  1  0.10560000  0.34550000  0.78970000  1.0 0.5432066907
C  C71  1  0.05070000  0.28070000  0.82170000  1.0 0.0074178981
C  C72  1  0.43710000  0.21930000  0.46930000  1.0 0.1387623384
C  C73  1  0.05900000  0.36750000  0.10890000  1.0 -0.1934833984
C  C74  1  0.98200000  0.23480000  0.90320000  1.0 0.1524622514
C  C75  1  0.88050000  0.28550000  0.05180000  1.0 -0.1198473192
C  C76  1  0.44660000  0.26180000  0.62300000  1.0 -0.1590339794
C  C77  1  0.53730000  0.19150000  0.38880000  1.0 -0.1773053698
C  C78  1  0.08140000  0.34970000  0.05790000  1.0 -0.1198473192
C  C79  1  0.54140000  0.19250000  0.44110000  1.0 -0.1198473192
C  C80  1  0.99550000  0.30840000  0.02930000  1.0 0.1308827967
C  C81  1  0.43030000  0.21460000  0.36360000  1.0 0.2841387753
C  C82  1  0.85460000  0.30490000  0.10150000  1.0 -0.1590339794
C  C83  1  0.33310000  0.24400000  0.44360000  1.0 -0.1304785918
C  C84  1  0.32850000  0.24140000  0.39020000  1.0 -0.1773053698
C  C85  1  0.39490000  0.58010000  0.78300000  1.0 0.5480641414
C  C86  1  0.55540000  0.76920000  0.82470000  1.0 0.0315582046
C  C87  1  0.50610000  0.70980000  0.79490000  1.0 -0.0915753218
C  C88  1  0.09940000  0.57860000  0.69500000  1.0 0.5295885195
C  C89  1  0.99170000  0.71070000  0.69950000  1.0 -0.0915753218
C  C90  1  0.06100000  0.66560000  0.61840000  1.0 -0.1590339794
C  C91  1  0.04620000  0.65260000  0.67020000  1.0 0.0315582046
C  C92  1  0.45310000  0.64280000  0.81590000  1.0 0.0074178981
C  C93  1  0.61180000  0.84200000  0.80120000  1.0 0.5295885195
C  C94  1  0.05250000  0.84430000  0.36870000  1.0 0.3070580502
C  C95  1  0.44900000  0.63620000  0.86820000  1.0 -0.1528696726
C  C96  1  0.96160000  0.79250000  0.62680000  1.0 -0.1590339794
C  C97  1  0.50050000  0.69560000  0.89880000  1.0 0.1524622514
C  C98  1  0.89440000  0.84550000  0.71030000  1.0 0.5432066907
C  C99  1  0.94930000  0.78070000  0.67830000  1.0 0.0074178981
C  C100  1  0.56290000  0.71930000  0.03070000  1.0 0.1387623384
C  C101  1  0.94100000  0.86750000  0.39110000  1.0 -0.1934833984
C  C102  1  0.01800000  0.73480000  0.59680000  1.0 0.1524622514
C  C103  1  0.11950000  0.78550000  0.44820000  1.0 -0.1198473192
C  C104  1  0.55340000  0.76180000  0.87700000  1.0 -0.1590339794
C  C105  1  0.46270000  0.69150000  0.11120000  1.0 -0.1773053698
C  C106  1  0.91860000  0.84970000  0.44210000  1.0 -0.1198473192
C  C107  1  0.45860000  0.69250000  0.05890000  1.0 -0.1198473192
C  C108  1  0.00450000  0.80840000  0.47070000  1.0 0.1308827967
C  C109  1  0.56970000  0.71460000  0.13640000  1.0 0.2841387753
C  C110  1  0.14540000  0.80490000  0.39850000  1.0 -0.1590339794
C  C111  1  0.66690000  0.74400000  0.05640000  1.0 -0.1304785918
C  C112  1  0.67150000  0.74140000  0.10980000  1.0 -0.1773053698
N  N1  1  0.99030000  0.81550000  0.04710000  1.0 -0.1003076268
N  N2  1  0.47310000  0.70700000  0.47850000  1.0 -0.1003076268
N  N3  1  0.06960000  0.77680000  0.02200000  1.0 -0.1003076268
N  N4  1  0.54310000  0.75560000  0.45650000  1.0 -0.1003076268
N  N5  1  0.00970000  0.31550000  0.45290000  1.0 -0.1003076268
N  N6  1  0.52690000  0.20700000  0.02150000  1.0 -0.1003076268
N  N7  1  0.93040000  0.27680000  0.47800000  1.0 -0.1003076268
N  N8  1  0.45690000  0.25560000  0.04350000  1.0 -0.1003076268
N  N9  1  0.50970000  0.18450000  0.54710000  1.0 -0.1003076268
N  N10  1  0.02690000  0.29300000  0.97850000  1.0 -0.1003076268
N  N11  1  0.43040000  0.22320000  0.52200000  1.0 -0.1003076268
N  N12  1  0.95690000  0.24440000  0.95650000  1.0 -0.1003076268
N  N13  1  0.49030000  0.68450000  0.95290000  1.0 -0.1003076268
N  N14  1  0.97310000  0.79300000  0.52150000  1.0 -0.1003076268
N  N15  1  0.56960000  0.72320000  0.97800000  1.0 -0.1003076268
N  N16  1  0.04310000  0.74440000  0.54350000  1.0 -0.1003076268
O  O1  1  0.58590000  0.92940000  0.25790000  1.0 -0.4606876469
O  O2  1  0.16910000  0.61030000  0.17220000  1.0 -0.4783180441
O  O3  1  0.10100000  0.64840000  0.24620000  1.0 -0.4606876469
O  O4  1  0.39700000  0.65980000  0.24160000  1.0 -0.4990438403
O  O5  1  0.90930000  0.92080000  0.26420000  1.0 -0.5053116988
O  O6  1  0.82810000  0.97110000  0.19550000  1.0 -0.4424042489
O  O7  1  0.65930000  0.96840000  0.33120000  1.0 -0.4783180441
O  O8  1  0.34740000  0.59640000  0.31100000  1.0 -0.4290421243
O  O9  1  0.58450000  0.64110000  0.67970000  1.0 -0.4214460115
O  O10  1  0.07950000  0.78460000  0.81260000  1.0 -0.4214460115
O  O11  1  0.41410000  0.42940000  0.24210000  1.0 -0.4606876469
O  O12  1  0.83090000  0.11030000  0.32780000  1.0 -0.4783180441
O  O13  1  0.89900000  0.14840000  0.25380000  1.0 -0.4606876469
O  O14  1  0.60300000  0.15980000  0.25840000  1.0 -0.4990438403
O  O15  1  0.09070000  0.42080000  0.23580000  1.0 -0.4990438403
O  O16  1  0.17190000  0.47110000  0.30450000  1.0 -0.4424042489
O  O17  1  0.34070000  0.46840000  0.16880000  1.0 -0.4783180441
O  O18  1  0.65260000  0.09640000  0.18900000  1.0 -0.4290421243
O  O19  1  0.41550000  0.14110000  0.82030000  1.0 -0.4214460115
O  O20  1  0.92050000  0.28460000  0.68740000  1.0 -0.4214460115
O  O21  1  0.91410000  0.07060000  0.75790000  1.0 -0.4606876469
O  O22  1  0.33090000  0.38970000  0.67220000  1.0 -0.4783180441
O  O23  1  0.39900000  0.35160000  0.74620000  1.0 -0.4657393108
O  O24  1  0.10300000  0.34020000  0.74160000  1.0 -0.4990438403
O  O25  1  0.59070000  0.07920000  0.76420000  1.0 -0.4990438403
O  O26  1  0.67190000  0.02890000  0.69550000  1.0 -0.4424042489
O  O27  1  0.84070000  0.03160000  0.83120000  1.0 -0.4783180441
O  O28  1  0.15260000  0.40360000  0.81100000  1.0 -0.4290421243
O  O29  1  0.91550000  0.35890000  0.17970000  1.0 -0.4214460115
O  O30  1  0.42050000  0.21540000  0.31260000  1.0 -0.4214460115
O  O31  1  0.08590000  0.57060000  0.74210000  1.0 -0.4606876469
O  O32  1  0.66910000  0.88970000  0.82780000  1.0 -0.4783180441
O  O33  1  0.60100000  0.85160000  0.75380000  1.0 -0.4606876469
O  O34  1  0.89700000  0.84020000  0.75840000  1.0 -0.4990438403
O  O35  1  0.40930000  0.57920000  0.73580000  1.0 -0.4990438403
O  O36  1  0.32810000  0.52890000  0.80450000  1.0 -0.4424042489
O  O37  1  0.15930000  0.53160000  0.66880000  1.0 -0.4783180441
O  O38  1  0.84740000  0.90360000  0.68900000  1.0 -0.4290421243
O  O39  1  0.08450000  0.85890000  0.32030000  1.0 -0.4214460115
O  O40  1  0.57950000  0.71540000  0.18740000  1.0 -0.4214460115
