# DDEC6 charges by PACMAN v1.1 (https://github.com/mtap-research/PACMAN-charge/)
data_LUMYOJ_ASR_pacman
_symmetry_space_group_name_H-M   'P 1'
_cell_length_a   13.06100000
_cell_length_b   13.06100000
_cell_length_c   16.50200000
_cell_angle_alpha   62.33480000
_cell_angle_beta   117.66500000
_cell_angle_gamma   137.40500000
_symmetry_Int_Tables_number   1
_chemical_formula_structural   Cu2H(C2N3)3
_chemical_formula_sum   'Cu8 H4 C24 N36'
_cell_volume   1651.84220383
_cell_formula_units_Z   4
loop_
 _symmetry_equiv_pos_site_id
 _symmetry_equiv_pos_as_xyz
  1  'x, y, z'
loop_
 _atom_site_type_symbol
 _atom_site_label
 _atom_site_symmetry_multiplicity
 _atom_site_fract_x
 _atom_site_fract_y
 _atom_site_fract_z
 _atom_site_occupancy
 _atom_site_charge
Cu  Cu1  1  0.13367000  0.21911000  0.96037000  1.0 0.1930173974
Cu  Cu2  1  0.21911000  0.13367000  0.53963000  1.0 0.1930173974
Cu  Cu3  1  0.86633000  0.78089000  0.03963000  1.0 0.1930173974
Cu  Cu4  1  0.78089000  0.86633000  0.46037000  1.0 0.1930173974
Cu  Cu5  1  0.42787000  0.34227000  0.87775000  1.0 0.3194987293
Cu  Cu6  1  0.34227000  0.42787000  0.62225000  1.0 0.3194987293
Cu  Cu7  1  0.57213000  0.65773000  0.12225000  1.0 0.3194987293
Cu  Cu8  1  0.65773000  0.57213000  0.37775000  1.0 0.3194987293
H  H1  1  0.58830000  0.08670000  0.87040000  1.0 0.1508145
H  H2  1  0.08670000  0.58830000  0.62960000  1.0 0.1508145
H  H3  1  0.41170000  0.91330000  0.12960000  1.0 0.1508145
H  H4  1  0.91330000  0.41170000  0.37040000  1.0 0.1508145
C  C1  1  0.28765000  0.37515000  0.03586000  1.0 0.0571534022
C  C2  1  0.37515000  0.28765000  0.46414000  1.0 0.0571534022
C  C3  1  0.71235000  0.62485000  0.96414000  1.0 0.0571534022
C  C4  1  0.62485000  0.71235000  0.53586000  1.0 0.0571534022
C  C5  1  0.55292000  0.05128000  0.92292000  1.0 -0.0927781068
C  C6  1  0.05128000  0.55292000  0.57708000  1.0 -0.0927781068
C  C7  1  0.44708000  0.94872000  0.07708000  1.0 -0.0927781068
C  C8  1  0.94872000  0.44708000  0.42292000  1.0 -0.0927781068
C  C9  1  0.45017000  0.06223000  0.91509000  1.0 0.0246145523
C  C10  1  0.06223000  0.45017000  0.58491000  1.0 0.0246145523
C  C11  1  0.54983000  0.93777000  0.08491000  1.0 0.0265847376
C  C12  1  0.93777000  0.54983000  0.41509000  1.0 0.0265847376
C  C13  1  0.39655000  0.01085000  0.99319000  1.0 0.0265847376
C  C14  1  0.01085000  0.39655000  0.50681000  1.0 0.0265847376
C  C15  1  0.60345000  0.98915000  0.00681000  1.0 0.0265847376
C  C16  1  0.98915000  0.60345000  0.49319000  1.0 0.0265847376
C  C17  1  0.28120000  0.00780000  0.99294000  1.0 0.2731245647
C  C18  1  0.00780000  0.28120000  0.50706000  1.0 0.2731245647
C  C19  1  0.71880000  0.99220000  0.00706000  1.0 0.2731245647
C  C20  1  0.99220000  0.71880000  0.49294000  1.0 0.2731245647
C  C21  1  0.39805000  0.12175000  0.82124000  1.0 0.2610243338
C  C22  1  0.12175000  0.39805000  0.67876000  1.0 0.2610243338
C  C23  1  0.60195000  0.87825000  0.17876000  1.0 0.2610243338
C  C24  1  0.87825000  0.60195000  0.32124000  1.0 0.2610243338
N  N1  1  0.15464000  0.88076000  0.02937000  1.0 -0.2372349498
N  N2  1  0.88076000  0.15464000  0.47063000  1.0 -0.2372349498
N  N3  1  0.84536000  0.11924000  0.97063000  1.0 -0.2372349498
N  N4  1  0.11924000  0.84536000  0.52937000  1.0 -0.2372349498
N  N5  1  0.08563000  0.92737000  0.02155000  1.0 -0.0092341204
N  N6  1  0.92737000  0.08563000  0.47845000  1.0 -0.0092341204
N  N7  1  0.91437000  0.07263000  0.97845000  1.0 -0.0092341204
N  N8  1  0.07263000  0.91437000  0.52155000  1.0 -0.0092341204
N  N9  1  0.16751000  0.07469000  0.98310000  1.0 -0.0024968541
N  N10  1  0.07469000  0.16751000  0.51690000  1.0 0.0001816864
N  N11  1  0.83249000  0.92531000  0.01690000  1.0 -0.0024968541
N  N12  1  0.92531000  0.83249000  0.48310000  1.0 -0.0024968541
N  N13  1  0.29229000  0.12831000  0.96387000  1.0 -0.2290648107
N  N14  1  0.12831000  0.29229000  0.53613000  1.0 -0.2290648107
N  N15  1  0.70771000  0.87169000  0.03613000  1.0 -0.2290648107
N  N16  1  0.87169000  0.70771000  0.46387000  1.0 -0.2290648107
N  N17  1  0.40016000  0.23544000  0.79902000  1.0 -0.204348128
N  N18  1  0.23544000  0.40016000  0.70098000  1.0 -0.2056163062
N  N19  1  0.59984000  0.76456000  0.20098000  1.0 -0.204348128
N  N20  1  0.76456000  0.59984000  0.29902000  1.0 -0.204348128
N  N21  1  0.34923000  0.25297000  0.70721000  1.0 -0.0092341204
N  N22  1  0.25297000  0.34923000  0.79279000  1.0 -0.0092341204
N  N23  1  0.65077000  0.74703000  0.29279000  1.0 -0.0092341204
N  N24  1  0.74703000  0.65077000  0.20721000  1.0 -0.0092341204
N  N25  1  0.31771000  0.15329000  0.67658000  1.0 -0.0024968541
N  N26  1  0.15329000  0.31771000  0.82342000  1.0 -0.0024968541
N  N27  1  0.68229000  0.84671000  0.32342000  1.0 -0.0092341204
N  N28  1  0.84671000  0.68229000  0.17658000  1.0 -0.0024968541
N  N29  1  0.34870000  0.06870000  0.74783000  1.0 -0.224476989
N  N30  1  0.06870000  0.34870000  0.75217000  1.0 -0.224476989
N  N31  1  0.65130000  0.93130000  0.25217000  1.0 -0.224476989
N  N32  1  0.93130000  0.65130000  0.24783000  1.0 -0.224476989
N  N33  1  0.38883000  0.47797000  0.07067000  1.0 -0.2941206504
N  N34  1  0.47797000  0.38883000  0.42933000  1.0 -0.2941206504
N  N35  1  0.61117000  0.52203000  0.92933000  1.0 -0.2941206504
N  N36  1  0.52203000  0.61117000  0.57067000  1.0 -0.2941206504
