# DDEC6 charges by PACMAN v1.1 (https://github.com/mtap-research/PACMAN-charge/)
data_LUMYID_ASR_pacman
_symmetry_space_group_name_H-M   'P 1'
_cell_length_a   13.03890000
_cell_length_b   13.03890000
_cell_length_c   16.62800000
_cell_angle_alpha   62.89900000
_cell_angle_beta   117.10100000
_cell_angle_gamma   137.69700000
_symmetry_Int_Tables_number   1
_chemical_formula_structural   Cu2H(C2N3)3
_chemical_formula_sum   'Cu8 H4 C24 N36'
_cell_volume   1660.25955011
_cell_formula_units_Z   4
loop_
 _symmetry_equiv_pos_site_id
 _symmetry_equiv_pos_as_xyz
  1  'x, y, z'
loop_
 _atom_site_type_symbol
 _atom_site_label
 _atom_site_symmetry_multiplicity
 _atom_site_fract_x
 _atom_site_fract_y
 _atom_site_fract_z
 _atom_site_occupancy
 _atom_site_charge
Cu  Cu1  1  0.13370000  0.21916000  0.95885000  1.0 0.1924399863
Cu  Cu2  1  0.21916000  0.13370000  0.54115000  1.0 0.1924399863
Cu  Cu3  1  0.86630000  0.78084000  0.04115000  1.0 0.1924399863
Cu  Cu4  1  0.78084000  0.86630000  0.45885000  1.0 0.1924399863
Cu  Cu5  1  0.42847000  0.34293000  0.87746000  1.0 0.3221753593
Cu  Cu6  1  0.34293000  0.42847000  0.62254000  1.0 0.3221753593
Cu  Cu7  1  0.57153000  0.65707000  0.12254000  1.0 0.3221753593
Cu  Cu8  1  0.65707000  0.57153000  0.37746000  1.0 0.3221753593
H  H1  1  0.59160000  0.08980000  0.87190000  1.0 0.1501250918
H  H2  1  0.08980000  0.59160000  0.62810000  1.0 0.1501250918
H  H3  1  0.40840000  0.91020000  0.12810000  1.0 0.1501250918
H  H4  1  0.91020000  0.40840000  0.37190000  1.0 0.1501250918
C  C1  1  0.55430000  0.05290000  0.92360000  1.0 -0.0936740619
C  C2  1  0.05290000  0.55430000  0.57640000  1.0 -0.0936740619
C  C3  1  0.44570000  0.94710000  0.07640000  1.0 -0.0936740619
C  C4  1  0.94710000  0.44570000  0.42360000  1.0 -0.0936740619
C  C5  1  0.44980000  0.06260000  0.91550000  1.0 0.0268495203
C  C6  1  0.06260000  0.44980000  0.58450000  1.0 0.0268495203
C  C7  1  0.55020000  0.93740000  0.08450000  1.0 0.0268495203
C  C8  1  0.93740000  0.55020000  0.41550000  1.0 0.0268495203
C  C9  1  0.39620000  0.00980000  0.99390000  1.0 0.0268495203
C  C10  1  0.00980000  0.39620000  0.50610000  1.0 0.0268495203
C  C11  1  0.60380000  0.99020000  0.00610000  1.0 0.0268495203
C  C12  1  0.99020000  0.60380000  0.49390000  1.0 0.0268495203
C  C13  1  0.28150000  0.00710000  0.99400000  1.0 0.2674841564
C  C14  1  0.00710000  0.28150000  0.50600000  1.0 0.2674841564
C  C15  1  0.71850000  0.99290000  0.00600000  1.0 0.2674841564
C  C16  1  0.99290000  0.71850000  0.49400000  1.0 0.2674841564
C  C17  1  0.39760000  0.12220000  0.82240000  1.0 0.2674841564
C  C18  1  0.12220000  0.39760000  0.67760000  1.0 0.2674841564
C  C19  1  0.60240000  0.87780000  0.17760000  1.0 0.2674841564
C  C20  1  0.87780000  0.60240000  0.32240000  1.0 0.2674841564
C  C21  1  0.28650000  0.37690000  0.03260000  1.0 0.0533878747
C  C22  1  0.37690000  0.28650000  0.46740000  1.0 0.0533878747
C  C23  1  0.71350000  0.62310000  0.96740000  1.0 0.0533878747
C  C24  1  0.62310000  0.71350000  0.53260000  1.0 0.0533878747
N  N1  1  0.29106000  0.12754000  0.96270000  1.0 -0.2300880328
N  N2  1  0.12754000  0.29106000  0.53730000  1.0 -0.2300880328
N  N3  1  0.70894000  0.87246000  0.03730000  1.0 -0.2300880328
N  N4  1  0.87246000  0.70894000  0.46270000  1.0 -0.2300880328
N  N5  1  0.16612000  0.07328000  0.98280000  1.0 0.0016253063
N  N6  1  0.07328000  0.16612000  0.51720000  1.0 0.0016253063
N  N7  1  0.83388000  0.92672000  0.01720000  1.0 0.0016253063
N  N8  1  0.92672000  0.83388000  0.48280000  1.0 0.0016253063
N  N9  1  0.08715000  0.92745000  0.02360000  1.0 0.0016253063
N  N10  1  0.92745000  0.08715000  0.47640000  1.0 0.0016253063
N  N11  1  0.91285000  0.07255000  0.97640000  1.0 0.0016253063
N  N12  1  0.07255000  0.91285000  0.52360000  1.0 0.0016253063
N  N13  1  0.15610000  0.88090000  0.03250000  1.0 -0.2300880328
N  N14  1  0.88090000  0.15610000  0.46750000  1.0 -0.2300880328
N  N15  1  0.84390000  0.11910000  0.96750000  1.0 -0.2300880328
N  N16  1  0.11910000  0.84390000  0.53250000  1.0 -0.2300880328
N  N17  1  0.34880000  0.06980000  0.74890000  1.0 -0.2352312003
N  N18  1  0.06980000  0.34880000  0.75110000  1.0 -0.2352312003
N  N19  1  0.65120000  0.93020000  0.25110000  1.0 -0.2352312003
N  N20  1  0.93020000  0.65120000  0.24890000  1.0 -0.2352312003
N  N21  1  0.31820000  0.15420000  0.67780000  1.0 0.0016253063
N  N22  1  0.15420000  0.31820000  0.82220000  1.0 0.0016253063
N  N23  1  0.68180000  0.84580000  0.32220000  1.0 0.0016253063
N  N24  1  0.84580000  0.68180000  0.17780000  1.0 0.0016253063
N  N25  1  0.35049000  0.25471000  0.70740000  1.0 -0.0157820909
N  N26  1  0.25471000  0.35049000  0.79260000  1.0 -0.0157820909
N  N27  1  0.64951000  0.74529000  0.29260000  1.0 -0.0157820909
N  N28  1  0.74529000  0.64951000  0.20740000  1.0 -0.0157820909
N  N29  1  0.40111000  0.23649000  0.79910000  1.0 -0.2137883846
N  N30  1  0.23649000  0.40111000  0.70090000  1.0 -0.2137883846
N  N31  1  0.59889000  0.76351000  0.20090000  1.0 -0.2137883846
N  N32  1  0.76351000  0.59889000  0.29910000  1.0 -0.2137883846
N  N33  1  0.38900000  0.47880000  0.06940000  1.0 -0.293019781
N  N34  1  0.47880000  0.38900000  0.43060000  1.0 -0.293019781
N  N35  1  0.61100000  0.52120000  0.93060000  1.0 -0.293019781
N  N36  1  0.52120000  0.61100000  0.56940000  1.0 -0.293019781
