# DDEC6 charges by PACMAN v1.1 (https://github.com/mtap-research/PACMAN-charge/)
data_LUMZUO_FSR_pacman
_symmetry_space_group_name_H-M   'P 1'
_cell_length_a   13.25010000
_cell_length_b   13.25010000
_cell_length_c   18.49890000
_cell_angle_alpha   87.44410000
_cell_angle_beta   92.55590000
_cell_angle_gamma   67.26840000
_symmetry_Int_Tables_number   1
_chemical_formula_structural   Mn3W6C6S8(NO2)6
_chemical_formula_sum   'Mn6 W12 C12 S16 N12 O24'
_cell_volume   2985.76840925
_cell_formula_units_Z   2
loop_
 _symmetry_equiv_pos_site_id
 _symmetry_equiv_pos_as_xyz
  1  'x, y, z'
loop_
 _atom_site_type_symbol
 _atom_site_label
 _atom_site_symmetry_multiplicity
 _atom_site_fract_x
 _atom_site_fract_y
 _atom_site_fract_z
 _atom_site_occupancy
 _atom_site_charge
Mn  Mn1  1  0.70699000  0.21243000  0.30304000  1.0 1.462161122
Mn  Mn2  1  0.21243000  0.70699000  0.19696000  1.0 1.462161122
Mn  Mn3  1  0.29301000  0.78757000  0.69696000  1.0 1.462161122
Mn  Mn4  1  0.78757000  0.29301000  0.80304000  1.0 1.4662648223
Mn  Mn5  1  0.00000000  0.50000000  0.00000000  1.0 1.4460303567
Mn  Mn6  1  0.50000000  0.00000000  0.50000000  1.0 1.430796244
W  W1  1  0.55047000  0.03491000  0.08918000  1.0 0.5166849178
W  W2  1  0.03491000  0.55047000  0.41082000  1.0 0.5124018274
W  W3  1  0.44953000  0.96509000  0.91082000  1.0 0.5166849178
W  W4  1  0.96509000  0.44953000  0.58918000  1.0 0.5166849178
W  W5  1  0.43035000  0.92069000  0.05098000  1.0 0.4994129546
W  W6  1  0.92069000  0.43035000  0.44902000  1.0 0.4994129546
W  W7  1  0.56965000  0.07931000  0.94902000  1.0 0.4994129546
W  W8  1  0.07931000  0.56965000  0.55098000  1.0 0.4994129546
W  W9  1  0.62889000  0.87149000  0.00120000  1.0 0.4915418259
W  W10  1  0.87149000  0.62889000  0.49880000  1.0 0.4915418259
W  W11  1  0.37111000  0.12851000  0.99880000  1.0 0.4915418259
W  W12  1  0.12851000  0.37111000  0.50120000  1.0 0.4915418259
C  C1  1  0.61130000  0.08210000  0.18790000  1.0 0.2574906481
C  C2  1  0.08210000  0.61130000  0.31210000  1.0 0.2546378307
C  C3  1  0.38870000  0.91790000  0.81210000  1.0 0.2574906481
C  C4  1  0.91790000  0.38870000  0.68790000  1.0 0.2574906481
C  C5  1  0.34740000  0.83000000  0.10410000  1.0 0.2799310393
C  C6  1  0.83000000  0.34740000  0.39590000  1.0 0.2857912265
C  C7  1  0.65260000  0.17000000  0.89590000  1.0 0.2857912265
C  C8  1  0.17000000  0.65260000  0.60410000  1.0 0.2799310393
C  C9  1  0.77630000  0.72350000  0.00310000  1.0 0.2799310393
C  C10  1  0.72350000  0.77630000  0.49690000  1.0 0.2728795193
C  C11  1  0.22370000  0.27650000  0.99690000  1.0 0.2799310393
C  C12  1  0.27650000  0.22370000  0.50310000  1.0 0.2728795193
S  S1  1  0.60030000  0.84130000  0.12997000  1.0 -0.2601067566
S  S2  1  0.84130000  0.60030000  0.37003000  1.0 -0.2601067566
S  S3  1  0.39970000  0.15870000  0.87003000  1.0 -0.2601067566
S  S4  1  0.15870000  0.39970000  0.62997000  1.0 -0.2601067566
S  S5  1  0.50842000  0.77722000  0.96591000  1.0 -0.2682273604
S  S6  1  0.77722000  0.50842000  0.53409000  1.0 -0.2778112211
S  S7  1  0.49158000  0.22278000  0.03409000  1.0 -0.2601067566
S  S8  1  0.22278000  0.49158000  0.46591000  1.0 -0.2778112211
S  S9  1  0.36432000  0.07732000  0.12767000  1.0 -0.2601067566
S  S10  1  0.07732000  0.36432000  0.37233000  1.0 -0.2601067566
S  S11  1  0.63568000  0.92268000  0.87233000  1.0 -0.2401064851
S  S12  1  0.92268000  0.63568000  0.62767000  1.0 -0.2515375532
S  S13  1  0.72905000  0.98645000  0.03523000  1.0 -0.2179632999
S  S14  1  0.98645000  0.72905000  0.46477000  1.0 -0.2138039537
S  S15  1  0.27095000  0.01355000  0.96477000  1.0 -0.2401064851
S  S16  1  0.01355000  0.27095000  0.53523000  1.0 -0.2401064851
N  N1  1  0.64230000  0.11790000  0.23570000  1.0 -0.4984308698
N  N2  1  0.11790000  0.64230000  0.26430000  1.0 -0.4984308698
N  N3  1  0.35770000  0.88210000  0.76430000  1.0 -0.4984308698
N  N4  1  0.88210000  0.35770000  0.73570000  1.0 -0.4984308698
N  N5  1  0.30220000  0.78060000  0.13380000  1.0 -0.5457301356
N  N6  1  0.78060000  0.30220000  0.36620000  1.0 -0.5372617659
N  N7  1  0.69780000  0.21940000  0.86620000  1.0 -0.5372617659
N  N8  1  0.21940000  0.69780000  0.63380000  1.0 -0.5372617659
N  N9  1  0.85430000  0.64550000  0.00590000  1.0 -0.5132933078
N  N10  1  0.64550000  0.85430000  0.49410000  1.0 -0.5132933078
N  N11  1  0.14570000  0.35450000  0.99410000  1.0 -0.518240235
N  N12  1  0.35450000  0.14570000  0.50590000  1.0 -0.5132933078
O  O1  1  0.81910000  0.06530000  0.36590000  1.0 -0.3198214688
O  O2  1  0.06530000  0.81910000  0.13410000  1.0 -0.3288741984
O  O3  1  0.18090000  0.93470000  0.63410000  1.0 -0.3198214688
O  O4  1  0.93470000  0.18090000  0.86590000  1.0 -0.3198214688
O  O5  1  0.82890000  0.19790000  0.22230000  1.0 -0.4482513063
O  O6  1  0.19790000  0.82890000  0.27770000  1.0 -0.4482513063
O  O7  1  0.17110000  0.80210000  0.77770000  1.0 -0.4482513063
O  O8  1  0.80210000  0.17110000  0.72230000  1.0 -0.4482513063
O  O9  1  0.60060000  0.36540000  0.24380000  1.0 -0.3529742874
O  O10  1  0.36540000  0.60060000  0.25620000  1.0 -0.3556202866
O  O11  1  0.39940000  0.63460000  0.75620000  1.0 -0.3529742874
O  O12  1  0.63460000  0.39940000  0.74380000  1.0 -0.3529742874
O  O13  1  0.57420000  0.23780000  0.37950000  1.0 -0.2515375532
O  O14  1  0.23780000  0.57420000  0.12050000  1.0 -0.2682273604
O  O15  1  0.42580000  0.76220000  0.62050000  1.0 -0.2601067566
O  O16  1  0.76220000  0.42580000  0.87950000  1.0 -0.2515375532
O  O17  1  0.94410000  0.48690000  0.88630000  1.0 -0.2299131223
O  O18  1  0.48690000  0.94410000  0.61370000  1.0 -0.2299131223
O  O19  1  0.05590000  0.51310000  0.11370000  1.0 -0.2299131223
O  O20  1  0.51310000  0.05590000  0.38630000  1.0 -0.2299131223
O  O21  1  0.08100000  0.60220000  0.94860000  1.0 -0.3288741984
O  O22  1  0.60220000  0.08100000  0.55140000  1.0 -0.3288741984
O  O23  1  0.91900000  0.39780000  0.05140000  1.0 -0.3288741984
O  O24  1  0.39780000  0.91900000  0.44860000  1.0 -0.3288741984
