# DDEC6 charges by PACMAN v1.1 (https://github.com/mtap-research/PACMAN-charge/)
data_LUNBAX_FSR_pacman
_symmetry_space_group_name_H-M   'P 1'
_cell_length_a   13.18880000
_cell_length_b   13.18880000
_cell_length_c   18.28600000
_cell_angle_alpha   87.26790000
_cell_angle_beta   92.73210000
_cell_angle_gamma   67.21920000
_symmetry_Int_Tables_number   1
_chemical_formula_structural   Fe3W6C6S8(NO2)6
_chemical_formula_sum   'Fe6 W12 C12 S16 N12 O24'
_cell_volume   2921.73383747
_cell_formula_units_Z   2
loop_
 _symmetry_equiv_pos_site_id
 _symmetry_equiv_pos_as_xyz
  1  'x, y, z'
loop_
 _atom_site_type_symbol
 _atom_site_label
 _atom_site_symmetry_multiplicity
 _atom_site_fract_x
 _atom_site_fract_y
 _atom_site_fract_z
 _atom_site_occupancy
 _atom_site_charge
Fe  Fe1  1  0.29533000  0.78479000  0.69598000  1.0 1.4492330677
Fe  Fe2  1  0.78479000  0.29533000  0.80402000  1.0 1.4402223554
Fe  Fe3  1  0.70467000  0.21521000  0.30402000  1.0 1.4402223554
Fe  Fe4  1  0.21521000  0.70467000  0.19598000  1.0 1.4402223554
Fe  Fe5  1  0.00000000  0.50000000  0.00000000  1.0 1.4492330677
Fe  Fe6  1  0.50000000  0.00000000  0.50000000  1.0 1.4492330677
W  W1  1  0.45066000  0.96220000  0.91031000  1.0 0.5182742702
W  W2  1  0.96220000  0.45066000  0.58969000  1.0 0.5125991451
W  W3  1  0.54934000  0.03780000  0.08969000  1.0 0.5125991451
W  W4  1  0.03780000  0.54934000  0.41031000  1.0 0.5125991451
W  W5  1  0.56731000  0.08149000  0.94759000  1.0 0.5125991451
W  W6  1  0.08149000  0.56731000  0.55241000  1.0 0.5125991451
W  W7  1  0.43269000  0.91851000  0.05241000  1.0 0.4994538354
W  W8  1  0.91851000  0.43269000  0.44759000  1.0 0.4994538354
W  W9  1  0.63184000  0.87260000  0.00214000  1.0 0.4937302919
W  W10  1  0.87260000  0.63184000  0.49786000  1.0 0.4937302919
W  W11  1  0.36816000  0.12740000  0.99786000  1.0 0.4937302919
W  W12  1  0.12740000  0.36816000  0.50214000  1.0 0.4937302919
C  C1  1  0.39060000  0.91060000  0.81150000  1.0 0.2983855458
C  C2  1  0.91060000  0.39060000  0.68850000  1.0 0.2983855458
C  C3  1  0.60940000  0.08940000  0.18850000  1.0 0.2904031018
C  C4  1  0.08940000  0.60940000  0.31150000  1.0 0.2983855458
C  C5  1  0.64890000  0.17390000  0.89220000  1.0 0.3123517461
C  C6  1  0.17390000  0.64890000  0.60780000  1.0 0.3123517461
C  C7  1  0.35110000  0.82610000  0.10780000  1.0 0.3123517461
C  C8  1  0.82610000  0.35110000  0.39220000  1.0 0.3170345651
C  C9  1  0.78320000  0.72780000  0.00470000  1.0 0.2983855458
C  C10  1  0.72780000  0.78320000  0.49530000  1.0 0.2904031018
C  C11  1  0.21680000  0.27220000  0.99530000  1.0 0.2904031018
C  C12  1  0.27220000  0.21680000  0.50470000  1.0 0.2904031018
S  S1  1  0.63650000  0.92390000  0.87140000  1.0 -0.2392110972
S  S2  1  0.92390000  0.63650000  0.62860000  1.0 -0.258285865
S  S3  1  0.36350000  0.07610000  0.12860000  1.0 -0.2392110972
S  S4  1  0.07610000  0.36350000  0.37140000  1.0 -0.2289747668
S  S5  1  0.39600000  0.15780000  0.86750000  1.0 -0.2885662539
S  S6  1  0.15780000  0.39600000  0.63250000  1.0 -0.2885662539
S  S7  1  0.60400000  0.84220000  0.13250000  1.0 -0.2785263333
S  S8  1  0.84220000  0.60400000  0.36750000  1.0 -0.258285865
S  S9  1  0.51510000  0.77410000  0.96810000  1.0 -0.2495731114
S  S10  1  0.77410000  0.51510000  0.53190000  1.0 -0.2495731114
S  S11  1  0.48490000  0.22590000  0.03190000  1.0 -0.2495731114
S  S12  1  0.22590000  0.48490000  0.46810000  1.0 -0.2495731114
S  S13  1  0.72757000  0.99197000  0.03520000  1.0 -0.2289747668
S  S14  1  0.99197000  0.72757000  0.46480000  1.0 -0.2243052198
S  S15  1  0.27243000  0.00803000  0.96480000  1.0 -0.2004083021
S  S16  1  0.00803000  0.27243000  0.53520000  1.0 -0.2243052198
N  N1  1  0.35770000  0.87790000  0.76210000  1.0 -0.5692446901
N  N2  1  0.87790000  0.35770000  0.73790000  1.0 -0.5692446901
N  N3  1  0.64230000  0.12210000  0.23790000  1.0 -0.5692446901
N  N4  1  0.12210000  0.64230000  0.26210000  1.0 -0.5692446901
N  N5  1  0.68970000  0.22650000  0.86440000  1.0 -0.5789490614
N  N6  1  0.22650000  0.68970000  0.63560000  1.0 -0.5789490614
N  N7  1  0.31030000  0.77350000  0.13560000  1.0 -0.5789490614
N  N8  1  0.77350000  0.31030000  0.36440000  1.0 -0.5850016547
N  N9  1  0.86280000  0.64840000  0.00550000  1.0 -0.5692446901
N  N10  1  0.64840000  0.86280000  0.49450000  1.0 -0.5642105414
N  N11  1  0.13720000  0.35160000  0.99450000  1.0 -0.5692446901
N  N12  1  0.35160000  0.13720000  0.50550000  1.0 -0.5692446901
O  O1  1  0.42040000  0.76180000  0.61820000  1.0 -0.258285865
O  O2  1  0.76180000  0.42040000  0.88180000  1.0 -0.2392110972
O  O3  1  0.57960000  0.23820000  0.38180000  1.0 -0.258285865
O  O4  1  0.23820000  0.57960000  0.11820000  1.0 -0.2392110972
O  O5  1  0.39940000  0.63760000  0.75590000  1.0 -0.3374167157
O  O6  1  0.63760000  0.39940000  0.74410000  1.0 -0.3374167157
O  O7  1  0.60060000  0.36240000  0.24410000  1.0 -0.3482279999
O  O8  1  0.36240000  0.60060000  0.25590000  1.0 -0.3482279999
O  O9  1  0.18170000  0.93150000  0.63180000  1.0 -0.2662355972
O  O10  1  0.93150000  0.18170000  0.86820000  1.0 -0.2662355972
O  O11  1  0.81830000  0.06850000  0.36820000  1.0 -0.2785263333
O  O12  1  0.06850000  0.81830000  0.13180000  1.0 -0.2785263333
O  O13  1  0.17310000  0.80210000  0.77650000  1.0 -0.4009594215
O  O14  1  0.80210000  0.17310000  0.72350000  1.0 -0.4009594215
O  O15  1  0.82690000  0.19790000  0.22350000  1.0 -0.4009594215
O  O16  1  0.19790000  0.82690000  0.27650000  1.0 -0.4073099269
O  O17  1  0.08890000  0.59050000  0.95490000  1.0 -0.3913715256
O  O18  1  0.59050000  0.08890000  0.54510000  1.0 -0.4073099269
O  O19  1  0.91110000  0.40950000  0.04510000  1.0 -0.4009594215
O  O20  1  0.40950000  0.91110000  0.45490000  1.0 -0.4009594215
O  O21  1  0.93920000  0.48920000  0.88820000  1.0 -0.2004083021
O  O22  1  0.48920000  0.93920000  0.61180000  1.0 -0.2004083021
O  O23  1  0.06080000  0.51080000  0.11180000  1.0 -0.2096367253
O  O24  1  0.51080000  0.06080000  0.38820000  1.0 -0.2289747668
