# DDEC6 charges by PACMAN v1.1 (https://github.com/mtap-research/PACMAN-charge/)
data_LUPHIN_ASR_pacman
_symmetry_space_group_name_H-M   'P 1'
_cell_length_a   9.90450000
_cell_length_b   12.30110000
_cell_length_c   17.80110000
_cell_angle_alpha   90.00000000
_cell_angle_beta   109.02100000
_cell_angle_gamma   90.00000000
_symmetry_Int_Tables_number   1
_chemical_formula_structural   Fe4P4N(O8F)2
_chemical_formula_sum   'Fe16 P16 N4 O64 F8'
_cell_volume   2050.39988545
_cell_formula_units_Z   4
loop_
 _symmetry_equiv_pos_site_id
 _symmetry_equiv_pos_as_xyz
  1  'x, y, z'
loop_
 _atom_site_type_symbol
 _atom_site_label
 _atom_site_symmetry_multiplicity
 _atom_site_fract_x
 _atom_site_fract_y
 _atom_site_fract_z
 _atom_site_occupancy
 _atom_site_charge
Fe  Fe1  1  0.46570000  0.57730000  0.22130000  1.0 1.4902647823
Fe  Fe2  1  0.53430000  0.07730000  0.27870000  1.0 1.4902647823
Fe  Fe3  1  0.53430000  0.42270000  0.77870000  1.0 1.4902647823
Fe  Fe4  1  0.46570000  0.92270000  0.72130000  1.0 1.4902647823
Fe  Fe5  1  0.80830000  0.52580000  0.37080000  1.0 1.3702363398
Fe  Fe6  1  0.19170000  0.02580000  0.12920000  1.0 1.3702363398
Fe  Fe7  1  0.19170000  0.47420000  0.62920000  1.0 1.3702363398
Fe  Fe8  1  0.80830000  0.97420000  0.87080000  1.0 1.3702363398
Fe  Fe9  1  0.05720000  0.35260000  0.92470000  1.0 1.3702363398
Fe  Fe10  1  0.94280000  0.85260000  0.57530000  1.0 1.3702363398
Fe  Fe11  1  0.94280000  0.64740000  0.07530000  1.0 1.3702363398
Fe  Fe12  1  0.05720000  0.14740000  0.42470000  1.0 1.3756051004
Fe  Fe13  1  0.25980000  0.38960000  0.29070000  1.0 1.456227088
Fe  Fe14  1  0.74020000  0.88960000  0.20930000  1.0 1.456227088
Fe  Fe15  1  0.74020000  0.61040000  0.70930000  1.0 1.456227088
Fe  Fe16  1  0.25980000  0.11040000  0.79070000  1.0 1.456227088
P  P1  1  0.14050000  0.41420000  0.44060000  1.0 0.8060436189
P  P2  1  0.85950000  0.91420000  0.05940000  1.0 0.8031493366
P  P3  1  0.85950000  0.58580000  0.55940000  1.0 0.8031493366
P  P4  1  0.14050000  0.08580000  0.94060000  1.0 0.8031493366
P  P5  1  0.42490000  0.84490000  0.20420000  1.0 1.4902647823
P  P6  1  0.57510000  0.34490000  0.29580000  1.0 1.4902647823
P  P7  1  0.57510000  0.15510000  0.79580000  1.0 1.4902647823
P  P8  1  0.42490000  0.65510000  0.70420000  1.0 1.4902647823
P  P9  1  0.75420000  0.62460000  0.19200000  1.0 1.4902647823
P  P10  1  0.24580000  0.12460000  0.30800000  1.0 1.4902647823
P  P11  1  0.24580000  0.37540000  0.80800000  1.0 1.4902647823
P  P12  1  0.75420000  0.87540000  0.69200000  1.0 1.4902647823
P  P13  1  0.19190000  0.45770000  0.10620000  1.0 1.4902647823
P  P14  1  0.80810000  0.95770000  0.39380000  1.0 1.4902647823
P  P15  1  0.80810000  0.54230000  0.89380000  1.0 1.4902647823
P  P16  1  0.19190000  0.04230000  0.60620000  1.0 1.4902647823
N  N1  1  0.97660000  0.60370000  0.60370000  1.0 -0.0267213679
N  N2  1  0.02340000  0.10370000  0.89630000  1.0 -0.0267213679
N  N3  1  0.02340000  0.39630000  0.39630000  1.0 -0.0267213679
N  N4  1  0.97660000  0.89630000  0.10370000  1.0 -0.0267213679
O  O1  1  0.59130000  0.61720000  0.16250000  1.0 -0.6941403806
O  O2  1  0.40870000  0.11720000  0.33750000  1.0 -0.6941403806
O  O3  1  0.40870000  0.38280000  0.83750000  1.0 -0.6941403806
O  O4  1  0.59130000  0.88280000  0.66250000  1.0 -0.6941403806
O  O5  1  0.40440000  0.72900000  0.23160000  1.0 -0.6769483149
O  O6  1  0.59560000  0.22900000  0.26840000  1.0 -0.6769483149
O  O7  1  0.59560000  0.27100000  0.76840000  1.0 -0.6769483149
O  O8  1  0.40440000  0.77100000  0.73160000  1.0 -0.6769483149
O  O9  1  0.30890000  0.54650000  0.11960000  1.0 -0.7092914044
O  O10  1  0.69110000  0.04650000  0.38040000  1.0 -0.7092914044
O  O11  1  0.69110000  0.45350000  0.88040000  1.0 -0.7092914044
O  O12  1  0.30890000  0.95350000  0.61960000  1.0 -0.7092914044
O  O13  1  0.46610000  0.92320000  0.27550000  1.0 -0.7590118706
O  O14  1  0.53390000  0.42320000  0.22450000  1.0 -0.7590118706
O  O15  1  0.53390000  0.07680000  0.72450000  1.0 -0.7590118706
O  O16  1  0.46610000  0.57680000  0.77550000  1.0 -0.7590118706
O  O17  1  0.99510000  0.46080000  0.39580000  1.0 -0.1560755432
O  O18  1  0.00490000  0.96080000  0.10420000  1.0 -0.1560755432
O  O19  1  0.00490000  0.53920000  0.60420000  1.0 -0.1560755432
O  O20  1  0.99510000  0.03920000  0.89580000  1.0 -0.1560755432
O  O21  1  0.20480000  0.47060000  0.52080000  1.0 -0.4867157101
O  O22  1  0.79520000  0.97060000  0.97920000  1.0 -0.4867157101
O  O23  1  0.79520000  0.52940000  0.47920000  1.0 -0.4831180135
O  O24  1  0.20480000  0.02940000  0.02080000  1.0 -0.4831180135
O  O25  1  0.27960000  0.87970000  0.14380000  1.0 -0.6684182569
O  O26  1  0.72040000  0.37970000  0.35620000  1.0 -0.6684182569
O  O27  1  0.72040000  0.12030000  0.85620000  1.0 -0.6684182569
O  O28  1  0.27960000  0.62030000  0.64380000  1.0 -0.6684182569
O  O29  1  0.81860000  0.54710000  0.26210000  1.0 -0.7024444163
O  O30  1  0.18140000  0.04710000  0.23790000  1.0 -0.7024444163
O  O31  1  0.18140000  0.45290000  0.73790000  1.0 -0.7024444163
O  O32  1  0.81860000  0.95290000  0.76210000  1.0 -0.7024444163
O  O33  1  0.17520000  0.39940000  0.02880000  1.0 -0.6684182569
O  O34  1  0.82480000  0.89940000  0.47120000  1.0 -0.6684182569
O  O35  1  0.82480000  0.60060000  0.97120000  1.0 -0.6684182569
O  O36  1  0.17520000  0.10060000  0.52880000  1.0 -0.6684182569
O  O37  1  0.12680000  0.29270000  0.45530000  1.0 -0.3551341951
O  O38  1  0.87320000  0.79270000  0.04470000  1.0 -0.3551341951
O  O39  1  0.87320000  0.70730000  0.54470000  1.0 -0.3551341951
O  O40  1  0.12680000  0.20730000  0.95530000  1.0 -0.3551341951
O  O41  1  0.05120000  0.51230000  0.10290000  1.0 -0.7489611367
O  O42  1  0.94880000  0.01230000  0.39710000  1.0 -0.7437001228
O  O43  1  0.94880000  0.48770000  0.89710000  1.0 -0.7437001228
O  O44  1  0.05120000  0.98770000  0.60290000  1.0 -0.7489611367
O  O45  1  0.80510000  0.58900000  0.12240000  1.0 -0.6769483149
O  O46  1  0.19490000  0.08900000  0.37760000  1.0 -0.6769483149
O  O47  1  0.19490000  0.41100000  0.87760000  1.0 -0.6769483149
O  O48  1  0.80510000  0.91100000  0.62240000  1.0 -0.6769483149
O  O49  1  0.80740000  0.74000000  0.21560000  1.0 -0.7489611367
O  O50  1  0.19260000  0.24000000  0.28440000  1.0 -0.7489611367
O  O51  1  0.19260000  0.26000000  0.78440000  1.0 -0.7489611367
O  O52  1  0.80740000  0.76000000  0.71560000  1.0 -0.7489611367
O  O53  1  0.24240000  0.43010000  0.39300000  1.0 -0.4831180135
O  O54  1  0.75760000  0.93010000  0.10700000  1.0 -0.4831180135
O  O55  1  0.75760000  0.56990000  0.60700000  1.0 -0.4831180135
O  O56  1  0.24240000  0.06990000  0.89300000  1.0 -0.4831180135
O  O57  1  0.53920000  0.84800000  0.16330000  1.0 -0.7204795837
O  O58  1  0.46080000  0.34800000  0.33670000  1.0 -0.7204795837
O  O59  1  0.46080000  0.15200000  0.83670000  1.0 -0.7204795837
O  O60  1  0.53920000  0.65200000  0.66330000  1.0 -0.7204795837
O  O61  1  0.23160000  0.37530000  0.17410000  1.0 -0.7092914044
O  O62  1  0.76840000  0.87530000  0.32590000  1.0 -0.7024444163
O  O63  1  0.76840000  0.62470000  0.82590000  1.0 -0.7092914044
O  O64  1  0.23160000  0.12470000  0.67410000  1.0 -0.7092914044
F  F1  1  0.61350000  0.59380000  0.32800000  1.0 -0.503602466
F  F2  1  0.38650000  0.09380000  0.17200000  1.0 -0.503602466
F  F3  1  0.38650000  0.40620000  0.67200000  1.0 -0.503602466
F  F4  1  0.61350000  0.90620000  0.82800000  1.0 -0.503602466
F  F5  1  0.32920000  0.53860000  0.27880000  1.0 -0.4744333237
F  F6  1  0.67080000  0.03860000  0.22120000  1.0 -0.4744333237
F  F7  1  0.67080000  0.46140000  0.72120000  1.0 -0.4744333237
F  F8  1  0.32920000  0.96140000  0.77880000  1.0 -0.4744333237
