# DDEC6 charges by PACMAN v1.1 (https://github.com/mtap-research/PACMAN-charge/)
data_LUPWUR_ASR_pacman
_symmetry_space_group_name_H-M   'P 1'
_cell_length_a   15.29940000
_cell_length_b   15.29940000
_cell_length_c   21.00370000
_cell_angle_alpha   90.00000000
_cell_angle_beta   90.00000000
_cell_angle_gamma   90.00000000
_symmetry_Int_Tables_number   1
_chemical_formula_structural   Hf6Cu4H80C120N24ClO24
_chemical_formula_sum   'Hf6 Cu4 H80 C120 N24 Cl1 O24'
_cell_volume   4916.37051263
_cell_formula_units_Z   1
loop_
 _symmetry_equiv_pos_site_id
 _symmetry_equiv_pos_as_xyz
  1  'x, y, z'
loop_
 _atom_site_type_symbol
 _atom_site_label
 _atom_site_symmetry_multiplicity
 _atom_site_fract_x
 _atom_site_fract_y
 _atom_site_fract_z
 _atom_site_occupancy
 _atom_site_charge
Hf  Hf1  1  0.50000000  0.50000000  0.11534000  1.0 1.398828373
Hf  Hf2  1  0.50000000  0.50000000  0.88466000  1.0 1.398828373
Hf  Hf3  1  0.38475000  0.38475000  0.00000000  1.0 1.4808453477
Hf  Hf4  1  0.61525000  0.61525000  0.00000000  1.0 1.4808453477
Hf  Hf5  1  0.61525000  0.38475000  0.00000000  1.0 1.4808453477
Hf  Hf6  1  0.38475000  0.61525000  0.00000000  1.0 1.4808453477
Cu  Cu1  1  0.83502000  0.00000000  0.50000000  1.0 0.5223016447
Cu  Cu2  1  0.16498000  0.00000000  0.50000000  1.0 0.5223016447
Cu  Cu3  1  0.00000000  0.83502000  0.50000000  1.0 0.5223016447
Cu  Cu4  1  0.00000000  0.16498000  0.50000000  1.0 0.5223016447
H  H1  1  0.73311000  0.91770000  0.37724000  1.0 0.1191506466
H  H2  1  0.59565000  0.66161000  0.27081000  1.0 0.0908000862
H  H3  1  0.79871000  0.71567000  0.15753000  1.0 0.0974995668
H  H4  1  0.86457000  0.79571000  0.24012000  1.0 0.0908000862
H  H5  1  0.65972000  0.74402000  0.35318000  1.0 0.0908000862
H  H6  1  0.26689000  0.08230000  0.37724000  1.0 0.1191506466
H  H7  1  0.40435000  0.33839000  0.27081000  1.0 0.0908000862
H  H8  1  0.20129000  0.28433000  0.15753000  1.0 0.0974995668
H  H9  1  0.13543000  0.20429000  0.24012000  1.0 0.0908000862
H  H10  1  0.34028000  0.25598000  0.35318000  1.0 0.0908000862
H  H11  1  0.08230000  0.73311000  0.37724000  1.0 0.1191506466
H  H12  1  0.33839000  0.59565000  0.27081000  1.0 0.0908000862
H  H13  1  0.28433000  0.79871000  0.15753000  1.0 0.0974995668
H  H14  1  0.20429000  0.86457000  0.24012000  1.0 0.0908000862
H  H15  1  0.25598000  0.65972000  0.35318000  1.0 0.0908000862
H  H16  1  0.91770000  0.26689000  0.37724000  1.0 0.1191506466
H  H17  1  0.66161000  0.40435000  0.27081000  1.0 0.0908000862
H  H18  1  0.71567000  0.20129000  0.15753000  1.0 0.0974995668
H  H19  1  0.79571000  0.13543000  0.24012000  1.0 0.0908000862
H  H20  1  0.74402000  0.34028000  0.35318000  1.0 0.0908000862
H  H21  1  0.26689000  0.91770000  0.62276000  1.0 0.1191506466
H  H22  1  0.40435000  0.66161000  0.72919000  1.0 0.0908000862
H  H23  1  0.20129000  0.71567000  0.84247000  1.0 0.0974995668
H  H24  1  0.13543000  0.79571000  0.75988000  1.0 0.0908000862
H  H25  1  0.34028000  0.74402000  0.64682000  1.0 0.0908000862
H  H26  1  0.73311000  0.08230000  0.62276000  1.0 0.1191506466
H  H27  1  0.59565000  0.33839000  0.72919000  1.0 0.0908000862
H  H28  1  0.79871000  0.28433000  0.84247000  1.0 0.0974995668
H  H29  1  0.86457000  0.20429000  0.75988000  1.0 0.0908000862
H  H30  1  0.65972000  0.25598000  0.64682000  1.0 0.0908000862
H  H31  1  0.91770000  0.73311000  0.62276000  1.0 0.1191506466
H  H32  1  0.66161000  0.59565000  0.72919000  1.0 0.0908000862
H  H33  1  0.71567000  0.79871000  0.84247000  1.0 0.0974995668
H  H34  1  0.79571000  0.86457000  0.75988000  1.0 0.0908000862
H  H35  1  0.74402000  0.65972000  0.64682000  1.0 0.0908000862
H  H36  1  0.08230000  0.26689000  0.62276000  1.0 0.1191506466
H  H37  1  0.33839000  0.40435000  0.72919000  1.0 0.0908000862
H  H38  1  0.28433000  0.20129000  0.84247000  1.0 0.0974995668
H  H39  1  0.20429000  0.13543000  0.75988000  1.0 0.0908000862
H  H40  1  0.25598000  0.34028000  0.64682000  1.0 0.0908000862
H  H41  1  0.26689000  0.08230000  0.62276000  1.0 0.1191506466
H  H42  1  0.40435000  0.33839000  0.72919000  1.0 0.0908000862
H  H43  1  0.20129000  0.28433000  0.84247000  1.0 0.0974995668
H  H44  1  0.13543000  0.20429000  0.75988000  1.0 0.0908000862
H  H45  1  0.34028000  0.25598000  0.64682000  1.0 0.0908000862
H  H46  1  0.73311000  0.91770000  0.62276000  1.0 0.1191506466
H  H47  1  0.59565000  0.66161000  0.72919000  1.0 0.0908000862
H  H48  1  0.79871000  0.71567000  0.84247000  1.0 0.0974995668
H  H49  1  0.86457000  0.79571000  0.75988000  1.0 0.0908000862
H  H50  1  0.65972000  0.74402000  0.64682000  1.0 0.0908000862
H  H51  1  0.91770000  0.26689000  0.62276000  1.0 0.1191506466
H  H52  1  0.66161000  0.40435000  0.72919000  1.0 0.0908000862
H  H53  1  0.71567000  0.20129000  0.84247000  1.0 0.0974995668
H  H54  1  0.79571000  0.13543000  0.75988000  1.0 0.0908000862
H  H55  1  0.74402000  0.34028000  0.64682000  1.0 0.0908000862
H  H56  1  0.08230000  0.73311000  0.62276000  1.0 0.1191506466
H  H57  1  0.33839000  0.59565000  0.72919000  1.0 0.0908000862
H  H58  1  0.28433000  0.79871000  0.84247000  1.0 0.0974995668
H  H59  1  0.20429000  0.86457000  0.75988000  1.0 0.0908000862
H  H60  1  0.25598000  0.65972000  0.64682000  1.0 0.0908000862
H  H61  1  0.73311000  0.08230000  0.37724000  1.0 0.1191506466
H  H62  1  0.59565000  0.33839000  0.27081000  1.0 0.0908000862
H  H63  1  0.79871000  0.28433000  0.15753000  1.0 0.0974995668
H  H64  1  0.86457000  0.20429000  0.24012000  1.0 0.0908000862
H  H65  1  0.65972000  0.25598000  0.35318000  1.0 0.0908000862
H  H66  1  0.26689000  0.91770000  0.37724000  1.0 0.1191506466
H  H67  1  0.40435000  0.66161000  0.27081000  1.0 0.0908000862
H  H68  1  0.20129000  0.71567000  0.15753000  1.0 0.0974995668
H  H69  1  0.13543000  0.79571000  0.24012000  1.0 0.0908000862
H  H70  1  0.34028000  0.74402000  0.35318000  1.0 0.0908000862
H  H71  1  0.08230000  0.26689000  0.37724000  1.0 0.1191506466
H  H72  1  0.33839000  0.40435000  0.27081000  1.0 0.0908000862
H  H73  1  0.28433000  0.20129000  0.15753000  1.0 0.0974995668
H  H74  1  0.20429000  0.13543000  0.24012000  1.0 0.0908000862
H  H75  1  0.25598000  0.34028000  0.35318000  1.0 0.0908000862
H  H76  1  0.91770000  0.73311000  0.37724000  1.0 0.1191506466
H  H77  1  0.66161000  0.59565000  0.27081000  1.0 0.0908000862
H  H78  1  0.71567000  0.79871000  0.15753000  1.0 0.0974995668
H  H79  1  0.79571000  0.86457000  0.24012000  1.0 0.0908000862
H  H80  1  0.74402000  0.65972000  0.35318000  1.0 0.0908000862
C  C1  1  0.78430000  0.88550000  0.38736000  1.0 -0.0655123995
C  C2  1  0.64930000  0.69130000  0.26370000  1.0 -0.063511545
C  C3  1  0.68400000  0.69100000  0.20440000  1.0 -0.1062251398
C  C4  1  0.76940000  0.72270000  0.19710000  1.0 -0.0362966814
C  C5  1  0.81170000  0.76470000  0.24720000  1.0 -0.0784965151
C  C6  1  0.77770000  0.76080000  0.30380000  1.0 0.0423136909
C  C7  1  0.68920000  0.73360000  0.31410000  1.0 -0.063511545
C  C8  1  0.21570000  0.11450000  0.38736000  1.0 -0.063511545
C  C9  1  0.35070000  0.30870000  0.26370000  1.0 -0.063511545
C  C10  1  0.31600000  0.30900000  0.20440000  1.0 -0.1047164941
C  C11  1  0.23060000  0.27730000  0.19710000  1.0 -0.0362966814
C  C12  1  0.18830000  0.23530000  0.24720000  1.0 -0.0784965151
C  C13  1  0.22230000  0.23920000  0.30380000  1.0 0.0423136909
C  C14  1  0.31080000  0.26640000  0.31410000  1.0 -0.0655123995
C  C15  1  0.11450000  0.78430000  0.38736000  1.0 -0.063511545
C  C16  1  0.30870000  0.64930000  0.26370000  1.0 -0.063511545
C  C17  1  0.30900000  0.68400000  0.20440000  1.0 -0.1062251398
C  C18  1  0.27730000  0.76940000  0.19710000  1.0 -0.0362966814
C  C19  1  0.23530000  0.81170000  0.24720000  1.0 -0.0784965151
C  C20  1  0.23920000  0.77770000  0.30380000  1.0 0.0423136909
C  C21  1  0.26640000  0.68920000  0.31410000  1.0 -0.063511545
C  C22  1  0.88550000  0.21570000  0.38736000  1.0 -0.063511545
C  C23  1  0.69130000  0.35070000  0.26370000  1.0 -0.063511545
C  C24  1  0.69100000  0.31600000  0.20440000  1.0 -0.1047164941
C  C25  1  0.72270000  0.23060000  0.19710000  1.0 -0.0362966814
C  C26  1  0.76470000  0.18830000  0.24720000  1.0 -0.0784965151
C  C27  1  0.76080000  0.22230000  0.30380000  1.0 0.0423136909
C  C28  1  0.73360000  0.31080000  0.31410000  1.0 -0.063511545
C  C29  1  0.21570000  0.88550000  0.61264000  1.0 -0.0655123995
C  C30  1  0.35070000  0.69130000  0.73630000  1.0 -0.063511545
C  C31  1  0.31600000  0.69100000  0.79560000  1.0 -0.1062251398
C  C32  1  0.23060000  0.72270000  0.80290000  1.0 -0.0362966814
C  C33  1  0.18830000  0.76470000  0.75280000  1.0 -0.0784965151
C  C34  1  0.22230000  0.76080000  0.69620000  1.0 0.0423136909
C  C35  1  0.31080000  0.73360000  0.68590000  1.0 -0.063511545
C  C36  1  0.78430000  0.11450000  0.61264000  1.0 -0.063511545
C  C37  1  0.64930000  0.30870000  0.73630000  1.0 -0.063511545
C  C38  1  0.68400000  0.30900000  0.79560000  1.0 -0.1062251398
C  C39  1  0.76940000  0.27730000  0.80290000  1.0 -0.0362966814
C  C40  1  0.81170000  0.23530000  0.75280000  1.0 -0.0784965151
C  C41  1  0.77770000  0.23920000  0.69620000  1.0 0.0423136909
C  C42  1  0.68920000  0.26640000  0.68590000  1.0 -0.063511545
C  C43  1  0.88550000  0.78430000  0.61264000  1.0 -0.063511545
C  C44  1  0.69130000  0.64930000  0.73630000  1.0 -0.063511545
C  C45  1  0.69100000  0.68400000  0.79560000  1.0 -0.1062251398
C  C46  1  0.72270000  0.76940000  0.80290000  1.0 -0.0362966814
C  C47  1  0.76470000  0.81170000  0.75280000  1.0 -0.0784965151
C  C48  1  0.76080000  0.77770000  0.69620000  1.0 0.0423136909
C  C49  1  0.73360000  0.68920000  0.68590000  1.0 -0.063511545
C  C50  1  0.11450000  0.21570000  0.61264000  1.0 -0.063511545
C  C51  1  0.30870000  0.35070000  0.73630000  1.0 -0.063511545
C  C52  1  0.30900000  0.31600000  0.79560000  1.0 -0.1047164941
C  C53  1  0.27730000  0.23060000  0.80290000  1.0 -0.0362966814
C  C54  1  0.23530000  0.18830000  0.75280000  1.0 -0.0784965151
C  C55  1  0.23920000  0.22230000  0.69620000  1.0 0.0423136909
C  C56  1  0.26640000  0.31080000  0.68590000  1.0 -0.063511545
C  C57  1  0.21570000  0.11450000  0.61264000  1.0 -0.063511545
C  C58  1  0.35070000  0.30870000  0.73630000  1.0 -0.063511545
C  C59  1  0.31600000  0.30900000  0.79560000  1.0 -0.1047164941
C  C60  1  0.23060000  0.27730000  0.80290000  1.0 -0.0362966814
C  C61  1  0.18830000  0.23530000  0.75280000  1.0 -0.0784965151
C  C62  1  0.22230000  0.23920000  0.69620000  1.0 0.0423136909
C  C63  1  0.31080000  0.26640000  0.68590000  1.0 -0.063511545
C  C64  1  0.78430000  0.88550000  0.61264000  1.0 -0.0655123995
C  C65  1  0.64930000  0.69130000  0.73630000  1.0 -0.063511545
C  C66  1  0.68400000  0.69100000  0.79560000  1.0 -0.1062251398
C  C67  1  0.76940000  0.72270000  0.80290000  1.0 -0.0362966814
C  C68  1  0.81170000  0.76470000  0.75280000  1.0 -0.0784965151
C  C69  1  0.77770000  0.76080000  0.69620000  1.0 0.0423136909
C  C70  1  0.68920000  0.73360000  0.68590000  1.0 -0.063511545
C  C71  1  0.88550000  0.21570000  0.61264000  1.0 -0.063511545
C  C72  1  0.69130000  0.35070000  0.73630000  1.0 -0.063511545
C  C73  1  0.69100000  0.31600000  0.79560000  1.0 -0.1062251398
C  C74  1  0.72270000  0.23060000  0.80290000  1.0 -0.0362966814
C  C75  1  0.76470000  0.18830000  0.75280000  1.0 -0.0784965151
C  C76  1  0.76080000  0.22230000  0.69620000  1.0 0.0423136909
C  C77  1  0.73360000  0.31080000  0.68590000  1.0 -0.063511545
C  C78  1  0.11450000  0.78430000  0.61264000  1.0 -0.063511545
C  C79  1  0.30870000  0.64930000  0.73630000  1.0 -0.063511545
C  C80  1  0.30900000  0.68400000  0.79560000  1.0 -0.1062251398
C  C81  1  0.27730000  0.76940000  0.80290000  1.0 -0.0362966814
C  C82  1  0.23530000  0.81170000  0.75280000  1.0 -0.0784965151
C  C83  1  0.23920000  0.77770000  0.69620000  1.0 0.0423136909
C  C84  1  0.26640000  0.68920000  0.68590000  1.0 -0.063511545
C  C85  1  0.78430000  0.11450000  0.38736000  1.0 -0.063511545
C  C86  1  0.64930000  0.30870000  0.26370000  1.0 -0.063511545
C  C87  1  0.68400000  0.30900000  0.20440000  1.0 -0.1047164941
C  C88  1  0.76940000  0.27730000  0.19710000  1.0 -0.0362966814
C  C89  1  0.81170000  0.23530000  0.24720000  1.0 -0.0784965151
C  C90  1  0.77770000  0.23920000  0.30380000  1.0 0.0423136909
C  C91  1  0.68920000  0.26640000  0.31410000  1.0 -0.063511545
C  C92  1  0.21570000  0.88550000  0.38736000  1.0 -0.0655123995
C  C93  1  0.35070000  0.69130000  0.26370000  1.0 -0.063511545
C  C94  1  0.31600000  0.69100000  0.20440000  1.0 -0.1062251398
C  C95  1  0.23060000  0.72270000  0.19710000  1.0 -0.0362966814
C  C96  1  0.18830000  0.76470000  0.24720000  1.0 -0.0784965151
C  C97  1  0.22230000  0.76080000  0.30380000  1.0 0.0423136909
C  C98  1  0.31080000  0.73360000  0.31410000  1.0 -0.063511545
C  C99  1  0.11450000  0.21570000  0.38736000  1.0 -0.063511545
C  C100  1  0.30870000  0.35070000  0.26370000  1.0 -0.063511545
C  C101  1  0.30900000  0.31600000  0.20440000  1.0 -0.1047164941
C  C102  1  0.27730000  0.23060000  0.19710000  1.0 -0.0362966814
C  C103  1  0.23530000  0.18830000  0.24720000  1.0 -0.0784965151
C  C104  1  0.23920000  0.22230000  0.30380000  1.0 0.0423136909
C  C105  1  0.26640000  0.31080000  0.31410000  1.0 -0.0655123995
C  C106  1  0.88550000  0.78430000  0.38736000  1.0 -0.063511545
C  C107  1  0.69130000  0.64930000  0.26370000  1.0 -0.063511545
C  C108  1  0.69100000  0.68400000  0.20440000  1.0 -0.1062251398
C  C109  1  0.72270000  0.76940000  0.19710000  1.0 -0.0362966814
C  C110  1  0.76470000  0.81170000  0.24720000  1.0 -0.0784965151
C  C111  1  0.76080000  0.77770000  0.30380000  1.0 0.0423136909
C  C112  1  0.73360000  0.68920000  0.31410000  1.0 -0.063511545
C  C113  1  0.64120000  0.64120000  0.15230000  1.0 0.4654161846
C  C114  1  0.35880000  0.35880000  0.15230000  1.0 0.4644537425
C  C115  1  0.35880000  0.64120000  0.15230000  1.0 0.4654161846
C  C116  1  0.64120000  0.35880000  0.15230000  1.0 0.4644537425
C  C117  1  0.35880000  0.64120000  0.84770000  1.0 0.4654161846
C  C118  1  0.64120000  0.35880000  0.84770000  1.0 0.4654161846
C  C119  1  0.64120000  0.64120000  0.84770000  1.0 0.4654161846
C  C120  1  0.35880000  0.35880000  0.84770000  1.0 0.4644537425
N  N1  1  0.83970000  0.90360000  0.43354000  1.0 -0.1760584706
N  N2  1  0.16030000  0.09640000  0.43354000  1.0 -0.1760584706
N  N3  1  0.09640000  0.83970000  0.43354000  1.0 -0.1760584706
N  N4  1  0.90360000  0.16030000  0.43354000  1.0 -0.1760584706
N  N5  1  0.16030000  0.90360000  0.56646000  1.0 -0.1760584706
N  N6  1  0.83970000  0.09640000  0.56646000  1.0 -0.1760584706
N  N7  1  0.90360000  0.83970000  0.56646000  1.0 -0.1760584706
N  N8  1  0.09640000  0.16030000  0.56646000  1.0 -0.1760584706
N  N9  1  0.16030000  0.09640000  0.56646000  1.0 -0.1760584706
N  N10  1  0.83970000  0.90360000  0.56646000  1.0 -0.1760584706
N  N11  1  0.90360000  0.16030000  0.56646000  1.0 -0.1760584706
N  N12  1  0.09640000  0.83970000  0.56646000  1.0 -0.1760584706
N  N13  1  0.83970000  0.09640000  0.43354000  1.0 -0.1760584706
N  N14  1  0.16030000  0.90360000  0.43354000  1.0 -0.1760584706
N  N15  1  0.09640000  0.16030000  0.43354000  1.0 -0.1760584706
N  N16  1  0.90360000  0.83970000  0.43354000  1.0 -0.1760584706
N  N17  1  0.81300000  0.81300000  0.35680000  1.0 -0.0056476506
N  N18  1  0.18700000  0.18700000  0.35680000  1.0 -0.0056476506
N  N19  1  0.18700000  0.81300000  0.35680000  1.0 -0.0056476506
N  N20  1  0.81300000  0.18700000  0.35680000  1.0 -0.0056476506
N  N21  1  0.18700000  0.81300000  0.64320000  1.0 -0.0056476506
N  N22  1  0.81300000  0.18700000  0.64320000  1.0 -0.0056476506
N  N23  1  0.81300000  0.81300000  0.64320000  1.0 -0.0056476506
N  N24  1  0.18700000  0.18700000  0.64320000  1.0 -0.0056476506
Cl  Cl1  1  0.00000000  0.00000000  0.50000000  1.0 -0.5506479883
O  O1  1  0.58537000  0.58537000  0.16884000  1.0 -0.4528629438
O  O2  1  0.66140000  0.66140000  0.09616000  1.0 -0.4658433788
O  O3  1  0.41463000  0.41463000  0.16884000  1.0 -0.4528629438
O  O4  1  0.33860000  0.33860000  0.09616000  1.0 -0.4639673972
O  O5  1  0.41463000  0.58537000  0.16884000  1.0 -0.4528629438
O  O6  1  0.33860000  0.66140000  0.09616000  1.0 -0.4658433788
O  O7  1  0.58537000  0.41463000  0.16884000  1.0 -0.4528629438
O  O8  1  0.66140000  0.33860000  0.09616000  1.0 -0.4658433788
O  O9  1  0.41463000  0.58537000  0.83116000  1.0 -0.4528629438
O  O10  1  0.33860000  0.66140000  0.90384000  1.0 -0.4658433788
O  O11  1  0.58537000  0.41463000  0.83116000  1.0 -0.4528629438
O  O12  1  0.66140000  0.33860000  0.90384000  1.0 -0.4658433788
O  O13  1  0.58537000  0.58537000  0.83116000  1.0 -0.4528629438
O  O14  1  0.66140000  0.66140000  0.90384000  1.0 -0.4658433788
O  O15  1  0.41463000  0.41463000  0.83116000  1.0 -0.4528629438
O  O16  1  0.33860000  0.33860000  0.90384000  1.0 -0.4639673972
O  O17  1  0.38320000  0.50000000  0.05621000  1.0 -0.7107561671
O  O18  1  0.61680000  0.50000000  0.05621000  1.0 -0.7107561671
O  O19  1  0.50000000  0.38320000  0.05621000  1.0 -0.7107561671
O  O20  1  0.50000000  0.61680000  0.05621000  1.0 -0.7107561671
O  O21  1  0.61680000  0.50000000  0.94379000  1.0 -0.7107561671
O  O22  1  0.38320000  0.50000000  0.94379000  1.0 -0.7107561671
O  O23  1  0.50000000  0.38320000  0.94379000  1.0 -0.7107561671
O  O24  1  0.50000000  0.61680000  0.94379000  1.0 -0.7107561671
