# DDEC6 charges by PACMAN v1.1 (https://github.com/mtap-research/PACMAN-charge/)
data_LUPWOL_ASR_pacman
_symmetry_space_group_name_H-M   'P 1'
_cell_length_a   15.24900000
_cell_length_b   15.24900000
_cell_length_c   21.05700000
_cell_angle_alpha   90.00000000
_cell_angle_beta   90.00000000
_cell_angle_gamma   90.00000000
_symmetry_Int_Tables_number   1
_chemical_formula_structural   Zr6Cu4H80C120N24ClO24
_chemical_formula_sum   'Zr6 Cu4 H80 C120 N24 Cl1 O24'
_cell_volume   4896.42634506
_cell_formula_units_Z   1
loop_
 _symmetry_equiv_pos_site_id
 _symmetry_equiv_pos_as_xyz
  1  'x, y, z'
loop_
 _atom_site_type_symbol
 _atom_site_label
 _atom_site_symmetry_multiplicity
 _atom_site_fract_x
 _atom_site_fract_y
 _atom_site_fract_z
 _atom_site_occupancy
 _atom_site_charge
Zr  Zr1  1  0.50000000  0.50000000  0.38417000  1.0 2.2338432444
Zr  Zr2  1  0.50000000  0.50000000  0.61583000  1.0 2.2338432444
Zr  Zr3  1  0.61604000  0.61604000  0.50000000  1.0 2.4001679195
Zr  Zr4  1  0.38396000  0.38396000  0.50000000  1.0 2.4001679195
Zr  Zr5  1  0.38396000  0.61604000  0.50000000  1.0 2.4001679195
Zr  Zr6  1  0.61604000  0.38396000  0.50000000  1.0 2.4001679195
Cu  Cu1  1  0.16530000  0.00000000  0.00000000  1.0 0.5200073791
Cu  Cu2  1  0.83470000  0.00000000  0.00000000  1.0 0.5200073791
Cu  Cu3  1  0.00000000  0.16530000  0.00000000  1.0 0.5200073791
Cu  Cu4  1  0.00000000  0.83470000  0.00000000  1.0 0.5200073791
H  H1  1  0.26393000  0.08266000  0.12348000  1.0 0.1073663823
H  H2  1  0.33545000  0.25638000  0.14641000  1.0 0.0746846793
H  H3  1  0.13627000  0.19962000  0.26126000  1.0 0.0621287546
H  H4  1  0.20467000  0.28273000  0.34255000  1.0 0.0783664424
H  H5  1  0.39645000  0.34782000  0.22761000  1.0 0.0621287546
H  H6  1  0.73607000  0.91734000  0.12348000  1.0 0.1073663823
H  H7  1  0.66455000  0.74362000  0.14641000  1.0 0.0746846793
H  H8  1  0.86373000  0.80038000  0.26126000  1.0 0.0621287546
H  H9  1  0.79533000  0.71727000  0.34255000  1.0 0.0783664424
H  H10  1  0.60355000  0.65218000  0.22761000  1.0 0.0621287546
H  H11  1  0.91734000  0.26393000  0.12348000  1.0 0.1073663823
H  H12  1  0.74362000  0.33545000  0.14641000  1.0 0.0746846793
H  H13  1  0.80038000  0.13627000  0.26126000  1.0 0.0621287546
H  H14  1  0.71727000  0.20467000  0.34255000  1.0 0.0783664424
H  H15  1  0.65218000  0.39645000  0.22761000  1.0 0.0621287546
H  H16  1  0.08266000  0.73607000  0.12348000  1.0 0.1073663823
H  H17  1  0.25638000  0.66455000  0.14641000  1.0 0.0746846793
H  H18  1  0.19962000  0.86373000  0.26126000  1.0 0.0621287546
H  H19  1  0.28273000  0.79533000  0.34255000  1.0 0.0783664424
H  H20  1  0.34782000  0.60355000  0.22761000  1.0 0.0621287546
H  H21  1  0.73607000  0.08266000  0.87652000  1.0 0.1073663823
H  H22  1  0.66455000  0.25638000  0.85359000  1.0 0.0746846793
H  H23  1  0.86373000  0.19962000  0.73874000  1.0 0.0621287546
H  H24  1  0.79533000  0.28273000  0.65745000  1.0 0.0783664424
H  H25  1  0.60355000  0.34782000  0.77239000  1.0 0.0621287546
H  H26  1  0.26393000  0.91734000  0.87652000  1.0 0.1073663823
H  H27  1  0.33545000  0.74362000  0.85359000  1.0 0.0746846793
H  H28  1  0.13627000  0.80038000  0.73874000  1.0 0.0621287546
H  H29  1  0.20467000  0.71727000  0.65745000  1.0 0.0783664424
H  H30  1  0.39645000  0.65218000  0.77239000  1.0 0.0621287546
H  H31  1  0.08266000  0.26393000  0.87652000  1.0 0.1073663823
H  H32  1  0.25638000  0.33545000  0.85359000  1.0 0.0746846793
H  H33  1  0.19962000  0.13627000  0.73874000  1.0 0.0621287546
H  H34  1  0.28273000  0.20467000  0.65745000  1.0 0.0783664424
H  H35  1  0.34782000  0.39645000  0.77239000  1.0 0.0621287546
H  H36  1  0.91734000  0.73607000  0.87652000  1.0 0.1073663823
H  H37  1  0.74362000  0.66455000  0.85359000  1.0 0.0746846793
H  H38  1  0.80038000  0.86373000  0.73874000  1.0 0.0621287546
H  H39  1  0.71727000  0.79533000  0.65745000  1.0 0.0783664424
H  H40  1  0.65218000  0.60355000  0.77239000  1.0 0.0621287546
H  H41  1  0.73607000  0.91734000  0.87652000  1.0 0.1073663823
H  H42  1  0.66455000  0.74362000  0.85359000  1.0 0.0746846793
H  H43  1  0.86373000  0.80038000  0.73874000  1.0 0.0621287546
H  H44  1  0.79533000  0.71727000  0.65745000  1.0 0.0783664424
H  H45  1  0.60355000  0.65218000  0.77239000  1.0 0.0621287546
H  H46  1  0.26393000  0.08266000  0.87652000  1.0 0.1073663823
H  H47  1  0.33545000  0.25638000  0.85359000  1.0 0.0746846793
H  H48  1  0.13627000  0.19962000  0.73874000  1.0 0.0621287546
H  H49  1  0.20467000  0.28273000  0.65745000  1.0 0.0783664424
H  H50  1  0.39645000  0.34782000  0.77239000  1.0 0.0621287546
H  H51  1  0.08266000  0.73607000  0.87652000  1.0 0.1073663823
H  H52  1  0.25638000  0.66455000  0.85359000  1.0 0.0746846793
H  H53  1  0.19962000  0.86373000  0.73874000  1.0 0.0621287546
H  H54  1  0.28273000  0.79533000  0.65745000  1.0 0.0783664424
H  H55  1  0.34782000  0.60355000  0.77239000  1.0 0.0621287546
H  H56  1  0.91734000  0.26393000  0.87652000  1.0 0.1073663823
H  H57  1  0.74362000  0.33545000  0.85359000  1.0 0.0746846793
H  H58  1  0.80038000  0.13627000  0.73874000  1.0 0.0621287546
H  H59  1  0.71727000  0.20467000  0.65745000  1.0 0.0783664424
H  H60  1  0.65218000  0.39645000  0.77239000  1.0 0.0621287546
H  H61  1  0.26393000  0.91734000  0.12348000  1.0 0.1073663823
H  H62  1  0.33545000  0.74362000  0.14641000  1.0 0.0746846793
H  H63  1  0.13627000  0.80038000  0.26126000  1.0 0.0621287546
H  H64  1  0.20467000  0.71727000  0.34255000  1.0 0.0783664424
H  H65  1  0.39645000  0.65218000  0.22761000  1.0 0.0621287546
H  H66  1  0.73607000  0.08266000  0.12348000  1.0 0.1073663823
H  H67  1  0.66455000  0.25638000  0.14641000  1.0 0.0746846793
H  H68  1  0.86373000  0.19962000  0.26126000  1.0 0.0621287546
H  H69  1  0.79533000  0.28273000  0.34255000  1.0 0.0783664424
H  H70  1  0.60355000  0.34782000  0.22761000  1.0 0.0621287546
H  H71  1  0.91734000  0.73607000  0.12348000  1.0 0.1073663823
H  H72  1  0.74362000  0.66455000  0.14641000  1.0 0.0746846793
H  H73  1  0.80038000  0.86373000  0.26126000  1.0 0.0621287546
H  H74  1  0.71727000  0.79533000  0.34255000  1.0 0.0783664424
H  H75  1  0.65218000  0.60355000  0.22761000  1.0 0.0621287546
H  H76  1  0.08266000  0.26393000  0.12348000  1.0 0.1073663823
H  H77  1  0.25638000  0.33545000  0.14641000  1.0 0.0746846793
H  H78  1  0.19962000  0.13627000  0.26126000  1.0 0.0621287546
H  H79  1  0.28273000  0.20467000  0.34255000  1.0 0.0783664424
H  H80  1  0.34782000  0.39645000  0.22761000  1.0 0.0621287546
C  C1  1  0.21290000  0.11530000  0.11290000  1.0 -0.0103664276
C  C2  1  0.30640000  0.26720000  0.18560000  1.0 -0.0534332353
C  C3  1  0.21850000  0.24050000  0.19650000  1.0 0.0315159147
C  C4  1  0.18810000  0.23240000  0.25330000  1.0 -0.0663040085
C  C5  1  0.23350000  0.27340000  0.30310000  1.0 -0.0663040085
C  C6  1  0.32050000  0.30060000  0.29570000  1.0 -0.028381857
C  C7  1  0.34790000  0.31060000  0.23610000  1.0 -0.0968051629
C  C8  1  0.78710000  0.88470000  0.11290000  1.0 -0.0103664276
C  C9  1  0.69360000  0.73280000  0.18560000  1.0 -0.0534332353
C  C10  1  0.78150000  0.75950000  0.19650000  1.0 0.0315159147
C  C11  1  0.81190000  0.76760000  0.25330000  1.0 -0.0663040085
C  C12  1  0.76650000  0.72660000  0.30310000  1.0 -0.0646455775
C  C13  1  0.67950000  0.69940000  0.29570000  1.0 -0.028381857
C  C14  1  0.65210000  0.68940000  0.23610000  1.0 -0.0968051629
C  C15  1  0.88470000  0.21290000  0.11290000  1.0 -0.0103664276
C  C16  1  0.73280000  0.30640000  0.18560000  1.0 -0.0534332353
C  C17  1  0.75950000  0.21850000  0.19650000  1.0 0.0315159147
C  C18  1  0.76760000  0.18810000  0.25330000  1.0 -0.0663040085
C  C19  1  0.72660000  0.23350000  0.30310000  1.0 -0.0646455775
C  C20  1  0.69940000  0.32050000  0.29570000  1.0 -0.0248111731
C  C21  1  0.68940000  0.34790000  0.23610000  1.0 -0.0968051629
C  C22  1  0.11530000  0.78710000  0.11290000  1.0 -0.0103664276
C  C23  1  0.26720000  0.69360000  0.18560000  1.0 -0.0534332353
C  C24  1  0.24050000  0.78150000  0.19650000  1.0 0.0315159147
C  C25  1  0.23240000  0.81190000  0.25330000  1.0 -0.0663040085
C  C26  1  0.27340000  0.76650000  0.30310000  1.0 -0.0663040085
C  C27  1  0.30060000  0.67950000  0.29570000  1.0 -0.028381857
C  C28  1  0.31060000  0.65210000  0.23610000  1.0 -0.0968051629
C  C29  1  0.78710000  0.11530000  0.88710000  1.0 -0.0103664276
C  C30  1  0.69360000  0.26720000  0.81440000  1.0 -0.0534332353
C  C31  1  0.78150000  0.24050000  0.80350000  1.0 0.0315159147
C  C32  1  0.81190000  0.23240000  0.74670000  1.0 -0.0663040085
C  C33  1  0.76650000  0.27340000  0.69690000  1.0 -0.0646455775
C  C34  1  0.67950000  0.30060000  0.70430000  1.0 -0.028381857
C  C35  1  0.65210000  0.31060000  0.76390000  1.0 -0.0968051629
C  C36  1  0.21290000  0.88470000  0.88710000  1.0 -0.0103664276
C  C37  1  0.30640000  0.73280000  0.81440000  1.0 -0.0534332353
C  C38  1  0.21850000  0.75950000  0.80350000  1.0 0.0315159147
C  C39  1  0.18810000  0.76760000  0.74670000  1.0 -0.0663040085
C  C40  1  0.23350000  0.72660000  0.69690000  1.0 -0.0663040085
C  C41  1  0.32050000  0.69940000  0.70430000  1.0 -0.028381857
C  C42  1  0.34790000  0.68940000  0.76390000  1.0 -0.0968051629
C  C43  1  0.11530000  0.21290000  0.88710000  1.0 -0.0103664276
C  C44  1  0.26720000  0.30640000  0.81440000  1.0 -0.0534332353
C  C45  1  0.24050000  0.21850000  0.80350000  1.0 0.0315159147
C  C46  1  0.23240000  0.18810000  0.74670000  1.0 -0.0663040085
C  C47  1  0.27340000  0.23350000  0.69690000  1.0 -0.0663040085
C  C48  1  0.30060000  0.32050000  0.70430000  1.0 -0.028381857
C  C49  1  0.31060000  0.34790000  0.76390000  1.0 -0.0968051629
C  C50  1  0.88470000  0.78710000  0.88710000  1.0 -0.0103664276
C  C51  1  0.73280000  0.69360000  0.81440000  1.0 -0.0534332353
C  C52  1  0.75950000  0.78150000  0.80350000  1.0 0.0315159147
C  C53  1  0.76760000  0.81190000  0.74670000  1.0 -0.0663040085
C  C54  1  0.72660000  0.76650000  0.69690000  1.0 -0.0646455775
C  C55  1  0.69940000  0.67950000  0.70430000  1.0 -0.028381857
C  C56  1  0.68940000  0.65210000  0.76390000  1.0 -0.0968051629
C  C57  1  0.78710000  0.88470000  0.88710000  1.0 -0.0103664276
C  C58  1  0.69360000  0.73280000  0.81440000  1.0 -0.0534332353
C  C59  1  0.78150000  0.75950000  0.80350000  1.0 0.0315159147
C  C60  1  0.81190000  0.76760000  0.74670000  1.0 -0.0663040085
C  C61  1  0.76650000  0.72660000  0.69690000  1.0 -0.0646455775
C  C62  1  0.67950000  0.69940000  0.70430000  1.0 -0.028381857
C  C63  1  0.65210000  0.68940000  0.76390000  1.0 -0.0968051629
C  C64  1  0.21290000  0.11530000  0.88710000  1.0 -0.0103664276
C  C65  1  0.30640000  0.26720000  0.81440000  1.0 -0.0534332353
C  C66  1  0.21850000  0.24050000  0.80350000  1.0 0.0315159147
C  C67  1  0.18810000  0.23240000  0.74670000  1.0 -0.0663040085
C  C68  1  0.23350000  0.27340000  0.69690000  1.0 -0.0663040085
C  C69  1  0.32050000  0.30060000  0.70430000  1.0 -0.028381857
C  C70  1  0.34790000  0.31060000  0.76390000  1.0 -0.0968051629
C  C71  1  0.11530000  0.78710000  0.88710000  1.0 -0.0103664276
C  C72  1  0.26720000  0.69360000  0.81440000  1.0 -0.0534332353
C  C73  1  0.24050000  0.78150000  0.80350000  1.0 0.0315159147
C  C74  1  0.23240000  0.81190000  0.74670000  1.0 -0.0663040085
C  C75  1  0.27340000  0.76650000  0.69690000  1.0 -0.0663040085
C  C76  1  0.30060000  0.67950000  0.70430000  1.0 -0.028381857
C  C77  1  0.31060000  0.65210000  0.76390000  1.0 -0.0968051629
C  C78  1  0.88470000  0.21290000  0.88710000  1.0 -0.0103664276
C  C79  1  0.73280000  0.30640000  0.81440000  1.0 -0.0534332353
C  C80  1  0.75950000  0.21850000  0.80350000  1.0 0.0315159147
C  C81  1  0.76760000  0.18810000  0.74670000  1.0 -0.0663040085
C  C82  1  0.72660000  0.23350000  0.69690000  1.0 -0.0646455775
C  C83  1  0.69940000  0.32050000  0.70430000  1.0 -0.0248111731
C  C84  1  0.68940000  0.34790000  0.76390000  1.0 -0.0968051629
C  C85  1  0.21290000  0.88470000  0.11290000  1.0 -0.0103664276
C  C86  1  0.30640000  0.73280000  0.18560000  1.0 -0.0534332353
C  C87  1  0.21850000  0.75950000  0.19650000  1.0 0.0315159147
C  C88  1  0.18810000  0.76760000  0.25330000  1.0 -0.0663040085
C  C89  1  0.23350000  0.72660000  0.30310000  1.0 -0.0663040085
C  C90  1  0.32050000  0.69940000  0.29570000  1.0 -0.028381857
C  C91  1  0.34790000  0.68940000  0.23610000  1.0 -0.0968051629
C  C92  1  0.78710000  0.11530000  0.11290000  1.0 -0.0103664276
C  C93  1  0.69360000  0.26720000  0.18560000  1.0 -0.0534332353
C  C94  1  0.78150000  0.24050000  0.19650000  1.0 0.0315159147
C  C95  1  0.81190000  0.23240000  0.25330000  1.0 -0.0663040085
C  C96  1  0.76650000  0.27340000  0.30310000  1.0 -0.0646455775
C  C97  1  0.67950000  0.30060000  0.29570000  1.0 -0.028381857
C  C98  1  0.65210000  0.31060000  0.23610000  1.0 -0.0968051629
C  C99  1  0.88470000  0.78710000  0.11290000  1.0 -0.0103664276
C  C100  1  0.73280000  0.69360000  0.18560000  1.0 -0.0534332353
C  C101  1  0.75950000  0.78150000  0.19650000  1.0 0.0315159147
C  C102  1  0.76760000  0.81190000  0.25330000  1.0 -0.0663040085
C  C103  1  0.72660000  0.76650000  0.30310000  1.0 -0.0646455775
C  C104  1  0.69940000  0.67950000  0.29570000  1.0 -0.028381857
C  C105  1  0.68940000  0.65210000  0.23610000  1.0 -0.0968051629
C  C106  1  0.11530000  0.21290000  0.11290000  1.0 -0.0103664276
C  C107  1  0.26720000  0.30640000  0.18560000  1.0 -0.0534332353
C  C108  1  0.24050000  0.21850000  0.19650000  1.0 0.0315159147
C  C109  1  0.23240000  0.18810000  0.25330000  1.0 -0.0663040085
C  C110  1  0.27340000  0.23350000  0.30310000  1.0 -0.0663040085
C  C111  1  0.30060000  0.32050000  0.29570000  1.0 -0.028381857
C  C112  1  0.31060000  0.34790000  0.23610000  1.0 -0.0968051629
C  C113  1  0.35780000  0.35780000  0.34700000  1.0 0.4590469634
C  C114  1  0.64220000  0.64220000  0.34700000  1.0 0.4590469634
C  C115  1  0.64220000  0.35780000  0.34700000  1.0 0.4590469634
C  C116  1  0.35780000  0.64220000  0.34700000  1.0 0.4590469634
C  C117  1  0.64220000  0.35780000  0.65300000  1.0 0.4590469634
C  C118  1  0.35780000  0.64220000  0.65300000  1.0 0.4590469634
C  C119  1  0.35780000  0.35780000  0.65300000  1.0 0.4590469634
C  C120  1  0.64220000  0.64220000  0.65300000  1.0 0.4590469634
N  N1  1  0.16010000  0.09570000  0.06670000  1.0 -0.1867549962
N  N2  1  0.83990000  0.90430000  0.06670000  1.0 -0.1867549962
N  N3  1  0.90430000  0.16010000  0.06670000  1.0 -0.1867549962
N  N4  1  0.09570000  0.83990000  0.06670000  1.0 -0.1867549962
N  N5  1  0.83990000  0.09570000  0.93330000  1.0 -0.1867549962
N  N6  1  0.16010000  0.90430000  0.93330000  1.0 -0.1867549962
N  N7  1  0.09570000  0.16010000  0.93330000  1.0 -0.1867549962
N  N8  1  0.90430000  0.83990000  0.93330000  1.0 -0.1867549962
N  N9  1  0.83990000  0.90430000  0.93330000  1.0 -0.1867549962
N  N10  1  0.16010000  0.09570000  0.93330000  1.0 -0.1867549962
N  N11  1  0.09570000  0.83990000  0.93330000  1.0 -0.1867549962
N  N12  1  0.90430000  0.16010000  0.93330000  1.0 -0.1867549962
N  N13  1  0.16010000  0.90430000  0.06670000  1.0 -0.1867549962
N  N14  1  0.83990000  0.09570000  0.06670000  1.0 -0.1867549962
N  N15  1  0.90430000  0.83990000  0.06670000  1.0 -0.1867549962
N  N16  1  0.09570000  0.16010000  0.06670000  1.0 -0.1867549962
N  N17  1  0.18660000  0.18660000  0.14330000  1.0 -0.028381857
N  N18  1  0.81340000  0.81340000  0.14330000  1.0 -0.028381857
N  N19  1  0.81340000  0.18660000  0.14330000  1.0 -0.028381857
N  N20  1  0.18660000  0.81340000  0.14330000  1.0 -0.028381857
N  N21  1  0.81340000  0.18660000  0.85670000  1.0 -0.028381857
N  N22  1  0.18660000  0.81340000  0.85670000  1.0 -0.028381857
N  N23  1  0.18660000  0.18660000  0.85670000  1.0 -0.028381857
N  N24  1  0.81340000  0.81340000  0.85670000  1.0 -0.028381857
Cl  Cl1  1  0.00000000  0.00000000  0.00000000  1.0 -0.558480537
O  O1  1  0.41350000  0.41350000  0.33130000  1.0 -0.5091760607
O  O2  1  0.33720000  0.33720000  0.40370000  1.0 -0.558480537
O  O3  1  0.58650000  0.58650000  0.33130000  1.0 -0.5091760607
O  O4  1  0.66280000  0.66280000  0.40370000  1.0 -0.558480537
O  O5  1  0.58650000  0.41350000  0.33130000  1.0 -0.5091760607
O  O6  1  0.66280000  0.33720000  0.40370000  1.0 -0.558480537
O  O7  1  0.41350000  0.58650000  0.33130000  1.0 -0.5091760607
O  O8  1  0.33720000  0.66280000  0.40370000  1.0 -0.558480537
O  O9  1  0.58650000  0.41350000  0.66870000  1.0 -0.5091760607
O  O10  1  0.66280000  0.33720000  0.59630000  1.0 -0.558480537
O  O11  1  0.41350000  0.58650000  0.66870000  1.0 -0.5091760607
O  O12  1  0.33720000  0.66280000  0.59630000  1.0 -0.558480537
O  O13  1  0.41350000  0.41350000  0.66870000  1.0 -0.5091760607
O  O14  1  0.33720000  0.33720000  0.59630000  1.0 -0.558480537
O  O15  1  0.58650000  0.58650000  0.66870000  1.0 -0.5091760607
O  O16  1  0.66280000  0.66280000  0.59630000  1.0 -0.558480537
O  O17  1  0.61740000  0.50000000  0.44530000  1.0 -1.1299804675
O  O18  1  0.38260000  0.50000000  0.44530000  1.0 -1.1299804675
O  O19  1  0.50000000  0.61740000  0.44530000  1.0 -1.1299804675
O  O20  1  0.50000000  0.38260000  0.44530000  1.0 -1.1299804675
O  O21  1  0.38260000  0.50000000  0.55470000  1.0 -1.1299804675
O  O22  1  0.61740000  0.50000000  0.55470000  1.0 -1.1299804675
O  O23  1  0.50000000  0.61740000  0.55470000  1.0 -1.1299804675
O  O24  1  0.50000000  0.38260000  0.55470000  1.0 -1.1299804675
