# DDEC6 charges by PACMAN v1.1 (https://github.com/mtap-research/PACMAN-charge/)
data_LUPYAX_ASR_pacman
_symmetry_space_group_name_H-M   'P 1'
_cell_length_a   23.23060000
_cell_length_b   23.23060000
_cell_length_c   20.72460000
_cell_angle_alpha   66.39730000
_cell_angle_beta   113.60300000
_cell_angle_gamma   149.19100000
_symmetry_Int_Tables_number   1
_chemical_formula_structural   Zn3H6C20Cl9O11
_chemical_formula_sum   'Zn12 H24 C80 Cl36 O44'
_cell_volume   5210.93048409
_cell_formula_units_Z   4
loop_
 _symmetry_equiv_pos_site_id
 _symmetry_equiv_pos_as_xyz
  1  'x, y, z'
loop_
 _atom_site_type_symbol
 _atom_site_label
 _atom_site_symmetry_multiplicity
 _atom_site_fract_x
 _atom_site_fract_y
 _atom_site_fract_z
 _atom_site_occupancy
 _atom_site_charge
Zn  Zn1  1  0.51104000  0.74078000  0.80651000  1.0 1.0109219761
Zn  Zn2  1  0.74078000  0.51104000  0.69349000  1.0 1.0109219761
Zn  Zn3  1  0.48896000  0.25922000  0.19349000  1.0 1.0109219761
Zn  Zn4  1  0.25922000  0.48896000  0.30651000  1.0 1.0109219761
Zn  Zn5  1  0.73649000  0.99115000  0.85999000  1.0 0.9483804316
Zn  Zn6  1  0.99115000  0.73649000  0.64001000  1.0 0.9483804316
Zn  Zn7  1  0.26351000  0.00885000  0.14001000  1.0 0.9483804316
Zn  Zn8  1  0.00885000  0.26351000  0.35999000  1.0 0.9483804316
Zn  Zn9  1  0.02215000  0.34669000  0.18475000  1.0 1.0218535871
Zn  Zn10  1  0.34669000  0.02215000  0.31525000  1.0 1.0218535871
Zn  Zn11  1  0.97785000  0.65331000  0.81525000  1.0 1.0218535871
Zn  Zn12  1  0.65331000  0.97785000  0.68475000  1.0 1.0218535871
H  H1  1  0.36660000  0.59080000  0.95750000  1.0 0.1112196767
H  H2  1  0.59080000  0.36660000  0.54250000  1.0 0.1112196767
H  H3  1  0.63340000  0.40920000  0.04250000  1.0 0.1112196767
H  H4  1  0.40920000  0.63340000  0.45750000  1.0 0.1112196767
H  H5  1  0.45530000  0.74530000  0.13010000  1.0 0.1367206597
H  H6  1  0.74530000  0.45530000  0.36990000  1.0 0.1367206597
H  H7  1  0.54470000  0.25470000  0.86990000  1.0 0.1367206597
H  H8  1  0.25470000  0.54470000  0.63010000  1.0 0.1367206597
H  H9  1  0.46440000  0.95820000  0.67690000  1.0 0.1112196767
H  H10  1  0.95820000  0.46440000  0.82310000  1.0 0.1112196767
H  H11  1  0.53560000  0.04180000  0.32310000  1.0 0.1112196767
H  H12  1  0.04180000  0.53560000  0.17690000  1.0 0.1112196767
H  H13  1  0.17370000  0.68850000  0.80990000  1.0 0.1204175302
H  H14  1  0.68850000  0.17370000  0.69010000  1.0 0.1204175302
H  H15  1  0.82630000  0.31150000  0.19010000  1.0 0.1204175302
H  H16  1  0.31150000  0.82630000  0.30990000  1.0 0.1204175302
H  H17  1  0.13730000  0.06090000  0.97730000  1.0 0.1204175302
H  H18  1  0.06090000  0.13730000  0.52270000  1.0 0.1204175302
H  H19  1  0.86270000  0.93910000  0.02270000  1.0 0.1204175302
H  H20  1  0.93910000  0.86270000  0.47730000  1.0 0.1204175302
H  H21  1  0.71590000  0.92350000  0.77620000  1.0 0.3825513632
H  H22  1  0.92350000  0.71590000  0.72380000  1.0 0.3825513632
H  H23  1  0.28410000  0.07650000  0.22380000  1.0 0.3825513632
H  H24  1  0.07650000  0.28410000  0.27620000  1.0 0.3825513632
C  C1  1  0.56670000  0.80670000  0.94480000  1.0 0.5828317465
C  C2  1  0.80670000  0.56670000  0.55520000  1.0 0.5828317465
C  C3  1  0.43330000  0.19330000  0.05520000  1.0 0.5828317465
C  C4  1  0.19330000  0.43330000  0.44480000  1.0 0.5828317465
C  C5  1  0.48580000  0.73660000  0.99680000  1.0 -0.0419881805
C  C6  1  0.73660000  0.48580000  0.50320000  1.0 -0.0419881805
C  C7  1  0.51420000  0.26340000  0.00320000  1.0 -0.0419881805
C  C8  1  0.26340000  0.51420000  0.49680000  1.0 -0.0419881805
C  C9  1  0.38480000  0.62240000  0.99230000  1.0 -0.1866739592
C  C10  1  0.62240000  0.38480000  0.50770000  1.0 -0.1866739592
C  C11  1  0.61520000  0.37760000  0.00770000  1.0 -0.1866739592
C  C12  1  0.37760000  0.61520000  0.49230000  1.0 -0.1866739592
C  C13  1  0.30910000  0.55370000  0.04170000  1.0 0.0023101228
C  C14  1  0.55370000  0.30910000  0.45830000  1.0 0.0023101228
C  C15  1  0.69090000  0.44630000  0.95830000  1.0 0.0023101228
C  C16  1  0.44630000  0.69090000  0.54170000  1.0 0.0023101228
C  C17  1  0.33343000  0.59797000  0.09320000  1.0 -0.0697759133
C  C18  1  0.59797000  0.33343000  0.40680000  1.0 -0.0697759133
C  C19  1  0.66657000  0.40203000  0.90680000  1.0 -0.0697759133
C  C20  1  0.40203000  0.66657000  0.59320000  1.0 -0.0697759133
C  C21  1  0.43610000  0.71310000  0.09520000  1.0 -0.1476721442
C  C22  1  0.71310000  0.43610000  0.40480000  1.0 -0.1476721442
C  C23  1  0.56390000  0.28690000  0.90480000  1.0 -0.1476721442
C  C24  1  0.28690000  0.56390000  0.59520000  1.0 -0.1476721442
C  C25  1  0.50860000  0.77980000  0.04950000  1.0 0.0127349007
C  C26  1  0.77980000  0.50860000  0.45050000  1.0 0.0127349007
C  C27  1  0.49140000  0.22020000  0.95050000  1.0 0.0127349007
C  C28  1  0.22020000  0.49140000  0.54950000  1.0 0.0127349007
C  C29  1  0.25445000  0.52555000  0.14820000  1.0 0.5987661691
C  C30  1  0.52555000  0.25445000  0.35180000  1.0 0.5987661691
C  C31  1  0.74555000  0.47445000  0.85180000  1.0 0.5987661691
C  C32  1  0.47445000  0.74555000  0.64820000  1.0 0.5987661691
C  C33  1  0.16090000  0.79090000  0.72450000  1.0 0.5828317465
C  C34  1  0.79090000  0.16090000  0.77550000  1.0 0.5828317465
C  C35  1  0.83910000  0.20910000  0.27550000  1.0 0.5828317465
C  C36  1  0.20910000  0.83910000  0.22450000  1.0 0.5828317465
C  C37  1  0.24430000  0.80990000  0.73160000  1.0 -0.0521729379
C  C38  1  0.80990000  0.24430000  0.76840000  1.0 -0.0521729379
C  C39  1  0.75570000  0.19010000  0.26840000  1.0 -0.0521729379
C  C40  1  0.19010000  0.75570000  0.23160000  1.0 -0.0521729379
C  C41  1  0.33010000  0.88810000  0.69070000  1.0 0.0127349007
C  C42  1  0.88810000  0.33010000  0.80930000  1.0 0.0127349007
C  C43  1  0.66990000  0.11190000  0.30930000  1.0 0.0127349007
C  C44  1  0.11190000  0.66990000  0.19070000  1.0 0.0127349007
C  C45  1  0.40150000  0.89790000  0.70230000  1.0 -0.142730014
C  C46  1  0.89790000  0.40150000  0.79770000  1.0 -0.142730014
C  C47  1  0.59850000  0.10210000  0.29770000  1.0 -0.142730014
C  C48  1  0.10210000  0.59850000  0.20230000  1.0 -0.142730014
C  C49  1  0.38390000  0.82570000  0.74770000  1.0 -0.0929850838
C  C50  1  0.82570000  0.38390000  0.75230000  1.0 -0.0929850838
C  C51  1  0.61610000  0.17430000  0.25230000  1.0 -0.0929850838
C  C52  1  0.17430000  0.61610000  0.24770000  1.0 -0.0929850838
C  C53  1  0.28960000  0.74000000  0.78460000  1.0 0.042664542
C  C54  1  0.74000000  0.28960000  0.71540000  1.0 0.042664542
C  C55  1  0.71040000  0.26000000  0.21540000  1.0 0.042664542
C  C56  1  0.26000000  0.71040000  0.28460000  1.0 0.042664542
C  C57  1  0.22840000  0.74000000  0.77890000  1.0 -0.1677621058
C  C58  1  0.74000000  0.22840000  0.72110000  1.0 -0.1677621058
C  C59  1  0.77160000  0.26000000  0.22110000  1.0 -0.1677621058
C  C60  1  0.26000000  0.77160000  0.27890000  1.0 -0.1677621058
C  C61  1  0.45560000  0.83560000  0.74980000  1.0 0.6064336211
C  C62  1  0.83560000  0.45560000  0.75020000  1.0 0.6064336211
C  C63  1  0.54440000  0.16440000  0.25020000  1.0 0.6064336211
C  C64  1  0.16440000  0.54440000  0.24980000  1.0 0.6064336211
C  C65  1  0.88110000  0.01070000  0.88810000  1.0 0.5650008531
C  C66  1  0.01070000  0.88110000  0.61190000  1.0 0.5650008531
C  C67  1  0.11890000  0.98930000  0.11190000  1.0 0.5650008531
C  C68  1  0.98930000  0.11890000  0.38810000  1.0 0.5637649507
C  C69  1  0.94538000  0.00782000  0.94550000  1.0 -0.0624147109
C  C70  1  0.00782000  0.94538000  0.55450000  1.0 -0.0624147109
C  C71  1  0.05462000  0.99218000  0.05450000  1.0 -0.0624147109
C  C72  1  0.99218000  0.05462000  0.44550000  1.0 -0.0624147109
C  C73  1  0.08080000  0.03480000  0.98710000  1.0 -0.1476721442
C  C74  1  0.03480000  0.08080000  0.51290000  1.0 -0.1476721442
C  C75  1  0.91920000  0.96520000  0.01290000  1.0 -0.1476721442
C  C76  1  0.96520000  0.91920000  0.48710000  1.0 -0.1476721442
C  C77  1  0.02680000  0.04120000  0.93210000  1.0 0.0768247814
C  C78  1  0.04120000  0.02680000  0.56790000  1.0 0.0768247814
C  C79  1  0.97320000  0.95880000  0.06790000  1.0 0.0768247814
C  C80  1  0.95880000  0.97320000  0.43210000  1.0 0.0768247814
Cl  Cl1  1  0.18190000  0.41190000  0.03110000  1.0 0.1861447455
Cl  Cl2  1  0.41190000  0.18190000  0.46890000  1.0 0.1861447455
Cl  Cl3  1  0.81810000  0.58810000  0.96890000  1.0 0.1826952757
Cl  Cl4  1  0.58810000  0.81810000  0.53110000  1.0 0.1861447455
Cl  Cl5  1  0.64140000  0.91880000  0.06700000  1.0 0.0461440132
Cl  Cl6  1  0.91880000  0.64140000  0.43300000  1.0 0.042664542
Cl  Cl7  1  0.35860000  0.08120000  0.93300000  1.0 0.042664542
Cl  Cl8  1  0.08120000  0.35860000  0.56700000  1.0 0.042664542
Cl  Cl9  1  0.38505000  0.01615000  0.64630000  1.0 0.0643430686
Cl  Cl10  1  0.01615000  0.38505000  0.85370000  1.0 0.0643430686
Cl  Cl11  1  0.61495000  0.98385000  0.35370000  1.0 0.070854791
Cl  Cl12  1  0.98385000  0.61495000  0.14630000  1.0 0.0643430686
Cl  Cl13  1  0.29990000  0.67930000  0.87710000  1.0 0.0461440132
Cl  Cl14  1  0.67930000  0.29990000  0.62290000  1.0 0.0461440132
Cl  Cl15  1  0.70010000  0.32070000  0.12290000  1.0 0.0461440132
Cl  Cl16  1  0.32070000  0.70010000  0.37710000  1.0 0.0461440132
Cl  Cl17  1  0.07053000  0.09927000  0.84822000  1.0 -0.0697759133
Cl  Cl18  1  0.09927000  0.07053000  0.65178000  1.0 -0.0697759133
Cl  Cl19  1  0.92947000  0.90073000  0.15178000  1.0 -0.0697759133
Cl  Cl20  1  0.90073000  0.92947000  0.34822000  1.0 -0.0697759133
Cl  Cl21  1  0.18700000  0.39900000  0.04100000  1.0 0.0768247814
Cl  Cl22  1  0.39900000  0.18700000  0.45900000  1.0 0.070854791
Cl  Cl23  1  0.81300000  0.60100000  0.95900000  1.0 0.070854791
Cl  Cl24  1  0.60100000  0.81300000  0.54100000  1.0 0.070854791
Cl  Cl25  1  0.63100000  0.93700000  0.04900000  1.0 -0.0193167948
Cl  Cl26  1  0.93700000  0.63100000  0.45100000  1.0 -0.0258414782
Cl  Cl27  1  0.36900000  0.06300000  0.95100000  1.0 -0.0193167948
Cl  Cl28  1  0.06300000  0.36900000  0.54900000  1.0 -0.0258414782
Cl  Cl29  1  0.03899000  0.66261000  0.11080000  1.0 0.1478734673
Cl  Cl30  1  0.66261000  0.03899000  0.38920000  1.0 0.1478734673
Cl  Cl31  1  0.96101000  0.33739000  0.88920000  1.0 0.1478734673
Cl  Cl32  1  0.33739000  0.96101000  0.61080000  1.0 0.1478734673
Cl  Cl33  1  0.38443000  0.77137000  0.32840000  1.0 0.1112196767
Cl  Cl34  1  0.77137000  0.38443000  0.17160000  1.0 0.1112196767
Cl  Cl35  1  0.61557000  0.22863000  0.67160000  1.0 0.1112196767
Cl  Cl36  1  0.22863000  0.61557000  0.82840000  1.0 0.1112196767
O  O1  1  0.55287000  0.75673000  0.91660000  1.0 -0.5594524569
O  O2  1  0.75673000  0.55287000  0.58340000  1.0 -0.5594524569
O  O3  1  0.44713000  0.24327000  0.08340000  1.0 -0.5594524569
O  O4  1  0.24327000  0.44713000  0.41660000  1.0 -0.5594524569
O  O5  1  0.63953000  0.91107000  0.92920000  1.0 -0.5594524569
O  O6  1  0.91107000  0.63953000  0.57080000  1.0 -0.5594524569
O  O7  1  0.36047000  0.08893000  0.07080000  1.0 -0.5594524569
O  O8  1  0.08893000  0.36047000  0.42920000  1.0 -0.5594524569
O  O9  1  0.30299000  0.54661000  0.20840000  1.0 -0.5306522338
O  O10  1  0.54661000  0.30299000  0.29160000  1.0 -0.5306522338
O  O11  1  0.69701000  0.45339000  0.79160000  1.0 -0.5306522338
O  O12  1  0.45339000  0.69701000  0.70840000  1.0 -0.5306522338
O  O13  1  0.15201000  0.45099000  0.12930000  1.0 -0.5938718929
O  O14  1  0.45099000  0.15201000  0.37070000  1.0 -0.5938718929
O  O15  1  0.84799000  0.54901000  0.87070000  1.0 -0.5938718929
O  O16  1  0.54901000  0.84799000  0.62930000  1.0 -0.5938718929
O  O17  1  0.12812000  0.80068000  0.66030000  1.0 -0.5752647905
O  O18  1  0.80068000  0.12812000  0.83970000  1.0 -0.5752647905
O  O19  1  0.87188000  0.19932000  0.33970000  1.0 -0.5752647905
O  O20  1  0.19932000  0.87188000  0.16030000  1.0 -0.5736926584
O  O21  1  0.13452000  0.77168000  0.77880000  1.0 -0.5594524569
O  O22  1  0.77168000  0.13452000  0.72120000  1.0 -0.5594524569
O  O23  1  0.86548000  0.22832000  0.22120000  1.0 -0.5594524569
O  O24  1  0.22832000  0.86548000  0.27880000  1.0 -0.5594524569
O  O25  1  0.44132000  0.76728000  0.79130000  1.0 -0.5938718929
O  O26  1  0.76728000  0.44132000  0.70870000  1.0 -0.5938718929
O  O27  1  0.55868000  0.23272000  0.20870000  1.0 -0.5938718929
O  O28  1  0.23272000  0.55868000  0.29130000  1.0 -0.5938718929
O  O29  1  0.53170000  0.91710000  0.70670000  1.0 -0.5594524569
O  O30  1  0.91710000  0.53170000  0.79330000  1.0 -0.5594524569
O  O31  1  0.46830000  0.08290000  0.29330000  1.0 -0.5594524569
O  O32  1  0.08290000  0.46830000  0.20670000  1.0 -0.5594524569
O  O33  1  0.85681000  0.99319000  0.82840000  1.0 -0.5306522338
O  O34  1  0.99319000  0.85681000  0.67160000  1.0 -0.5306522338
O  O35  1  0.14319000  0.00681000  0.17160000  1.0 -0.5306522338
O  O36  1  0.00681000  0.14319000  0.32840000  1.0 -0.5306522338
O  O37  1  0.85549000  0.02731000  0.91270000  1.0 -0.5383737176
O  O38  1  0.02731000  0.85549000  0.58730000  1.0 -0.5383737176
O  O39  1  0.14451000  0.97269000  0.08730000  1.0 -0.5383737176
O  O40  1  0.97269000  0.14451000  0.41270000  1.0 -0.5383737176
O  O41  1  0.66697000  0.91423000  0.78010000  1.0 -0.9145932733
O  O42  1  0.91423000  0.66697000  0.71990000  1.0 -0.9145932733
O  O43  1  0.33303000  0.08577000  0.21990000  1.0 -0.9145932733
O  O44  1  0.08577000  0.33303000  0.28010000  1.0 -0.9145932733
