# DDEC6 charges by PACMAN v1.1 (https://github.com/mtap-research/PACMAN-charge/)
data_LURDIO_ASR_pacman
_symmetry_space_group_name_H-M   'P 1'
_cell_length_a   19.43600000
_cell_length_b   19.43600000
_cell_length_c   23.20840000
_cell_angle_alpha   90.00000000
_cell_angle_beta   90.00000000
_cell_angle_gamma   135.63600000
_symmetry_Int_Tables_number   1
_chemical_formula_structural   InH16C36(SO)8
_chemical_formula_sum   'In4 H64 C144 S32 O32'
_cell_volume   6130.12421560
_cell_formula_units_Z   4
loop_
 _symmetry_equiv_pos_site_id
 _symmetry_equiv_pos_as_xyz
  1  'x, y, z'
loop_
 _atom_site_type_symbol
 _atom_site_label
 _atom_site_symmetry_multiplicity
 _atom_site_fract_x
 _atom_site_fract_y
 _atom_site_fract_z
 _atom_site_occupancy
 _atom_site_charge
In  In1  1  0.21549000  0.78451000  0.25000000  1.0 1.3343657266
In  In2  1  0.21549000  0.78451000  0.75000000  1.0 1.3343657266
In  In3  1  0.78451000  0.21549000  0.25000000  1.0 1.3343657266
In  In4  1  0.78451000  0.21549000  0.75000000  1.0 1.3343657266
H  H1  1  0.31827000  0.70005000  0.39014000  1.0 0.1289172264
H  H2  1  0.30765000  0.59107000  0.44896000  1.0 0.1177192025
H  H3  1  0.02459000  0.36363000  0.39659000  1.0 0.1289172264
H  H4  1  0.04123000  0.46367000  0.33347000  1.0 0.1443076443
H  H5  1  0.29275000  0.14779000  0.61094000  1.0 0.1177192025
H  H6  1  0.31220000  0.06134000  0.66546000  1.0 0.1289172264
H  H7  1  0.07450000  0.80778000  0.58660000  1.0 0.1062827922
H  H8  1  0.05505000  0.89423000  0.53208000  1.0 0.0916190904
H  H9  1  0.29995000  0.68173000  0.10986000  1.0 0.1289172264
H  H10  1  0.40893000  0.69235000  0.05104000  1.0 0.1177192025
H  H11  1  0.63637000  0.97541000  0.10341000  1.0 0.1289172264
H  H12  1  0.53633000  0.95877000  0.16653000  1.0 0.1443076443
H  H13  1  0.85221000  0.70725000  0.88906000  1.0 0.1177192025
H  H14  1  0.93866000  0.68780000  0.83454000  1.0 0.1289172264
H  H15  1  0.19222000  0.92550000  0.91340000  1.0 0.1062827922
H  H16  1  0.10577000  0.94495000  0.96792000  1.0 0.0916190904
H  H17  1  0.31827000  0.70005000  0.60986000  1.0 0.1289172264
H  H18  1  0.30765000  0.59107000  0.55104000  1.0 0.1177192025
H  H19  1  0.02459000  0.36363000  0.60341000  1.0 0.1289172264
H  H20  1  0.04123000  0.46367000  0.66653000  1.0 0.1443076443
H  H21  1  0.29275000  0.14779000  0.38906000  1.0 0.1177192025
H  H22  1  0.31220000  0.06134000  0.33454000  1.0 0.1289172264
H  H23  1  0.07450000  0.80778000  0.41340000  1.0 0.1062827922
H  H24  1  0.05505000  0.89423000  0.46792000  1.0 0.0916190904
H  H25  1  0.29995000  0.68173000  0.89014000  1.0 0.1289172264
H  H26  1  0.40893000  0.69235000  0.94896000  1.0 0.1177192025
H  H27  1  0.63637000  0.97541000  0.89659000  1.0 0.1289172264
H  H28  1  0.53633000  0.95877000  0.83347000  1.0 0.1443076443
H  H29  1  0.85221000  0.70725000  0.11094000  1.0 0.1177192025
H  H30  1  0.93866000  0.68780000  0.16546000  1.0 0.1289172264
H  H31  1  0.19222000  0.92550000  0.08660000  1.0 0.1062827922
H  H32  1  0.10577000  0.94495000  0.03208000  1.0 0.0916190904
H  H33  1  0.68173000  0.29995000  0.39014000  1.0 0.1289172264
H  H34  1  0.69235000  0.40893000  0.44896000  1.0 0.1177192025
H  H35  1  0.97541000  0.63637000  0.39659000  1.0 0.1289172264
H  H36  1  0.95877000  0.53633000  0.33347000  1.0 0.1443076443
H  H37  1  0.70725000  0.85221000  0.61094000  1.0 0.1177192025
H  H38  1  0.68780000  0.93866000  0.66546000  1.0 0.1289172264
H  H39  1  0.92550000  0.19222000  0.58660000  1.0 0.1062827922
H  H40  1  0.94495000  0.10577000  0.53208000  1.0 0.0916190904
H  H41  1  0.70005000  0.31827000  0.10986000  1.0 0.1289172264
H  H42  1  0.59107000  0.30765000  0.05104000  1.0 0.1177192025
H  H43  1  0.36363000  0.02459000  0.10341000  1.0 0.1289172264
H  H44  1  0.46367000  0.04123000  0.16653000  1.0 0.1443076443
H  H45  1  0.14779000  0.29275000  0.88906000  1.0 0.1177192025
H  H46  1  0.06134000  0.31220000  0.83454000  1.0 0.1289172264
H  H47  1  0.80778000  0.07450000  0.91340000  1.0 0.1062827922
H  H48  1  0.89423000  0.05505000  0.96792000  1.0 0.0916190904
H  H49  1  0.68173000  0.29995000  0.60986000  1.0 0.1289172264
H  H50  1  0.69235000  0.40893000  0.55104000  1.0 0.1177192025
H  H51  1  0.97541000  0.63637000  0.60341000  1.0 0.1289172264
H  H52  1  0.95877000  0.53633000  0.66653000  1.0 0.1443076443
H  H53  1  0.70725000  0.85221000  0.38906000  1.0 0.1177192025
H  H54  1  0.68780000  0.93866000  0.33454000  1.0 0.1289172264
H  H55  1  0.92550000  0.19222000  0.41340000  1.0 0.1062827922
H  H56  1  0.94495000  0.10577000  0.46792000  1.0 0.0916190904
H  H57  1  0.70005000  0.31827000  0.89014000  1.0 0.1289172264
H  H58  1  0.59107000  0.30765000  0.94896000  1.0 0.1177192025
H  H59  1  0.36363000  0.02459000  0.89659000  1.0 0.1289172264
H  H60  1  0.46367000  0.04123000  0.83347000  1.0 0.1443076443
H  H61  1  0.14779000  0.29275000  0.11094000  1.0 0.1177192025
H  H62  1  0.06134000  0.31220000  0.16546000  1.0 0.1289172264
H  H63  1  0.80778000  0.07450000  0.08660000  1.0 0.1062827922
H  H64  1  0.89423000  0.05505000  0.03208000  1.0 0.0916190904
C  C1  1  0.19000000  0.65960000  0.31890000  1.0 0.5330498081
C  C2  1  0.25970000  0.63150000  0.39030000  1.0 -0.0788096447
C  C3  1  0.25210000  0.56590000  0.42730000  1.0 -0.1478754458
C  C4  1  0.16630000  0.46890000  0.43110000  1.0 0.0656614799
C  C5  1  0.08510000  0.43130000  0.39470000  1.0 -0.1387756512
C  C6  1  0.09460000  0.49100000  0.35830000  1.0 -0.0504106915
C  C7  1  0.15480000  0.40420000  0.47010000  1.0 -0.0599935176
C  C8  1  0.15310000  0.07850000  0.52840000  1.0 -0.0599935176
C  C9  1  0.17210000  0.02910000  0.56640000  1.0 0.0822475461
C  C10  1  0.24840000  0.07880000  0.60600000  1.0 -0.156078792
C  C11  1  0.26000000  0.02740000  0.63840000  1.0 -0.0788096447
C  C12  1  0.19520000  0.92640000  0.63120000  1.0 0.0243900821
C  C13  1  0.11880000  0.87680000  0.59150000  1.0 -0.1005080778
C  C14  1  0.10720000  0.92820000  0.55920000  1.0 -0.1387756512
C  C15  1  0.20340000  0.87240000  0.67400000  1.0 0.5226719614
C  C16  1  0.18150000  0.59370000  0.35530000  1.0 -0.0407800822
C  C17  1  0.34040000  0.81000000  0.18110000  1.0 0.5330498081
C  C18  1  0.36850000  0.74030000  0.10970000  1.0 -0.0788096447
C  C19  1  0.43410000  0.74790000  0.07270000  1.0 -0.1478754458
C  C20  1  0.53110000  0.83370000  0.06890000  1.0 0.0656614799
C  C21  1  0.56870000  0.91490000  0.10530000  1.0 -0.1387756512
C  C22  1  0.50900000  0.90540000  0.14170000  1.0 -0.0504106915
C  C23  1  0.59580000  0.84520000  0.02990000  1.0 -0.0599935176
C  C24  1  0.92150000  0.84690000  0.97160000  1.0 -0.0599935176
C  C25  1  0.97090000  0.82790000  0.93360000  1.0 0.0822475461
C  C26  1  0.92120000  0.75160000  0.89400000  1.0 -0.156078792
C  C27  1  0.97260000  0.74000000  0.86160000  1.0 -0.0788096447
C  C28  1  0.07360000  0.80480000  0.86880000  1.0 0.0243900821
C  C29  1  0.12320000  0.88120000  0.90850000  1.0 -0.0945942498
C  C30  1  0.07180000  0.89280000  0.94080000  1.0 -0.1387756512
C  C31  1  0.12760000  0.79660000  0.82600000  1.0 0.5226719614
C  C32  1  0.40630000  0.81850000  0.14470000  1.0 -0.0407800822
C  C33  1  0.19000000  0.65960000  0.68110000  1.0 0.5330498081
C  C34  1  0.25970000  0.63150000  0.60970000  1.0 -0.0788096447
C  C35  1  0.25210000  0.56590000  0.57270000  1.0 -0.1478754458
C  C36  1  0.16630000  0.46890000  0.56890000  1.0 0.0656614799
C  C37  1  0.08510000  0.43130000  0.60530000  1.0 -0.1387756512
C  C38  1  0.09460000  0.49100000  0.64170000  1.0 -0.0504106915
C  C39  1  0.15480000  0.40420000  0.52990000  1.0 -0.0599935176
C  C40  1  0.15310000  0.07850000  0.47160000  1.0 -0.0599935176
C  C41  1  0.17210000  0.02910000  0.43360000  1.0 0.0822475461
C  C42  1  0.24840000  0.07880000  0.39400000  1.0 -0.156078792
C  C43  1  0.26000000  0.02740000  0.36160000  1.0 -0.0788096447
C  C44  1  0.19520000  0.92640000  0.36880000  1.0 0.0243900821
C  C45  1  0.11880000  0.87680000  0.40850000  1.0 -0.1005080778
C  C46  1  0.10720000  0.92820000  0.44080000  1.0 -0.1387756512
C  C47  1  0.20340000  0.87240000  0.32600000  1.0 0.5226719614
C  C48  1  0.18150000  0.59370000  0.64470000  1.0 -0.0407800822
C  C49  1  0.34040000  0.81000000  0.81890000  1.0 0.5330498081
C  C50  1  0.36850000  0.74030000  0.89030000  1.0 -0.0788096447
C  C51  1  0.43410000  0.74790000  0.92730000  1.0 -0.1478754458
C  C52  1  0.53110000  0.83370000  0.93110000  1.0 0.0656614799
C  C53  1  0.56870000  0.91490000  0.89470000  1.0 -0.1387756512
C  C54  1  0.50900000  0.90540000  0.85830000  1.0 -0.0504106915
C  C55  1  0.59580000  0.84520000  0.97010000  1.0 -0.0599935176
C  C56  1  0.92150000  0.84690000  0.02840000  1.0 -0.0599935176
C  C57  1  0.97090000  0.82790000  0.06640000  1.0 0.0822475461
C  C58  1  0.92120000  0.75160000  0.10600000  1.0 -0.156078792
C  C59  1  0.97260000  0.74000000  0.13840000  1.0 -0.0788096447
C  C60  1  0.07360000  0.80480000  0.13120000  1.0 0.0243900821
C  C61  1  0.12320000  0.88120000  0.09150000  1.0 -0.0945942498
C  C62  1  0.07180000  0.89280000  0.05920000  1.0 -0.1387756512
C  C63  1  0.12760000  0.79660000  0.17400000  1.0 0.5226719614
C  C64  1  0.40630000  0.81850000  0.85530000  1.0 -0.0407800822
C  C65  1  0.19700000  0.23640000  0.50000000  1.0 -0.1005080778
C  C66  1  0.17900000  0.29220000  0.50000000  1.0 -0.0203683905
C  C67  1  0.10690000  0.17550000  0.50000000  1.0 -0.0788096447
C  C68  1  0.09888000  0.23448000  0.50000000  1.0 -0.1005080778
C  C69  1  0.76360000  0.80300000  0.00000000  1.0 -0.1005080778
C  C70  1  0.70780000  0.82100000  0.00000000  1.0 -0.0203683905
C  C71  1  0.82450000  0.89310000  0.00000000  1.0 -0.0788096447
C  C72  1  0.76552000  0.90112000  0.00000000  1.0 -0.0945942498
C  C73  1  0.81000000  0.34040000  0.31890000  1.0 0.5330498081
C  C74  1  0.74030000  0.36850000  0.39030000  1.0 -0.0788096447
C  C75  1  0.74790000  0.43410000  0.42730000  1.0 -0.1478754458
C  C76  1  0.83370000  0.53110000  0.43110000  1.0 0.0656614799
C  C77  1  0.91490000  0.56870000  0.39470000  1.0 -0.1387756512
C  C78  1  0.90540000  0.50900000  0.35830000  1.0 -0.0504106915
C  C79  1  0.84520000  0.59580000  0.47010000  1.0 -0.0504106915
C  C80  1  0.84690000  0.92150000  0.52840000  1.0 -0.0599935176
C  C81  1  0.82790000  0.97090000  0.56640000  1.0 0.0822475461
C  C82  1  0.75160000  0.92120000  0.60600000  1.0 -0.156078792
C  C83  1  0.74000000  0.97260000  0.63840000  1.0 -0.0788096447
C  C84  1  0.80480000  0.07360000  0.63120000  1.0 0.0243900821
C  C85  1  0.88120000  0.12320000  0.59150000  1.0 -0.0945942498
C  C86  1  0.89280000  0.07180000  0.55920000  1.0 -0.1387756512
C  C87  1  0.79660000  0.12760000  0.67400000  1.0 0.5226719614
C  C88  1  0.81850000  0.40630000  0.35530000  1.0 -0.0407800822
C  C89  1  0.65960000  0.19000000  0.18110000  1.0 0.5330498081
C  C90  1  0.63150000  0.25970000  0.10970000  1.0 -0.0788096447
C  C91  1  0.56590000  0.25210000  0.07270000  1.0 -0.1478754458
C  C92  1  0.46890000  0.16630000  0.06890000  1.0 0.0656614799
C  C93  1  0.43130000  0.08510000  0.10530000  1.0 -0.1387756512
C  C94  1  0.49100000  0.09460000  0.14170000  1.0 -0.0504106915
C  C95  1  0.40420000  0.15480000  0.02990000  1.0 -0.0504106915
C  C96  1  0.07850000  0.15310000  0.97160000  1.0 -0.0599935176
C  C97  1  0.02910000  0.17210000  0.93360000  1.0 0.0822475461
C  C98  1  0.07880000  0.24840000  0.89400000  1.0 -0.156078792
C  C99  1  0.02740000  0.26000000  0.86160000  1.0 -0.0788096447
C  C100  1  0.92640000  0.19520000  0.86880000  1.0 0.0243900821
C  C101  1  0.87680000  0.11880000  0.90850000  1.0 -0.0945942498
C  C102  1  0.92820000  0.10720000  0.94080000  1.0 -0.1387756512
C  C103  1  0.87240000  0.20340000  0.82600000  1.0 0.5226719614
C  C104  1  0.59370000  0.18150000  0.14470000  1.0 -0.0407800822
C  C105  1  0.81000000  0.34040000  0.68110000  1.0 0.5330498081
C  C106  1  0.74030000  0.36850000  0.60970000  1.0 -0.0788096447
C  C107  1  0.74790000  0.43410000  0.57270000  1.0 -0.1478754458
C  C108  1  0.83370000  0.53110000  0.56890000  1.0 0.0656614799
C  C109  1  0.91490000  0.56870000  0.60530000  1.0 -0.1387756512
C  C110  1  0.90540000  0.50900000  0.64170000  1.0 -0.0504106915
C  C111  1  0.84520000  0.59580000  0.52990000  1.0 -0.0504106915
C  C112  1  0.84690000  0.92150000  0.47160000  1.0 -0.0599935176
C  C113  1  0.82790000  0.97090000  0.43360000  1.0 0.0822475461
C  C114  1  0.75160000  0.92120000  0.39400000  1.0 -0.156078792
C  C115  1  0.74000000  0.97260000  0.36160000  1.0 -0.0788096447
C  C116  1  0.80480000  0.07360000  0.36880000  1.0 0.0243900821
C  C117  1  0.88120000  0.12320000  0.40850000  1.0 -0.0945942498
C  C118  1  0.89280000  0.07180000  0.44080000  1.0 -0.1387756512
C  C119  1  0.79660000  0.12760000  0.32600000  1.0 0.5226719614
C  C120  1  0.81850000  0.40630000  0.64470000  1.0 -0.0407800822
C  C121  1  0.65960000  0.19000000  0.81890000  1.0 0.5330498081
C  C122  1  0.63150000  0.25970000  0.89030000  1.0 -0.0788096447
C  C123  1  0.56590000  0.25210000  0.92730000  1.0 -0.1478754458
C  C124  1  0.46890000  0.16630000  0.93110000  1.0 0.0656614799
C  C125  1  0.43130000  0.08510000  0.89470000  1.0 -0.1387756512
C  C126  1  0.49100000  0.09460000  0.85830000  1.0 -0.0504106915
C  C127  1  0.40420000  0.15480000  0.97010000  1.0 -0.0599935176
C  C128  1  0.07850000  0.15310000  0.02840000  1.0 -0.0599935176
C  C129  1  0.02910000  0.17210000  0.06640000  1.0 0.0822475461
C  C130  1  0.07880000  0.24840000  0.10600000  1.0 -0.156078792
C  C131  1  0.02740000  0.26000000  0.13840000  1.0 -0.0788096447
C  C132  1  0.92640000  0.19520000  0.13120000  1.0 0.0243900821
C  C133  1  0.87680000  0.11880000  0.09150000  1.0 -0.0945942498
C  C134  1  0.92820000  0.10720000  0.05920000  1.0 -0.1387756512
C  C135  1  0.87240000  0.20340000  0.17400000  1.0 0.5226719614
C  C136  1  0.59370000  0.18150000  0.85530000  1.0 -0.0407800822
C  C137  1  0.80300000  0.76360000  0.50000000  1.0 -0.1005080778
C  C138  1  0.82100000  0.70780000  0.50000000  1.0 -0.0203683905
C  C139  1  0.89310000  0.82450000  0.50000000  1.0 -0.0788096447
C  C140  1  0.90112000  0.76552000  0.50000000  1.0 -0.0945942498
C  C141  1  0.23640000  0.19700000  0.00000000  1.0 -0.1005080778
C  C142  1  0.29220000  0.17900000  0.00000000  1.0 -0.0203683905
C  C143  1  0.17550000  0.10690000  0.00000000  1.0 -0.0788096447
C  C144  1  0.23448000  0.09888000  0.00000000  1.0 -0.0945942498
S  S1  1  0.12088000  0.29912000  0.43717000  1.0 0.1062827922
S  S2  1  0.11583000  0.12897000  0.56310000  1.0 0.0656614799
S  S3  1  0.19060000  0.35040000  0.43670000  1.0 0.1015053049
S  S4  1  0.20050000  0.19210000  0.56440000  1.0 0.0822475461
S  S5  1  0.70088000  0.87912000  0.06283000  1.0 0.1062827922
S  S6  1  0.87103000  0.88417000  0.93690000  1.0 0.0656614799
S  S7  1  0.64960000  0.80940000  0.06330000  1.0 0.1015053049
S  S8  1  0.80790000  0.79950000  0.93560000  1.0 0.0822475461
S  S9  1  0.12088000  0.29912000  0.56283000  1.0 0.1015053049
S  S10  1  0.11583000  0.12897000  0.43690000  1.0 0.0656614799
S  S11  1  0.19060000  0.35040000  0.56330000  1.0 0.1015053049
S  S12  1  0.20050000  0.19210000  0.43560000  1.0 0.0822475461
S  S13  1  0.70088000  0.87912000  0.93717000  1.0 0.1015053049
S  S14  1  0.87103000  0.88417000  0.06310000  1.0 0.0656614799
S  S15  1  0.64960000  0.80940000  0.93670000  1.0 0.1015053049
S  S16  1  0.80790000  0.79950000  0.06440000  1.0 0.0822475461
S  S17  1  0.87912000  0.70088000  0.43717000  1.0 0.1062827922
S  S18  1  0.88417000  0.87103000  0.56310000  1.0 0.0656614799
S  S19  1  0.80940000  0.64960000  0.43670000  1.0 0.1015053049
S  S20  1  0.79950000  0.80790000  0.56440000  1.0 0.0822475461
S  S21  1  0.29912000  0.12088000  0.06283000  1.0 0.1015053049
S  S22  1  0.12897000  0.11583000  0.93690000  1.0 0.0656614799
S  S23  1  0.35040000  0.19060000  0.06330000  1.0 0.1015053049
S  S24  1  0.19210000  0.20050000  0.93560000  1.0 0.0822475461
S  S25  1  0.87912000  0.70088000  0.56283000  1.0 0.1062827922
S  S26  1  0.88417000  0.87103000  0.43690000  1.0 0.0656614799
S  S27  1  0.80940000  0.64960000  0.56330000  1.0 0.1015053049
S  S28  1  0.79950000  0.80790000  0.43560000  1.0 0.0822475461
S  S29  1  0.29912000  0.12088000  0.93717000  1.0 0.1015053049
S  S30  1  0.12897000  0.11583000  0.06310000  1.0 0.0656614799
S  S31  1  0.35040000  0.19060000  0.93670000  1.0 0.1015053049
S  S32  1  0.19210000  0.20050000  0.06440000  1.0 0.0822475461
O  O1  1  0.26730000  0.74930000  0.31720000  1.0 -0.4971678097
O  O2  1  0.12061000  0.62839000  0.28640000  1.0 -0.4887463141
O  O3  1  0.12770000  0.78550000  0.68350000  1.0 -0.5146847952
O  O4  1  0.28560000  0.92000000  0.69760000  1.0 -0.5202582527
O  O5  1  0.25070000  0.73270000  0.18280000  1.0 -0.4971678097
O  O6  1  0.37161000  0.87939000  0.21360000  1.0 -0.4887463141
O  O7  1  0.21450000  0.87230000  0.81650000  1.0 -0.5146847952
O  O8  1  0.08000000  0.71440000  0.80240000  1.0 -0.5202582527
O  O9  1  0.26730000  0.74930000  0.68280000  1.0 -0.4971678097
O  O10  1  0.12061000  0.62839000  0.71360000  1.0 -0.4887463141
O  O11  1  0.12770000  0.78550000  0.31650000  1.0 -0.5146847952
O  O12  1  0.28560000  0.92000000  0.30240000  1.0 -0.5202582527
O  O13  1  0.25070000  0.73270000  0.81720000  1.0 -0.4971678097
O  O14  1  0.37161000  0.87939000  0.78640000  1.0 -0.4887463141
O  O15  1  0.21450000  0.87230000  0.18350000  1.0 -0.5146847952
O  O16  1  0.08000000  0.71440000  0.19760000  1.0 -0.5202582527
O  O17  1  0.73270000  0.25070000  0.31720000  1.0 -0.4971678097
O  O18  1  0.87939000  0.37161000  0.28640000  1.0 -0.4887463141
O  O19  1  0.87230000  0.21450000  0.68350000  1.0 -0.5146847952
O  O20  1  0.71440000  0.08000000  0.69760000  1.0 -0.5202582527
O  O21  1  0.74930000  0.26730000  0.18280000  1.0 -0.4971678097
O  O22  1  0.62839000  0.12061000  0.21360000  1.0 -0.4887463141
O  O23  1  0.78550000  0.12770000  0.81650000  1.0 -0.5202582527
O  O24  1  0.92000000  0.28560000  0.80240000  1.0 -0.5202582527
O  O25  1  0.73270000  0.25070000  0.68280000  1.0 -0.4971678097
O  O26  1  0.87939000  0.37161000  0.71360000  1.0 -0.4887463141
O  O27  1  0.87230000  0.21450000  0.31650000  1.0 -0.5146847952
O  O28  1  0.71440000  0.08000000  0.30240000  1.0 -0.5202582527
O  O29  1  0.74930000  0.26730000  0.81720000  1.0 -0.4971678097
O  O30  1  0.62839000  0.12061000  0.78640000  1.0 -0.4887463141
O  O31  1  0.78550000  0.12770000  0.18350000  1.0 -0.5202582527
O  O32  1  0.92000000  0.28560000  0.19760000  1.0 -0.5202582527
