# DDEC6 charges by PACMAN v1.1 (https://github.com/mtap-research/PACMAN-charge/)
data_LURLOB_FSR_pacman
_symmetry_space_group_name_H-M   'P 1'
_cell_length_a   11.20510000
_cell_length_b   11.20510000
_cell_length_c   11.20510000
_cell_angle_alpha   144.33400000
_cell_angle_beta   105.20400000
_cell_angle_gamma   85.71650000
_symmetry_Int_Tables_number   1
_chemical_formula_structural   CrH4C8O5
_chemical_formula_sum   'Cr2 H8 C16 O10'
_cell_volume   767.25351301
_cell_formula_units_Z   2
loop_
 _symmetry_equiv_pos_site_id
 _symmetry_equiv_pos_as_xyz
  1  'x, y, z'
loop_
 _atom_site_type_symbol
 _atom_site_label
 _atom_site_symmetry_multiplicity
 _atom_site_fract_x
 _atom_site_fract_y
 _atom_site_fract_z
 _atom_site_occupancy
 _atom_site_charge
Cr  Cr1  1  0.00000000  0.00000000  0.50000000  1.0 1.3069869897
Cr  Cr2  1  0.00000000  0.50000000  0.00000000  1.0 1.2987967154
H  H1  1  0.00254000  0.61955000  0.74893000  1.0 0.074002281
H  H2  1  0.99746000  0.74639000  0.61701000  1.0 0.074002281
H  H3  1  0.37062000  0.75361000  0.25107000  1.0 0.074002281
H  H4  1  0.62938000  0.88045000  0.38299000  1.0 0.074002281
H  H5  1  0.99746000  0.38045000  0.25107000  1.0 0.074002281
H  H6  1  0.00254000  0.25361000  0.38299000  1.0 0.074002281
H  H7  1  0.62938000  0.24639000  0.74893000  1.0 0.074002281
H  H8  1  0.37062000  0.11955000  0.61701000  1.0 0.074002281
C  C1  1  0.99165000  0.78507000  0.85138000  1.0 -0.0810644978
C  C2  1  0.00835000  0.85973000  0.79342000  1.0 -0.0810644978
C  C3  1  0.43369000  0.64027000  0.14862000  1.0 -0.0810644978
C  C4  1  0.56631000  0.71493000  0.20658000  1.0 -0.0810644978
C  C5  1  0.00835000  0.21493000  0.14862000  1.0 -0.0810644978
C  C6  1  0.99165000  0.14027000  0.20658000  1.0 -0.0810644978
C  C7  1  0.56631000  0.35973000  0.85138000  1.0 -0.0810644978
C  C8  1  0.43369000  0.28507000  0.79342000  1.0 -0.0810644978
C  C9  1  0.98466000  0.93169000  0.05297000  1.0 -0.0722859482
C  C10  1  0.01534000  0.06831000  0.94703000  1.0 -0.0722859482
C  C11  1  0.37872000  0.43169000  0.94703000  1.0 -0.0722859482
C  C12  1  0.62128000  0.56831000  0.05297000  1.0 -0.0722859482
C  C13  1  0.00261000  0.87240000  0.13021000  1.0 0.4599053433
C  C14  1  0.99739000  0.12760000  0.86979000  1.0 0.4599053433
C  C15  1  0.24219000  0.37240000  0.86979000  1.0 0.4599053433
C  C16  1  0.75781000  0.62760000  0.13021000  1.0 0.4599053433
O  O1  1  0.99528000  0.96400000  0.28886000  1.0 -0.3433537959
O  O2  1  0.00472000  0.29358000  0.96872000  1.0 -0.3456788817
O  O3  1  0.17514000  0.20642000  0.71114000  1.0 -0.3456788817
O  O4  1  0.82486000  0.53600000  0.03128000  1.0 -0.3456788817
O  O5  1  0.00472000  0.03600000  0.71114000  1.0 -0.3433537959
O  O6  1  0.99528000  0.70642000  0.03128000  1.0 -0.3456788817
O  O7  1  0.82486000  0.79358000  0.28886000  1.0 -0.3433537959
O  O8  1  0.17514000  0.46400000  0.96872000  1.0 -0.3456788817
O  O9  1  0.02543000  0.75000000  0.27543000  1.0 -0.6706538776
O  O10  1  0.97457000  0.25000000  0.72457000  1.0 -0.6706538776
