# DDEC6 charges by PACMAN v1.1 (https://github.com/mtap-research/PACMAN-charge/)
data_LURMAO_FSR_pacman
_symmetry_space_group_name_H-M   'P 1'
_cell_length_a   11.20330000
_cell_length_b   11.20330000
_cell_length_c   11.20330000
_cell_angle_alpha   144.35100000
_cell_angle_beta   103.99800000
_cell_angle_gamma   86.87660000
_symmetry_Int_Tables_number   1
_chemical_formula_structural   CrH4C8O5
_chemical_formula_sum   'Cr2 H8 C16 O10'
_cell_volume   769.70066173
_cell_formula_units_Z   2
loop_
 _symmetry_equiv_pos_site_id
 _symmetry_equiv_pos_as_xyz
  1  'x, y, z'
loop_
 _atom_site_type_symbol
 _atom_site_label
 _atom_site_symmetry_multiplicity
 _atom_site_fract_x
 _atom_site_fract_y
 _atom_site_fract_z
 _atom_site_occupancy
 _atom_site_charge
Cr  Cr1  1  0.00000000  0.00000000  0.50000000  1.0 1.6875606606
Cr  Cr2  1  0.00000000  0.50000000  0.00000000  1.0 1.6875606606
H  H1  1  0.99534000  0.64104000  0.75288000  1.0 0.0745451802
H  H2  1  0.00466000  0.75754000  0.64570000  1.0 0.0753967965
H  H3  1  0.38816000  0.74246000  0.24712000  1.0 0.0753967965
H  H4  1  0.61184000  0.85896000  0.35430000  1.0 0.0753967965
H  H5  1  0.00466000  0.35896000  0.24712000  1.0 0.0753967965
H  H6  1  0.99534000  0.24246000  0.35430000  1.0 0.0745451802
H  H7  1  0.61184000  0.25754000  0.75288000  1.0 0.0753967965
H  H8  1  0.38816000  0.14104000  0.64570000  1.0 0.0753967965
C  C1  1  0.99558000  0.82309000  0.88527000  1.0 -0.0417191481
C  C2  1  0.00442000  0.88969000  0.82751000  1.0 -0.0417191481
C  C3  1  0.43782000  0.61031000  0.11473000  1.0 -0.0417191481
C  C4  1  0.56218000  0.67691000  0.17249000  1.0 -0.0417191481
C  C5  1  0.00442000  0.17691000  0.11473000  1.0 -0.0417191481
C  C6  1  0.99558000  0.11031000  0.17249000  1.0 -0.0417191481
C  C7  1  0.56218000  0.38969000  0.88527000  1.0 -0.0417191481
C  C8  1  0.43782000  0.32309000  0.82751000  1.0 -0.0417191481
C  C9  1  0.99609000  0.93545000  0.06064000  1.0 -0.0834020435
C  C10  1  0.00391000  0.06455000  0.93936000  1.0 -0.0834020435
C  C11  1  0.37481000  0.43545000  0.93936000  1.0 -0.0834020435
C  C12  1  0.62519000  0.56455000  0.06064000  1.0 -0.0834020435
C  C13  1  0.99705000  0.86863000  0.12842000  1.0 0.5394119898
C  C14  1  0.00295000  0.13137000  0.87158000  1.0 0.5394119898
C  C15  1  0.24021000  0.36863000  0.87158000  1.0 0.5394119898
C  C16  1  0.75979000  0.63137000  0.12842000  1.0 0.5394119898
O  O1  1  0.99647000  0.98520000  0.30879000  1.0 -0.4816975465
O  O2  1  0.00353000  0.31232000  0.98873000  1.0 -0.4816975465
O  O3  1  0.17641000  0.18768000  0.69121000  1.0 -0.4816975465
O  O4  1  0.82359000  0.51480000  0.01127000  1.0 -0.4816975465
O  O5  1  0.00353000  0.01480000  0.69121000  1.0 -0.4816975465
O  O6  1  0.99647000  0.68768000  0.01127000  1.0 -0.4816975465
O  O7  1  0.82359000  0.81232000  0.30879000  1.0 -0.4816975465
O  O8  1  0.17641000  0.48520000  0.98873000  1.0 -0.4816975465
O  O9  1  0.03185000  0.75000000  0.28185000  1.0 -0.8066493443
O  O10  1  0.96815000  0.25000000  0.71815000  1.0 -0.8066493443
