# DDEC6 charges by PACMAN v1.1 (https://github.com/mtap-research/PACMAN-charge/)
data_LUSZUV_FSR_pacman
_symmetry_space_group_name_H-M   'P 1'
_cell_length_a   7.33540000
_cell_length_b   18.14000000
_cell_length_c   12.08830000
_cell_angle_alpha   90.00000000
_cell_angle_beta   122.89800000
_cell_angle_gamma   90.00000000
_symmetry_Int_Tables_number   1
_chemical_formula_structural   Cu2H3C8SO9
_chemical_formula_sum   'Cu8 H12 C32 S4 O36'
_cell_volume   1350.57536907
_cell_formula_units_Z   4
loop_
 _symmetry_equiv_pos_site_id
 _symmetry_equiv_pos_as_xyz
  1  'x, y, z'
loop_
 _atom_site_type_symbol
 _atom_site_label
 _atom_site_symmetry_multiplicity
 _atom_site_fract_x
 _atom_site_fract_y
 _atom_site_fract_z
 _atom_site_occupancy
 _atom_site_charge
Cu  Cu1  1  0.35155000  0.09449000  0.21696000  1.0 1.1686364364
Cu  Cu2  1  0.64845000  0.59449000  0.28304000  1.0 1.1686364364
Cu  Cu3  1  0.64845000  0.90551000  0.78304000  1.0 1.1686364364
Cu  Cu4  1  0.35155000  0.40551000  0.71696000  1.0 1.1686364364
Cu  Cu5  1  0.88836000  0.06850000  0.93154000  1.0 1.1365915786
Cu  Cu6  1  0.11164000  0.56850000  0.56846000  1.0 1.1365915786
Cu  Cu7  1  0.11164000  0.93150000  0.06846000  1.0 1.1365915786
Cu  Cu8  1  0.88836000  0.43150000  0.43154000  1.0 1.1365915786
H  H1  1  0.38400000  0.30770000  0.16570000  1.0 0.1377064388
H  H2  1  0.61600000  0.80770000  0.33430000  1.0 0.1377064388
H  H3  1  0.61600000  0.69230000  0.83430000  1.0 0.1377064388
H  H4  1  0.38400000  0.19230000  0.66570000  1.0 0.1377064388
H  H5  1  0.85940000  0.29330000  0.79600000  1.0 0.1464681
H  H6  1  0.14060000  0.79330000  0.70400000  1.0 0.1464681
H  H7  1  0.14060000  0.70670000  0.20400000  1.0 0.1464681
H  H8  1  0.85940000  0.20670000  0.29600000  1.0 0.1464681
H  H9  1  0.15770000  0.48890000  0.93840000  1.0 0.1464681
H  H10  1  0.84230000  0.98890000  0.56160000  1.0 0.1464681
H  H11  1  0.84230000  0.51110000  0.06160000  1.0 0.1464681
H  H12  1  0.15770000  0.01110000  0.43840000  1.0 0.1464681
C  C1  1  0.98820000  0.39590000  0.84960000  1.0 -0.0405675259
C  C2  1  0.01180000  0.89590000  0.65040000  1.0 -0.0405675259
C  C3  1  0.01180000  0.60410000  0.15040000  1.0 -0.0405675259
C  C4  1  0.98820000  0.10410000  0.34960000  1.0 -0.0405675259
C  C5  1  0.29840000  0.40500000  0.06930000  1.0 -0.0017348628
C  C6  1  0.70160000  0.90500000  0.43070000  1.0 -0.0017348628
C  C7  1  0.70160000  0.59500000  0.93070000  1.0 -0.0017348628
C  C8  1  0.29840000  0.09500000  0.56930000  1.0 -0.0017348628
C  C9  1  0.28270000  0.32990000  0.08610000  1.0 -0.0651735935
C  C10  1  0.71730000  0.82990000  0.41390000  1.0 -0.0651735935
C  C11  1  0.71730000  0.67010000  0.91390000  1.0 -0.0651735935
C  C12  1  0.28270000  0.17010000  0.58610000  1.0 -0.0648324761
C  C13  1  0.11690000  0.28760000  0.98490000  1.0 -0.0017348628
C  C14  1  0.88310000  0.78760000  0.51510000  1.0 0.0007813371
C  C15  1  0.88310000  0.71240000  0.01510000  1.0 0.0007813371
C  C16  1  0.11690000  0.21240000  0.48490000  1.0 -0.0017348628
C  C17  1  0.10700000  0.20720000  0.00910000  1.0 0.6089065473
C  C18  1  0.89300000  0.70720000  0.49090000  1.0 0.6089065473
C  C19  1  0.89300000  0.79280000  0.99090000  1.0 0.6089065473
C  C20  1  0.10700000  0.29280000  0.50910000  1.0 0.6089065473
C  C21  1  0.96930000  0.32080000  0.86500000  1.0 -0.0777859885
C  C22  1  0.03070000  0.82080000  0.63500000  1.0 -0.0777859885
C  C23  1  0.03070000  0.67920000  0.13500000  1.0 -0.0777859885
C  C24  1  0.96930000  0.17920000  0.36500000  1.0 -0.0777859885
C  C25  1  0.14940000  0.43860000  0.95030000  1.0 -0.0777859885
C  C26  1  0.85060000  0.93860000  0.54970000  1.0 -0.0777859885
C  C27  1  0.85060000  0.56140000  0.04970000  1.0 -0.0777859885
C  C28  1  0.14940000  0.06140000  0.45030000  1.0 -0.0777859885
C  C29  1  0.48310000  0.44650000  0.18210000  1.0 0.6030521046
C  C30  1  0.51690000  0.94650000  0.31790000  1.0 0.6030521046
C  C31  1  0.51690000  0.55350000  0.81790000  1.0 0.6030521046
C  C32  1  0.48310000  0.05350000  0.68210000  1.0 0.6030521046
S  S1  1  0.81156000  0.43462000  0.69096000  1.0 1.1686364364
S  S2  1  0.18844000  0.93462000  0.80904000  1.0 1.1686364364
S  S3  1  0.18844000  0.56538000  0.30904000  1.0 1.1686364364
S  S4  1  0.81156000  0.06538000  0.19096000  1.0 1.1686364364
O  O1  1  0.96680000  0.16803000  0.91440000  1.0 -0.4928296108
O  O2  1  0.03320000  0.66803000  0.58560000  1.0 -0.4928296108
O  O3  1  0.03320000  0.83197000  0.08560000  1.0 -0.4928296108
O  O4  1  0.96680000  0.33197000  0.41440000  1.0 -0.4928296108
O  O5  1  0.18670000  0.03480000  0.05730000  1.0 -0.8953084696
O  O6  1  0.81330000  0.53480000  0.44270000  1.0 -0.8943604776
O  O7  1  0.81330000  0.96520000  0.94270000  1.0 -0.8943604776
O  O8  1  0.18670000  0.46520000  0.55730000  1.0 -0.8943604776
O  O9  1  0.50440000  0.51352000  0.16340000  1.0 -0.5013273556
O  O10  1  0.49560000  0.01352000  0.33660000  1.0 -0.5013273556
O  O11  1  0.49560000  0.48648000  0.83660000  1.0 -0.5013273556
O  O12  1  0.50440000  0.98648000  0.66340000  1.0 -0.5013273556
O  O13  1  0.24410000  0.18608000  0.12530000  1.0 -0.4816238605
O  O14  1  0.75590000  0.68608000  0.37470000  1.0 -0.4816238605
O  O15  1  0.75590000  0.81392000  0.87470000  1.0 -0.4816238605
O  O16  1  0.24410000  0.31392000  0.62530000  1.0 -0.4816238605
O  O17  1  0.83170000  0.51280000  0.70200000  1.0 -0.4816238605
O  O18  1  0.16830000  0.01280000  0.79800000  1.0 -0.4816238605
O  O19  1  0.16830000  0.48720000  0.29800000  1.0 -0.4816238605
O  O20  1  0.83170000  0.98720000  0.20200000  1.0 -0.4816238605
O  O21  1  0.60040000  0.41026000  0.28590000  1.0 -0.4816238605
O  O22  1  0.39960000  0.91026000  0.21410000  1.0 -0.4816238605
O  O23  1  0.39960000  0.58974000  0.71410000  1.0 -0.4816238605
O  O24  1  0.60040000  0.08974000  0.78590000  1.0 -0.4816238605
O  O25  1  0.88620000  0.40280000  0.61230000  1.0 -0.6204187024
O  O26  1  0.11380000  0.90280000  0.88770000  1.0 -0.6204187024
O  O27  1  0.11380000  0.59720000  0.38770000  1.0 -0.6204187024
O  O28  1  0.88620000  0.09720000  0.11230000  1.0 -0.6204187024
O  O29  1  0.59590000  0.40740000  0.64500000  1.0 -0.5378460337
O  O30  1  0.40410000  0.90740000  0.85500000  1.0 -0.5378460337
O  O31  1  0.40410000  0.59260000  0.35500000  1.0 -0.5378460337
O  O32  1  0.59590000  0.09260000  0.14500000  1.0 -0.5378460337
O  O33  1  0.49530000  0.15560000  0.37740000  1.0 -0.3611355398
O  O34  1  0.50470000  0.65560000  0.12260000  1.0 -0.3611355398
O  O35  1  0.50470000  0.84440000  0.62260000  1.0 -0.3611355398
O  O36  1  0.49530000  0.34440000  0.87740000  1.0 -0.3611355398
