# DDEC6 charges by PACMAN v1.1 (https://github.com/mtap-research/PACMAN-charge/)
data_LUSZIJ_FSR_pacman
_symmetry_space_group_name_H-M   'P 1'
_cell_length_a   7.30600000
_cell_length_b   18.11100000
_cell_length_c   12.10260000
_cell_angle_alpha   90.00000000
_cell_angle_beta   122.76600000
_cell_angle_gamma   90.00000000
_symmetry_Int_Tables_number   1
_chemical_formula_structural   Cu2H3C8SO9
_chemical_formula_sum   'Cu8 H12 C32 S4 O36'
_cell_volume   1346.60085981
_cell_formula_units_Z   4
loop_
 _symmetry_equiv_pos_site_id
 _symmetry_equiv_pos_as_xyz
  1  'x, y, z'
loop_
 _atom_site_type_symbol
 _atom_site_label
 _atom_site_symmetry_multiplicity
 _atom_site_fract_x
 _atom_site_fract_y
 _atom_site_fract_z
 _atom_site_occupancy
 _atom_site_charge
Cu  Cu1  1  0.35135000  0.09472000  0.21590000  1.0 1.1634175652
Cu  Cu2  1  0.64865000  0.59472000  0.28410000  1.0 1.1634175652
Cu  Cu3  1  0.64865000  0.90528000  0.78410000  1.0 1.1634175652
Cu  Cu4  1  0.35135000  0.40528000  0.71590000  1.0 1.1634175652
Cu  Cu5  1  0.89028000  0.06842000  0.92979000  1.0 1.1389882439
Cu  Cu6  1  0.10972000  0.56842000  0.57021000  1.0 1.1389882439
Cu  Cu7  1  0.10972000  0.93158000  0.07021000  1.0 1.1389882439
Cu  Cu8  1  0.89028000  0.43158000  0.42979000  1.0 1.1389882439
H  H1  1  0.38540000  0.30790000  0.16430000  1.0 0.1394937919
H  H2  1  0.61460000  0.80790000  0.33570000  1.0 0.1394937919
H  H3  1  0.61460000  0.69210000  0.83570000  1.0 0.1394937919
H  H4  1  0.38540000  0.19210000  0.66430000  1.0 0.1394937919
H  H5  1  0.86160000  0.29300000  0.79750000  1.0 0.146190085
H  H6  1  0.13840000  0.79300000  0.70250000  1.0 0.146190085
H  H7  1  0.13840000  0.70700000  0.20250000  1.0 0.146190085
H  H8  1  0.86160000  0.20700000  0.29750000  1.0 0.146190085
H  H9  1  0.16370000  0.48910000  0.93660000  1.0 0.146190085
H  H10  1  0.83630000  0.98910000  0.56340000  1.0 0.146190085
H  H11  1  0.83630000  0.51090000  0.06340000  1.0 0.146190085
H  H12  1  0.16370000  0.01090000  0.43660000  1.0 0.146190085
C  C1  1  0.98980000  0.39580000  0.84840000  1.0 -0.0416143494
C  C2  1  0.01020000  0.89580000  0.65160000  1.0 -0.0416143494
C  C3  1  0.01020000  0.60420000  0.15160000  1.0 -0.0416143494
C  C4  1  0.98980000  0.10420000  0.34840000  1.0 -0.0416143494
C  C5  1  0.30290000  0.40500000  0.06900000  1.0 -0.0124462712
C  C6  1  0.69710000  0.90500000  0.43100000  1.0 -0.0124462712
C  C7  1  0.69710000  0.59500000  0.93100000  1.0 -0.0124462712
C  C8  1  0.30290000  0.09500000  0.56900000  1.0 -0.0124462712
C  C9  1  0.28510000  0.33030000  0.08470000  1.0 -0.0693348995
C  C10  1  0.71490000  0.83030000  0.41530000  1.0 -0.0693348995
C  C11  1  0.71490000  0.66970000  0.91530000  1.0 -0.0693348995
C  C12  1  0.28510000  0.16970000  0.58470000  1.0 -0.0693348995
C  C13  1  0.12080000  0.28810000  0.98430000  1.0 -0.0027733268
C  C14  1  0.87920000  0.78810000  0.51570000  1.0 -0.0027733268
C  C15  1  0.87920000  0.71190000  0.01570000  1.0 -0.0027733268
C  C16  1  0.12080000  0.21190000  0.48430000  1.0 -0.0027733268
C  C17  1  0.11030000  0.20760000  0.00880000  1.0 0.612633633
C  C18  1  0.88970000  0.70760000  0.49120000  1.0 0.612633633
C  C19  1  0.88970000  0.79240000  0.99120000  1.0 0.612633633
C  C20  1  0.11030000  0.29240000  0.50880000  1.0 0.612633633
C  C21  1  0.97220000  0.32090000  0.86540000  1.0 -0.0693348995
C  C22  1  0.02780000  0.82090000  0.63460000  1.0 -0.0693348995
C  C23  1  0.02780000  0.67910000  0.13460000  1.0 -0.0693348995
C  C24  1  0.97220000  0.17910000  0.36540000  1.0 -0.0693348995
C  C25  1  0.15380000  0.43900000  0.94900000  1.0 -0.0693348995
C  C26  1  0.84620000  0.93900000  0.55100000  1.0 -0.0693348995
C  C27  1  0.84620000  0.56100000  0.05100000  1.0 -0.0693348995
C  C28  1  0.15380000  0.06100000  0.44900000  1.0 -0.0693348995
C  C29  1  0.48580000  0.44710000  0.18000000  1.0 0.6016303474
C  C30  1  0.51420000  0.94710000  0.32000000  1.0 0.6016303474
C  C31  1  0.51420000  0.55290000  0.82000000  1.0 0.6016303474
C  C32  1  0.48580000  0.05290000  0.68000000  1.0 0.6016303474
S  S1  1  0.81422000  0.43494000  0.69043000  1.0 1.1725943559
S  S2  1  0.18578000  0.93494000  0.80957000  1.0 1.1725943559
S  S3  1  0.18578000  0.56506000  0.30957000  1.0 1.1725943559
S  S4  1  0.81422000  0.06506000  0.19043000  1.0 1.1725943559
O  O1  1  0.97040000  0.16789000  0.91440000  1.0 -0.4922511827
O  O2  1  0.02960000  0.66789000  0.58560000  1.0 -0.4922511827
O  O3  1  0.02960000  0.83211000  0.08560000  1.0 -0.4922511827
O  O4  1  0.97040000  0.33211000  0.41440000  1.0 -0.4922511827
O  O5  1  0.18890000  0.03442000  0.05830000  1.0 -0.899044258
O  O6  1  0.81110000  0.53442000  0.44170000  1.0 -0.899044258
O  O7  1  0.81110000  0.96558000  0.94170000  1.0 -0.899044258
O  O8  1  0.18890000  0.46558000  0.55830000  1.0 -0.899044258
O  O9  1  0.50580000  0.51400000  0.16180000  1.0 -0.4922511827
O  O10  1  0.49420000  0.01400000  0.33820000  1.0 -0.4922511827
O  O11  1  0.49420000  0.48600000  0.83820000  1.0 -0.4922511827
O  O12  1  0.50580000  0.98600000  0.66180000  1.0 -0.4922511827
O  O13  1  0.24710000  0.18641000  0.12440000  1.0 -0.4798959396
O  O14  1  0.75290000  0.68641000  0.37560000  1.0 -0.4798959396
O  O15  1  0.75290000  0.81359000  0.87560000  1.0 -0.4798959396
O  O16  1  0.24710000  0.31359000  0.62440000  1.0 -0.4798959396
O  O17  1  0.84210000  0.51310000  0.70040000  1.0 -0.4922511827
O  O18  1  0.15790000  0.01310000  0.79960000  1.0 -0.4922511827
O  O19  1  0.15790000  0.48690000  0.29960000  1.0 -0.4922511827
O  O20  1  0.84210000  0.98690000  0.20040000  1.0 -0.4922511827
O  O21  1  0.60410000  0.41080000  0.28290000  1.0 -0.4798959396
O  O22  1  0.39590000  0.91080000  0.21710000  1.0 -0.4798959396
O  O23  1  0.39590000  0.58920000  0.71710000  1.0 -0.4798959396
O  O24  1  0.60410000  0.08920000  0.78290000  1.0 -0.4798959396
O  O25  1  0.88540000  0.40160000  0.61110000  1.0 -0.6193729914
O  O26  1  0.11460000  0.90160000  0.88890000  1.0 -0.6193729914
O  O27  1  0.11460000  0.59840000  0.38890000  1.0 -0.6193729914
O  O28  1  0.88540000  0.09840000  0.11110000  1.0 -0.6193729914
O  O29  1  0.59840000  0.40870000  0.64730000  1.0 -0.5354273445
O  O30  1  0.40160000  0.90870000  0.85270000  1.0 -0.5354273445
O  O31  1  0.40160000  0.59130000  0.35270000  1.0 -0.5349583751
O  O32  1  0.59840000  0.09130000  0.14730000  1.0 -0.5349583751
O  O33  1  0.49650000  0.15640000  0.37610000  1.0 -0.3661439246
O  O34  1  0.50350000  0.65640000  0.12390000  1.0 -0.3661439246
O  O35  1  0.50350000  0.84360000  0.62390000  1.0 -0.3661439246
O  O36  1  0.49650000  0.34360000  0.87610000  1.0 -0.3661439246
