# DDEC6 charges by PACMAN v1.1 (https://github.com/mtap-research/PACMAN-charge/)
data_LUSZIJ01_FSR_pacman
_symmetry_space_group_name_H-M   'P 1'
_cell_length_a   7.31500000
_cell_length_b   18.16800000
_cell_length_c   12.12780000
_cell_angle_alpha   90.00000000
_cell_angle_beta   122.81900000
_cell_angle_gamma   90.00000000
_symmetry_Int_Tables_number   1
_chemical_formula_structural   Cu2H3C8SO9
_chemical_formula_sum   'Cu8 H12 C32 S4 O36'
_cell_volume   1354.51170516
_cell_formula_units_Z   4
loop_
 _symmetry_equiv_pos_site_id
 _symmetry_equiv_pos_as_xyz
  1  'x, y, z'
loop_
 _atom_site_type_symbol
 _atom_site_label
 _atom_site_symmetry_multiplicity
 _atom_site_fract_x
 _atom_site_fract_y
 _atom_site_fract_z
 _atom_site_occupancy
 _atom_site_charge
Cu  Cu1  1  0.35104000  0.09467000  0.21556000  1.0 1.1695743458
Cu  Cu2  1  0.64896000  0.59467000  0.28444000  1.0 1.1695743458
Cu  Cu3  1  0.64896000  0.90533000  0.78444000  1.0 1.1695743458
Cu  Cu4  1  0.35104000  0.40533000  0.71556000  1.0 1.1695743458
Cu  Cu5  1  0.89105000  0.06843000  0.92958000  1.0 1.1415846156
Cu  Cu6  1  0.10895000  0.56843000  0.57042000  1.0 1.1415846156
Cu  Cu7  1  0.10895000  0.93157000  0.07042000  1.0 1.1415846156
Cu  Cu8  1  0.89105000  0.43157000  0.42958000  1.0 1.1415846156
H  H1  1  0.38310000  0.30850000  0.16500000  1.0 0.1421181405
H  H2  1  0.61690000  0.80850000  0.33500000  1.0 0.1421181405
H  H3  1  0.61690000  0.69150000  0.83500000  1.0 0.1421181405
H  H4  1  0.38310000  0.19150000  0.66500000  1.0 0.1421181405
H  H5  1  0.86360000  0.29340000  0.79760000  1.0 0.1486940304
H  H6  1  0.13640000  0.79340000  0.70240000  1.0 0.1486940304
H  H7  1  0.13640000  0.70660000  0.20240000  1.0 0.1486940304
H  H8  1  0.86360000  0.20660000  0.29760000  1.0 0.1486940304
H  H9  1  0.16540000  0.48920000  0.93730000  1.0 0.1486940304
H  H10  1  0.83460000  0.98920000  0.56270000  1.0 0.1486940304
H  H11  1  0.83460000  0.51080000  0.06270000  1.0 0.1486940304
H  H12  1  0.16540000  0.01080000  0.43730000  1.0 0.1486940304
C  C1  1  0.99310000  0.39570000  0.84970000  1.0 -0.0286725747
C  C2  1  0.00690000  0.89570000  0.65030000  1.0 -0.0286725747
C  C3  1  0.00690000  0.60430000  0.15030000  1.0 -0.0286725747
C  C4  1  0.99310000  0.10430000  0.34970000  1.0 -0.0286725747
C  C5  1  0.30080000  0.40480000  0.06760000  1.0 -0.0028120629
C  C6  1  0.69920000  0.90480000  0.43240000  1.0 -0.0028120629
C  C7  1  0.69920000  0.59520000  0.93240000  1.0 -0.0028120629
C  C8  1  0.30080000  0.09520000  0.56760000  1.0 -0.0028120629
C  C9  1  0.28370000  0.33030000  0.08470000  1.0 -0.0633841405
C  C10  1  0.71630000  0.83030000  0.41530000  1.0 -0.0633841405
C  C11  1  0.71630000  0.66970000  0.91530000  1.0 -0.0633841405
C  C12  1  0.28370000  0.16970000  0.58470000  1.0 -0.0633841405
C  C13  1  0.12150000  0.28760000  0.98450000  1.0 -0.0028120629
C  C14  1  0.87850000  0.78760000  0.51550000  1.0 -0.0028120629
C  C15  1  0.87850000  0.71240000  0.01550000  1.0 -0.0028120629
C  C16  1  0.12150000  0.21240000  0.48450000  1.0 -0.0028120629
C  C17  1  0.10930000  0.20750000  0.00810000  1.0 0.6090320157
C  C18  1  0.89070000  0.70750000  0.49190000  1.0 0.6090320157
C  C19  1  0.89070000  0.79250000  0.99190000  1.0 0.6090320157
C  C20  1  0.10930000  0.29250000  0.50810000  1.0 0.6090320157
C  C21  1  0.97440000  0.32090000  0.86600000  1.0 -0.0735150395
C  C22  1  0.02560000  0.82090000  0.63400000  1.0 -0.0735150395
C  C23  1  0.02560000  0.67910000  0.13400000  1.0 -0.0735150395
C  C24  1  0.97440000  0.17910000  0.36600000  1.0 -0.0735150395
C  C25  1  0.15530000  0.43920000  0.94950000  1.0 -0.0792201577
C  C26  1  0.84470000  0.93920000  0.55050000  1.0 -0.0792201577
C  C27  1  0.84470000  0.56080000  0.05050000  1.0 -0.0792201577
C  C28  1  0.15530000  0.06080000  0.44950000  1.0 -0.0792201577
C  C29  1  0.48570000  0.44750000  0.17840000  1.0 0.6090320157
C  C30  1  0.51430000  0.94750000  0.32160000  1.0 0.6090320157
C  C31  1  0.51430000  0.55250000  0.82160000  1.0 0.6090320157
C  C32  1  0.48570000  0.05250000  0.67840000  1.0 0.6090320157
S  S1  1  0.81483000  0.43513000  0.69063000  1.0 1.1695743458
S  S2  1  0.18517000  0.93513000  0.80937000  1.0 1.1695743458
S  S3  1  0.18517000  0.56487000  0.30937000  1.0 1.1695743458
S  S4  1  0.81483000  0.06487000  0.19063000  1.0 1.1695743458
O  O1  1  0.97250000  0.16760000  0.91480000  1.0 -0.4896968865
O  O2  1  0.02750000  0.66760000  0.58520000  1.0 -0.4896968865
O  O3  1  0.02750000  0.83240000  0.08520000  1.0 -0.4896968865
O  O4  1  0.97250000  0.33240000  0.41480000  1.0 -0.4896968865
O  O5  1  0.19000000  0.03450000  0.05810000  1.0 -0.8972301675
O  O6  1  0.81000000  0.53450000  0.44190000  1.0 -0.8972301675
O  O7  1  0.81000000  0.96550000  0.94190000  1.0 -0.8936807407
O  O8  1  0.19000000  0.46550000  0.55810000  1.0 -0.8936807407
O  O9  1  0.50510000  0.51410000  0.16260000  1.0 -0.4896968865
O  O10  1  0.49490000  0.01410000  0.33740000  1.0 -0.4896968865
O  O11  1  0.49490000  0.48590000  0.83740000  1.0 -0.4896968865
O  O12  1  0.50510000  0.98590000  0.66260000  1.0 -0.4896968865
O  O13  1  0.24740000  0.18630000  0.12410000  1.0 -0.4896968865
O  O14  1  0.75260000  0.68630000  0.37590000  1.0 -0.4896968865
O  O15  1  0.75260000  0.81370000  0.87590000  1.0 -0.4845146729
O  O16  1  0.24740000  0.31370000  0.62410000  1.0 -0.4896968865
O  O17  1  0.84280000  0.51320000  0.69970000  1.0 -0.4959226443
O  O18  1  0.15720000  0.01320000  0.80030000  1.0 -0.4959226443
O  O19  1  0.15720000  0.48680000  0.30030000  1.0 -0.4896968865
O  O20  1  0.84280000  0.98680000  0.19970000  1.0 -0.4896968865
O  O21  1  0.60670000  0.41060000  0.28170000  1.0 -0.4896968865
O  O22  1  0.39330000  0.91060000  0.21830000  1.0 -0.4896968865
O  O23  1  0.39330000  0.58940000  0.71830000  1.0 -0.4896968865
O  O24  1  0.60670000  0.08940000  0.78170000  1.0 -0.4896968865
O  O25  1  0.88520000  0.40090000  0.61100000  1.0 -0.6273137672
O  O26  1  0.11480000  0.90090000  0.88900000  1.0 -0.6273137672
O  O27  1  0.11480000  0.59910000  0.38900000  1.0 -0.6273137672
O  O28  1  0.88520000  0.09910000  0.11100000  1.0 -0.6273137672
O  O29  1  0.59510000  0.40920000  0.64640000  1.0 -0.5489282651
O  O30  1  0.40490000  0.90920000  0.85360000  1.0 -0.5489282651
O  O31  1  0.40490000  0.59080000  0.35360000  1.0 -0.5489282651
O  O32  1  0.59510000  0.09080000  0.14640000  1.0 -0.5489282651
O  O33  1  0.49550000  0.15600000  0.37620000  1.0 -0.3658882571
O  O34  1  0.50450000  0.65600000  0.12380000  1.0 -0.3658882571
O  O35  1  0.50450000  0.84400000  0.62380000  1.0 -0.3658882571
O  O36  1  0.49550000  0.34400000  0.87620000  1.0 -0.3658882571
