# DDEC6 charges by PACMAN v1.1 (https://github.com/mtap-research/PACMAN-charge/)
data_LUTBEI_FSR_pacman
_symmetry_space_group_name_H-M   'P 1'
_cell_length_a   7.30100000
_cell_length_b   18.04800000
_cell_length_c   12.09470000
_cell_angle_alpha   90.00000000
_cell_angle_beta   122.67400000
_cell_angle_gamma   90.00000000
_symmetry_Int_Tables_number   1
_chemical_formula_structural   Cu2H3C8SO9
_chemical_formula_sum   'Cu8 H12 C32 S4 O36'
_cell_volume   1341.50616795
_cell_formula_units_Z   4
loop_
 _symmetry_equiv_pos_site_id
 _symmetry_equiv_pos_as_xyz
  1  'x, y, z'
loop_
 _atom_site_type_symbol
 _atom_site_label
 _atom_site_symmetry_multiplicity
 _atom_site_fract_x
 _atom_site_fract_y
 _atom_site_fract_z
 _atom_site_occupancy
 _atom_site_charge
Cu  Cu1  1  0.35089000  0.09466000  0.21593000  1.0 1.1507095443
Cu  Cu2  1  0.64911000  0.59466000  0.28407000  1.0 1.1507095443
Cu  Cu3  1  0.64911000  0.90534000  0.78407000  1.0 1.1507095443
Cu  Cu4  1  0.35089000  0.40534000  0.71593000  1.0 1.1507095443
Cu  Cu5  1  0.89001000  0.06841000  0.93001000  1.0 1.14250571
Cu  Cu6  1  0.10999000  0.56841000  0.56999000  1.0 1.14250571
Cu  Cu7  1  0.10999000  0.93159000  0.06999000  1.0 1.14250571
Cu  Cu8  1  0.89001000  0.43159000  0.43001000  1.0 1.14250571
H  H1  1  0.38580000  0.30780000  0.16430000  1.0 0.1424759933
H  H2  1  0.61420000  0.80780000  0.33570000  1.0 0.1424759933
H  H3  1  0.61420000  0.69220000  0.83570000  1.0 0.1424759933
H  H4  1  0.38580000  0.19220000  0.66430000  1.0 0.1424759933
H  H5  1  0.86280000  0.29230000  0.79880000  1.0 0.1424759933
H  H6  1  0.13720000  0.79230000  0.70120000  1.0 0.1424759933
H  H7  1  0.13720000  0.70770000  0.20120000  1.0 0.1424759933
H  H8  1  0.86280000  0.20770000  0.29880000  1.0 0.1424759933
H  H9  1  0.16320000  0.48930000  0.93540000  1.0 0.1473706411
H  H10  1  0.83680000  0.98930000  0.56460000  1.0 0.1473706411
H  H11  1  0.83680000  0.51070000  0.06460000  1.0 0.1473706411
H  H12  1  0.16320000  0.01070000  0.43540000  1.0 0.1473706411
C  C1  1  0.99240000  0.39640000  0.84870000  1.0 -0.0485776207
C  C2  1  0.00760000  0.89640000  0.65130000  1.0 -0.0485776207
C  C3  1  0.00760000  0.60360000  0.15130000  1.0 -0.0485776207
C  C4  1  0.99240000  0.10360000  0.34870000  1.0 -0.0485776207
C  C5  1  0.30180000  0.40510000  0.07010000  1.0 0.0032288875
C  C6  1  0.69820000  0.90510000  0.42990000  1.0 0.0032288875
C  C7  1  0.69820000  0.59490000  0.92990000  1.0 0.0032288875
C  C8  1  0.30180000  0.09490000  0.57010000  1.0 0.0032288875
C  C9  1  0.28450000  0.33040000  0.08510000  1.0 -0.0798039641
C  C10  1  0.71550000  0.83040000  0.41490000  1.0 -0.0798039641
C  C11  1  0.71550000  0.66960000  0.91490000  1.0 -0.0798039641
C  C12  1  0.28450000  0.16960000  0.58510000  1.0 -0.0798039641
C  C13  1  0.12200000  0.28810000  0.98660000  1.0 0.0032288875
C  C14  1  0.87800000  0.78810000  0.51340000  1.0 0.0032288875
C  C15  1  0.87800000  0.71190000  0.01340000  1.0 0.0032288875
C  C16  1  0.12200000  0.21190000  0.48660000  1.0 0.0032288875
C  C17  1  0.11300000  0.20700000  0.01160000  1.0 0.6072743433
C  C18  1  0.88700000  0.70700000  0.48840000  1.0 0.6072743433
C  C19  1  0.88700000  0.79300000  0.98840000  1.0 0.6072743433
C  C20  1  0.11300000  0.29300000  0.51160000  1.0 0.6072743433
C  C21  1  0.97330000  0.32050000  0.86650000  1.0 -0.0695176283
C  C22  1  0.02670000  0.82050000  0.63350000  1.0 -0.0695176283
C  C23  1  0.02670000  0.67950000  0.13350000  1.0 -0.0695176283
C  C24  1  0.97330000  0.17950000  0.36650000  1.0 -0.0695176283
C  C25  1  0.15280000  0.43900000  0.94810000  1.0 -0.0798039641
C  C26  1  0.84720000  0.93900000  0.55190000  1.0 -0.0798039641
C  C27  1  0.84720000  0.56100000  0.05190000  1.0 -0.0798039641
C  C28  1  0.15280000  0.06100000  0.44810000  1.0 -0.0798039641
C  C29  1  0.48650000  0.44710000  0.18080000  1.0 0.5954014705
C  C30  1  0.51350000  0.94710000  0.31920000  1.0 0.5954014705
C  C31  1  0.51350000  0.55290000  0.81920000  1.0 0.5954014705
C  C32  1  0.48650000  0.05290000  0.68080000  1.0 0.5954014705
S  S1  1  0.81369000  0.43481000  0.69039000  1.0 1.169362192
S  S2  1  0.18631000  0.93481000  0.80961000  1.0 1.169362192
S  S3  1  0.18631000  0.56519000  0.30961000  1.0 1.169362192
S  S4  1  0.81369000  0.06519000  0.19039000  1.0 1.169362192
O  O1  1  0.97170000  0.16780000  0.91510000  1.0 -0.5023318631
O  O2  1  0.02830000  0.66780000  0.58490000  1.0 -0.5023318631
O  O3  1  0.02830000  0.83220000  0.08490000  1.0 -0.5023318631
O  O4  1  0.97170000  0.33220000  0.41510000  1.0 -0.5023318631
O  O5  1  0.18550000  0.03480000  0.05670000  1.0 -0.8986097677
O  O6  1  0.81450000  0.53480000  0.44330000  1.0 -0.8986097677
O  O7  1  0.81450000  0.96520000  0.94330000  1.0 -0.8986097677
O  O8  1  0.18550000  0.46520000  0.55670000  1.0 -0.8986097677
O  O9  1  0.50670000  0.51380000  0.16270000  1.0 -0.4884616686
O  O10  1  0.49330000  0.01380000  0.33730000  1.0 -0.4884616686
O  O11  1  0.49330000  0.48620000  0.83730000  1.0 -0.4884616686
O  O12  1  0.50670000  0.98620000  0.66270000  1.0 -0.4884616686
O  O13  1  0.24660000  0.18620000  0.12430000  1.0 -0.4560728921
O  O14  1  0.75340000  0.68620000  0.37570000  1.0 -0.4543933226
O  O15  1  0.75340000  0.81380000  0.87570000  1.0 -0.4543933226
O  O16  1  0.24660000  0.31380000  0.62430000  1.0 -0.4560728921
O  O17  1  0.83910000  0.51290000  0.70050000  1.0 -0.4884616686
O  O18  1  0.16090000  0.01290000  0.79950000  1.0 -0.4884616686
O  O19  1  0.16090000  0.48710000  0.29950000  1.0 -0.4884616686
O  O20  1  0.83910000  0.98710000  0.20050000  1.0 -0.4884616686
O  O21  1  0.60260000  0.41060000  0.28280000  1.0 -0.4759928836
O  O22  1  0.39740000  0.91060000  0.21720000  1.0 -0.4759928836
O  O23  1  0.39740000  0.58940000  0.71720000  1.0 -0.4759928836
O  O24  1  0.60260000  0.08940000  0.78280000  1.0 -0.4759928836
O  O25  1  0.88570000  0.40150000  0.61210000  1.0 -0.6151612355
O  O26  1  0.11430000  0.90150000  0.88790000  1.0 -0.6151612355
O  O27  1  0.11430000  0.59850000  0.38790000  1.0 -0.6134278728
O  O28  1  0.88570000  0.09850000  0.11210000  1.0 -0.6151612355
O  O29  1  0.59980000  0.40820000  0.64760000  1.0 -0.5363990221
O  O30  1  0.40020000  0.90820000  0.85240000  1.0 -0.5363990221
O  O31  1  0.40020000  0.59180000  0.35240000  1.0 -0.5349570466
O  O32  1  0.59980000  0.09180000  0.14760000  1.0 -0.5363990221
O  O33  1  0.49710000  0.15630000  0.37630000  1.0 -0.363079126
O  O34  1  0.50290000  0.65630000  0.12370000  1.0 -0.3698670818
O  O35  1  0.50290000  0.84370000  0.62370000  1.0 -0.3698670818
O  O36  1  0.49710000  0.34370000  0.87630000  1.0 -0.363079126
