# DDEC6 charges by PACMAN v1.1 (https://github.com/mtap-research/PACMAN-charge/)
data_LUTCEJ_FSR_pacman
_symmetry_space_group_name_H-M   'P 1'
_cell_length_a   7.28300000
_cell_length_b   18.11900000
_cell_length_c   12.14970000
_cell_angle_alpha   90.00000000
_cell_angle_beta   122.60000000
_cell_angle_gamma   90.00000000
_symmetry_Int_Tables_number   1
_chemical_formula_structural   Cu2H3C8SO9
_chemical_formula_sum   'Cu8 H12 C32 S4 O36'
_cell_volume   1350.68930091
_cell_formula_units_Z   4
loop_
 _symmetry_equiv_pos_site_id
 _symmetry_equiv_pos_as_xyz
  1  'x, y, z'
loop_
 _atom_site_type_symbol
 _atom_site_label
 _atom_site_symmetry_multiplicity
 _atom_site_fract_x
 _atom_site_fract_y
 _atom_site_fract_z
 _atom_site_occupancy
 _atom_site_charge
Cu  Cu1  1  0.35176000  0.09426000  0.21424000  1.0 1.1639453278
Cu  Cu2  1  0.64824000  0.59426000  0.28576000  1.0 1.1639453278
Cu  Cu3  1  0.64824000  0.90574000  0.78576000  1.0 1.1639453278
Cu  Cu4  1  0.35176000  0.40574000  0.71424000  1.0 1.1695627079
Cu  Cu5  1  0.89288000  0.06844000  0.92923000  1.0 1.143253337
Cu  Cu6  1  0.10712000  0.56844000  0.57077000  1.0 1.143253337
Cu  Cu7  1  0.10712000  0.93156000  0.07077000  1.0 1.143253337
Cu  Cu8  1  0.89288000  0.43156000  0.42923000  1.0 1.143253337
H  H1  1  0.38860000  0.30830000  0.16400000  1.0 0.1414370493
H  H2  1  0.61140000  0.80830000  0.33600000  1.0 0.1414370493
H  H3  1  0.61140000  0.69170000  0.83600000  1.0 0.1414370493
H  H4  1  0.38860000  0.19170000  0.66400000  1.0 0.1414370493
H  H5  1  0.86690000  0.29360000  0.79970000  1.0 0.1486531303
H  H6  1  0.13310000  0.79360000  0.70030000  1.0 0.1486531303
H  H7  1  0.13310000  0.70640000  0.20030000  1.0 0.1486531303
H  H8  1  0.86690000  0.20640000  0.29970000  1.0 0.1486531303
H  H9  1  0.16700000  0.48810000  0.93800000  1.0 0.1486531303
H  H10  1  0.83300000  0.98810000  0.56200000  1.0 0.1486531303
H  H11  1  0.83300000  0.51190000  0.06200000  1.0 0.1486531303
H  H12  1  0.16700000  0.01190000  0.43800000  1.0 0.1486531303
C  C1  1  0.99520000  0.39600000  0.84960000  1.0 -0.0587179351
C  C2  1  0.00480000  0.89600000  0.65040000  1.0 -0.0587179351
C  C3  1  0.00480000  0.60400000  0.15040000  1.0 -0.0587179351
C  C4  1  0.99520000  0.10400000  0.34960000  1.0 -0.0587179351
C  C5  1  0.30420000  0.40510000  0.06890000  1.0 -0.0111993949
C  C6  1  0.69580000  0.90510000  0.43110000  1.0 -0.0111993949
C  C7  1  0.69580000  0.59490000  0.93110000  1.0 -0.0111993949
C  C8  1  0.30420000  0.09490000  0.56890000  1.0 -0.0111993949
C  C9  1  0.28780000  0.33040000  0.08470000  1.0 -0.0587179351
C  C10  1  0.71220000  0.83040000  0.41530000  1.0 -0.0587179351
C  C11  1  0.71220000  0.66960000  0.91530000  1.0 -0.0587179351
C  C12  1  0.28780000  0.16960000  0.58470000  1.0 -0.0587179351
C  C13  1  0.12430000  0.28750000  0.98510000  1.0 -0.0199330847
C  C14  1  0.87570000  0.78750000  0.51490000  1.0 -0.0199330847
C  C15  1  0.87570000  0.71250000  0.01490000  1.0 -0.0199330847
C  C16  1  0.12430000  0.21250000  0.48510000  1.0 -0.0199330847
C  C17  1  0.11240000  0.20800000  0.00820000  1.0 0.6108596281
C  C18  1  0.88760000  0.70800000  0.49180000  1.0 0.6108596281
C  C19  1  0.88760000  0.79200000  0.99180000  1.0 0.6108596281
C  C20  1  0.11240000  0.29200000  0.50820000  1.0 0.6108596281
C  C21  1  0.97800000  0.32130000  0.86750000  1.0 -0.0702145125
C  C22  1  0.02200000  0.82130000  0.63250000  1.0 -0.0702145125
C  C23  1  0.02200000  0.67870000  0.13250000  1.0 -0.0702145125
C  C24  1  0.97800000  0.17870000  0.36750000  1.0 -0.0702145125
C  C25  1  0.15700000  0.43790000  0.95010000  1.0 -0.0702145125
C  C26  1  0.84300000  0.93790000  0.54990000  1.0 -0.0702145125
C  C27  1  0.84300000  0.56210000  0.04990000  1.0 -0.0702145125
C  C28  1  0.15700000  0.06210000  0.45010000  1.0 -0.0702145125
C  C29  1  0.48950000  0.44690000  0.18000000  1.0 0.6014773355
C  C30  1  0.51050000  0.94690000  0.32000000  1.0 0.6014773355
C  C31  1  0.51050000  0.55310000  0.82000000  1.0 0.6014773355
C  C32  1  0.48950000  0.05310000  0.68000000  1.0 0.6014773355
S  S1  1  0.82103000  0.43513000  0.69243000  1.0 1.1695627079
S  S2  1  0.17897000  0.93513000  0.80757000  1.0 1.1695627079
S  S3  1  0.17897000  0.56487000  0.30757000  1.0 1.1695627079
S  S4  1  0.82103000  0.06487000  0.19243000  1.0 1.1695627079
O  O1  1  0.97410000  0.16780000  0.91590000  1.0 -0.4894534095
O  O2  1  0.02590000  0.66780000  0.58410000  1.0 -0.4894534095
O  O3  1  0.02590000  0.83220000  0.08410000  1.0 -0.4894534095
O  O4  1  0.97410000  0.33220000  0.41590000  1.0 -0.4894534095
O  O5  1  0.18950000  0.03400000  0.05770000  1.0 -0.9011208906
O  O6  1  0.81050000  0.53400000  0.44230000  1.0 -0.9011208906
O  O7  1  0.81050000  0.96600000  0.94230000  1.0 -0.9011208906
O  O8  1  0.18950000  0.46600000  0.55770000  1.0 -0.9011208906
O  O9  1  0.50920000  0.51370000  0.16320000  1.0 -0.4894534095
O  O10  1  0.49080000  0.01370000  0.33680000  1.0 -0.4894534095
O  O11  1  0.49080000  0.48630000  0.83680000  1.0 -0.4894534095
O  O12  1  0.50920000  0.98630000  0.66320000  1.0 -0.4894534095
O  O13  1  0.25110000  0.18620000  0.12350000  1.0 -0.4894534095
O  O14  1  0.74890000  0.68620000  0.37650000  1.0 -0.4894534095
O  O15  1  0.74890000  0.81380000  0.87650000  1.0 -0.4894534095
O  O16  1  0.25110000  0.31380000  0.62350000  1.0 -0.4894534095
O  O17  1  0.85330000  0.51300000  0.70280000  1.0 -0.4894534095
O  O18  1  0.14670000  0.01300000  0.79720000  1.0 -0.4894534095
O  O19  1  0.14670000  0.48700000  0.29720000  1.0 -0.4894534095
O  O20  1  0.85330000  0.98700000  0.20280000  1.0 -0.4894534095
O  O21  1  0.61060000  0.41040000  0.28220000  1.0 -0.4894534095
O  O22  1  0.38940000  0.91040000  0.21780000  1.0 -0.4894534095
O  O23  1  0.38940000  0.58960000  0.71780000  1.0 -0.4894534095
O  O24  1  0.61060000  0.08960000  0.78220000  1.0 -0.4894534095
O  O25  1  0.89030000  0.40090000  0.61380000  1.0 -0.6095457866
O  O26  1  0.10970000  0.90090000  0.88620000  1.0 -0.6095457866
O  O27  1  0.10970000  0.59910000  0.38620000  1.0 -0.6095457866
O  O28  1  0.89030000  0.09910000  0.11380000  1.0 -0.6095457866
O  O29  1  0.60600000  0.41080000  0.64980000  1.0 -0.5264438881
O  O30  1  0.39400000  0.91080000  0.85020000  1.0 -0.5232233896
O  O31  1  0.39400000  0.58920000  0.35020000  1.0 -0.5264438881
O  O32  1  0.60600000  0.08920000  0.14980000  1.0 -0.5232233896
O  O33  1  0.49780000  0.15590000  0.37440000  1.0 -0.357481253
O  O34  1  0.50220000  0.65590000  0.12560000  1.0 -0.357481253
O  O35  1  0.50220000  0.84410000  0.62560000  1.0 -0.357481253
O  O36  1  0.49780000  0.34410000  0.87440000  1.0 -0.357481253
