# DDEC6 charges by PACMAN v1.1 (https://github.com/mtap-research/PACMAN-charge/)
data_LUTCIN_FSR_pacman
_symmetry_space_group_name_H-M   'P 1'
_cell_length_a   7.25200000
_cell_length_b   18.06800000
_cell_length_c   12.09700000
_cell_angle_alpha   90.00000000
_cell_angle_beta   122.50100000
_cell_angle_gamma   90.00000000
_symmetry_Int_Tables_number   1
_chemical_formula_structural   Cu2H3C8SO9
_chemical_formula_sum   'Cu8 H12 C32 S4 O36'
_cell_volume   1336.81072381
_cell_formula_units_Z   4
loop_
 _symmetry_equiv_pos_site_id
 _symmetry_equiv_pos_as_xyz
  1  'x, y, z'
loop_
 _atom_site_type_symbol
 _atom_site_label
 _atom_site_symmetry_multiplicity
 _atom_site_fract_x
 _atom_site_fract_y
 _atom_site_fract_z
 _atom_site_occupancy
 _atom_site_charge
Cu  Cu1  1  0.35179000  0.09413000  0.21401000  1.0 1.1576679529
Cu  Cu2  1  0.64821000  0.59413000  0.28599000  1.0 1.1576679529
Cu  Cu3  1  0.64821000  0.90587000  0.78599000  1.0 1.1576679529
Cu  Cu4  1  0.35179000  0.40587000  0.71401000  1.0 1.1576679529
Cu  Cu5  1  0.89330000  0.06851000  0.92958000  1.0 1.1410069049
Cu  Cu6  1  0.10670000  0.56851000  0.57042000  1.0 1.1410069049
Cu  Cu7  1  0.10670000  0.93149000  0.07042000  1.0 1.1410069049
Cu  Cu8  1  0.89330000  0.43149000  0.42958000  1.0 1.1410069049
H  H1  1  0.38630000  0.30850000  0.16500000  1.0 0.1406110183
H  H2  1  0.61370000  0.80850000  0.33500000  1.0 0.1406110183
H  H3  1  0.61370000  0.69150000  0.83500000  1.0 0.1406110183
H  H4  1  0.38630000  0.19150000  0.66500000  1.0 0.1406110183
H  H5  1  0.86680000  0.29270000  0.79970000  1.0 0.1406110183
H  H6  1  0.13320000  0.79270000  0.70030000  1.0 0.1406110183
H  H7  1  0.13320000  0.70730000  0.20030000  1.0 0.1406110183
H  H8  1  0.86680000  0.20730000  0.29970000  1.0 0.1406110183
H  H9  1  0.16780000  0.48820000  0.93830000  1.0 0.1458207251
H  H10  1  0.83220000  0.98820000  0.56170000  1.0 0.1458207251
H  H11  1  0.83220000  0.51180000  0.06170000  1.0 0.1458207251
H  H12  1  0.16780000  0.01180000  0.43830000  1.0 0.1458207251
C  C1  1  0.99670000  0.39610000  0.84920000  1.0 -0.0613123111
C  C2  1  0.00330000  0.89610000  0.65080000  1.0 -0.0613123111
C  C3  1  0.00330000  0.60390000  0.15080000  1.0 -0.0613123111
C  C4  1  0.99670000  0.10390000  0.34920000  1.0 -0.0613123111
C  C5  1  0.30670000  0.40520000  0.07070000  1.0 -0.0041615169
C  C6  1  0.69330000  0.90520000  0.42930000  1.0 -0.0041615169
C  C7  1  0.69330000  0.59480000  0.92930000  1.0 -0.0041615169
C  C8  1  0.30670000  0.09480000  0.57070000  1.0 -0.0041615169
C  C9  1  0.28730000  0.33070000  0.08520000  1.0 -0.072256793
C  C10  1  0.71270000  0.83070000  0.41480000  1.0 -0.072256793
C  C11  1  0.71270000  0.66930000  0.91480000  1.0 -0.072256793
C  C12  1  0.28730000  0.16930000  0.58520000  1.0 -0.072256793
C  C13  1  0.12670000  0.28780000  0.98610000  1.0 -0.0123616408
C  C14  1  0.87330000  0.78780000  0.51390000  1.0 -0.0123616408
C  C15  1  0.87330000  0.71220000  0.01390000  1.0 -0.0123616408
C  C16  1  0.12670000  0.21220000  0.48610000  1.0 -0.0123616408
C  C17  1  0.11270000  0.20750000  0.00800000  1.0 0.6122151197
C  C18  1  0.88730000  0.70750000  0.49200000  1.0 0.6122151197
C  C19  1  0.88730000  0.79250000  0.99200000  1.0 0.6122151197
C  C20  1  0.11270000  0.29250000  0.50800000  1.0 0.6122151197
C  C21  1  0.97820000  0.32060000  0.86720000  1.0 -0.0613123111
C  C22  1  0.02180000  0.82060000  0.63280000  1.0 -0.0613123111
C  C23  1  0.02180000  0.67940000  0.13280000  1.0 -0.0613123111
C  C24  1  0.97820000  0.17940000  0.36720000  1.0 -0.0613123111
C  C25  1  0.15800000  0.43780000  0.95040000  1.0 -0.072256793
C  C26  1  0.84200000  0.93780000  0.54960000  1.0 -0.072256793
C  C27  1  0.84200000  0.56220000  0.04960000  1.0 -0.072256793
C  C28  1  0.15800000  0.06220000  0.45040000  1.0 -0.072256793
C  C29  1  0.49240000  0.44690000  0.18240000  1.0 0.5980676592
C  C30  1  0.50760000  0.94690000  0.31760000  1.0 0.5980676592
C  C31  1  0.50760000  0.55310000  0.81760000  1.0 0.5980676592
C  C32  1  0.49240000  0.05310000  0.68240000  1.0 0.5980676592
S  S1  1  0.82250000  0.43524000  0.69320000  1.0 1.1702643515
S  S2  1  0.17750000  0.93524000  0.80680000  1.0 1.1702643515
S  S3  1  0.17750000  0.56476000  0.30680000  1.0 1.1702643515
S  S4  1  0.82250000  0.06476000  0.19320000  1.0 1.1702643515
O  O1  1  0.97490000  0.16710000  0.91560000  1.0 -0.4877426966
O  O2  1  0.02510000  0.66710000  0.58440000  1.0 -0.4877426966
O  O3  1  0.02510000  0.83290000  0.08440000  1.0 -0.4877426966
O  O4  1  0.97490000  0.33290000  0.41560000  1.0 -0.4877426966
O  O5  1  0.18910000  0.03360000  0.05760000  1.0 -0.8929255723
O  O6  1  0.81090000  0.53360000  0.44240000  1.0 -0.8929255723
O  O7  1  0.81090000  0.96640000  0.94240000  1.0 -0.8929255723
O  O8  1  0.18910000  0.46640000  0.55760000  1.0 -0.8929255723
O  O9  1  0.50700000  0.51360000  0.16320000  1.0 -0.4798019746
O  O10  1  0.49300000  0.01360000  0.33680000  1.0 -0.4798019746
O  O11  1  0.49300000  0.48640000  0.83680000  1.0 -0.4798019746
O  O12  1  0.50700000  0.98640000  0.66320000  1.0 -0.4798019746
O  O13  1  0.24950000  0.18600000  0.12340000  1.0 -0.4798019746
O  O14  1  0.75050000  0.68600000  0.37660000  1.0 -0.4798019746
O  O15  1  0.75050000  0.81400000  0.87660000  1.0 -0.4798019746
O  O16  1  0.24950000  0.31400000  0.62340000  1.0 -0.4798019746
O  O17  1  0.85250000  0.51250000  0.70260000  1.0 -0.4877426966
O  O18  1  0.14750000  0.01250000  0.79740000  1.0 -0.4877426966
O  O19  1  0.14750000  0.48750000  0.29740000  1.0 -0.4877426966
O  O20  1  0.85250000  0.98750000  0.20260000  1.0 -0.4877426966
O  O21  1  0.61280000  0.41010000  0.28410000  1.0 -0.4798019746
O  O22  1  0.38720000  0.91010000  0.21590000  1.0 -0.4798019746
O  O23  1  0.38720000  0.58990000  0.71590000  1.0 -0.4798019746
O  O24  1  0.61280000  0.08990000  0.78410000  1.0 -0.4798019746
O  O25  1  0.88960000  0.40020000  0.61190000  1.0 -0.6204041063
O  O26  1  0.11040000  0.90020000  0.88810000  1.0 -0.6204041063
O  O27  1  0.11040000  0.59980000  0.38810000  1.0 -0.6204041063
O  O28  1  0.88960000  0.09980000  0.11190000  1.0 -0.6204041063
O  O29  1  0.60620000  0.41000000  0.64930000  1.0 -0.5301850854
O  O30  1  0.39380000  0.91000000  0.85070000  1.0 -0.5301850854
O  O31  1  0.39380000  0.59000000  0.35070000  1.0 -0.5301850854
O  O32  1  0.60620000  0.09000000  0.14930000  1.0 -0.5301850854
O  O33  1  0.49830000  0.15480000  0.37380000  1.0 -0.3637936333
O  O34  1  0.50170000  0.65480000  0.12620000  1.0 -0.3637936333
O  O35  1  0.50170000  0.84520000  0.62620000  1.0 -0.3654083132
O  O36  1  0.49830000  0.34520000  0.87380000  1.0 -0.3637936333
