# DDEC6 charges by PACMAN v1.1 (https://github.com/mtap-research/PACMAN-charge/)
data_LUTDAG_FSR_pacman
_symmetry_space_group_name_H-M   'P 1'
_cell_length_a   7.30100000
_cell_length_b   18.03200000
_cell_length_c   12.03620000
_cell_angle_alpha   90.00000000
_cell_angle_beta   122.91300000
_cell_angle_gamma   90.00000000
_symmetry_Int_Tables_number   1
_chemical_formula_structural   Cu2H3C8SO9
_chemical_formula_sum   'Cu8 H12 C32 S4 O36'
_cell_volume   1330.25403398
_cell_formula_units_Z   4
loop_
 _symmetry_equiv_pos_site_id
 _symmetry_equiv_pos_as_xyz
  1  'x, y, z'
loop_
 _atom_site_type_symbol
 _atom_site_label
 _atom_site_symmetry_multiplicity
 _atom_site_fract_x
 _atom_site_fract_y
 _atom_site_fract_z
 _atom_site_occupancy
 _atom_site_charge
Cu  Cu1  1  0.35132000  0.09464000  0.21639000  1.0 1.1610094274
Cu  Cu2  1  0.64868000  0.59464000  0.28361000  1.0 1.1610094274
Cu  Cu3  1  0.64868000  0.90536000  0.78361000  1.0 1.1610094274
Cu  Cu4  1  0.35132000  0.40536000  0.71639000  1.0 1.1610094274
Cu  Cu5  1  0.11083000  0.56848000  0.56952000  1.0 1.1351374055
Cu  Cu6  1  0.88917000  0.06848000  0.93048000  1.0 1.1351374055
Cu  Cu7  1  0.88917000  0.43152000  0.43048000  1.0 1.1351374055
Cu  Cu8  1  0.11083000  0.93152000  0.06952000  1.0 1.1351374055
H  H1  1  0.61690000  0.80800000  0.33420000  1.0 0.1434288735
H  H2  1  0.38310000  0.30800000  0.16580000  1.0 0.1434288735
H  H3  1  0.38310000  0.19200000  0.66580000  1.0 0.1434288735
H  H4  1  0.61690000  0.69200000  0.83420000  1.0 0.1434288735
H  H5  1  0.14360000  0.79300000  0.70280000  1.0 0.1434288735
H  H6  1  0.85640000  0.29300000  0.79720000  1.0 0.1434288735
H  H7  1  0.85640000  0.20700000  0.29720000  1.0 0.1434288735
H  H8  1  0.14360000  0.70700000  0.20280000  1.0 0.1434288735
H  H9  1  0.83850000  0.98860000  0.56440000  1.0 0.1475796777
H  H10  1  0.16150000  0.48860000  0.93560000  1.0 0.1475796777
H  H11  1  0.16150000  0.01140000  0.43560000  1.0 0.1475796777
H  H12  1  0.83850000  0.51140000  0.06440000  1.0 0.1475796777
C  C1  1  0.00870000  0.89630000  0.64960000  1.0 -0.0580666659
C  C2  1  0.99130000  0.39630000  0.85040000  1.0 -0.0580666659
C  C3  1  0.99130000  0.10370000  0.35040000  1.0 -0.0580666659
C  C4  1  0.00870000  0.60370000  0.14960000  1.0 -0.0580666659
C  C5  1  0.70040000  0.90460000  0.43030000  1.0 -0.0059922596
C  C6  1  0.29960000  0.40460000  0.06970000  1.0 -0.0059922596
C  C7  1  0.29960000  0.09540000  0.56970000  1.0 -0.0059922596
C  C8  1  0.70040000  0.59540000  0.93030000  1.0 -0.0059922596
C  C9  1  0.71740000  0.83040000  0.41450000  1.0 -0.0795518856
C  C10  1  0.28260000  0.33040000  0.08550000  1.0 -0.0795518856
C  C11  1  0.28260000  0.16960000  0.58550000  1.0 -0.0795518856
C  C12  1  0.71740000  0.66960000  0.91450000  1.0 -0.0795518856
C  C13  1  0.88020000  0.78790000  0.51510000  1.0 -0.0024867055
C  C14  1  0.11980000  0.28790000  0.98490000  1.0 -0.0024867055
C  C15  1  0.11980000  0.21210000  0.48490000  1.0 -0.0024867055
C  C16  1  0.88020000  0.71210000  0.01510000  1.0 -0.0024867055
C  C17  1  0.89220000  0.70700000  0.49110000  1.0 0.5998300279
C  C18  1  0.10780000  0.20700000  0.00890000  1.0 0.5998300279
C  C19  1  0.10780000  0.29300000  0.50890000  1.0 0.5998300279
C  C20  1  0.89220000  0.79300000  0.99110000  1.0 0.5998300279
C  C21  1  0.03070000  0.82050000  0.63440000  1.0 -0.0713187863
C  C22  1  0.96930000  0.32050000  0.86560000  1.0 -0.0713187863
C  C23  1  0.96930000  0.17950000  0.36560000  1.0 -0.0713187863
C  C24  1  0.03070000  0.67950000  0.13440000  1.0 -0.0713187863
C  C25  1  0.84910000  0.93830000  0.55150000  1.0 -0.0795518856
C  C26  1  0.15090000  0.43830000  0.94850000  1.0 -0.0795518856
C  C27  1  0.15090000  0.06170000  0.44850000  1.0 -0.0795518856
C  C28  1  0.84910000  0.56170000  0.05150000  1.0 -0.0795518856
C  C29  1  0.51720000  0.94730000  0.31970000  1.0 0.5998300279
C  C30  1  0.48280000  0.44730000  0.18030000  1.0 0.5998300279
C  C31  1  0.48280000  0.05270000  0.68030000  1.0 0.5998300279
C  C32  1  0.51720000  0.55270000  0.81970000  1.0 0.5998300279
S  S1  1  0.18697000  0.93484000  0.80927000  1.0 1.1686917211
S  S2  1  0.81303000  0.43484000  0.69073000  1.0 1.1686917211
S  S3  1  0.81303000  0.06516000  0.19073000  1.0 1.1686917211
S  S4  1  0.18697000  0.56516000  0.30927000  1.0 1.1686917211
O  O1  1  0.03140000  0.66840000  0.58520000  1.0 -0.4792573357
O  O2  1  0.96860000  0.16840000  0.91480000  1.0 -0.4792573357
O  O3  1  0.96860000  0.33160000  0.41480000  1.0 -0.4792573357
O  O4  1  0.03140000  0.83160000  0.08520000  1.0 -0.4792573357
O  O5  1  0.18570000  0.03500000  0.05660000  1.0 -0.8903336261
O  O6  1  0.81430000  0.53500000  0.44340000  1.0 -0.8903336261
O  O7  1  0.81430000  0.96500000  0.94340000  1.0 -0.8903336261
O  O8  1  0.18570000  0.46500000  0.55660000  1.0 -0.8903336261
O  O9  1  0.49550000  0.01370000  0.33680000  1.0 -0.4792573357
O  O10  1  0.50450000  0.51370000  0.16320000  1.0 -0.4792573357
O  O11  1  0.50450000  0.98630000  0.66320000  1.0 -0.4792573357
O  O12  1  0.49550000  0.48630000  0.83680000  1.0 -0.4792573357
O  O13  1  0.75530000  0.68620000  0.37520000  1.0 -0.4730806088
O  O14  1  0.24470000  0.18620000  0.12480000  1.0 -0.4730806088
O  O15  1  0.24470000  0.31380000  0.62480000  1.0 -0.4730806088
O  O16  1  0.75530000  0.81380000  0.87520000  1.0 -0.4730806088
O  O17  1  0.16620000  0.01240000  0.80020000  1.0 -0.4792573357
O  O18  1  0.83380000  0.51240000  0.69980000  1.0 -0.4792573357
O  O19  1  0.83380000  0.98760000  0.19980000  1.0 -0.4792573357
O  O20  1  0.16620000  0.48760000  0.30020000  1.0 -0.4792573357
O  O21  1  0.39870000  0.91050000  0.21640000  1.0 -0.4792573357
O  O22  1  0.60130000  0.41050000  0.28360000  1.0 -0.4792573357
O  O23  1  0.60130000  0.08950000  0.78360000  1.0 -0.4792573357
O  O24  1  0.39870000  0.58950000  0.71640000  1.0 -0.4792573357
O  O25  1  0.11570000  0.90200000  0.88870000  1.0 -0.6117686962
O  O26  1  0.88430000  0.40200000  0.61130000  1.0 -0.6117686962
O  O27  1  0.88430000  0.09800000  0.11130000  1.0 -0.6117686962
O  O28  1  0.11570000  0.59800000  0.38870000  1.0 -0.6117686962
O  O29  1  0.40120000  0.90820000  0.85330000  1.0 -0.5314129775
O  O30  1  0.59880000  0.40820000  0.64670000  1.0 -0.5314129775
O  O31  1  0.59880000  0.09180000  0.14670000  1.0 -0.5314129775
O  O32  1  0.40120000  0.59180000  0.35330000  1.0 -0.5314129775
O  O33  1  0.49560000  0.15620000  0.37630000  1.0 -0.3783425947
O  O34  1  0.50440000  0.65620000  0.12370000  1.0 -0.3783425947
O  O35  1  0.50440000  0.84380000  0.62370000  1.0 -0.3783425947
O  O36  1  0.49560000  0.34380000  0.87630000  1.0 -0.3783425947
