# DDEC6 charges by PACMAN v1.1 (https://github.com/mtap-research/PACMAN-charge/)
data_LUWMUN_ASR_pacman
_symmetry_space_group_name_H-M   'P 1'
_cell_length_a   17.57150000
_cell_length_b   17.57150000
_cell_length_c   18.17100000
_cell_angle_alpha   78.62370000
_cell_angle_beta   101.37600000
_cell_angle_gamma   108.76200000
_symmetry_Int_Tables_number   1
_chemical_formula_structural   SmH15C25O6
_chemical_formula_sum   'Sm4 H60 C100 O24'
_cell_volume   5153.55196292
_cell_formula_units_Z   4
loop_
 _symmetry_equiv_pos_site_id
 _symmetry_equiv_pos_as_xyz
  1  'x, y, z'
loop_
 _atom_site_type_symbol
 _atom_site_label
 _atom_site_symmetry_multiplicity
 _atom_site_fract_x
 _atom_site_fract_y
 _atom_site_fract_z
 _atom_site_occupancy
 _atom_site_charge
Sm  Sm1  1  0.53525000  0.90603000  0.98292000  1.0 2.0779691497
Sm  Sm2  1  0.90603000  0.53525000  0.51708000  1.0 2.0779691497
Sm  Sm3  1  0.46475000  0.09397000  0.01708000  1.0 2.0779691497
Sm  Sm4  1  0.09397000  0.46475000  0.48292000  1.0 2.0779691497
H  H1  1  0.71460000  0.68720000  0.36360000  1.0 0.0905249725
H  H2  1  0.68720000  0.71460000  0.13640000  1.0 0.0905249725
H  H3  1  0.28540000  0.31280000  0.63640000  1.0 0.0905249725
H  H4  1  0.31280000  0.28540000  0.86360000  1.0 0.0905249725
H  H5  1  0.67490000  0.80070000  0.30610000  1.0 0.0905249725
H  H6  1  0.80070000  0.67490000  0.19390000  1.0 0.0905249725
H  H7  1  0.32510000  0.19930000  0.69390000  1.0 0.0905249725
H  H8  1  0.19930000  0.32510000  0.80610000  1.0 0.0905249725
H  H9  1  0.89040000  0.94300000  0.38640000  1.0 0.0905249725
H  H10  1  0.94300000  0.89040000  0.11360000  1.0 0.1017837641
H  H11  1  0.10960000  0.05700000  0.61360000  1.0 0.0905249725
H  H12  1  0.05700000  0.10960000  0.88640000  1.0 0.1017837641
H  H13  1  0.92950000  0.82950000  0.44450000  1.0 0.1017837641
H  H14  1  0.82950000  0.92950000  0.05550000  1.0 0.1017837641
H  H15  1  0.07050000  0.17050000  0.55550000  1.0 0.1017837641
H  H16  1  0.17050000  0.07050000  0.94450000  1.0 0.1017837641
H  H17  1  0.67630000  0.90670000  0.21460000  1.0 0.1221811744
H  H18  1  0.90670000  0.67630000  0.28540000  1.0 0.1221811744
H  H19  1  0.32370000  0.09330000  0.78540000  1.0 0.1221811744
H  H20  1  0.09330000  0.32370000  0.71460000  1.0 0.1221811744
H  H21  1  0.81720000  0.03160000  0.37880000  1.0 0.0905249725
H  H22  1  0.03160000  0.81720000  0.12120000  1.0 0.0905249725
H  H23  1  0.18280000  0.96840000  0.62120000  1.0 0.0905249725
H  H24  1  0.96840000  0.18280000  0.87880000  1.0 0.0905249725
H  H25  1  0.67670000  0.13390000  0.21570000  1.0 0.1221811744
H  H26  1  0.13390000  0.67670000  0.28430000  1.0 0.1221811744
H  H27  1  0.32330000  0.86610000  0.78430000  1.0 0.1221811744
H  H28  1  0.86610000  0.32330000  0.71570000  1.0 0.1221811744
H  H29  1  0.73060000  0.32140000  0.36770000  1.0 0.1221811744
H  H30  1  0.32140000  0.73060000  0.13230000  1.0 0.1221811744
H  H31  1  0.26940000  0.67860000  0.63230000  1.0 0.1221811744
H  H32  1  0.67860000  0.26940000  0.86770000  1.0 0.1221811744
H  H33  1  0.68210000  0.20410000  0.31340000  1.0 0.1106555974
H  H34  1  0.20410000  0.68210000  0.18660000  1.0 0.1106555974
H  H35  1  0.31790000  0.79590000  0.68660000  1.0 0.1106555974
H  H36  1  0.79590000  0.31790000  0.81340000  1.0 0.1106555974
H  H37  1  0.89990000  0.16790000  0.37090000  1.0 0.1106555974
H  H38  1  0.16790000  0.89990000  0.12910000  1.0 0.1106555974
H  H39  1  0.10010000  0.83210000  0.62910000  1.0 0.1106555974
H  H40  1  0.83210000  0.10010000  0.87090000  1.0 0.1106555974
H  H41  1  0.94940000  0.28600000  0.42420000  1.0 0.1221811744
H  H42  1  0.28600000  0.94940000  0.07580000  1.0 0.1221811744
H  H43  1  0.05060000  0.71400000  0.57580000  1.0 0.1221811744
H  H44  1  0.71400000  0.05060000  0.92420000  1.0 0.1221811744
H  H45  1  0.76890000  0.70270000  0.31680000  1.0 0.0692801336
H  H46  1  0.70270000  0.76890000  0.18320000  1.0 0.0692801336
H  H47  1  0.23110000  0.29730000  0.68320000  1.0 0.0692801336
H  H48  1  0.29730000  0.23110000  0.81680000  1.0 0.0692801336
H  H49  1  0.73410000  0.81610000  0.25650000  1.0 0.0793605456
H  H50  1  0.81610000  0.73410000  0.24350000  1.0 0.0793605456
H  H51  1  0.26590000  0.18390000  0.74350000  1.0 0.0793605456
H  H52  1  0.18390000  0.26590000  0.75650000  1.0 0.0793605456
H  H53  1  0.82320000  0.91780000  0.44720000  1.0 0.1017837641
H  H54  1  0.91780000  0.82320000  0.05280000  1.0 0.1017837641
H  H55  1  0.17680000  0.08220000  0.55280000  1.0 0.1017837641
H  H56  1  0.08220000  0.17680000  0.94720000  1.0 0.1017837641
H  H57  1  0.85870000  0.80450000  0.50340000  1.0 0.1017837641
H  H58  1  0.80450000  0.85870000  0.99660000  1.0 0.1017837641
H  H59  1  0.14130000  0.19550000  0.49660000  1.0 0.1017837641
H  H60  1  0.19550000  0.14130000  0.00340000  1.0 0.1017837641
C  C1  1  0.84809000  0.67107000  0.45363000  1.0 0.5154783884
C  C2  1  0.67107000  0.84809000  0.04637000  1.0 0.5154783884
C  C3  1  0.15191000  0.32893000  0.54637000  1.0 0.5154783884
C  C4  1  0.32893000  0.15191000  0.95363000  1.0 0.5154783884
C  C5  1  0.82360000  0.74548000  0.41377000  1.0 -0.0374879841
C  C6  1  0.74548000  0.82360000  0.08623000  1.0 -0.0374879841
C  C7  1  0.17640000  0.25452000  0.58623000  1.0 -0.0374879841
C  C8  1  0.25452000  0.17640000  0.91377000  1.0 -0.0374879841
C  C9  1  0.74981000  0.73859000  0.37000000  1.0 -0.052787208
C  C10  1  0.73859000  0.74981000  0.13000000  1.0 -0.052787208
C  C11  1  0.25019000  0.26141000  0.63000000  1.0 -0.052787208
C  C12  1  0.26141000  0.25019000  0.87000000  1.0 -0.052787208
C  C13  1  0.72624000  0.80716000  0.33450000  1.0 -0.0639252817
C  C14  1  0.80716000  0.72624000  0.16550000  1.0 -0.069021844
C  C15  1  0.27376000  0.19284000  0.66550000  1.0 -0.069021844
C  C16  1  0.19284000  0.27376000  0.83450000  1.0 -0.069021844
C  C17  1  0.77744000  0.88370000  0.34088000  1.0 0.0221920242
C  C18  1  0.88370000  0.77744000  0.15912000  1.0 0.0221920242
C  C19  1  0.22256000  0.11630000  0.65912000  1.0 0.0221920242
C  C20  1  0.11630000  0.22256000  0.84088000  1.0 0.0221920242
C  C21  1  0.85422000  0.89158000  0.38230000  1.0 -0.0904412579
C  C22  1  0.89158000  0.85422000  0.11770000  1.0 -0.0904412579
C  C23  1  0.14578000  0.10842000  0.61770000  1.0 -0.0904412579
C  C24  1  0.10842000  0.14578000  0.88230000  1.0 -0.0904412579
C  C25  1  0.87749000  0.82331000  0.41780000  1.0 -0.069021844
C  C26  1  0.82331000  0.87749000  0.08220000  1.0 -0.069021844
C  C27  1  0.12251000  0.17669000  0.58220000  1.0 -0.069021844
C  C28  1  0.17669000  0.12251000  0.91780000  1.0 -0.069021844
C  C29  1  0.60638000  0.01442000  0.13275000  1.0 0.6397926669
C  C30  1  0.01442000  0.60638000  0.36725000  1.0 0.6397926669
C  C31  1  0.39362000  0.98558000  0.86725000  1.0 0.6397926669
C  C32  1  0.98558000  0.39362000  0.63275000  1.0 0.6397926669
C  C33  1  0.66752000  0.01984000  0.20514000  1.0 0.0015631181
C  C34  1  0.01984000  0.66752000  0.29486000  1.0 0.0015631181
C  C35  1  0.33248000  0.98016000  0.79486000  1.0 0.0015631181
C  C36  1  0.98016000  0.33248000  0.70514000  1.0 0.0015631181
C  C37  1  0.69525000  0.95365000  0.23734000  1.0 -0.2230729563
C  C38  1  0.95365000  0.69525000  0.26266000  1.0 -0.2230729563
C  C39  1  0.30475000  0.04635000  0.76266000  1.0 -0.2230729563
C  C40  1  0.04635000  0.30475000  0.73734000  1.0 -0.2230729563
C  C41  1  0.75129000  0.95653000  0.30362000  1.0 0.0489216084
C  C42  1  0.95653000  0.75129000  0.19638000  1.0 0.0489216084
C  C43  1  0.24871000  0.04347000  0.69638000  1.0 0.0489216084
C  C44  1  0.04347000  0.24871000  0.80362000  1.0 0.0489216084
C  C45  1  0.77961000  0.02855000  0.33476000  1.0 -0.1859876131
C  C46  1  0.02855000  0.77961000  0.16524000  1.0 -0.1859876131
C  C47  1  0.22039000  0.97145000  0.66524000  1.0 -0.1859876131
C  C48  1  0.97145000  0.22039000  0.83476000  1.0 -0.1859876131
C  C49  1  0.75357000  0.09635000  0.30216000  1.0 0.0620419258
C  C50  1  0.09635000  0.75357000  0.19784000  1.0 0.0620419258
C  C51  1  0.24643000  0.90365000  0.69784000  1.0 0.0620419258
C  C52  1  0.90365000  0.24643000  0.80216000  1.0 0.0620419258
C  C53  1  0.69616000  0.09004000  0.23752000  1.0 -0.1597065115
C  C54  1  0.09004000  0.69616000  0.26248000  1.0 -0.1597065115
C  C55  1  0.30384000  0.90996000  0.76248000  1.0 -0.1597065115
C  C56  1  0.90996000  0.30384000  0.73752000  1.0 -0.1597065115
C  C57  1  0.87582000  0.39388000  0.43589000  1.0 0.62379782
C  C58  1  0.39388000  0.87582000  0.06411000  1.0 0.62379782
C  C59  1  0.12418000  0.60612000  0.56411000  1.0 0.62379782
C  C60  1  0.60612000  0.12418000  0.93589000  1.0 0.62379782
C  C61  1  0.84560000  0.31684000  0.40063000  1.0 -0.0261555807
C  C62  1  0.31684000  0.84560000  0.09937000  1.0 -0.0261555807
C  C63  1  0.15440000  0.68316000  0.59937000  1.0 -0.0261555807
C  C64  1  0.68316000  0.15440000  0.90063000  1.0 -0.0261555807
C  C65  1  0.76520000  0.29096000  0.36802000  1.0 -0.0904412579
C  C66  1  0.29096000  0.76520000  0.13198000  1.0 -0.0904412579
C  C67  1  0.23480000  0.70904000  0.63198000  1.0 -0.0904412579
C  C68  1  0.70904000  0.23480000  0.86802000  1.0 -0.0792094523
C  C69  1  0.73603000  0.22011000  0.33593000  1.0 -0.1520012086
C  C70  1  0.22011000  0.73603000  0.16407000  1.0 -0.1520012086
C  C71  1  0.26397000  0.77989000  0.66407000  1.0 -0.1520012086
C  C72  1  0.77989000  0.26397000  0.83593000  1.0 -0.1520012086
C  C73  1  0.78557000  0.17235000  0.33667000  1.0 0.0692801336
C  C74  1  0.17235000  0.78557000  0.16333000  1.0 0.0620419258
C  C75  1  0.21443000  0.82765000  0.66333000  1.0 0.0692801336
C  C76  1  0.82765000  0.21443000  0.83667000  1.0 0.0692801336
C  C77  1  0.86537000  0.19869000  0.36992000  1.0 -0.1597065115
C  C78  1  0.19869000  0.86537000  0.13008000  1.0 -0.1597065115
C  C79  1  0.13463000  0.80131000  0.63008000  1.0 -0.1597065115
C  C80  1  0.80131000  0.13463000  0.86992000  1.0 -0.1597065115
C  C81  1  0.89546000  0.26990000  0.40189000  1.0 -0.1021553268
C  C82  1  0.26990000  0.89546000  0.09811000  1.0 -0.1021553268
C  C83  1  0.10454000  0.73010000  0.59811000  1.0 -0.1021553268
C  C84  1  0.73010000  0.10454000  0.90189000  1.0 -0.1021553268
C  C85  1  0.78240000  0.74760000  0.34180000  1.0 -0.0792094523
C  C86  1  0.74760000  0.78240000  0.15820000  1.0 -0.0792094523
C  C87  1  0.21760000  0.25240000  0.65820000  1.0 -0.0792094523
C  C88  1  0.25240000  0.21760000  0.84180000  1.0 -0.0792094523
C  C89  1  0.76090000  0.81570000  0.30610000  1.0 -0.0792094523
C  C90  1  0.81570000  0.76090000  0.19390000  1.0 -0.0792094523
C  C91  1  0.23910000  0.18430000  0.69390000  1.0 -0.0792094523
C  C92  1  0.18430000  0.23910000  0.80610000  1.0 -0.0792094523
C  C93  1  0.81410000  0.87590000  0.41930000  1.0 -0.0639252817
C  C94  1  0.87590000  0.81410000  0.08070000  1.0 -0.0639252817
C  C95  1  0.18590000  0.12410000  0.58070000  1.0 -0.0639252817
C  C96  1  0.12410000  0.18590000  0.91930000  1.0 -0.0639252817
C  C97  1  0.83550000  0.80830000  0.45270000  1.0 -0.0792094523
C  C98  1  0.80830000  0.83550000  0.04730000  1.0 -0.0792094523
C  C99  1  0.16450000  0.19170000  0.54730000  1.0 -0.0792094523
C  C100  1  0.19170000  0.16450000  0.95270000  1.0 -0.0792094523
O  O1  1  0.58907000  0.95187000  0.10326000  1.0 -0.639342307
O  O2  1  0.95187000  0.58907000  0.39674000  1.0 -0.639342307
O  O3  1  0.41093000  0.04813000  0.89674000  1.0 -0.639342307
O  O4  1  0.04813000  0.41093000  0.60326000  1.0 -0.639342307
O  O5  1  0.57713000  0.07285000  0.10987000  1.0 -0.682465597
O  O6  1  0.07285000  0.57713000  0.39013000  1.0 -0.682465597
O  O7  1  0.42287000  0.92715000  0.89013000  1.0 -0.682465597
O  O8  1  0.92715000  0.42287000  0.60987000  1.0 -0.682465597
O  O9  1  0.82588000  0.42714000  0.44361000  1.0 -0.6184005877
O  O10  1  0.42714000  0.82588000  0.05639000  1.0 -0.6184005877
O  O11  1  0.17412000  0.57286000  0.55639000  1.0 -0.6184005877
O  O12  1  0.57286000  0.17412000  0.94361000  1.0 -0.6184005877
O  O13  1  0.95048000  0.42218000  0.45723000  1.0 -0.7521092286
O  O14  1  0.42218000  0.95048000  0.04277000  1.0 -0.7521092286
O  O15  1  0.04952000  0.57782000  0.54277000  1.0 -0.7521092286
O  O16  1  0.57782000  0.04952000  0.95723000  1.0 -0.7521092286
O  O17  1  0.80524000  0.60282000  0.43883000  1.0 -0.5779021075
O  O18  1  0.60282000  0.80524000  0.06117000  1.0 -0.5779021075
O  O19  1  0.19476000  0.39718000  0.56117000  1.0 -0.5779021075
O  O20  1  0.39718000  0.19476000  0.93883000  1.0 -0.5779021075
O  O21  1  0.91199000  0.68025000  0.49946000  1.0 -0.6055237095
O  O22  1  0.68025000  0.91199000  0.00054000  1.0 -0.6055237095
O  O23  1  0.08801000  0.31975000  0.50054000  1.0 -0.6055237095
O  O24  1  0.31975000  0.08801000  0.99946000  1.0 -0.6046526869
