# DDEC6 charges by PACMAN v1.1 (https://github.com/mtap-research/PACMAN-charge/)
data_LUWNAU_ASR_pacman
_symmetry_space_group_name_H-M   'P 1'
_cell_length_a   17.53780000
_cell_length_b   17.53780000
_cell_length_c   18.11800000
_cell_angle_alpha   78.54530000
_cell_angle_beta   101.45500000
_cell_angle_gamma   108.83300000
_symmetry_Int_Tables_number   1
_chemical_formula_structural   GdH15C25O6
_chemical_formula_sum   'Gd4 H60 C100 O24'
_cell_volume   5114.62160041
_cell_formula_units_Z   4
loop_
 _symmetry_equiv_pos_site_id
 _symmetry_equiv_pos_as_xyz
  1  'x, y, z'
loop_
 _atom_site_type_symbol
 _atom_site_label
 _atom_site_symmetry_multiplicity
 _atom_site_fract_x
 _atom_site_fract_y
 _atom_site_fract_z
 _atom_site_occupancy
 _atom_site_charge
Gd  Gd1  1  0.03468000  0.40550000  0.98342000  1.0 2.0062706631
Gd  Gd2  1  0.40550000  0.03468000  0.51658000  1.0 2.0062706631
Gd  Gd3  1  0.96532000  0.59450000  0.01658000  1.0 2.0062706631
Gd  Gd4  1  0.59450000  0.96532000  0.48342000  1.0 2.0062706631
H  H1  1  0.17690000  0.63410000  0.21380000  1.0 0.1222615468
H  H2  1  0.63410000  0.17690000  0.28620000  1.0 0.1222615468
H  H3  1  0.82310000  0.36590000  0.78620000  1.0 0.1222615468
H  H4  1  0.36590000  0.82310000  0.71380000  1.0 0.1222615468
H  H5  1  0.18210000  0.70450000  0.31370000  1.0 0.1101746389
H  H6  1  0.70450000  0.18210000  0.18630000  1.0 0.1101746389
H  H7  1  0.81790000  0.29550000  0.68630000  1.0 0.1101746389
H  H8  1  0.29550000  0.81790000  0.81370000  1.0 0.1101746389
H  H9  1  0.23120000  0.82160000  0.36730000  1.0 0.1222615468
H  H10  1  0.82160000  0.23120000  0.13270000  1.0 0.1222615468
H  H11  1  0.76880000  0.17840000  0.63270000  1.0 0.1222615468
H  H12  1  0.17840000  0.76880000  0.86730000  1.0 0.1222615468
H  H13  1  0.45110000  0.78510000  0.42210000  1.0 0.1222615468
H  H14  1  0.78510000  0.45110000  0.07790000  1.0 0.1222615468
H  H15  1  0.54890000  0.21490000  0.57790000  1.0 0.1222615468
H  H16  1  0.21490000  0.54890000  0.92210000  1.0 0.1222615468
H  H17  1  0.40200000  0.66900000  0.36790000  1.0 0.1101746389
H  H18  1  0.66900000  0.40200000  0.13210000  1.0 0.1101746389
H  H19  1  0.59800000  0.33100000  0.63210000  1.0 0.1101746389
H  H20  1  0.33100000  0.59800000  0.86790000  1.0 0.1101746389
H  H21  1  0.31660000  0.53120000  0.37910000  1.0 0.0996907911
H  H22  1  0.53120000  0.31660000  0.12090000  1.0 0.0996907911
H  H23  1  0.68340000  0.46880000  0.62090000  1.0 0.0996907911
H  H24  1  0.46880000  0.68340000  0.87910000  1.0 0.0996907911
H  H25  1  0.17630000  0.40650000  0.21320000  1.0 0.1222615468
H  H26  1  0.40650000  0.17630000  0.28680000  1.0 0.1222615468
H  H27  1  0.82370000  0.59350000  0.78680000  1.0 0.1222615468
H  H28  1  0.59350000  0.82370000  0.71320000  1.0 0.1222615468
H  H29  1  0.38960000  0.44220000  0.39150000  1.0 0.0949348595
H  H30  1  0.44220000  0.38960000  0.10850000  1.0 0.0949348595
H  H31  1  0.61040000  0.55780000  0.60850000  1.0 0.0949348595
H  H32  1  0.55780000  0.61040000  0.89150000  1.0 0.0996907911
H  H33  1  0.42600000  0.32720000  0.44790000  1.0 0.1101746389
H  H34  1  0.32720000  0.42600000  0.05210000  1.0 0.1101746389
H  H35  1  0.57400000  0.67280000  0.55210000  1.0 0.1101746389
H  H36  1  0.67280000  0.57400000  0.94790000  1.0 0.1101746389
H  H37  1  0.21060000  0.18440000  0.36880000  1.0 0.0823269051
H  H38  1  0.18440000  0.21060000  0.13120000  1.0 0.0823269051
H  H39  1  0.78940000  0.81560000  0.63120000  1.0 0.0823269051
H  H40  1  0.81560000  0.78940000  0.86880000  1.0 0.0823269051
H  H41  1  0.17150000  0.29990000  0.30710000  1.0 0.0823269051
H  H42  1  0.29990000  0.17150000  0.19290000  1.0 0.0823269051
H  H43  1  0.82850000  0.70010000  0.69290000  1.0 0.0823269051
H  H44  1  0.70010000  0.82850000  0.80710000  1.0 0.0823269051
H  H45  1  0.31750000  0.41290000  0.44710000  1.0 0.0996907911
H  H46  1  0.41290000  0.31750000  0.05290000  1.0 0.0996907911
H  H47  1  0.68250000  0.58710000  0.55290000  1.0 0.0996907911
H  H48  1  0.58710000  0.68250000  0.94710000  1.0 0.0996907911
H  H49  1  0.34680000  0.30060000  0.50660000  1.0 0.1101746389
H  H50  1  0.30060000  0.34680000  0.99340000  1.0 0.1101746389
H  H51  1  0.65320000  0.69940000  0.49340000  1.0 0.1101746389
H  H52  1  0.69940000  0.65320000  0.00660000  1.0 0.1101746389
H  H53  1  0.25970000  0.19910000  0.31950000  1.0 0.0726290115
H  H54  1  0.19910000  0.25970000  0.18050000  1.0 0.0726290115
H  H55  1  0.74030000  0.80090000  0.68050000  1.0 0.0726290115
H  H56  1  0.80090000  0.74030000  0.81950000  1.0 0.0726290115
H  H57  1  0.22600000  0.31220000  0.26080000  1.0 0.0632547239
H  H58  1  0.31220000  0.22600000  0.23920000  1.0 0.0632547239
H  H59  1  0.77400000  0.68780000  0.73920000  1.0 0.0632547239
H  H60  1  0.68780000  0.77400000  0.76080000  1.0 0.0632547239
C  C1  1  0.10505000  0.51395000  0.13186000  1.0 0.6363202494
C  C2  1  0.51395000  0.10505000  0.36814000  1.0 0.6363202494
C  C3  1  0.89495000  0.48605000  0.86814000  1.0 0.6363202494
C  C4  1  0.48605000  0.89495000  0.63186000  1.0 0.6363202494
C  C5  1  0.16694000  0.51980000  0.20464000  1.0 0.0060572105
C  C6  1  0.51980000  0.16694000  0.29536000  1.0 0.0060572105
C  C7  1  0.83306000  0.48020000  0.79536000  1.0 0.0060572105
C  C8  1  0.48020000  0.83306000  0.70464000  1.0 0.0060572105
C  C9  1  0.19597000  0.58997000  0.23612000  1.0 -0.1530029166
C  C10  1  0.58997000  0.19597000  0.26388000  1.0 -0.1530029166
C  C11  1  0.80403000  0.41003000  0.76388000  1.0 -0.1530029166
C  C12  1  0.41003000  0.80403000  0.73612000  1.0 -0.1530029166
C  C13  1  0.25394000  0.59648000  0.30142000  1.0 0.0632547239
C  C14  1  0.59648000  0.25394000  0.19858000  1.0 0.0632547239
C  C15  1  0.74606000  0.40352000  0.69858000  1.0 0.0632547239
C  C16  1  0.40352000  0.74606000  0.80142000  1.0 0.0632547239
C  C17  1  0.28705000  0.67213000  0.33566000  1.0 0.0632547239
C  C18  1  0.67213000  0.28705000  0.16434000  1.0 0.0632547239
C  C19  1  0.71295000  0.32787000  0.66434000  1.0 0.0632547239
C  C20  1  0.32787000  0.71295000  0.83566000  1.0 0.0632547239
C  C21  1  0.23636000  0.72068000  0.33573000  1.0 -0.1530029166
C  C22  1  0.72068000  0.23636000  0.16427000  1.0 -0.1530029166
C  C23  1  0.76364000  0.27932000  0.66427000  1.0 -0.1530029166
C  C24  1  0.27932000  0.76364000  0.83573000  1.0 -0.1530029166
C  C25  1  0.26581000  0.79091000  0.36765000  1.0 -0.079391582
C  C26  1  0.79091000  0.26581000  0.13235000  1.0 -0.079391582
C  C27  1  0.73419000  0.20909000  0.63235000  1.0 -0.079391582
C  C28  1  0.20909000  0.73419000  0.86765000  1.0 -0.079391582
C  C29  1  0.34687000  0.81699000  0.40067000  1.0 -0.033542888
C  C30  1  0.81699000  0.34687000  0.09933000  1.0 -0.033542888
C  C31  1  0.65313000  0.18301000  0.59933000  1.0 -0.033542888
C  C32  1  0.18301000  0.65313000  0.90067000  1.0 -0.033542888
C  C33  1  0.37789000  0.89369000  0.43572000  1.0 0.6151352685
C  C34  1  0.89369000  0.37789000  0.06428000  1.0 0.6151352685
C  C35  1  0.62211000  0.10631000  0.56428000  1.0 0.6151352685
C  C36  1  0.10631000  0.62211000  0.93572000  1.0 0.6151352685
C  C37  1  0.39680000  0.76906000  0.40015000  1.0 -0.0995232265
C  C38  1  0.76906000  0.39680000  0.09985000  1.0 -0.0995232265
C  C39  1  0.60320000  0.23094000  0.59985000  1.0 -0.0995232265
C  C40  1  0.23094000  0.60320000  0.90015000  1.0 -0.0995232265
C  C41  1  0.36711000  0.69919000  0.36799000  1.0 -0.1570790101
C  C42  1  0.69919000  0.36711000  0.13201000  1.0 -0.1570790101
C  C43  1  0.63289000  0.30081000  0.63201000  1.0 -0.1570790101
C  C44  1  0.30081000  0.63289000  0.86799000  1.0 -0.1570790101
C  C45  1  0.27946000  0.52836000  0.33458000  1.0 -0.1875070024
C  C46  1  0.52836000  0.27946000  0.16542000  1.0 -0.1875070024
C  C47  1  0.72054000  0.47164000  0.66542000  1.0 -0.1875070024
C  C48  1  0.47164000  0.72054000  0.83458000  1.0 -0.1875070024
C  C49  1  0.25113000  0.45621000  0.30326000  1.0 0.0525474998
C  C50  1  0.45621000  0.25113000  0.19674000  1.0 0.0525474998
C  C51  1  0.74887000  0.54379000  0.69674000  1.0 0.0525474998
C  C52  1  0.54379000  0.74887000  0.80326000  1.0 0.0525474998
C  C53  1  0.19493000  0.45323000  0.23643000  1.0 -0.2255612749
C  C54  1  0.45323000  0.19493000  0.26357000  1.0 -0.2242611735
C  C55  1  0.80507000  0.54677000  0.76357000  1.0 -0.2242611735
C  C56  1  0.54677000  0.80507000  0.73643000  1.0 -0.2242611735
C  C57  1  0.35380000  0.39080000  0.38540000  1.0 -0.0995232265
C  C58  1  0.39080000  0.35380000  0.11460000  1.0 -0.0995232265
C  C59  1  0.64620000  0.60920000  0.61460000  1.0 -0.0995232265
C  C60  1  0.60920000  0.64620000  0.88540000  1.0 -0.0995232265
C  C61  1  0.37463000  0.32157000  0.41970000  1.0 -0.0710419875
C  C62  1  0.32157000  0.37463000  0.08030000  1.0 -0.0710419875
C  C63  1  0.62537000  0.67843000  0.58030000  1.0 -0.0710419875
C  C64  1  0.67843000  0.62537000  0.91970000  1.0 -0.0710419875
C  C65  1  0.24690000  0.23610000  0.37250000  1.0 -0.0510267079
C  C66  1  0.23610000  0.24690000  0.12750000  1.0 -0.0510267079
C  C67  1  0.75310000  0.76390000  0.62750000  1.0 -0.0510267079
C  C68  1  0.76390000  0.75310000  0.87250000  1.0 -0.0510267079
C  C69  1  0.22300000  0.30580000  0.33510000  1.0 -0.0510267079
C  C70  1  0.30580000  0.22300000  0.16490000  1.0 -0.0510267079
C  C71  1  0.77700000  0.69420000  0.66490000  1.0 -0.0510267079
C  C72  1  0.69420000  0.77700000  0.83510000  1.0 -0.0510267079
C  C73  1  0.32283000  0.24433000  0.41396000  1.0 -0.0510267079
C  C74  1  0.24433000  0.32283000  0.08604000  1.0 -0.0510267079
C  C75  1  0.67717000  0.75567000  0.58604000  1.0 -0.0510267079
C  C76  1  0.75567000  0.67717000  0.91396000  1.0 -0.0510267079
C  C77  1  0.27631000  0.38179000  0.34063000  1.0 0.0171833218
C  C78  1  0.38179000  0.27631000  0.15937000  1.0 0.0171833218
C  C79  1  0.72369000  0.61821000  0.65937000  1.0 0.0171833218
C  C80  1  0.61821000  0.72369000  0.84063000  1.0 0.0171833218
C  C81  1  0.34700000  0.16880000  0.45295000  1.0 0.5101261151
C  C82  1  0.16880000  0.34700000  0.04705000  1.0 0.5101261151
C  C83  1  0.65300000  0.83120000  0.54705000  1.0 0.5101261151
C  C84  1  0.83120000  0.65300000  0.95295000  1.0 0.5101261151
C  C85  1  0.30940000  0.37100000  0.41920000  1.0 -0.0589109526
C  C86  1  0.37100000  0.30940000  0.08080000  1.0 -0.0589109526
C  C87  1  0.69060000  0.62900000  0.58080000  1.0 -0.0589109526
C  C88  1  0.62900000  0.69060000  0.91920000  1.0 -0.0589109526
C  C89  1  0.32890000  0.30570000  0.45450000  1.0 -0.0710419875
C  C90  1  0.30570000  0.32890000  0.04550000  1.0 -0.0710419875
C  C91  1  0.67110000  0.69430000  0.54550000  1.0 -0.0710419875
C  C92  1  0.69430000  0.67110000  0.95450000  1.0 -0.0710419875
C  C93  1  0.27680000  0.24520000  0.34370000  1.0 -0.079391582
C  C94  1  0.24520000  0.27680000  0.15630000  1.0 -0.079391582
C  C95  1  0.72320000  0.75480000  0.65630000  1.0 -0.079391582
C  C96  1  0.75480000  0.72320000  0.84370000  1.0 -0.079391582
C  C97  1  0.25620000  0.31300000  0.30930000  1.0 -0.079391582
C  C98  1  0.31300000  0.25620000  0.19070000  1.0 -0.079391582
C  C99  1  0.74380000  0.68700000  0.69070000  1.0 -0.079391582
C  C100  1  0.68700000  0.74380000  0.80930000  1.0 -0.079391582
O  O1  1  0.08752000  0.45088000  0.10286000  1.0 -0.6258892554
O  O2  1  0.45088000  0.08752000  0.39714000  1.0 -0.6258892554
O  O3  1  0.91248000  0.54912000  0.89714000  1.0 -0.6258892554
O  O4  1  0.54912000  0.91248000  0.60286000  1.0 -0.6258892554
O  O5  1  0.07668000  0.57300000  0.10851000  1.0 -0.6707577396
O  O6  1  0.57300000  0.07668000  0.39149000  1.0 -0.6707577396
O  O7  1  0.92332000  0.42700000  0.89149000  1.0 -0.6707577396
O  O8  1  0.42700000  0.92332000  0.60851000  1.0 -0.6707577396
O  O9  1  0.32767000  0.92735000  0.44388000  1.0 -0.6213084597
O  O10  1  0.92735000  0.32767000  0.05612000  1.0 -0.6213084597
O  O11  1  0.67233000  0.07265000  0.55612000  1.0 -0.6213084597
O  O12  1  0.07265000  0.67233000  0.94388000  1.0 -0.6213084597
O  O13  1  0.45302000  0.92216000  0.45674000  1.0 -0.7349194724
O  O14  1  0.92216000  0.45302000  0.04326000  1.0 -0.7349194724
O  O15  1  0.54698000  0.07784000  0.54326000  1.0 -0.7349194724
O  O16  1  0.07784000  0.54698000  0.95674000  1.0 -0.7349194724
O  O17  1  0.41134000  0.17828000  0.49913000  1.0 -0.598609953
O  O18  1  0.17828000  0.41134000  0.00087000  1.0 -0.598609953
O  O19  1  0.58866000  0.82172000  0.50087000  1.0 -0.598609953
O  O20  1  0.82172000  0.58866000  0.99913000  1.0 -0.598609953
O  O21  1  0.30486000  0.10144000  0.43882000  1.0 -0.5444354254
O  O22  1  0.10144000  0.30486000  0.06118000  1.0 -0.5444354254
O  O23  1  0.69514000  0.89856000  0.56118000  1.0 -0.5444354254
O  O24  1  0.89856000  0.69514000  0.93882000  1.0 -0.5444354254
