# DDEC6 charges by PACMAN v1.1 (https://github.com/mtap-research/PACMAN-charge/)
data_LUXFUG_ion_pacman
_symmetry_space_group_name_H-M   'P 1'
_cell_length_a   18.33390000
_cell_length_b   18.33390000
_cell_length_c   18.33390000
_cell_angle_alpha   60.00000000
_cell_angle_beta   60.00000000
_cell_angle_gamma   60.00000000
_symmetry_Int_Tables_number   1
_chemical_formula_structural   Co7H30C88(N7O5)6
_chemical_formula_sum   'Co14 H60 C176 N84 O60'
_cell_volume   4357.62222026
_cell_formula_units_Z   2
loop_
 _symmetry_equiv_pos_site_id
 _symmetry_equiv_pos_as_xyz
  1  'x, y, z'
loop_
 _atom_site_type_symbol
 _atom_site_label
 _atom_site_symmetry_multiplicity
 _atom_site_fract_x
 _atom_site_fract_y
 _atom_site_fract_z
 _atom_site_occupancy
 _atom_site_charge
Co  Co1  1  0.37713000  0.37713000  0.86861000  1.0 0.7587477928
Co  Co2  1  0.37713000  0.37713000  0.37713000  1.0 0.7587477928
Co  Co3  1  0.86861000  0.37713000  0.37713000  1.0 0.7587477928
Co  Co4  1  0.37713000  0.86861000  0.37713000  1.0 0.7587477928
Co  Co5  1  0.62287000  0.62287000  0.13139000  1.0 0.7587477928
Co  Co6  1  0.62287000  0.62287000  0.62287000  1.0 0.7587477928
Co  Co7  1  0.13139000  0.62287000  0.62287000  1.0 0.7587477928
Co  Co8  1  0.62287000  0.13139000  0.62287000  1.0 0.7587477928
Co  Co9  1  0.50000000  0.00000000  0.00000000  1.0 0.9094197468
Co  Co10  1  0.00000000  0.50000000  0.50000000  1.0 0.9094197468
Co  Co11  1  0.00000000  0.50000000  0.00000000  1.0 0.9094197468
Co  Co12  1  0.50000000  0.00000000  0.50000000  1.0 0.9094197468
Co  Co13  1  0.00000000  0.00000000  0.50000000  1.0 0.9094197468
Co  Co14  1  0.50000000  0.50000000  0.00000000  1.0 0.9094197468
H  H1  1  0.54340000  0.32680000  0.67320000  1.0 0.0975129738
H  H2  1  0.32680000  0.54340000  0.45660000  1.0 0.0975129738
H  H3  1  0.67320000  0.45660000  0.54340000  1.0 0.0975129738
H  H4  1  0.45660000  0.67320000  0.32680000  1.0 0.0975129738
H  H5  1  0.67320000  0.54340000  0.32680000  1.0 0.0975129738
H  H6  1  0.45660000  0.32680000  0.54340000  1.0 0.0975129738
H  H7  1  0.54340000  0.67320000  0.45660000  1.0 0.0975129738
H  H8  1  0.32680000  0.45660000  0.67320000  1.0 0.0975129738
H  H9  1  0.32680000  0.67320000  0.54340000  1.0 0.0975129738
H  H10  1  0.54340000  0.45660000  0.32680000  1.0 0.0975129738
H  H11  1  0.45660000  0.54340000  0.67320000  1.0 0.0975129738
H  H12  1  0.67320000  0.32680000  0.45660000  1.0 0.0975129738
H  H13  1  0.69410000  0.88050000  0.87150000  1.0 0.3110951399
H  H14  1  0.87150000  0.69410000  0.88050000  1.0 0.3110951399
H  H15  1  0.88050000  0.87150000  0.69410000  1.0 0.3110951399
H  H16  1  0.73600000  0.93480000  0.77600000  1.0 0.3157183146
H  H17  1  0.77600000  0.73600000  0.93480000  1.0 0.3157183146
H  H18  1  0.93480000  0.77600000  0.73600000  1.0 0.3157183146
H  H19  1  0.88050000  0.69410000  0.55390000  1.0 0.3110951399
H  H20  1  0.69410000  0.87150000  0.55390000  1.0 0.3110951399
H  H21  1  0.87150000  0.88050000  0.55390000  1.0 0.3110951399
H  H22  1  0.93480000  0.73600000  0.55320000  1.0 0.3157183146
H  H23  1  0.73600000  0.77600000  0.55320000  1.0 0.3157183146
H  H24  1  0.77600000  0.93480000  0.55320000  1.0 0.3157183146
H  H25  1  0.87150000  0.55390000  0.69410000  1.0 0.3110951399
H  H26  1  0.88050000  0.55390000  0.87150000  1.0 0.3110951399
H  H27  1  0.69410000  0.55390000  0.88050000  1.0 0.3110951399
H  H28  1  0.77600000  0.55320000  0.73600000  1.0 0.3157183146
H  H29  1  0.93480000  0.55320000  0.77600000  1.0 0.3157183146
H  H30  1  0.73600000  0.55320000  0.93480000  1.0 0.3157183146
H  H31  1  0.55390000  0.87150000  0.88050000  1.0 0.3110951399
H  H32  1  0.55390000  0.88050000  0.69410000  1.0 0.3110951399
H  H33  1  0.55390000  0.69410000  0.87150000  1.0 0.3110951399
H  H34  1  0.55320000  0.77600000  0.93480000  1.0 0.3157183146
H  H35  1  0.55320000  0.93480000  0.73600000  1.0 0.3157183146
H  H36  1  0.55320000  0.73600000  0.77600000  1.0 0.3157183146
H  H37  1  0.30590000  0.11950000  0.12850000  1.0 0.3110951399
H  H38  1  0.12850000  0.30590000  0.11950000  1.0 0.3110951399
H  H39  1  0.11950000  0.12850000  0.30590000  1.0 0.3110951399
H  H40  1  0.26400000  0.06520000  0.22400000  1.0 0.3157183146
H  H41  1  0.22400000  0.26400000  0.06520000  1.0 0.3157183146
H  H42  1  0.06520000  0.22400000  0.26400000  1.0 0.3157183146
H  H43  1  0.11950000  0.30590000  0.44610000  1.0 0.3110951399
H  H44  1  0.30590000  0.12850000  0.44610000  1.0 0.3110951399
H  H45  1  0.12850000  0.11950000  0.44610000  1.0 0.3110951399
H  H46  1  0.06520000  0.26400000  0.44680000  1.0 0.3157183146
H  H47  1  0.26400000  0.22400000  0.44680000  1.0 0.3157183146
H  H48  1  0.22400000  0.06520000  0.44680000  1.0 0.3157183146
H  H49  1  0.12850000  0.44610000  0.30590000  1.0 0.3110951399
H  H50  1  0.11950000  0.44610000  0.12850000  1.0 0.3110951399
H  H51  1  0.30590000  0.44610000  0.11950000  1.0 0.3110951399
H  H52  1  0.22400000  0.44680000  0.26400000  1.0 0.3157183146
H  H53  1  0.06520000  0.44680000  0.22400000  1.0 0.3157183146
H  H54  1  0.26400000  0.44680000  0.06520000  1.0 0.3157183146
H  H55  1  0.44610000  0.12850000  0.11950000  1.0 0.3110951399
H  H56  1  0.44610000  0.11950000  0.30590000  1.0 0.3110951399
H  H57  1  0.44610000  0.30590000  0.12850000  1.0 0.3110951399
H  H58  1  0.44680000  0.22400000  0.06520000  1.0 0.3157183146
H  H59  1  0.44680000  0.06520000  0.26400000  1.0 0.3157183146
H  H60  1  0.44680000  0.26400000  0.22400000  1.0 0.3157183146
C  C1  1  0.52240000  0.27940000  0.72060000  1.0 0.1244739918
C  C2  1  0.27940000  0.52240000  0.47760000  1.0 0.1244739918
C  C3  1  0.72060000  0.47760000  0.52240000  1.0 0.1244739918
C  C4  1  0.47760000  0.72060000  0.27940000  1.0 0.1244739918
C  C5  1  0.72060000  0.52240000  0.27940000  1.0 0.1244739918
C  C6  1  0.47760000  0.27940000  0.52240000  1.0 0.1244739918
C  C7  1  0.52240000  0.72060000  0.47760000  1.0 0.1244739918
C  C8  1  0.27940000  0.47760000  0.72060000  1.0 0.1244739918
C  C9  1  0.27940000  0.72060000  0.52240000  1.0 0.1244739918
C  C10  1  0.52240000  0.47760000  0.27940000  1.0 0.1244739918
C  C11  1  0.47760000  0.52240000  0.72060000  1.0 0.1244739918
C  C12  1  0.72060000  0.27940000  0.47760000  1.0 0.1244739918
C  C13  1  0.45350000  0.20490000  0.84950000  1.0 -0.023529698
C  C14  1  0.20490000  0.45350000  0.49210000  1.0 -0.023529698
C  C15  1  0.84950000  0.49210000  0.45350000  1.0 -0.023529698
C  C16  1  0.49210000  0.84950000  0.20490000  1.0 -0.023529698
C  C17  1  0.84950000  0.45350000  0.20490000  1.0 -0.023529698
C  C18  1  0.49210000  0.20490000  0.45350000  1.0 -0.023529698
C  C19  1  0.45350000  0.84950000  0.49210000  1.0 -0.023529698
C  C20  1  0.20490000  0.49210000  0.84950000  1.0 -0.023529698
C  C21  1  0.20490000  0.84950000  0.45350000  1.0 -0.023529698
C  C22  1  0.45350000  0.49210000  0.20490000  1.0 -0.023529698
C  C23  1  0.49210000  0.45350000  0.84950000  1.0 -0.023529698
C  C24  1  0.84950000  0.20490000  0.49210000  1.0 -0.023529698
C  C25  1  0.54650000  0.79510000  0.15050000  1.0 -0.023529698
C  C26  1  0.79510000  0.54650000  0.50790000  1.0 -0.023529698
C  C27  1  0.15050000  0.50790000  0.54650000  1.0 -0.023529698
C  C28  1  0.50790000  0.15050000  0.79510000  1.0 -0.023529698
C  C29  1  0.15050000  0.54650000  0.79510000  1.0 -0.023529698
C  C30  1  0.50790000  0.79510000  0.54650000  1.0 -0.023529698
C  C31  1  0.54650000  0.15050000  0.50790000  1.0 -0.023529698
C  C32  1  0.79510000  0.50790000  0.15050000  1.0 -0.023529698
C  C33  1  0.79510000  0.15050000  0.54650000  1.0 -0.023529698
C  C34  1  0.54650000  0.50790000  0.79510000  1.0 -0.023529698
C  C35  1  0.50790000  0.54650000  0.15050000  1.0 -0.023529698
C  C36  1  0.15050000  0.79510000  0.50790000  1.0 -0.023529698
C  C37  1  0.38980000  0.19280000  0.94000000  1.0 0.5119368052
C  C38  1  0.19280000  0.38980000  0.47740000  1.0 0.5119368052
C  C39  1  0.94000000  0.47740000  0.38980000  1.0 0.5119368052
C  C40  1  0.47740000  0.94000000  0.19280000  1.0 0.5119368052
C  C41  1  0.94000000  0.38980000  0.19280000  1.0 0.5119368052
C  C42  1  0.47740000  0.19280000  0.38980000  1.0 0.5119368052
C  C43  1  0.38980000  0.94000000  0.47740000  1.0 0.5119368052
C  C44  1  0.19280000  0.47740000  0.94000000  1.0 0.5119368052
C  C45  1  0.19280000  0.94000000  0.38980000  1.0 0.5119368052
C  C46  1  0.38980000  0.47740000  0.19280000  1.0 0.5119368052
C  C47  1  0.47740000  0.38980000  0.94000000  1.0 0.5119368052
C  C48  1  0.94000000  0.19280000  0.47740000  1.0 0.5119368052
C  C49  1  0.61020000  0.80720000  0.06000000  1.0 0.5119368052
C  C50  1  0.80720000  0.61020000  0.52260000  1.0 0.5119368052
C  C51  1  0.06000000  0.52260000  0.61020000  1.0 0.5119368052
C  C52  1  0.52260000  0.06000000  0.80720000  1.0 0.5119368052
C  C53  1  0.06000000  0.61020000  0.80720000  1.0 0.5119368052
C  C54  1  0.52260000  0.80720000  0.61020000  1.0 0.5119368052
C  C55  1  0.61020000  0.06000000  0.52260000  1.0 0.5119368052
C  C56  1  0.80720000  0.52260000  0.06000000  1.0 0.5119368052
C  C57  1  0.80720000  0.06000000  0.61020000  1.0 0.5119368052
C  C58  1  0.61020000  0.52260000  0.80720000  1.0 0.5119368052
C  C59  1  0.52260000  0.61020000  0.06000000  1.0 0.5119368052
C  C60  1  0.06000000  0.80720000  0.52260000  1.0 0.5119368052
C  C61  1  0.64600000  0.04800000  0.95200000  1.0 0.0900021503
C  C62  1  0.04800000  0.64600000  0.35400000  1.0 0.0900021503
C  C63  1  0.95200000  0.35400000  0.64600000  1.0 0.0900021503
C  C64  1  0.35400000  0.95200000  0.04800000  1.0 0.0900021503
C  C65  1  0.95200000  0.64600000  0.04800000  1.0 0.0900021503
C  C66  1  0.35400000  0.04800000  0.64600000  1.0 0.0900021503
C  C67  1  0.64600000  0.95200000  0.35400000  1.0 0.0900021503
C  C68  1  0.04800000  0.35400000  0.95200000  1.0 0.0900021503
C  C69  1  0.04800000  0.95200000  0.64600000  1.0 0.0900021503
C  C70  1  0.64600000  0.35400000  0.04800000  1.0 0.0900021503
C  C71  1  0.35400000  0.64600000  0.95200000  1.0 0.0900021503
C  C72  1  0.95200000  0.04800000  0.35400000  1.0 0.0900021503
C  C73  1  0.68000000  0.16600000  0.83400000  1.0 0.0295127312
C  C74  1  0.16600000  0.68000000  0.32000000  1.0 0.0295127312
C  C75  1  0.83400000  0.32000000  0.68000000  1.0 0.0295127312
C  C76  1  0.32000000  0.83400000  0.16600000  1.0 0.0295127312
C  C77  1  0.83400000  0.68000000  0.16600000  1.0 0.0295127312
C  C78  1  0.32000000  0.16600000  0.68000000  1.0 0.0295127312
C  C79  1  0.68000000  0.83400000  0.32000000  1.0 0.0295127312
C  C80  1  0.16600000  0.32000000  0.83400000  1.0 0.0188438979
C  C81  1  0.16600000  0.83400000  0.68000000  1.0 0.0295127312
C  C82  1  0.68000000  0.32000000  0.16600000  1.0 0.0295127312
C  C83  1  0.32000000  0.68000000  0.83400000  1.0 0.0295127312
C  C84  1  0.83400000  0.16600000  0.32000000  1.0 0.0295127312
C  C85  1  0.78100000  0.05300000  0.94700000  1.0 0.0188438979
C  C86  1  0.05300000  0.78100000  0.21900000  1.0 0.0188438979
C  C87  1  0.94700000  0.21900000  0.78100000  1.0 0.0188438979
C  C88  1  0.21900000  0.94700000  0.05300000  1.0 0.0188438979
C  C89  1  0.94700000  0.78100000  0.05300000  1.0 0.0188438979
C  C90  1  0.21900000  0.05300000  0.78100000  1.0 0.0188438979
C  C91  1  0.78100000  0.94700000  0.21900000  1.0 0.0188438979
C  C92  1  0.05300000  0.21900000  0.94700000  1.0 0.0188438979
C  C93  1  0.05300000  0.94700000  0.78100000  1.0 0.0188438979
C  C94  1  0.78100000  0.21900000  0.05300000  1.0 0.0188438979
C  C95  1  0.21900000  0.78100000  0.94700000  1.0 0.0142421042
C  C96  1  0.94700000  0.05300000  0.21900000  1.0 0.0188438979
C  C97  1  0.65620000  0.05980000  0.89780000  1.0 0.0737691667
C  C98  1  0.05980000  0.65620000  0.38620000  1.0 0.0737691667
C  C99  1  0.89780000  0.38620000  0.65620000  1.0 0.0737691667
C  C100  1  0.38620000  0.89780000  0.05980000  1.0 0.0737691667
C  C101  1  0.89780000  0.65620000  0.05980000  1.0 0.0737691667
C  C102  1  0.38620000  0.05980000  0.65620000  1.0 0.0737691667
C  C103  1  0.65620000  0.89780000  0.38620000  1.0 0.0737691667
C  C104  1  0.05980000  0.38620000  0.89780000  1.0 0.0737691667
C  C105  1  0.05980000  0.89780000  0.65620000  1.0 0.0737691667
C  C106  1  0.65620000  0.38620000  0.05980000  1.0 0.0737691667
C  C107  1  0.38620000  0.65620000  0.89780000  1.0 0.0737691667
C  C108  1  0.89780000  0.05980000  0.38620000  1.0 0.0737691667
C  C109  1  0.34380000  0.94020000  0.10220000  1.0 0.0737691667
C  C110  1  0.94020000  0.34380000  0.61380000  1.0 0.0737691667
C  C111  1  0.10220000  0.61380000  0.34380000  1.0 0.0737691667
C  C112  1  0.61380000  0.10220000  0.94020000  1.0 0.0737691667
C  C113  1  0.10220000  0.34380000  0.94020000  1.0 0.0737691667
C  C114  1  0.61380000  0.94020000  0.34380000  1.0 0.0737691667
C  C115  1  0.34380000  0.10220000  0.61380000  1.0 0.0737691667
C  C116  1  0.94020000  0.61380000  0.10220000  1.0 0.0737691667
C  C117  1  0.94020000  0.10220000  0.34380000  1.0 0.0737691667
C  C118  1  0.34380000  0.61380000  0.94020000  1.0 0.0737691667
C  C119  1  0.61380000  0.34380000  0.10220000  1.0 0.0737691667
C  C120  1  0.10220000  0.94020000  0.61380000  1.0 0.0737691667
C  C121  1  0.72400000  0.14600000  0.78600000  1.0 -0.0939785838
C  C122  1  0.14600000  0.72400000  0.34400000  1.0 -0.0939785838
C  C123  1  0.78600000  0.34400000  0.72400000  1.0 -0.0939785838
C  C124  1  0.34400000  0.78600000  0.14600000  1.0 -0.0939785838
C  C125  1  0.78600000  0.72400000  0.14600000  1.0 -0.0939785838
C  C126  1  0.34400000  0.14600000  0.72400000  1.0 -0.0939785838
C  C127  1  0.72400000  0.78600000  0.34400000  1.0 -0.0939785838
C  C128  1  0.14600000  0.34400000  0.78600000  1.0 -0.0939785838
C  C129  1  0.14600000  0.78600000  0.72400000  1.0 -0.0939785838
C  C130  1  0.72400000  0.34400000  0.14600000  1.0 -0.0939785838
C  C131  1  0.34400000  0.72400000  0.78600000  1.0 -0.0939785838
C  C132  1  0.78600000  0.14600000  0.34400000  1.0 -0.0939785838
C  C133  1  0.27600000  0.85400000  0.21400000  1.0 -0.0939785838
C  C134  1  0.85400000  0.27600000  0.65600000  1.0 -0.0939785838
C  C135  1  0.21400000  0.65600000  0.27600000  1.0 -0.0939785838
C  C136  1  0.65600000  0.21400000  0.85400000  1.0 -0.0939785838
C  C137  1  0.21400000  0.27600000  0.85400000  1.0 -0.0961072827
C  C138  1  0.65600000  0.85400000  0.27600000  1.0 -0.0939785838
C  C139  1  0.27600000  0.21400000  0.65600000  1.0 -0.0939785838
C  C140  1  0.85400000  0.65600000  0.21400000  1.0 -0.0939785838
C  C141  1  0.85400000  0.21400000  0.27600000  1.0 -0.0939785838
C  C142  1  0.27600000  0.65600000  0.85400000  1.0 -0.0939785838
C  C143  1  0.65600000  0.27600000  0.21400000  1.0 -0.0939785838
C  C144  1  0.21400000  0.85400000  0.65600000  1.0 -0.0939785838
C  C145  1  0.82300000  0.02500000  0.84100000  1.0 -0.001427166
C  C146  1  0.02500000  0.82300000  0.31100000  1.0 0.0005759126
C  C147  1  0.84100000  0.31100000  0.82300000  1.0 0.0005759126
C  C148  1  0.31100000  0.84100000  0.02500000  1.0 0.0005759126
C  C149  1  0.84100000  0.82300000  0.02500000  1.0 0.0005759126
C  C150  1  0.31100000  0.02500000  0.82300000  1.0 -0.001427166
C  C151  1  0.82300000  0.84100000  0.31100000  1.0 0.0005759126
C  C152  1  0.02500000  0.31100000  0.84100000  1.0 -0.001427166
C  C153  1  0.02500000  0.84100000  0.82300000  1.0 0.0005759126
C  C154  1  0.82300000  0.31100000  0.02500000  1.0 -0.001427166
C  C155  1  0.31100000  0.82300000  0.84100000  1.0 0.0005759126
C  C156  1  0.84100000  0.02500000  0.31100000  1.0 0.0005759126
C  C157  1  0.17700000  0.97500000  0.15900000  1.0 0.0005759126
C  C158  1  0.97500000  0.17700000  0.68900000  1.0 0.0005759126
C  C159  1  0.15900000  0.68900000  0.17700000  1.0 0.0005759126
C  C160  1  0.68900000  0.15900000  0.97500000  1.0 0.0005759126
C  C161  1  0.15900000  0.17700000  0.97500000  1.0 -0.001427166
C  C162  1  0.68900000  0.97500000  0.17700000  1.0 0.0005759126
C  C163  1  0.17700000  0.15900000  0.68900000  1.0 0.0005759126
C  C164  1  0.97500000  0.68900000  0.15900000  1.0 0.0005759126
C  C165  1  0.97500000  0.15900000  0.17700000  1.0 0.0005759126
C  C166  1  0.17700000  0.68900000  0.97500000  1.0 -0.001427166
C  C167  1  0.68900000  0.17700000  0.15900000  1.0 0.0005759126
C  C168  1  0.15900000  0.97500000  0.68900000  1.0 0.0005759126
C  C169  1  0.81560000  0.81560000  0.81560000  1.0 0.5901504448
C  C170  1  0.81560000  0.81560000  0.55320000  1.0 0.5901504448
C  C171  1  0.81560000  0.55320000  0.81560000  1.0 0.5901504448
C  C172  1  0.55320000  0.81560000  0.81560000  1.0 0.5901504448
C  C173  1  0.18440000  0.18440000  0.18440000  1.0 0.5901504448
C  C174  1  0.18440000  0.18440000  0.44680000  1.0 0.5901504448
C  C175  1  0.18440000  0.44680000  0.18440000  1.0 0.5901504448
C  C176  1  0.44680000  0.18440000  0.18440000  1.0 0.5901504448
N  N1  1  0.46294000  0.28714000  0.80006000  1.0 -0.3272051436
N  N2  1  0.28714000  0.46294000  0.44986000  1.0 -0.3272051436
N  N3  1  0.80006000  0.44986000  0.46294000  1.0 -0.3272051436
N  N4  1  0.44986000  0.80006000  0.28714000  1.0 -0.3272051436
N  N5  1  0.80006000  0.46294000  0.28714000  1.0 -0.3272051436
N  N6  1  0.44986000  0.28714000  0.46294000  1.0 -0.3272051436
N  N7  1  0.46294000  0.80006000  0.44986000  1.0 -0.3272051436
N  N8  1  0.28714000  0.44986000  0.80006000  1.0 -0.3272051436
N  N9  1  0.28714000  0.80006000  0.46294000  1.0 -0.3272051436
N  N10  1  0.46294000  0.44986000  0.28714000  1.0 -0.3272051436
N  N11  1  0.44986000  0.46294000  0.80006000  1.0 -0.3272051436
N  N12  1  0.80006000  0.28714000  0.44986000  1.0 -0.3272051436
N  N13  1  0.53706000  0.71286000  0.19994000  1.0 -0.3272051436
N  N14  1  0.71286000  0.53706000  0.55014000  1.0 -0.3272051436
N  N15  1  0.19994000  0.55014000  0.53706000  1.0 -0.3272051436
N  N16  1  0.55014000  0.19994000  0.71286000  1.0 -0.3272051436
N  N17  1  0.19994000  0.53706000  0.71286000  1.0 -0.3272051436
N  N18  1  0.55014000  0.71286000  0.53706000  1.0 -0.3272051436
N  N19  1  0.53706000  0.19994000  0.55014000  1.0 -0.3272051436
N  N20  1  0.71286000  0.55014000  0.19994000  1.0 -0.3272051436
N  N21  1  0.71286000  0.19994000  0.53706000  1.0 -0.3272051436
N  N22  1  0.53706000  0.55014000  0.71286000  1.0 -0.3272051436
N  N23  1  0.55014000  0.53706000  0.19994000  1.0 -0.3272051436
N  N24  1  0.19994000  0.71286000  0.55014000  1.0 -0.3272051436
N  N25  1  0.70600000  0.09600000  0.90400000  1.0 0.157565101
N  N26  1  0.09600000  0.70600000  0.29400000  1.0 0.1503522372
N  N27  1  0.90400000  0.29400000  0.70600000  1.0 0.1503522372
N  N28  1  0.29400000  0.90400000  0.09600000  1.0 0.1503522372
N  N29  1  0.90400000  0.70600000  0.09600000  1.0 0.1503522372
N  N30  1  0.29400000  0.09600000  0.70600000  1.0 0.1503522372
N  N31  1  0.70600000  0.90400000  0.29400000  1.0 0.1503522372
N  N32  1  0.09600000  0.29400000  0.90400000  1.0 0.1503522372
N  N33  1  0.09600000  0.90400000  0.70600000  1.0 0.1503522372
N  N34  1  0.70600000  0.29400000  0.09600000  1.0 0.1503522372
N  N35  1  0.29400000  0.70600000  0.90400000  1.0 0.157565101
N  N36  1  0.90400000  0.09600000  0.29400000  1.0 0.1503522372
N  N37  1  0.73160000  0.08300000  0.84420000  1.0 0.0295127312
N  N38  1  0.08300000  0.73160000  0.34120000  1.0 0.0295127312
N  N39  1  0.84420000  0.34120000  0.73160000  1.0 0.0295127312
N  N40  1  0.34120000  0.84420000  0.08300000  1.0 0.0295127312
N  N41  1  0.84420000  0.73160000  0.08300000  1.0 0.0295127312
N  N42  1  0.34120000  0.08300000  0.73160000  1.0 0.0295127312
N  N43  1  0.73160000  0.84420000  0.34120000  1.0 0.0295127312
N  N44  1  0.08300000  0.34120000  0.84420000  1.0 0.0295127312
N  N45  1  0.08300000  0.84420000  0.73160000  1.0 0.0295127312
N  N46  1  0.73160000  0.34120000  0.08300000  1.0 0.0295127312
N  N47  1  0.34120000  0.73160000  0.84420000  1.0 0.0295127312
N  N48  1  0.84420000  0.08300000  0.34120000  1.0 0.0295127312
N  N49  1  0.26840000  0.91700000  0.15580000  1.0 0.0295127312
N  N50  1  0.91700000  0.26840000  0.65880000  1.0 0.0295127312
N  N51  1  0.15580000  0.65880000  0.26840000  1.0 0.0295127312
N  N52  1  0.65880000  0.15580000  0.91700000  1.0 0.0295127312
N  N53  1  0.15580000  0.26840000  0.91700000  1.0 0.0295127312
N  N54  1  0.65880000  0.91700000  0.26840000  1.0 0.0295127312
N  N55  1  0.26840000  0.15580000  0.65880000  1.0 0.0295127312
N  N56  1  0.91700000  0.65880000  0.15580000  1.0 0.0295127312
N  N57  1  0.91700000  0.15580000  0.26840000  1.0 0.0295127312
N  N58  1  0.26840000  0.65880000  0.91700000  1.0 0.0295127312
N  N59  1  0.65880000  0.26840000  0.15580000  1.0 0.0295127312
N  N60  1  0.15580000  0.91700000  0.65880000  1.0 0.0295127312
N  N61  1  0.74000000  0.88480000  0.82180000  1.0 -0.6411955019
N  N62  1  0.82180000  0.74000000  0.88480000  1.0 -0.6411955019
N  N63  1  0.88480000  0.82180000  0.74000000  1.0 -0.6411955019
N  N64  1  0.88480000  0.74000000  0.55340000  1.0 -0.6411955019
N  N65  1  0.74000000  0.82180000  0.55340000  1.0 -0.6411955019
N  N66  1  0.82180000  0.88480000  0.55340000  1.0 -0.6411955019
N  N67  1  0.82180000  0.55340000  0.74000000  1.0 -0.6411955019
N  N68  1  0.88480000  0.55340000  0.82180000  1.0 -0.6411955019
N  N69  1  0.74000000  0.55340000  0.88480000  1.0 -0.6411955019
N  N70  1  0.55340000  0.82180000  0.88480000  1.0 -0.6411955019
N  N71  1  0.55340000  0.88480000  0.74000000  1.0 -0.6411955019
N  N72  1  0.55340000  0.74000000  0.82180000  1.0 -0.6411955019
N  N73  1  0.26000000  0.11520000  0.17820000  1.0 -0.6411955019
N  N74  1  0.17820000  0.26000000  0.11520000  1.0 -0.6411955019
N  N75  1  0.11520000  0.17820000  0.26000000  1.0 -0.6411955019
N  N76  1  0.11520000  0.26000000  0.44660000  1.0 -0.6411955019
N  N77  1  0.26000000  0.17820000  0.44660000  1.0 -0.6411955019
N  N78  1  0.17820000  0.11520000  0.44660000  1.0 -0.6411955019
N  N79  1  0.17820000  0.44660000  0.26000000  1.0 -0.6411955019
N  N80  1  0.11520000  0.44660000  0.17820000  1.0 -0.6411955019
N  N81  1  0.26000000  0.44660000  0.11520000  1.0 -0.6411955019
N  N82  1  0.44660000  0.17820000  0.11520000  1.0 -0.6411955019
N  N83  1  0.44660000  0.11520000  0.26000000  1.0 -0.6411955019
N  N84  1  0.44660000  0.26000000  0.17820000  1.0 -0.6411955019
O  O1  1  0.33731000  0.26183000  0.96047000  1.0 -0.4773104225
O  O2  1  0.26183000  0.33731000  0.44039000  1.0 -0.4773104225
O  O3  1  0.96047000  0.44039000  0.33731000  1.0 -0.4773104225
O  O4  1  0.44039000  0.96047000  0.26183000  1.0 -0.4773104225
O  O5  1  0.96047000  0.33731000  0.26183000  1.0 -0.4773104225
O  O6  1  0.44039000  0.26183000  0.33731000  1.0 -0.4773104225
O  O7  1  0.33731000  0.96047000  0.44039000  1.0 -0.4773104225
O  O8  1  0.26183000  0.44039000  0.96047000  1.0 -0.4773104225
O  O9  1  0.26183000  0.96047000  0.33731000  1.0 -0.4773104225
O  O10  1  0.33731000  0.44039000  0.26183000  1.0 -0.4773104225
O  O11  1  0.44039000  0.33731000  0.96047000  1.0 -0.4773104225
O  O12  1  0.96047000  0.26183000  0.44039000  1.0 -0.4773104225
O  O13  1  0.66269000  0.73817000  0.03953000  1.0 -0.4773104225
O  O14  1  0.73817000  0.66269000  0.55961000  1.0 -0.4773104225
O  O15  1  0.03953000  0.55961000  0.66269000  1.0 -0.4773104225
O  O16  1  0.55961000  0.03953000  0.73817000  1.0 -0.4773104225
O  O17  1  0.03953000  0.66269000  0.73817000  1.0 -0.4773104225
O  O18  1  0.55961000  0.73817000  0.66269000  1.0 -0.4773104225
O  O19  1  0.66269000  0.03953000  0.55961000  1.0 -0.4773104225
O  O20  1  0.73817000  0.55961000  0.03953000  1.0 -0.4773104225
O  O21  1  0.73817000  0.03953000  0.66269000  1.0 -0.4773104225
O  O22  1  0.66269000  0.55961000  0.73817000  1.0 -0.4773104225
O  O23  1  0.55961000  0.66269000  0.03953000  1.0 -0.4773104225
O  O24  1  0.03953000  0.73817000  0.55961000  1.0 -0.4773104225
O  O25  1  0.39066000  0.11554000  0.99574000  1.0 -0.5449302579
O  O26  1  0.11554000  0.39066000  0.49806000  1.0 -0.5449302579
O  O27  1  0.99574000  0.49806000  0.39066000  1.0 -0.5449302579
O  O28  1  0.49806000  0.99574000  0.11554000  1.0 -0.5449302579
O  O29  1  0.99574000  0.39066000  0.11554000  1.0 -0.5449302579
O  O30  1  0.49806000  0.11554000  0.39066000  1.0 -0.5449302579
O  O31  1  0.39066000  0.99574000  0.49806000  1.0 -0.5449302579
O  O32  1  0.11554000  0.49806000  0.99574000  1.0 -0.5449302579
O  O33  1  0.11554000  0.99574000  0.39066000  1.0 -0.5449302579
O  O34  1  0.39066000  0.49806000  0.11554000  1.0 -0.5449302579
O  O35  1  0.49806000  0.39066000  0.99574000  1.0 -0.5449302579
O  O36  1  0.99574000  0.11554000  0.49806000  1.0 -0.5449302579
O  O37  1  0.60934000  0.88446000  0.00426000  1.0 -0.5449302579
O  O38  1  0.88446000  0.60934000  0.50194000  1.0 -0.5449302579
O  O39  1  0.00426000  0.50194000  0.60934000  1.0 -0.5449302579
O  O40  1  0.50194000  0.00426000  0.88446000  1.0 -0.5449302579
O  O41  1  0.00426000  0.60934000  0.88446000  1.0 -0.5449302579
O  O42  1  0.50194000  0.88446000  0.60934000  1.0 -0.5449302579
O  O43  1  0.60934000  0.00426000  0.50194000  1.0 -0.5449302579
O  O44  1  0.88446000  0.50194000  0.00426000  1.0 -0.5449302579
O  O45  1  0.88446000  0.00426000  0.60934000  1.0 -0.5449302579
O  O46  1  0.60934000  0.50194000  0.88446000  1.0 -0.5449302579
O  O47  1  0.50194000  0.60934000  0.00426000  1.0 -0.5449302579
O  O48  1  0.00426000  0.88446000  0.50194000  1.0 -0.5449302579
O  O49  1  0.59400000  0.06500000  0.93500000  1.0 -0.1323409332
O  O50  1  0.06500000  0.59400000  0.40600000  1.0 -0.1323409332
O  O51  1  0.93500000  0.40600000  0.59400000  1.0 -0.1323409332
O  O52  1  0.40600000  0.93500000  0.06500000  1.0 -0.1323409332
O  O53  1  0.93500000  0.59400000  0.06500000  1.0 -0.1323409332
O  O54  1  0.40600000  0.06500000  0.59400000  1.0 -0.1323409332
O  O55  1  0.59400000  0.93500000  0.40600000  1.0 -0.1323409332
O  O56  1  0.06500000  0.40600000  0.93500000  1.0 -0.1323409332
O  O57  1  0.06500000  0.93500000  0.59400000  1.0 -0.1323409332
O  O58  1  0.59400000  0.40600000  0.06500000  1.0 -0.1323409332
O  O59  1  0.40600000  0.59400000  0.93500000  1.0 -0.1323409332
O  O60  1  0.93500000  0.06500000  0.40600000  1.0 -0.1323409332
