# DDEC6 charges by PACMAN v1.1 (https://github.com/mtap-research/PACMAN-charge/)
data_LUYBIS_FSR_pacman
_symmetry_space_group_name_H-M   'P 1'
_cell_length_a   16.85860000
_cell_length_b   14.18760000
_cell_length_c   26.23800000
_cell_angle_alpha   90.00000000
_cell_angle_beta   98.01400000
_cell_angle_gamma   90.00000000
_symmetry_Int_Tables_number   1
_chemical_formula_structural   Eu2C49N9O16
_chemical_formula_sum   'Eu8 C196 N36 O64'
_cell_volume   6214.39734013
_cell_formula_units_Z   4
loop_
 _symmetry_equiv_pos_site_id
 _symmetry_equiv_pos_as_xyz
  1  'x, y, z'
loop_
 _atom_site_type_symbol
 _atom_site_label
 _atom_site_symmetry_multiplicity
 _atom_site_fract_x
 _atom_site_fract_y
 _atom_site_fract_z
 _atom_site_occupancy
 _atom_site_charge
Eu  Eu1  1  0.68648000  0.66316000  0.74970000  1.0 2.0531766624
Eu  Eu2  1  0.81352000  0.16316000  0.25030000  1.0 2.0552619906
Eu  Eu3  1  0.31352000  0.33684000  0.25030000  1.0 2.0552619906
Eu  Eu4  1  0.18648000  0.83684000  0.74970000  1.0 2.0531766624
Eu  Eu5  1  0.46321000  0.79854000  0.75069000  1.0 2.0277885409
Eu  Eu6  1  0.03679000  0.29854000  0.24931000  1.0 2.0277885409
Eu  Eu7  1  0.53679000  0.20146000  0.24931000  1.0 2.0277885409
Eu  Eu8  1  0.96321000  0.70146000  0.75069000  1.0 2.0277885409
C  C1  1  0.69240000  0.11610000  0.33890000  1.0 0.6529941854
C  C2  1  0.80760000  0.61610000  0.66110000  1.0 0.655631444
C  C3  1  0.30760000  0.88390000  0.66110000  1.0 0.6529941854
C  C4  1  0.19240000  0.38390000  0.33890000  1.0 0.6529941854
C  C5  1  0.68140000  0.08690000  0.39320000  1.0 -0.0387750692
C  C6  1  0.81860000  0.58690000  0.60680000  1.0 -0.0313635363
C  C7  1  0.31860000  0.91310000  0.60680000  1.0 -0.0313635363
C  C8  1  0.18140000  0.41310000  0.39320000  1.0 -0.0387750692
C  C9  1  0.61800000  0.11900000  0.41310000  1.0 0.0819294315
C  C10  1  0.88200000  0.61900000  0.58690000  1.0 0.0819294315
C  C11  1  0.38200000  0.88100000  0.58690000  1.0 0.0819294315
C  C12  1  0.11800000  0.38100000  0.41310000  1.0 0.0819294315
C  C13  1  0.66560000  0.02660000  0.48920000  1.0 0.0488421523
C  C14  1  0.83440000  0.52660000  0.51080000  1.0 0.0488421523
C  C15  1  0.33440000  0.97340000  0.51080000  1.0 0.0488421523
C  C16  1  0.16560000  0.47340000  0.48920000  1.0 0.0488421523
C  C17  1  0.73380000  0.04100000  0.47850000  1.0 0.0018066128
C  C18  1  0.76620000  0.54100000  0.52150000  1.0 0.0018066128
C  C19  1  0.26620000  0.95900000  0.52150000  1.0 0.0081728565
C  C20  1  0.23380000  0.45900000  0.47850000  1.0 0.0081728565
C  C21  1  0.74100000  0.07200000  0.43250000  1.0 0.0018066128
C  C22  1  0.75900000  0.57200000  0.56750000  1.0 0.0018066128
C  C23  1  0.25900000  0.92800000  0.56750000  1.0 0.0018066128
C  C24  1  0.24100000  0.42800000  0.43250000  1.0 0.0018066128
C  C25  1  0.65690000  0.98310000  0.53970000  1.0 0.105778956
C  C26  1  0.84310000  0.48310000  0.46030000  1.0 0.105778956
C  C27  1  0.34310000  0.01690000  0.46030000  1.0 0.1010860638
C  C28  1  0.15690000  0.51690000  0.53970000  1.0 0.105778956
C  C29  1  0.60410000  0.03000000  0.56560000  1.0 0.0488421523
C  C30  1  0.89590000  0.53000000  0.43440000  1.0 0.0488421523
C  C31  1  0.39590000  0.97000000  0.43440000  1.0 0.0488421523
C  C32  1  0.10410000  0.47000000  0.56560000  1.0 0.0488421523
C  C33  1  0.58450000  0.97090000  0.60680000  1.0 -0.0193505382
C  C34  1  0.91550000  0.47090000  0.39320000  1.0 -0.0193505382
C  C35  1  0.41550000  0.02910000  0.39320000  1.0 -0.0193505382
C  C36  1  0.08450000  0.52910000  0.60680000  1.0 -0.0193505382
C  C37  1  0.63330000  0.90200000  0.63050000  1.0 -0.1687603495
C  C38  1  0.86670000  0.40200000  0.36950000  1.0 -0.1687603495
C  C39  1  0.36670000  0.09800000  0.36950000  1.0 -0.1687603495
C  C40  1  0.13330000  0.59800000  0.63050000  1.0 -0.1687603495
C  C41  1  0.69650000  0.87260000  0.60610000  1.0 0.0819294315
C  C42  1  0.80350000  0.37260000  0.39390000  1.0 0.0819294315
C  C43  1  0.30350000  0.12740000  0.39390000  1.0 0.0868448035
C  C44  1  0.19650000  0.62740000  0.60610000  1.0 0.0819294315
C  C45  1  0.61540000  0.85270000  0.67890000  1.0 0.572844571
C  C46  1  0.88460000  0.35270000  0.32110000  1.0 0.572844571
C  C47  1  0.38460000  0.14730000  0.32110000  1.0 0.572844571
C  C48  1  0.11540000  0.64730000  0.67890000  1.0 0.572844571
C  C49  1  0.65790000  0.81350000  0.82910000  1.0 0.6529941854
C  C50  1  0.84210000  0.31350000  0.17090000  1.0 0.6529941854
C  C51  1  0.34210000  0.18650000  0.17090000  1.0 0.6529941854
C  C52  1  0.15790000  0.68650000  0.82910000  1.0 0.6529941854
C  C53  1  0.65990000  0.87010000  0.87610000  1.0 -0.0617090747
C  C54  1  0.84010000  0.37010000  0.12390000  1.0 -0.0617090747
C  C55  1  0.34010000  0.12990000  0.12390000  1.0 -0.0617090747
C  C56  1  0.15990000  0.62990000  0.87610000  1.0 -0.0617090747
C  C57  1  0.59180000  0.92110000  0.88550000  1.0 0.1705111709
C  C58  1  0.90820000  0.42110000  0.11450000  1.0 0.1705111709
C  C59  1  0.40820000  0.07890000  0.11450000  1.0 0.1705111709
C  C60  1  0.09180000  0.57890000  0.88550000  1.0 0.1705111709
C  C61  1  0.66380000  0.97150000  0.96530000  1.0 0.105778956
C  C62  1  0.83620000  0.47150000  0.03470000  1.0 0.105778956
C  C63  1  0.33620000  0.02850000  0.03470000  1.0 0.105778956
C  C64  1  0.16380000  0.52850000  0.96530000  1.0 0.1010860638
C  C65  1  0.73360000  0.95500000  0.94780000  1.0 -0.0193505382
C  C66  1  0.76640000  0.45500000  0.05220000  1.0 -0.0193505382
C  C67  1  0.26640000  0.04500000  0.05220000  1.0 -0.0193505382
C  C68  1  0.23360000  0.54500000  0.94780000  1.0 -0.0193505382
C  C69  1  0.73040000  0.89700000  0.90680000  1.0 0.0081728565
C  C70  1  0.76960000  0.39700000  0.09320000  1.0 0.0081728565
C  C71  1  0.26960000  0.10300000  0.09320000  1.0 0.0081728565
C  C72  1  0.23040000  0.60300000  0.90680000  1.0 0.0081728565
C  C73  1  0.66270000  0.01760000  0.01520000  1.0 0.1010860638
C  C74  1  0.83730000  0.51760000  0.98480000  1.0 0.1010860638
C  C75  1  0.33730000  0.98240000  0.98480000  1.0 0.1010860638
C  C76  1  0.16270000  0.48240000  0.01520000  1.0 0.1010860638
C  C77  1  0.59740000  0.11330000  0.06990000  1.0 0.0868448035
C  C78  1  0.90260000  0.61330000  0.93010000  1.0 0.0819294315
C  C79  1  0.40260000  0.88670000  0.93010000  1.0 0.0819294315
C  C80  1  0.09740000  0.38670000  0.06990000  1.0 0.0819294315
C  C81  1  0.65550000  0.09560000  0.11000000  1.0 -0.0497459686
C  C82  1  0.84450000  0.59560000  0.89000000  1.0 -0.0497459686
C  C83  1  0.34450000  0.90440000  0.89000000  1.0 -0.0497459686
C  C84  1  0.15550000  0.40440000  0.11000000  1.0 -0.0497459686
C  C85  1  0.71600000  0.01600000  0.10550000  1.0 0.0819294315
C  C86  1  0.78400000  0.51600000  0.89450000  1.0 0.0819294315
C  C87  1  0.28400000  0.98400000  0.89450000  1.0 0.0819294315
C  C88  1  0.21600000  0.48400000  0.10550000  1.0 0.0819294315
C  C89  1  0.71660000  0.98000000  0.05730000  1.0 -0.0021633345
C  C90  1  0.78340000  0.48000000  0.94270000  1.0 -0.0021633345
C  C91  1  0.28340000  0.02000000  0.94270000  1.0 -0.0060971402
C  C92  1  0.21660000  0.52000000  0.05730000  1.0 -0.0060971402
C  C93  1  0.64810000  0.12540000  0.16390000  1.0 0.669780335
C  C94  1  0.85190000  0.62540000  0.83610000  1.0 0.669780335
C  C95  1  0.35190000  0.87460000  0.83610000  1.0 0.669780335
C  C96  1  0.14810000  0.37460000  0.16390000  1.0 0.669780335
C  C97  1  0.54220000  0.61240000  0.82580000  1.0 0.6931895078
C  C98  1  0.95780000  0.11240000  0.17420000  1.0 0.6931895078
C  C99  1  0.45780000  0.38760000  0.17420000  1.0 0.6931895078
C  C100  1  0.04220000  0.88760000  0.82580000  1.0 0.6931895078
C  C101  1  0.52580000  0.57800000  0.87690000  1.0 -0.1201667688
C  C102  1  0.97420000  0.07800000  0.12310000  1.0 -0.1201667688
C  C103  1  0.47420000  0.42200000  0.12310000  1.0 -0.1201667688
C  C104  1  0.02580000  0.92200000  0.87690000  1.0 -0.1201667688
C  C105  1  0.46370000  0.61450000  0.90010000  1.0 0.1799525352
C  C106  1  0.03630000  0.11450000  0.09990000  1.0 0.1705111709
C  C107  1  0.53630000  0.38550000  0.09990000  1.0 0.1705111709
C  C108  1  0.96370000  0.88550000  0.90010000  1.0 0.1705111709
C  C109  1  0.50360000  0.51760000  0.97380000  1.0 0.2094941275
C  C110  1  0.99640000  0.01760000  0.02620000  1.0 0.2094941275
C  C111  1  0.49640000  0.48240000  0.02620000  1.0 0.2094941275
C  C112  1  0.00360000  0.98240000  0.97380000  1.0 0.2094941275
C  C113  1  0.56370000  0.47900000  0.95090000  1.0 -0.1201667688
C  C114  1  0.93630000  0.97900000  0.04910000  1.0 -0.1201667688
C  C115  1  0.43630000  0.52100000  0.04910000  1.0 -0.1201667688
C  C116  1  0.06370000  0.02100000  0.95090000  1.0 -0.1201667688
C  C117  1  0.57330000  0.51120000  0.90390000  1.0 0.0081728565
C  C118  1  0.92670000  0.01120000  0.09610000  1.0 0.0081728565
C  C119  1  0.42670000  0.48880000  0.09610000  1.0 0.0081728565
C  C120  1  0.07330000  0.98880000  0.90390000  1.0 0.0081728565
C  C121  1  0.49750000  0.65850000  0.66830000  1.0 0.524650103
C  C122  1  0.00250000  0.15850000  0.33170000  1.0 0.524650103
C  C123  1  0.50250000  0.34150000  0.33170000  1.0 0.524650103
C  C124  1  0.99750000  0.84150000  0.66830000  1.0 0.524650103
C  C125  1  0.49310000  0.62500000  0.61460000  1.0 0.0623502024
C  C126  1  0.00690000  0.12500000  0.38540000  1.0 0.0623502024
C  C127  1  0.50690000  0.37500000  0.38540000  1.0 0.0623502024
C  C128  1  0.99310000  0.87500000  0.61460000  1.0 0.0623502024
C  C129  1  0.56420000  0.58400000  0.59900000  1.0 0.0488421523
C  C130  1  0.93580000  0.08400000  0.40100000  1.0 0.0488421523
C  C131  1  0.43580000  0.41600000  0.40100000  1.0 0.0488421523
C  C132  1  0.06420000  0.91600000  0.59900000  1.0 0.0488421523
C  C133  1  0.49680000  0.53800000  0.52200000  1.0 0.1010860638
C  C134  1  0.00320000  0.03800000  0.47800000  1.0 0.1010860638
C  C135  1  0.50320000  0.46200000  0.47800000  1.0 0.1010860638
C  C136  1  0.99680000  0.96200000  0.52200000  1.0 0.1010860638
C  C137  1  0.42990000  0.58200000  0.53130000  1.0 -0.0617090747
C  C138  1  0.07010000  0.08200000  0.46870000  1.0 -0.0617090747
C  C139  1  0.57010000  0.41800000  0.46870000  1.0 -0.0617090747
C  C140  1  0.92990000  0.91800000  0.53130000  1.0 -0.0617090747
C  C141  1  0.42400000  0.62200000  0.57980000  1.0 0.0449393974
C  C142  1  0.07600000  0.12200000  0.42020000  1.0 0.0449393974
C  C143  1  0.57600000  0.37800000  0.42020000  1.0 0.0488421523
C  C144  1  0.92400000  0.87800000  0.57980000  1.0 0.0488421523
C  C145  1  0.76780000  0.49200000  0.53350000  1.0 0.0018066128
C  C146  1  0.73220000  0.99200000  0.46650000  1.0 0.0018066128
C  C147  1  0.23220000  0.50800000  0.46650000  1.0 -0.0021633345
C  C148  1  0.26780000  0.00800000  0.53350000  1.0 -0.0021633345
C  C149  1  0.76070000  0.52300000  0.58020000  1.0 0.0323366807
C  C150  1  0.73930000  0.02300000  0.41980000  1.0 0.0323366807
C  C151  1  0.23930000  0.47700000  0.41980000  1.0 0.0323366807
C  C152  1  0.26070000  0.97700000  0.58020000  1.0 0.0323366807
C  C153  1  0.72720000  0.91000000  0.96000000  1.0 -0.0313635363
C  C154  1  0.77280000  0.41000000  0.04000000  1.0 -0.0313635363
C  C155  1  0.27280000  0.09000000  0.04000000  1.0 -0.0313635363
C  C156  1  0.22720000  0.59000000  0.96000000  1.0 -0.0313635363
C  C157  1  0.72610000  0.85200000  0.91640000  1.0 0.0488421523
C  C158  1  0.77390000  0.35200000  0.08360000  1.0 0.0488421523
C  C159  1  0.27390000  0.14800000  0.08360000  1.0 0.0488421523
C  C160  1  0.22610000  0.64800000  0.91640000  1.0 0.0488421523
C  C161  1  0.27460000  0.94200000  0.90420000  1.0 0.0184759204
C  C162  1  0.22540000  0.44200000  0.09580000  1.0 0.0184759204
C  C163  1  0.72540000  0.05800000  0.09580000  1.0 0.0184759204
C  C164  1  0.77460000  0.55800000  0.90420000  1.0 0.0184759204
C  C165  1  0.27120000  0.97600000  0.95290000  1.0 -0.0497459686
C  C166  1  0.22880000  0.47600000  0.04710000  1.0 -0.0497459686
C  C167  1  0.72880000  0.02400000  0.04710000  1.0 -0.0497459686
C  C168  1  0.77120000  0.52400000  0.95290000  1.0 -0.0497459686
C  C169  1  0.49620000  0.49100000  0.53350000  1.0 0.0868448035
C  C170  1  0.00380000  0.99100000  0.46650000  1.0 0.0819294315
C  C171  1  0.50380000  0.50900000  0.46650000  1.0 0.0868448035
C  C172  1  0.99620000  0.00900000  0.53350000  1.0 0.0868448035
C  C173  1  0.42700000  0.52900000  0.54270000  1.0 -0.0387750692
C  C174  1  0.07300000  0.02900000  0.45730000  1.0 -0.0387750692
C  C175  1  0.57300000  0.47100000  0.45730000  1.0 -0.0387750692
C  C176  1  0.92700000  0.97100000  0.54270000  1.0 -0.0387750692
C  C177  1  0.43000000  0.57500000  0.58800000  1.0 0.0081728565
C  C178  1  0.07000000  0.07500000  0.41200000  1.0 0.0081728565
C  C179  1  0.57000000  0.42500000  0.41200000  1.0 0.0081728565
C  C180  1  0.93000000  0.92500000  0.58800000  1.0 0.0081728565
C  C181  1  0.56070000  0.54200000  0.61200000  1.0 0.0623502024
C  C182  1  0.93930000  0.04200000  0.38800000  1.0 0.0623502024
C  C183  1  0.43930000  0.45800000  0.38800000  1.0 0.0623502024
C  C184  1  0.06070000  0.95800000  0.61200000  1.0 0.0623502024
C  C185  1  0.58770000  0.99300000  0.55930000  1.0 0.0018066128
C  C186  1  0.91230000  0.49300000  0.44070000  1.0 0.0018066128
C  C187  1  0.41230000  0.00700000  0.44070000  1.0 0.0018066128
C  C188  1  0.08770000  0.50700000  0.55930000  1.0 0.0018066128
C  C189  1  0.90000000  0.58200000  0.59420000  1.0 0.1799525352
C  C190  1  0.60000000  0.08200000  0.40580000  1.0 0.1799525352
C  C191  1  0.10000000  0.41800000  0.40580000  1.0 0.1799525352
C  C192  1  0.40000000  0.91800000  0.59420000  1.0 0.1799525352
C  C193  1  0.49700000  0.57900000  0.62210000  1.0 0.0184759204
C  C194  1  0.00300000  0.07900000  0.37790000  1.0 0.0184759204
C  C195  1  0.50300000  0.42100000  0.37790000  1.0 0.0184759204
C  C196  1  0.99700000  0.92100000  0.62210000  1.0 0.0184759204
N  N1  1  0.61000000  0.09300000  0.46360000  1.0 -0.0497459686
N  N2  1  0.89000000  0.59300000  0.53640000  1.0 -0.0497459686
N  N3  1  0.39000000  0.90700000  0.53640000  1.0 -0.0497459686
N  N4  1  0.11000000  0.40700000  0.46360000  1.0 -0.0497459686
N  N5  1  0.71400000  0.94500000  0.56590000  1.0 0.0018066128
N  N6  1  0.78600000  0.44500000  0.43410000  1.0 0.0018066128
N  N7  1  0.28600000  0.05500000  0.43410000  1.0 0.0018066128
N  N8  1  0.21400000  0.55500000  0.56590000  1.0 0.0018066128
N  N9  1  0.59480000  0.97220000  0.93030000  1.0 -0.2012090026
N  N10  1  0.90520000  0.47220000  0.06970000  1.0 -0.2012090026
N  N11  1  0.40520000  0.02780000  0.06970000  1.0 -0.2012090026
N  N12  1  0.09480000  0.52780000  0.93030000  1.0 -0.2012090026
N  N13  1  0.60050000  0.07420000  0.02190000  1.0 -0.2012090026
N  N14  1  0.89950000  0.57420000  0.97810000  1.0 -0.2012090026
N  N15  1  0.39950000  0.92580000  0.97810000  1.0 -0.2104982971
N  N16  1  0.10050000  0.42580000  0.02190000  1.0 -0.2104982971
N  N17  1  0.45060000  0.58420000  0.94870000  1.0 -0.297276764
N  N18  1  0.04940000  0.08420000  0.05130000  1.0 -0.297276764
N  N19  1  0.54940000  0.41580000  0.05130000  1.0 -0.3058253913
N  N20  1  0.95060000  0.91580000  0.94870000  1.0 -0.297276764
N  N21  1  0.56710000  0.56000000  0.55290000  1.0 -0.0893232942
N  N22  1  0.93290000  0.06000000  0.44710000  1.0 -0.0893232942
N  N23  1  0.43290000  0.44000000  0.44710000  1.0 -0.0893232942
N  N24  1  0.06710000  0.94000000  0.55290000  1.0 -0.0893232942
N  N25  1  0.90400000  0.55200000  0.54230000  1.0 -0.0313635363
N  N26  1  0.59600000  0.05200000  0.45770000  1.0 -0.0313635363
N  N27  1  0.09600000  0.44800000  0.45770000  1.0 -0.0313635363
N  N28  1  0.40400000  0.94800000  0.54230000  1.0 -0.0313635363
N  N29  1  0.70670000  0.89900000  0.55770000  1.0 -0.0193505382
N  N30  1  0.79330000  0.39900000  0.44230000  1.0 -0.0193505382
N  N31  1  0.29330000  0.10100000  0.44230000  1.0 -0.0193505382
N  N32  1  0.20670000  0.60100000  0.55770000  1.0 -0.0193505382
N  N33  1  0.56320000  0.50700000  0.56440000  1.0 -0.0893232942
N  N34  1  0.93680000  0.00700000  0.43560000  1.0 -0.0839229463
N  N35  1  0.43680000  0.49300000  0.43560000  1.0 -0.0893232942
N  N36  1  0.06320000  0.99300000  0.56440000  1.0 -0.0893232942
O  O1  1  0.63090000  0.12110000  0.30700000  1.0 -0.5572427599
O  O2  1  0.86910000  0.62110000  0.69300000  1.0 -0.5572427599
O  O3  1  0.36910000  0.87890000  0.69300000  1.0 -0.5572427599
O  O4  1  0.13090000  0.37890000  0.30700000  1.0 -0.5572427599
O  O5  1  0.76040000  0.12470000  0.32740000  1.0 -0.5314012755
O  O6  1  0.73960000  0.62470000  0.67260000  1.0 -0.5314012755
O  O7  1  0.23960000  0.87530000  0.67260000  1.0 -0.5314012755
O  O8  1  0.26040000  0.37530000  0.32740000  1.0 -0.5314012755
O  O9  1  0.32750000  0.71780000  0.75110000  1.0 -0.4290878339
O  O10  1  0.17250000  0.21780000  0.24890000  1.0 -0.4290878339
O  O11  1  0.67250000  0.28220000  0.24890000  1.0 -0.4290878339
O  O12  1  0.82750000  0.78220000  0.75110000  1.0 -0.4290878339
O  O13  1  0.67160000  0.80610000  0.70360000  1.0 -0.5538702994
O  O14  1  0.82840000  0.30610000  0.29640000  1.0 -0.5572427599
O  O15  1  0.32840000  0.19390000  0.29640000  1.0 -0.5538702994
O  O16  1  0.17160000  0.69390000  0.70360000  1.0 -0.5572427599
O  O17  1  0.55930000  0.65720000  0.69920000  1.0 -0.60152766
O  O18  1  0.94070000  0.15720000  0.30080000  1.0 -0.6050491123
O  O19  1  0.44070000  0.34280000  0.30080000  1.0 -0.6050491123
O  O20  1  0.05930000  0.84280000  0.69920000  1.0 -0.60152766
O  O21  1  0.72120000  0.77220000  0.82120000  1.0 -0.5314012755
O  O22  1  0.77880000  0.27220000  0.17880000  1.0 -0.5314012755
O  O23  1  0.27880000  0.22780000  0.17880000  1.0 -0.5314012755
O  O24  1  0.22120000  0.72780000  0.82120000  1.0 -0.5314012755
O  O25  1  0.61080000  0.59970000  0.81350000  1.0 -0.5930940001
O  O26  1  0.88920000  0.09970000  0.18650000  1.0 -0.5930940001
O  O27  1  0.38920000  0.40030000  0.18650000  1.0 -0.5930940001
O  O28  1  0.11080000  0.90030000  0.81350000  1.0 -0.5930940001
O  O29  1  0.70250000  0.10160000  0.19880000  1.0 -0.5702981441
O  O30  1  0.79750000  0.60160000  0.80120000  1.0 -0.5702981441
O  O31  1  0.29750000  0.89840000  0.80120000  1.0 -0.5702981441
O  O32  1  0.20250000  0.39840000  0.19880000  1.0 -0.5702981441
O  O33  1  0.67290000  0.49510000  0.73650000  1.0 -0.4945836155
O  O34  1  0.82710000  0.99510000  0.26350000  1.0 -0.482693234
O  O35  1  0.32710000  0.50490000  0.26350000  1.0 -0.482693234
O  O36  1  0.17290000  0.00490000  0.73650000  1.0 -0.482693234
O  O37  1  0.54820000  0.87800000  0.69140000  1.0 -0.1568939923
O  O38  1  0.95180000  0.37800000  0.30860000  1.0 -0.1530454843
O  O39  1  0.45180000  0.12200000  0.30860000  1.0 -0.1568939923
O  O40  1  0.04820000  0.62200000  0.69140000  1.0 -0.1530454843
O  O41  1  0.47700000  0.96530000  0.77110000  1.0 -0.5034230142
O  O42  1  0.02300000  0.46530000  0.22890000  1.0 -0.4945836155
O  O43  1  0.52300000  0.03470000  0.22890000  1.0 -0.5034230142
O  O44  1  0.97700000  0.53470000  0.77110000  1.0 -0.5034230142
O  O45  1  0.58730000  0.17360000  0.16910000  1.0 -0.5314012755
O  O46  1  0.91270000  0.67360000  0.83090000  1.0 -0.5314012755
O  O47  1  0.41270000  0.82640000  0.83090000  1.0 -0.5314012755
O  O48  1  0.08730000  0.32640000  0.16910000  1.0 -0.5314012755
O  O49  1  0.48380000  0.65390000  0.79790000  1.0 -0.60152766
O  O50  1  0.01620000  0.15390000  0.20210000  1.0 -0.60152766
O  O51  1  0.51620000  0.34610000  0.20210000  1.0 -0.60152766
O  O52  1  0.98380000  0.84610000  0.79790000  1.0 -0.60152766
O  O53  1  0.59320000  0.80190000  0.79850000  1.0 -0.6969663489
O  O54  1  0.90680000  0.30190000  0.20150000  1.0 -0.6969663489
O  O55  1  0.40680000  0.19810000  0.20150000  1.0 -0.6949931769
O  O56  1  0.09320000  0.69810000  0.79850000  1.0 -0.6969663489
O  O57  1  0.43450000  0.69850000  0.67740000  1.0 -0.5388759612
O  O58  1  0.06550000  0.19850000  0.32260000  1.0 -0.5388759612
O  O59  1  0.56550000  0.30150000  0.32260000  1.0 -0.5388759612
O  O60  1  0.93450000  0.80150000  0.67740000  1.0 -0.5388759612
O  O61  1  0.54380000  0.84200000  0.68830000  1.0 -0.2337366133
O  O62  1  0.95620000  0.34200000  0.31170000  1.0 -0.2337366133
O  O63  1  0.45620000  0.15800000  0.31170000  1.0 -0.2361872433
O  O64  1  0.04380000  0.65800000  0.68830000  1.0 -0.2337366133
