# DDEC6 charges by PACMAN v1.1 (https://github.com/mtap-research/PACMAN-charge/)
data_LUYBOY_ASR_pacman
_symmetry_space_group_name_H-M   'P 1'
_cell_length_a   16.40670000
_cell_length_b   13.61700000
_cell_length_c   26.53100000
_cell_angle_alpha   90.00000000
_cell_angle_beta   98.04000000
_cell_angle_gamma   90.00000000
_symmetry_Int_Tables_number   1
_chemical_formula_structural   Eu4Cu5C72(N6O13)2
_chemical_formula_sum   'Eu8 Cu10 C144 N24 O52'
_cell_volume   5869.03028208
_cell_formula_units_Z   2
loop_
 _symmetry_equiv_pos_site_id
 _symmetry_equiv_pos_as_xyz
  1  'x, y, z'
loop_
 _atom_site_type_symbol
 _atom_site_label
 _atom_site_symmetry_multiplicity
 _atom_site_fract_x
 _atom_site_fract_y
 _atom_site_fract_z
 _atom_site_occupancy
 _atom_site_charge
Eu  Eu1  1  0.81043000  0.15120000  0.24758000  1.0 2.1037732915
Eu  Eu2  1  0.68957000  0.65120000  0.75242000  1.0 2.1037732915
Eu  Eu3  1  0.18957000  0.84880000  0.75242000  1.0 2.1037732915
Eu  Eu4  1  0.31043000  0.34880000  0.24758000  1.0 2.1037732915
Eu  Eu5  1  0.52699000  0.19200000  0.25057000  1.0 2.1133990244
Eu  Eu6  1  0.97301000  0.69200000  0.74943000  1.0 2.1133990244
Eu  Eu7  1  0.47301000  0.80800000  0.74943000  1.0 2.1133990244
Eu  Eu8  1  0.02699000  0.30800000  0.25057000  1.0 2.1133990244
Cu  Cu1  1  0.32760000  0.57700000  0.01420000  1.0 0.3688543245
Cu  Cu2  1  0.17240000  0.07700000  0.98580000  1.0 0.3688543245
Cu  Cu3  1  0.67240000  0.42300000  0.98580000  1.0 0.3688543245
Cu  Cu4  1  0.82760000  0.92300000  0.01420000  1.0 0.3688543245
Cu  Cu5  1  0.62050000  0.43660000  0.52770000  1.0 0.2936097339
Cu  Cu6  1  0.87950000  0.93660000  0.47230000  1.0 0.2936097339
Cu  Cu7  1  0.37950000  0.56340000  0.47230000  1.0 0.2936097339
Cu  Cu8  1  0.12050000  0.06340000  0.52770000  1.0 0.2936097339
Cu  Cu9  1  0.50000000  0.00000000  0.50000000  1.0 0.517757769
Cu  Cu10  1  0.00000000  0.50000000  0.50000000  1.0 0.517757769
C  C1  1  0.31000000  0.90500000  0.66510000  1.0 0.6831862286
C  C2  1  0.19000000  0.40500000  0.33490000  1.0 0.6831862286
C  C3  1  0.69000000  0.09500000  0.33490000  1.0 0.6831862286
C  C4  1  0.81000000  0.59500000  0.66510000  1.0 0.6831862286
C  C5  1  0.31990000  0.93400000  0.61050000  1.0 -0.1118492677
C  C6  1  0.18010000  0.43400000  0.38950000  1.0 -0.1118492677
C  C7  1  0.68010000  0.06600000  0.38950000  1.0 -0.1118492677
C  C8  1  0.81990000  0.56600000  0.61050000  1.0 -0.1118492677
C  C9  1  0.39500000  0.95500000  0.59420000  1.0 0.1504835902
C  C10  1  0.10500000  0.45500000  0.40580000  1.0 0.1504835902
C  C11  1  0.60500000  0.04500000  0.40580000  1.0 0.1504835902
C  C12  1  0.89500000  0.54500000  0.59420000  1.0 0.1504835902
C  C13  1  0.32620000  0.98100000  0.50900000  1.0 0.17033806
C  C14  1  0.17380000  0.48100000  0.49100000  1.0 0.17033806
C  C15  1  0.67380000  0.01900000  0.49100000  1.0 0.17033806
C  C16  1  0.82620000  0.51900000  0.50900000  1.0 0.17033806
C  C17  1  0.25100000  0.96000000  0.52530000  1.0 -0.1670742042
C  C18  1  0.24900000  0.46000000  0.47470000  1.0 -0.1670742042
C  C19  1  0.74900000  0.04000000  0.47470000  1.0 -0.1670742042
C  C20  1  0.75100000  0.54000000  0.52530000  1.0 -0.1670742042
C  C21  1  0.24780000  0.93700000  0.57600000  1.0 -0.0153981771
C  C22  1  0.25220000  0.43700000  0.42400000  1.0 -0.0153981771
C  C23  1  0.75220000  0.06300000  0.42400000  1.0 -0.0153981771
C  C24  1  0.74780000  0.56300000  0.57600000  1.0 -0.0153981771
C  C25  1  0.36800000  0.14900000  0.32340000  1.0 0.6531266377
C  C26  1  0.13200000  0.64900000  0.67660000  1.0 0.6531266377
C  C27  1  0.63200000  0.85100000  0.67660000  1.0 0.6531266377
C  C28  1  0.86800000  0.35100000  0.32340000  1.0 0.6531266377
C  C29  1  0.33280000  0.03200000  0.46490000  1.0 0.1317010105
C  C30  1  0.16720000  0.53200000  0.53510000  1.0 0.1317010105
C  C31  1  0.66720000  0.96800000  0.53510000  1.0 0.1317010105
C  C32  1  0.83280000  0.46800000  0.46490000  1.0 0.1317010105
C  C33  1  0.26480000  0.06600000  0.43240000  1.0 -0.1233016644
C  C34  1  0.23520000  0.56600000  0.56760000  1.0 -0.1233016644
C  C35  1  0.73520000  0.93400000  0.56760000  1.0 -0.1274219849
C  C36  1  0.76480000  0.43400000  0.43240000  1.0 -0.1233016644
C  C37  1  0.27490000  0.10600000  0.38550000  1.0 0.0993324517
C  C38  1  0.22510000  0.60600000  0.61450000  1.0 0.0993324517
C  C39  1  0.72510000  0.89400000  0.61450000  1.0 0.0993324517
C  C40  1  0.77490000  0.39400000  0.38550000  1.0 0.0993324517
C  C41  1  0.35300000  0.11200000  0.37110000  1.0 -0.1670742042
C  C42  1  0.14700000  0.61200000  0.62890000  1.0 -0.1670742042
C  C43  1  0.64700000  0.88800000  0.62890000  1.0 -0.1670742042
C  C44  1  0.85300000  0.38800000  0.37110000  1.0 -0.1670742042
C  C45  1  0.42100000  0.07800000  0.40350000  1.0 0.0825558176
C  C46  1  0.07900000  0.57800000  0.59650000  1.0 0.0825558176
C  C47  1  0.57900000  0.92200000  0.59650000  1.0 0.0825558176
C  C48  1  0.92100000  0.42200000  0.40350000  1.0 0.0825558176
C  C49  1  0.63700000  0.10300000  0.16570000  1.0 0.6585557416
C  C50  1  0.86300000  0.60300000  0.83430000  1.0 0.6585557416
C  C51  1  0.36300000  0.89700000  0.83430000  1.0 0.6585557416
C  C52  1  0.13700000  0.39700000  0.16570000  1.0 0.6585557416
C  C53  1  0.64980000  0.06500000  0.11410000  1.0 -0.1274219849
C  C54  1  0.85020000  0.56500000  0.88590000  1.0 -0.1233016644
C  C55  1  0.35020000  0.93500000  0.88590000  1.0 -0.1274219849
C  C56  1  0.14980000  0.43500000  0.11410000  1.0 -0.1233016644
C  C57  1  0.71280000  0.00100000  0.10670000  1.0 0.2402817898
C  C58  1  0.78720000  0.50100000  0.89330000  1.0 0.2402817898
C  C59  1  0.28720000  0.99900000  0.89330000  1.0 0.2402817898
C  C60  1  0.21280000  0.49900000  0.10670000  1.0 0.2402817898
C  C61  1  0.66380000  0.99800000  0.01680000  1.0 0.1504835902
C  C62  1  0.83620000  0.49800000  0.98320000  1.0 0.1504835902
C  C63  1  0.33620000  0.00200000  0.98320000  1.0 0.1504835902
C  C64  1  0.16380000  0.50200000  0.01680000  1.0 0.1504835902
C  C65  1  0.60080000  0.06200000  0.02420000  1.0 -0.1118492677
C  C66  1  0.89920000  0.56200000  0.97580000  1.0 -0.1118492677
C  C67  1  0.39920000  0.93800000  0.97580000  1.0 -0.1118492677
C  C68  1  0.10080000  0.43800000  0.02420000  1.0 -0.1233016644
C  C69  1  0.59380000  0.09600000  0.07290000  1.0 0.0418056401
C  C70  1  0.90620000  0.59600000  0.92710000  1.0 0.0418056401
C  C71  1  0.40620000  0.90400000  0.92710000  1.0 0.0418056401
C  C72  1  0.09380000  0.40400000  0.07290000  1.0 0.0418056401
C  C73  1  0.67100000  0.79400000  0.83230000  1.0 0.6199129776
C  C74  1  0.82900000  0.29400000  0.16770000  1.0 0.6199129776
C  C75  1  0.32900000  0.20600000  0.16770000  1.0 0.6199129776
C  C76  1  0.17100000  0.70600000  0.83230000  1.0 0.6199129776
C  C77  1  0.66666667  0.95500000  0.96830000  1.0 0.1504835902
C  C78  1  0.83333000  0.45500000  0.03170000  1.0 0.1504835902
C  C79  1  0.33333333  0.04500000  0.03170000  1.0 0.1504835902
C  C80  1  0.16667000  0.54500000  0.96830000  1.0 0.1504835902
C  C81  1  0.73390000  0.84600000  0.91590000  1.0 0.0740435054
C  C82  1  0.76610000  0.34600000  0.08410000  1.0 0.0825558176
C  C83  1  0.26610000  0.15400000  0.08410000  1.0 0.0740435054
C  C84  1  0.23390000  0.65400000  0.91590000  1.0 0.0740435054
C  C85  1  0.66730000  0.85300000  0.87750000  1.0 -0.1274219849
C  C86  1  0.83270000  0.35300000  0.12250000  1.0 -0.1274219849
C  C87  1  0.33270000  0.14700000  0.12250000  1.0 -0.1274219849
C  C88  1  0.16730000  0.64700000  0.87750000  1.0 -0.1274219849
C  C89  1  0.60040000  0.91200000  0.88450000  1.0 0.0851176486
C  C90  1  0.89960000  0.41200000  0.11550000  1.0 0.0851176486
C  C91  1  0.39960000  0.08800000  0.11550000  1.0 0.0825558176
C  C92  1  0.10040000  0.58800000  0.88450000  1.0 0.0825558176
C  C93  1  0.60010000  0.96300000  0.92990000  1.0 -0.0941142391
C  C94  1  0.89990000  0.46300000  0.07010000  1.0 -0.0941142391
C  C95  1  0.39990000  0.03700000  0.07010000  1.0 -0.0941142391
C  C96  1  0.10010000  0.53700000  0.92990000  1.0 -0.0941142391
C  C97  1  0.46100000  0.38400000  0.17330000  1.0 0.6707612828
C  C98  1  0.03900000  0.88400000  0.82670000  1.0 0.6707612828
C  C99  1  0.53900000  0.61600000  0.82670000  1.0 0.6707612828
C  C100  1  0.96100000  0.11600000  0.17330000  1.0 0.6707612828
C  C101  1  0.47820000  0.42200000  0.12350000  1.0 -0.1432483985
C  C102  1  0.02180000  0.92200000  0.87650000  1.0 -0.1432483985
C  C103  1  0.52180000  0.57800000  0.87650000  1.0 -0.1432483985
C  C104  1  0.97820000  0.07800000  0.12350000  1.0 -0.1432483985
C  C105  1  0.42150000  0.48600000  0.09750000  1.0 0.0993324517
C  C106  1  0.07850000  0.98600000  0.90250000  1.0 0.0993324517
C  C107  1  0.57850000  0.51400000  0.90250000  1.0 0.0993324517
C  C108  1  0.92150000  0.01400000  0.09750000  1.0 0.1110550196
C  C109  1  0.43030000  0.51600000  0.04850000  1.0 -0.2401498135
C  C110  1  0.06970000  0.01600000  0.95150000  1.0 -0.2401498135
C  C111  1  0.56970000  0.48400000  0.95150000  1.0 -0.2401498135
C  C112  1  0.93030000  0.98400000  0.04850000  1.0 -0.2401498135
C  C113  1  0.49590000  0.48200000  0.02550000  1.0 0.2067635164
C  C114  1  0.00410000  0.98200000  0.97450000  1.0 0.2037329779
C  C115  1  0.50410000  0.51800000  0.97450000  1.0 0.2037329779
C  C116  1  0.99590000  0.01800000  0.02550000  1.0 0.2067635164
C  C117  1  0.54370000  0.38700000  0.10040000  1.0 0.1110550196
C  C118  1  0.95630000  0.88700000  0.89960000  1.0 0.1110550196
C  C119  1  0.45630000  0.61300000  0.89960000  1.0 0.1110550196
C  C120  1  0.04370000  0.11300000  0.10040000  1.0 0.1110550196
C  C121  1  0.50700000  0.33900000  0.33230000  1.0 0.6351197914
C  C122  1  0.99300000  0.83900000  0.66770000  1.0 0.6343601302
C  C123  1  0.49300000  0.66100000  0.66770000  1.0 0.6351197914
C  C124  1  0.00700000  0.16100000  0.33230000  1.0 0.6351197914
C  C125  1  0.49930000  0.39200000  0.38190000  1.0 -0.0750370144
C  C126  1  0.00070000  0.89200000  0.61810000  1.0 -0.0750370144
C  C127  1  0.50070000  0.60800000  0.61810000  1.0 -0.0750370144
C  C128  1  0.99930000  0.10800000  0.38190000  1.0 -0.0739608451
C  C129  1  0.44010000  0.46200000  0.38830000  1.0 0.0482919442
C  C130  1  0.05990000  0.96200000  0.61170000  1.0 0.0482919442
C  C131  1  0.55990000  0.53800000  0.61170000  1.0 0.0482919442
C  C132  1  0.94010000  0.03800000  0.38830000  1.0 0.0482919442
C  C133  1  0.44050000  0.50700000  0.43530000  1.0 -0.1458351246
C  C134  1  0.05950000  0.00700000  0.56470000  1.0 -0.1458351246
C  C135  1  0.55950000  0.49300000  0.56470000  1.0 -0.1458351246
C  C136  1  0.94050000  0.99300000  0.43530000  1.0 -0.1458351246
C  C137  1  0.50000000  0.48300000  0.47580000  1.0 0.1110550196
C  C138  1  0.00000000  0.98300000  0.52420000  1.0 0.1110550196
C  C139  1  0.50000000  0.51700000  0.52420000  1.0 0.1110550196
C  C140  1  0.00000000  0.01700000  0.47580000  1.0 0.1110550196
C  C141  1  0.55870000  0.36700000  0.42250000  1.0 0.0339099273
C  C142  1  0.94130000  0.86700000  0.57750000  1.0 0.0339099273
C  C143  1  0.44130000  0.63300000  0.57750000  1.0 0.0339099273
C  C144  1  0.05870000  0.13300000  0.42250000  1.0 0.0339099273
N  N1  1  0.39820000  0.97800000  0.54350000  1.0 -0.3071739718
N  N2  1  0.10180000  0.47800000  0.45650000  1.0 -0.3071739718
N  N3  1  0.60180000  0.02200000  0.45650000  1.0 -0.3071739718
N  N4  1  0.89820000  0.52200000  0.54350000  1.0 -0.3071739718
N  N5  1  0.41090000  0.03800000  0.45040000  1.0 -0.2401498135
N  N6  1  0.08910000  0.53800000  0.54960000  1.0 -0.2401498135
N  N7  1  0.58910000  0.96200000  0.54960000  1.0 -0.2401498135
N  N8  1  0.91090000  0.46200000  0.45040000  1.0 -0.2401498135
N  N9  1  0.71990000  0.96700000  0.05810000  1.0 -0.2914510711
N  N10  1  0.78010000  0.46700000  0.94190000  1.0 -0.2914510711
N  N11  1  0.28010000  0.03300000  0.94190000  1.0 -0.2914510711
N  N12  1  0.21990000  0.53300000  0.05810000  1.0 -0.2832577869
N  N13  1  0.73360000  0.89600000  0.96130000  1.0 -0.1798013642
N  N14  1  0.76640000  0.39600000  0.03870000  1.0 -0.1798013642
N  N15  1  0.26640000  0.10400000  0.03870000  1.0 -0.1798013642
N  N16  1  0.23360000  0.60400000  0.96130000  1.0 -0.1798013642
N  N17  1  0.55260000  0.41700000  0.05140000  1.0 -0.3601414829
N  N18  1  0.94740000  0.91700000  0.94860000  1.0 -0.3601414829
N  N19  1  0.44740000  0.58300000  0.94860000  1.0 -0.3601414829
N  N20  1  0.05260000  0.08300000  0.05140000  1.0 -0.3601414829
N  N21  1  0.55910000  0.41200000  0.46950000  1.0 -0.1926937446
N  N22  1  0.94090000  0.91200000  0.53050000  1.0 -0.1926937446
N  N23  1  0.44090000  0.58800000  0.53050000  1.0 -0.1926937446
N  N24  1  0.05910000  0.08800000  0.46950000  1.0 -0.1926937446
O  O1  1  0.66700000  0.26100000  0.24930000  1.0 -0.2336605683
O  O2  1  0.83300000  0.76100000  0.75070000  1.0 -0.2336605683
O  O3  1  0.33300000  0.73900000  0.75070000  1.0 -0.2336605683
O  O4  1  0.16700000  0.23900000  0.24930000  1.0 -0.2336605683
O  O5  1  0.57550000  0.14300000  0.17470000  1.0 -0.5699375465
O  O6  1  0.92450000  0.64300000  0.82530000  1.0 -0.5699375465
O  O7  1  0.42450000  0.85700000  0.82530000  1.0 -0.5699375465
O  O8  1  0.07550000  0.35700000  0.17470000  1.0 -0.5699375465
O  O9  1  0.73140000  0.75600000  0.82680000  1.0 -0.4420774847
O  O10  1  0.76860000  0.25600000  0.17320000  1.0 -0.4420774847
O  O11  1  0.26860000  0.24400000  0.17320000  1.0 -0.4420774847
O  O12  1  0.23140000  0.74400000  0.82680000  1.0 -0.4420774847
O  O13  1  0.51840000  0.33900000  0.19800000  1.0 -0.55734611
O  O14  1  0.98160000  0.83900000  0.80200000  1.0 -0.55734611
O  O15  1  0.48160000  0.66100000  0.80200000  1.0 -0.55734611
O  O16  1  0.01840000  0.16100000  0.19800000  1.0 -0.55734611
O  O17  1  0.69760000  0.08000000  0.20130000  1.0 -0.7213156119
O  O18  1  0.80240000  0.58000000  0.79870000  1.0 -0.7213156119
O  O19  1  0.30240000  0.92000000  0.79870000  1.0 -0.7213156119
O  O20  1  0.19760000  0.42000000  0.20130000  1.0 -0.7213156119
O  O21  1  0.39130000  0.41200000  0.18670000  1.0 -0.6970561191
O  O22  1  0.10870000  0.91200000  0.81330000  1.0 -0.6970561191
O  O23  1  0.60870000  0.58800000  0.81330000  1.0 -0.6970561191
O  O24  1  0.89130000  0.08800000  0.18670000  1.0 -0.6970561191
O  O25  1  0.24250000  0.89300000  0.67940000  1.0 -0.6236072674
O  O26  1  0.25750000  0.39300000  0.32060000  1.0 -0.6236072674
O  O27  1  0.75750000  0.10700000  0.32060000  1.0 -0.6236072674
O  O28  1  0.74250000  0.60700000  0.67940000  1.0 -0.6236072674
O  O29  1  0.31140000  0.19900000  0.29790000  1.0 -0.5855881616
O  O30  1  0.18860000  0.69900000  0.70210000  1.0 -0.583598797
O  O31  1  0.68860000  0.80100000  0.70210000  1.0 -0.583598797
O  O32  1  0.81140000  0.30100000  0.29790000  1.0 -0.583598797
O  O33  1  0.44230000  0.34300000  0.29600000  1.0 -0.8033558473
O  O34  1  0.05770000  0.84300000  0.70400000  1.0 -0.8033558473
O  O35  1  0.55770000  0.65700000  0.70400000  1.0 -0.8033558473
O  O36  1  0.94230000  0.15700000  0.29600000  1.0 -0.8033558473
O  O37  1  0.56620000  0.29600000  0.32500000  1.0 -0.4843990996
O  O38  1  0.93380000  0.79600000  0.67500000  1.0 -0.4843990996
O  O39  1  0.43380000  0.70400000  0.67500000  1.0 -0.4843990996
O  O40  1  0.06620000  0.20400000  0.32500000  1.0 -0.4843990996
O  O41  1  0.60770000  0.79800000  0.79640000  1.0 -0.7661661252
O  O42  1  0.89230000  0.29800000  0.20360000  1.0 -0.7661661252
O  O43  1  0.39230000  0.20200000  0.20360000  1.0 -0.7661661252
O  O44  1  0.10770000  0.70200000  0.79640000  1.0 -0.7661661252
O  O45  1  0.43920000  0.14000000  0.31110000  1.0 -0.6586724564
O  O46  1  0.06080000  0.64000000  0.68890000  1.0 -0.6586724564
O  O47  1  0.56080000  0.86000000  0.68890000  1.0 -0.6586724564
O  O48  1  0.93920000  0.36000000  0.31110000  1.0 -0.6586724564
O  O49  1  0.37970000  0.89900000  0.69460000  1.0 -0.6858922884
O  O50  1  0.12030000  0.39900000  0.30540000  1.0 -0.6858922884
O  O51  1  0.62030000  0.10100000  0.30540000  1.0 -0.6858922884
O  O52  1  0.87970000  0.60100000  0.69460000  1.0 -0.6858922884
