# DDEC6 charges by PACMAN v1.1 (https://github.com/mtap-research/PACMAN-charge/)
data_LUZBOY_ASR_pacman
_symmetry_space_group_name_H-M   'P 1'
_cell_length_a   11.36530000
_cell_length_b   11.36530000
_cell_length_c   7.48636000
_cell_angle_alpha   90.00000000
_cell_angle_beta   90.00000000
_cell_angle_gamma   101.17500000
_symmetry_Int_Tables_number   1
_chemical_formula_structural   MnC13N8
_chemical_formula_sum   'Mn2 C26 N16'
_cell_volume   948.67869511
_cell_formula_units_Z   2
loop_
 _symmetry_equiv_pos_site_id
 _symmetry_equiv_pos_as_xyz
  1  'x, y, z'
loop_
 _atom_site_type_symbol
 _atom_site_label
 _atom_site_symmetry_multiplicity
 _atom_site_fract_x
 _atom_site_fract_y
 _atom_site_fract_z
 _atom_site_occupancy
 _atom_site_charge
Mn  Mn1  1  0.50000000  0.00000000  0.50000000  1.0 0.9481118541
Mn  Mn2  1  0.00000000  0.50000000  0.50000000  1.0 0.9440359096
C  C1  1  0.27679000  0.82575000  0.00000000  1.0 -0.0578484865
C  C2  1  0.72321000  0.17425000  0.00000000  1.0 -0.0578484865
C  C3  1  0.82575000  0.27679000  0.00000000  1.0 -0.0578484865
C  C4  1  0.17425000  0.72321000  0.00000000  1.0 -0.0578484865
C  C5  1  0.32809000  0.87869000  0.16840000  1.0 0.3080265145
C  C6  1  0.67191000  0.12131000  0.16840000  1.0 0.3080265145
C  C7  1  0.87869000  0.32809000  0.83160000  1.0 0.3080265145
C  C8  1  0.12131000  0.67191000  0.83160000  1.0 0.3080265145
C  C9  1  0.67191000  0.12131000  0.83160000  1.0 0.3080265145
C  C10  1  0.32809000  0.87869000  0.83160000  1.0 0.3080265145
C  C11  1  0.12131000  0.67191000  0.16840000  1.0 0.3080265145
C  C12  1  0.87869000  0.32809000  0.16840000  1.0 0.3080265145
C  C13  1  0.47600000  0.47600000  0.43320000  1.0 0.0139788199
C  C14  1  0.52400000  0.52400000  0.43320000  1.0 0.0229604315
C  C15  1  0.47600000  0.47600000  0.56680000  1.0 0.0139788199
C  C16  1  0.52400000  0.52400000  0.56680000  1.0 0.0229604315
C  C17  1  0.36280000  0.36280000  0.50000000  1.0 -0.1214828831
C  C18  1  0.63720000  0.63720000  0.50000000  1.0 -0.1214828831
C  C19  1  0.38985000  0.24705000  0.50000000  1.0 0.2648099284
C  C20  1  0.61015000  0.75295000  0.50000000  1.0 0.2648099284
C  C21  1  0.24705000  0.38985000  0.50000000  1.0 0.2648099284
C  C22  1  0.75295000  0.61015000  0.50000000  1.0 0.2648099284
C  C23  1  0.56973000  0.43027000  0.30610000  1.0 0.1525293212
C  C24  1  0.43027000  0.56973000  0.30610000  1.0 0.1525293212
C  C25  1  0.43027000  0.56973000  0.69390000  1.0 0.1525293212
C  C26  1  0.56973000  0.43027000  0.69390000  1.0 0.1525293212
N  N1  1  0.37357000  0.91511000  0.28600000  1.0 -0.4003097891
N  N2  1  0.62643000  0.08489000  0.28600000  1.0 -0.4003097891
N  N3  1  0.91511000  0.37357000  0.71400000  1.0 -0.4003097891
N  N4  1  0.08489000  0.62643000  0.71400000  1.0 -0.4051146884
N  N5  1  0.62643000  0.08489000  0.71400000  1.0 -0.4003097891
N  N6  1  0.37357000  0.91511000  0.71400000  1.0 -0.4003097891
N  N7  1  0.08489000  0.62643000  0.28600000  1.0 -0.4051146884
N  N8  1  0.91511000  0.37357000  0.28600000  1.0 -0.4003097891
N  N9  1  0.41215000  0.15717000  0.50000000  1.0 -0.371660464
N  N10  1  0.58785000  0.84283000  0.50000000  1.0 -0.371660464
N  N11  1  0.15717000  0.41215000  0.50000000  1.0 -0.371660464
N  N12  1  0.84283000  0.58785000  0.50000000  1.0 -0.371660464
N  N13  1  0.62744000  0.37256000  0.20520000  1.0 -0.2316264253
N  N14  1  0.37256000  0.62744000  0.20520000  1.0 -0.2316264253
N  N15  1  0.37256000  0.62744000  0.79480000  1.0 -0.2316264253
N  N16  1  0.62744000  0.37256000  0.79480000  1.0 -0.2316264253
