# DDEC6 charges by PACMAN v1.1 (https://github.com/mtap-research/PACMAN-charge/)
data_MAFMOY02_FSR_pacman
_symmetry_space_group_name_H-M   'P 1'
_cell_length_a   8.09160000
_cell_length_b   19.63840000
_cell_length_c   8.82880000
_cell_angle_alpha   90.00000000
_cell_angle_beta   115.06300000
_cell_angle_gamma   90.00000000
_symmetry_Int_Tables_number   1
_chemical_formula_structural   Zn3H16C24(N3O4)2
_chemical_formula_sum   'Zn6 H32 C48 N12 O16'
_cell_volume   1270.85177891
_cell_formula_units_Z   2
loop_
 _symmetry_equiv_pos_site_id
 _symmetry_equiv_pos_as_xyz
  1  'x, y, z'
loop_
 _atom_site_type_symbol
 _atom_site_label
 _atom_site_symmetry_multiplicity
 _atom_site_fract_x
 _atom_site_fract_y
 _atom_site_fract_z
 _atom_site_occupancy
 _atom_site_charge
Zn  Zn1  1  0.46194000  0.52108000  0.78133000  1.0 0.6969408371
Zn  Zn2  1  0.03806000  0.02108000  0.21867000  1.0 0.6969408371
Zn  Zn3  1  0.53806000  0.47892000  0.21867000  1.0 0.6969408371
Zn  Zn4  1  0.96194000  0.97892000  0.78133000  1.0 0.6969408371
Zn  Zn5  1  0.00000000  0.50000000  0.50000000  1.0 0.822377769
Zn  Zn6  1  0.50000000  0.00000000  0.50000000  1.0 0.822377769
H  H1  1  0.99420000  0.69527000  0.35299000  1.0 0.1149580159
H  H2  1  0.94600000  0.80946000  0.28605000  1.0 0.1217985852
H  H3  1  0.40036000  0.85503000  0.69153000  1.0 0.1217985852
H  H4  1  0.45400000  0.74042000  0.75470000  1.0 0.1217985852
H  H5  1  0.88412000  0.44606000  0.80196000  1.0 0.0896607653
H  H6  1  0.10743000  0.43910000  0.09307000  1.0 0.0798658111
H  H7  1  0.93886000  0.39964000  0.77340000  1.0 0.0798658111
H  H8  1  0.17393000  0.38377000  0.06806000  1.0 0.0896607653
H  H9  1  0.50580000  0.19527000  0.64701000  1.0 0.1149580159
H  H10  1  0.55400000  0.30946000  0.71395000  1.0 0.1217985852
H  H11  1  0.09964000  0.35503000  0.30847000  1.0 0.1217985852
H  H12  1  0.04600000  0.24042000  0.24530000  1.0 0.1217985852
H  H13  1  0.61588000  0.94606000  0.19804000  1.0 0.0896607653
H  H14  1  0.39257000  0.93910000  0.90693000  1.0 0.0798658111
H  H15  1  0.56114000  0.89964000  0.22660000  1.0 0.0798658111
H  H16  1  0.32607000  0.88377000  0.93194000  1.0 0.0896607653
H  H17  1  0.00580000  0.30473000  0.64701000  1.0 0.1149580159
H  H18  1  0.05400000  0.19054000  0.71395000  1.0 0.1217985852
H  H19  1  0.59964000  0.14497000  0.30847000  1.0 0.1217985852
H  H20  1  0.54600000  0.25958000  0.24530000  1.0 0.1217985852
H  H21  1  0.11588000  0.55394000  0.19804000  1.0 0.0896607653
H  H22  1  0.89257000  0.56090000  0.90693000  1.0 0.0798658111
H  H23  1  0.06114000  0.60036000  0.22660000  1.0 0.0798658111
H  H24  1  0.82607000  0.61623000  0.93194000  1.0 0.0896607653
H  H25  1  0.49420000  0.80473000  0.35299000  1.0 0.1149580159
H  H26  1  0.44600000  0.69054000  0.28605000  1.0 0.1217985852
H  H27  1  0.90036000  0.64497000  0.69153000  1.0 0.1217985852
H  H28  1  0.95400000  0.75958000  0.75470000  1.0 0.1217985852
H  H29  1  0.38412000  0.05394000  0.80196000  1.0 0.0896607653
H  H30  1  0.60743000  0.06090000  0.09307000  1.0 0.0798658111
H  H31  1  0.43886000  0.10036000  0.77340000  1.0 0.0798658111
H  H32  1  0.67393000  0.11623000  0.06806000  1.0 0.0896607653
C  C1  1  0.25610000  0.63195000  0.60110000  1.0 0.5805019566
C  C2  1  0.22850000  0.70616000  0.55930000  1.0 -0.0242233968
C  C3  1  0.07730000  0.72730000  0.42060000  1.0 -0.1091616132
C  C4  1  0.04760000  0.79580000  0.38080000  1.0 -0.1091616132
C  C5  1  0.16920000  0.84400000  0.48220000  1.0 -0.0031620816
C  C6  1  0.31930000  0.82280000  0.62220000  1.0 -0.1152734331
C  C7  1  0.35120000  0.75410000  0.66110000  1.0 -0.1091616132
C  C8  1  0.14360000  0.91780000  0.43360000  1.0 0.5702751853
C  C9  1  0.00830000  0.45520000  0.84340000  1.0 0.0014949577
C  C10  1  0.13250000  0.45070000  0.00280000  1.0 -0.0254050487
C  C11  1  0.04580000  0.42460000  0.82600000  1.0 0.0299984679
C  C12  1  0.17430000  0.41590000  0.99070000  1.0 0.0014949577
C  C13  1  0.24390000  0.13195000  0.39890000  1.0 0.5805019566
C  C14  1  0.27150000  0.20616000  0.44070000  1.0 -0.0242233968
C  C15  1  0.42270000  0.22730000  0.57940000  1.0 -0.1091616132
C  C16  1  0.45240000  0.29580000  0.61920000  1.0 -0.1091616132
C  C17  1  0.33080000  0.34400000  0.51780000  1.0 -0.0031620816
C  C18  1  0.18070000  0.32280000  0.37780000  1.0 -0.1152734331
C  C19  1  0.14880000  0.25410000  0.33890000  1.0 -0.1091616132
C  C20  1  0.35640000  0.41780000  0.56640000  1.0 0.5702751853
C  C21  1  0.49170000  0.95520000  0.15660000  1.0 0.0014949577
C  C22  1  0.36750000  0.95070000  0.99720000  1.0 -0.0254050487
C  C23  1  0.45420000  0.92460000  0.17400000  1.0 0.0299984679
C  C24  1  0.32570000  0.91590000  0.00930000  1.0 0.0014949577
C  C25  1  0.74390000  0.36805000  0.39890000  1.0 0.5805019566
C  C26  1  0.77150000  0.29384000  0.44070000  1.0 -0.0242233968
C  C27  1  0.92270000  0.27270000  0.57940000  1.0 -0.1091616132
C  C28  1  0.95240000  0.20420000  0.61920000  1.0 -0.1091616132
C  C29  1  0.83080000  0.15600000  0.51780000  1.0 -0.0031620816
C  C30  1  0.68070000  0.17720000  0.37780000  1.0 -0.1152734331
C  C31  1  0.64880000  0.24590000  0.33890000  1.0 -0.1091616132
C  C32  1  0.85640000  0.08220000  0.56640000  1.0 0.5702751853
C  C33  1  0.99170000  0.54480000  0.15660000  1.0 0.0014949577
C  C34  1  0.86750000  0.54930000  0.99720000  1.0 -0.0254050487
C  C35  1  0.95420000  0.57540000  0.17400000  1.0 0.0299984679
C  C36  1  0.82570000  0.58410000  0.00930000  1.0 0.0014949577
C  C37  1  0.75610000  0.86805000  0.60110000  1.0 0.5805019566
C  C38  1  0.72850000  0.79384000  0.55930000  1.0 -0.0242233968
C  C39  1  0.57730000  0.77270000  0.42060000  1.0 -0.1091616132
C  C40  1  0.54760000  0.70420000  0.38080000  1.0 -0.1091616132
C  C41  1  0.66920000  0.65600000  0.48220000  1.0 -0.0031620816
C  C42  1  0.81930000  0.67720000  0.62220000  1.0 -0.1152734331
C  C43  1  0.85120000  0.74590000  0.66110000  1.0 -0.1091616132
C  C44  1  0.64360000  0.58220000  0.43360000  1.0 0.5702751853
C  C45  1  0.50830000  0.04480000  0.84340000  1.0 0.0014949577
C  C46  1  0.63250000  0.04930000  0.00280000  1.0 -0.0254050487
C  C47  1  0.54580000  0.07540000  0.82600000  1.0 0.0299984679
C  C48  1  0.67430000  0.08410000  0.99070000  1.0 0.0014949577
N  N1  1  0.10250000  0.47600000  0.75440000  1.0 -0.1549013577
N  N2  1  0.27220000  0.49047000  0.86250000  1.0 -0.1549013577
N  N3  1  0.30270000  0.46610000  0.01230000  1.0 -0.1671510062
N  N4  1  0.39750000  0.97600000  0.24560000  1.0 -0.1555937103
N  N5  1  0.22780000  0.99047000  0.13750000  1.0 -0.1555937103
N  N6  1  0.19730000  0.96610000  0.98770000  1.0 -0.1671510062
N  N7  1  0.89750000  0.52400000  0.24560000  1.0 -0.1549013577
N  N8  1  0.72780000  0.50953000  0.13750000  1.0 -0.1555937103
N  N9  1  0.69730000  0.53390000  0.98770000  1.0 -0.1671510062
N  N10  1  0.60250000  0.02400000  0.75440000  1.0 -0.1549013577
N  N11  1  0.77220000  0.00953000  0.86250000  1.0 -0.1549013577
N  N12  1  0.80270000  0.03390000  0.01230000  1.0 -0.1671510062
O  O1  1  0.11970000  0.59477000  0.54100000  1.0 -0.5368499181
O  O2  1  0.41660000  0.61234000  0.69570000  1.0 -0.5242549799
O  O3  1  0.00040000  0.93516000  0.30910000  1.0 -0.5275166354
O  O4  1  0.26560000  0.95946000  0.51870000  1.0 -0.549658852
O  O5  1  0.38030000  0.09477000  0.45900000  1.0 -0.5368499181
O  O6  1  0.08340000  0.11234000  0.30430000  1.0 -0.5242549799
O  O7  1  0.49960000  0.43516000  0.69090000  1.0 -0.5275166354
O  O8  1  0.23440000  0.45946000  0.48130000  1.0 -0.549658852
O  O9  1  0.88030000  0.40523000  0.45900000  1.0 -0.5368499181
O  O10  1  0.58340000  0.38766000  0.30430000  1.0 -0.5242549799
O  O11  1  0.99960000  0.06484000  0.69090000  1.0 -0.5275166354
O  O12  1  0.73440000  0.04054000  0.48130000  1.0 -0.549658852
O  O13  1  0.61970000  0.90523000  0.54100000  1.0 -0.5368499181
O  O14  1  0.91660000  0.88766000  0.69570000  1.0 -0.5242549799
O  O15  1  0.50040000  0.56484000  0.30910000  1.0 -0.5275166354
O  O16  1  0.76560000  0.54054000  0.51870000  1.0 -0.549658852
