# DDEC6 charges by PACMAN v1.1 (https://github.com/mtap-research/PACMAN-charge/)
data_MAJHOW_ASR_pacman
_symmetry_space_group_name_H-M   'P 1'
_cell_length_a   18.00300000
_cell_length_b   12.61000000
_cell_length_c   22.93020000
_cell_angle_alpha   90.00000000
_cell_angle_beta   125.14300000
_cell_angle_gamma   90.00000000
_symmetry_Int_Tables_number   1
_chemical_formula_structural   Cu3H30C36(NO2)4
_chemical_formula_sum   'Cu12 H120 C144 N16 O32'
_cell_volume   4256.68332579
_cell_formula_units_Z   4
loop_
 _symmetry_equiv_pos_site_id
 _symmetry_equiv_pos_as_xyz
  1  'x, y, z'
loop_
 _atom_site_type_symbol
 _atom_site_label
 _atom_site_symmetry_multiplicity
 _atom_site_fract_x
 _atom_site_fract_y
 _atom_site_fract_z
 _atom_site_occupancy
 _atom_site_charge
Cu  Cu1  1  0.26198000  0.25720000  0.01047000  1.0 0.6789676742
Cu  Cu2  1  0.73802000  0.75720000  0.48953000  1.0 0.6789676742
Cu  Cu3  1  0.73802000  0.74280000  0.98953000  1.0 0.6789676742
Cu  Cu4  1  0.26198000  0.24280000  0.51047000  1.0 0.6789676742
Cu  Cu5  1  0.27807000  0.74210000  0.03527000  1.0 0.4833501922
Cu  Cu6  1  0.72193000  0.24210000  0.46473000  1.0 0.4833501922
Cu  Cu7  1  0.72193000  0.25790000  0.96473000  1.0 0.4833501922
Cu  Cu8  1  0.27807000  0.75790000  0.53527000  1.0 0.4833501922
Cu  Cu9  1  0.74100000  0.24500000  0.98800000  1.0 0.4833501922
Cu  Cu10  1  0.25900000  0.74500000  0.51200000  1.0 0.4833501922
Cu  Cu11  1  0.25900000  0.75500000  0.01200000  1.0 0.4833501922
Cu  Cu12  1  0.74100000  0.25500000  0.48800000  1.0 0.4833501922
H  H1  1  0.37300000  0.96150000  0.58720000  1.0 0.1020305341
H  H2  1  0.62700000  0.46150000  0.91280000  1.0 0.1020305341
H  H3  1  0.62700000  0.03850000  0.41280000  1.0 0.1020305341
H  H4  1  0.37300000  0.53850000  0.08720000  1.0 0.1020305341
H  H5  1  0.42160000  0.09860000  0.55250000  1.0 0.1400778061
H  H6  1  0.57840000  0.59860000  0.94750000  1.0 0.1400778061
H  H7  1  0.57840000  0.90140000  0.44750000  1.0 0.1400778061
H  H8  1  0.42160000  0.40140000  0.05250000  1.0 0.1400778061
H  H9  1  0.33570000  0.93370000  0.37390000  1.0 0.1400778061
H  H10  1  0.66430000  0.43370000  0.12610000  1.0 0.1400778061
H  H11  1  0.66430000  0.06630000  0.62610000  1.0 0.1400778061
H  H12  1  0.33570000  0.56630000  0.87390000  1.0 0.1400778061
H  H13  1  0.29610000  0.80090000  0.41840000  1.0 0.1020305341
H  H14  1  0.70390000  0.30090000  0.08160000  1.0 0.1020305341
H  H15  1  0.70390000  0.19910000  0.58160000  1.0 0.1020305341
H  H16  1  0.29610000  0.69910000  0.91840000  1.0 0.1020305341
H  H17  1  0.38720000  0.19130000  0.43750000  1.0 0.1106678617
H  H18  1  0.61280000  0.69130000  0.06250000  1.0 0.1106678617
H  H19  1  0.61280000  0.80870000  0.56250000  1.0 0.1106678617
H  H20  1  0.38720000  0.30870000  0.93750000  1.0 0.1106678617
H  H21  1  0.47720000  0.13200000  0.46240000  1.0 0.1106678617
H  H22  1  0.52280000  0.63200000  0.03760000  1.0 0.1106678617
H  H23  1  0.52280000  0.86800000  0.53760000  1.0 0.1106678617
H  H24  1  0.47720000  0.36800000  0.96240000  1.0 0.1106678617
H  H25  1  0.40840000  0.05930000  0.34890000  1.0 0.0836371714
H  H26  1  0.59160000  0.55930000  0.15110000  1.0 0.0836371714
H  H27  1  0.59160000  0.94070000  0.65110000  1.0 0.0836371714
H  H28  1  0.40840000  0.44070000  0.84890000  1.0 0.0836371714
H  H29  1  0.31660000  0.11560000  0.32360000  1.0 0.091553499
H  H30  1  0.68340000  0.61560000  0.17640000  1.0 0.091553499
H  H31  1  0.68340000  0.88440000  0.67640000  1.0 0.091553499
H  H32  1  0.31660000  0.38440000  0.82360000  1.0 0.091553499
H  H33  1  0.39310000  0.28210000  0.34950000  1.0 0.1106678617
H  H34  1  0.60690000  0.78210000  0.15050000  1.0 0.1180957411
H  H35  1  0.60690000  0.71790000  0.65050000  1.0 0.1106678617
H  H36  1  0.39310000  0.21790000  0.84950000  1.0 0.1106678617
H  H37  1  0.47860000  0.22120000  0.36520000  1.0 0.1180957411
H  H38  1  0.52140000  0.72120000  0.13480000  1.0 0.1180957411
H  H39  1  0.52140000  0.77880000  0.63480000  1.0 0.1180957411
H  H40  1  0.47860000  0.27880000  0.86520000  1.0 0.1180957411
H  H41  1  0.33490000  0.37870000  0.24270000  1.0 0.1400778061
H  H42  1  0.66510000  0.87870000  0.25730000  1.0 0.1400778061
H  H43  1  0.66510000  0.62130000  0.75730000  1.0 0.1400778061
H  H44  1  0.33490000  0.12130000  0.74270000  1.0 0.1400778061
H  H45  1  0.28450000  0.38890000  0.12670000  1.0 0.1106678617
H  H46  1  0.71550000  0.88890000  0.37330000  1.0 0.1106678617
H  H47  1  0.71550000  0.61110000  0.87330000  1.0 0.1106678617
H  H48  1  0.28450000  0.11110000  0.62670000  1.0 0.1106678617
H  H49  1  0.40150000  0.07620000  0.24330000  1.0 0.1400778061
H  H50  1  0.59850000  0.57620000  0.25670000  1.0 0.1400778061
H  H51  1  0.59850000  0.92380000  0.75670000  1.0 0.1400778061
H  H52  1  0.40150000  0.42380000  0.74330000  1.0 0.1400778061
H  H53  1  0.34460000  0.09530000  0.12530000  1.0 0.1106678617
H  H54  1  0.65540000  0.59530000  0.37470000  1.0 0.1106678617
H  H55  1  0.65540000  0.90470000  0.87470000  1.0 0.1106678617
H  H56  1  0.34460000  0.40470000  0.62530000  1.0 0.1106678617
H  H57  1  0.96680000  0.32200000  0.98460000  1.0 0.1180957411
H  H58  1  0.03320000  0.82200000  0.51540000  1.0 0.1180957411
H  H59  1  0.03320000  0.67800000  0.01540000  1.0 0.1180957411
H  H60  1  0.96680000  0.17800000  0.48460000  1.0 0.1180957411
H  H61  1  0.18890000  0.54880000  0.46930000  1.0 0.1020305341
H  H62  1  0.81110000  0.04880000  0.03070000  1.0 0.1020305341
H  H63  1  0.81110000  0.45120000  0.53070000  1.0 0.1020305341
H  H64  1  0.18890000  0.95120000  0.96930000  1.0 0.1020305341
H  H65  1  0.12110000  0.41340000  0.48680000  1.0 0.1400778061
H  H66  1  0.87890000  0.91340000  0.01320000  1.0 0.1400778061
H  H67  1  0.87890000  0.58660000  0.51320000  1.0 0.1400778061
H  H68  1  0.12110000  0.08660000  0.98680000  1.0 0.1400778061
H  H69  1  0.14320000  0.58500000  0.64270000  1.0 0.1400778061
H  H70  1  0.85680000  0.08500000  0.85730000  1.0 0.1400778061
H  H71  1  0.85680000  0.41500000  0.35730000  1.0 0.1400778061
H  H72  1  0.14320000  0.91500000  0.14270000  1.0 0.1400778061
H  H73  1  0.20740000  0.71440000  0.61920000  1.0 0.1106678617
H  H74  1  0.79260000  0.21440000  0.88080000  1.0 0.1106678617
H  H75  1  0.79260000  0.28560000  0.38080000  1.0 0.1106678617
H  H76  1  0.20740000  0.78560000  0.11920000  1.0 0.1106678617
H  H77  1  0.09410000  0.32280000  0.56800000  1.0 0.1180957411
H  H78  1  0.90590000  0.82280000  0.93200000  1.0 0.1180957411
H  H79  1  0.90590000  0.67720000  0.43200000  1.0 0.1180957411
H  H80  1  0.09410000  0.17720000  0.06800000  1.0 0.1180957411
H  H81  1  0.02040000  0.39960000  0.55970000  1.0 0.1180957411
H  H82  1  0.97960000  0.89960000  0.94030000  1.0 0.1180957411
H  H83  1  0.97960000  0.60040000  0.44030000  1.0 0.1180957411
H  H84  1  0.02040000  0.10040000  0.05970000  1.0 0.1180957411
H  H85  1  0.18760000  0.36500000  0.68580000  1.0 0.1020305341
H  H86  1  0.81240000  0.86500000  0.81420000  1.0 0.1020305341
H  H87  1  0.81240000  0.63500000  0.31420000  1.0 0.1020305341
H  H88  1  0.18760000  0.13500000  0.18580000  1.0 0.1020305341
H  H89  1  0.11270000  0.43960000  0.67720000  1.0 0.0836371714
H  H90  1  0.88730000  0.93960000  0.82280000  1.0 0.0836371714
H  H91  1  0.88730000  0.56040000  0.32280000  1.0 0.0836371714
H  H92  1  0.11270000  0.06040000  0.17720000  1.0 0.0836371714
H  H93  1  0.09700000  0.21890000  0.66430000  1.0 0.1180957411
H  H94  1  0.90300000  0.71890000  0.83570000  1.0 0.1180957411
H  H95  1  0.90300000  0.78110000  0.33570000  1.0 0.1180957411
H  H96  1  0.09700000  0.28110000  0.16430000  1.0 0.1180957411
H  H97  1  0.02170000  0.29360000  0.65540000  1.0 0.1308932499
H  H98  1  0.97830000  0.79360000  0.84460000  1.0 0.1308932499
H  H99  1  0.97830000  0.70640000  0.34460000  1.0 0.1308932499
H  H100  1  0.02170000  0.20640000  0.15540000  1.0 0.1308932499
H  H101  1  0.10320000  0.42600000  0.77340000  1.0 0.1308932499
H  H102  1  0.89680000  0.92600000  0.72660000  1.0 0.1308932499
H  H103  1  0.89680000  0.57400000  0.22660000  1.0 0.1308932499
H  H104  1  0.10320000  0.07400000  0.27340000  1.0 0.1308932499
H  H105  1  0.16480000  0.41440000  0.89260000  1.0 0.1106678617
H  H106  1  0.83520000  0.91440000  0.60740000  1.0 0.1106678617
H  H107  1  0.83520000  0.58560000  0.10740000  1.0 0.1106678617
H  H108  1  0.16480000  0.08560000  0.39260000  1.0 0.1106678617
H  H109  1  0.17480000  0.12480000  0.77510000  1.0 0.1308932499
H  H110  1  0.82520000  0.62480000  0.72490000  1.0 0.1308932499
H  H111  1  0.82520000  0.87520000  0.22490000  1.0 0.1308932499
H  H112  1  0.17480000  0.37520000  0.27510000  1.0 0.1308932499
H  H113  1  0.24300000  0.12360000  0.89580000  1.0 0.1020305341
H  H114  1  0.75700000  0.62360000  0.60420000  1.0 0.1020305341
H  H115  1  0.75700000  0.87640000  0.10420000  1.0 0.1020305341
H  H116  1  0.24300000  0.37640000  0.39580000  1.0 0.1020305341
H  H117  1  0.53370000  0.17730000  0.01130000  1.0 0.1180957411
H  H118  1  0.46630000  0.67730000  0.48870000  1.0 0.1180957411
H  H119  1  0.46630000  0.82270000  0.98870000  1.0 0.1180957411
H  H120  1  0.53370000  0.32270000  0.51130000  1.0 0.1180957411
C  C1  1  0.36620000  0.95600000  0.54390000  1.0 0.0648233043
C  C2  1  0.63380000  0.45600000  0.95610000  1.0 0.0648233043
C  C3  1  0.63380000  0.04400000  0.45610000  1.0 0.0683418285
C  C4  1  0.36620000  0.54400000  0.04390000  1.0 0.0683418285
C  C5  1  0.39490000  0.03960000  0.52320000  1.0 -0.2185899917
C  C6  1  0.60510000  0.53960000  0.97680000  1.0 -0.2185899917
C  C7  1  0.60510000  0.96040000  0.47680000  1.0 -0.2185899917
C  C8  1  0.39490000  0.46040000  0.02320000  1.0 -0.2185899917
C  C9  1  0.38340000  0.03520000  0.45720000  1.0 0.1668180832
C  C10  1  0.61660000  0.53520000  0.04280000  1.0 0.1668180832
C  C11  1  0.61660000  0.96480000  0.54280000  1.0 0.1668180832
C  C12  1  0.38340000  0.46480000  0.95720000  1.0 0.1668180832
C  C13  1  0.34480000  0.94190000  0.41790000  1.0 -0.1859225808
C  C14  1  0.65520000  0.44190000  0.08210000  1.0 -0.1859225808
C  C15  1  0.65520000  0.05810000  0.58210000  1.0 -0.1859225808
C  C16  1  0.34480000  0.55810000  0.91790000  1.0 -0.1859225808
C  C17  1  0.32050000  0.86280000  0.44490000  1.0 0.0396894337
C  C18  1  0.67950000  0.36280000  0.05510000  1.0 0.0396894337
C  C19  1  0.67950000  0.13720000  0.55510000  1.0 0.0396894337
C  C20  1  0.32050000  0.63720000  0.94490000  1.0 0.0396894337
C  C21  1  0.41140000  0.12660000  0.43160000  1.0 -0.2686999742
C  C22  1  0.58860000  0.62660000  0.06840000  1.0 -0.2686999742
C  C23  1  0.58860000  0.87340000  0.56840000  1.0 -0.2686999742
C  C24  1  0.41140000  0.37340000  0.93160000  1.0 -0.2686999742
C  C25  1  0.38220000  0.12160000  0.35530000  1.0 -0.158011674
C  C26  1  0.61780000  0.62160000  0.14470000  1.0 -0.158011674
C  C27  1  0.61780000  0.87840000  0.64470000  1.0 -0.158011674
C  C28  1  0.38220000  0.37840000  0.85530000  1.0 -0.158011674
C  C29  1  0.41270000  0.22030000  0.33660000  1.0 -0.2609448834
C  C30  1  0.58730000  0.72030000  0.16340000  1.0 -0.2609448834
C  C31  1  0.58730000  0.77970000  0.66340000  1.0 -0.2609448834
C  C32  1  0.41270000  0.27970000  0.83660000  1.0 -0.2609448834
C  C33  1  0.37660000  0.22920000  0.25770000  1.0 0.1668180832
C  C34  1  0.62340000  0.72920000  0.24230000  1.0 0.1668180832
C  C35  1  0.62340000  0.77080000  0.74230000  1.0 0.1668180832
C  C36  1  0.37660000  0.27080000  0.75770000  1.0 0.1668180832
C  C37  1  0.33940000  0.31970000  0.22060000  1.0 -0.2097658916
C  C38  1  0.66060000  0.81970000  0.27940000  1.0 -0.2097658916
C  C39  1  0.66060000  0.68030000  0.77940000  1.0 -0.2097658916
C  C40  1  0.33940000  0.18030000  0.72060000  1.0 -0.2097658916
C  C41  1  0.30810000  0.32460000  0.15020000  1.0 0.091553499
C  C42  1  0.69190000  0.82460000  0.34980000  1.0 0.091553499
C  C43  1  0.69190000  0.67540000  0.84980000  1.0 0.091553499
C  C44  1  0.30810000  0.17540000  0.65020000  1.0 0.091553499
C  C45  1  0.37800000  0.14100000  0.22050000  1.0 -0.1986619039
C  C46  1  0.62200000  0.64100000  0.27950000  1.0 -0.1986619039
C  C47  1  0.62200000  0.85900000  0.77950000  1.0 -0.1986619039
C  C48  1  0.37800000  0.35900000  0.72050000  1.0 -0.1986619039
C  C49  1  0.34390000  0.15350000  0.14990000  1.0 0.0683418285
C  C50  1  0.65610000  0.65350000  0.35010000  1.0 0.0683418285
C  C51  1  0.65610000  0.84650000  0.85010000  1.0 0.0683418285
C  C52  1  0.34390000  0.34650000  0.64990000  1.0 0.0683418285
C  C53  1  0.10450000  0.35130000  0.97700000  1.0 0.5405388669
C  C54  1  0.89550000  0.85130000  0.52300000  1.0 0.5405388669
C  C55  1  0.89550000  0.64870000  0.02300000  1.0 0.5405388669
C  C56  1  0.10450000  0.14870000  0.47700000  1.0 0.5405388669
C  C57  1  0.04930000  0.43070000  0.98660000  1.0 -0.0222103561
C  C58  1  0.95070000  0.93070000  0.51340000  1.0 -0.0222103561
C  C59  1  0.95070000  0.56930000  0.01340000  1.0 -0.0222103561
C  C60  1  0.04930000  0.06930000  0.48660000  1.0 -0.0222103561
C  C61  1  0.98010000  0.39410000  0.99090000  1.0 -0.1345862402
C  C62  1  0.01990000  0.89410000  0.50910000  1.0 -0.1358623905
C  C63  1  0.01990000  0.60590000  0.00910000  1.0 -0.1358623905
C  C64  1  0.98010000  0.10590000  0.49090000  1.0 -0.1345862402
C  C65  1  0.06920000  0.54110000  0.99600000  1.0 -0.0282470265
C  C66  1  0.93080000  0.04110000  0.50400000  1.0 -0.0282470265
C  C67  1  0.93080000  0.45890000  0.00400000  1.0 -0.0282470265
C  C68  1  0.06920000  0.95890000  0.49600000  1.0 -0.0282470265
C  C69  1  0.13590000  0.59170000  0.98650000  1.0 0.546608557
C  C70  1  0.86410000  0.09170000  0.51350000  1.0 0.546608557
C  C71  1  0.86410000  0.40830000  0.01350000  1.0 0.546608557
C  C72  1  0.13590000  0.90830000  0.48650000  1.0 0.546608557
C  C73  1  0.18020000  0.55550000  0.50540000  1.0 0.0396894337
C  C74  1  0.81980000  0.05550000  0.99460000  1.0 0.0396894337
C  C75  1  0.81980000  0.44450000  0.49460000  1.0 0.0451409639
C  C76  1  0.18020000  0.94450000  0.00540000  1.0 0.0451409639
C  C77  1  0.13940000  0.47320000  0.51570000  1.0 -0.1986619039
C  C78  1  0.86060000  0.97320000  0.98430000  1.0 -0.1986619039
C  C79  1  0.86060000  0.52680000  0.48430000  1.0 -0.1986619039
C  C80  1  0.13940000  0.02680000  0.01570000  1.0 -0.1986619039
C  C81  1  0.12530000  0.47840000  0.56860000  1.0 0.163946879
C  C82  1  0.87470000  0.97840000  0.93140000  1.0 0.163946879
C  C83  1  0.87470000  0.52160000  0.43140000  1.0 0.163946879
C  C84  1  0.12530000  0.02160000  0.06860000  1.0 0.163946879
C  C85  1  0.15240000  0.57490000  0.60710000  1.0 -0.1764369859
C  C86  1  0.84760000  0.07490000  0.89290000  1.0 -0.1764369859
C  C87  1  0.84760000  0.42510000  0.39290000  1.0 -0.1764369859
C  C88  1  0.15240000  0.92510000  0.10710000  1.0 -0.1764369859
C  C89  1  0.19120000  0.65180000  0.59310000  1.0 0.0263543017
C  C90  1  0.80880000  0.15180000  0.90690000  1.0 0.0263543017
C  C91  1  0.80880000  0.34820000  0.40690000  1.0 0.0263543017
C  C92  1  0.19120000  0.84820000  0.09310000  1.0 0.0263543017
C  C93  1  0.08530000  0.38820000  0.58560000  1.0 -0.2686999742
C  C94  1  0.91470000  0.88820000  0.91440000  1.0 -0.2686999742
C  C95  1  0.91470000  0.61180000  0.41440000  1.0 -0.2686999742
C  C96  1  0.08530000  0.11180000  0.08560000  1.0 -0.2686999742
C  C97  1  0.12250000  0.37430000  0.66020000  1.0 -0.158011674
C  C98  1  0.87750000  0.87430000  0.83980000  1.0 -0.158011674
C  C99  1  0.87750000  0.62570000  0.33980000  1.0 -0.158011674
C  C100  1  0.12250000  0.12570000  0.16020000  1.0 -0.158011674
C  C101  1  0.08680000  0.28480000  0.68050000  1.0 -0.2686999742
C  C102  1  0.91320000  0.78480000  0.81950000  1.0 -0.2686999742
C  C103  1  0.91320000  0.71520000  0.31950000  1.0 -0.2686999742
C  C104  1  0.08680000  0.21520000  0.18050000  1.0 -0.2686999742
C  C105  1  0.12760000  0.27570000  0.75730000  1.0 0.163946879
C  C106  1  0.87240000  0.77570000  0.74270000  1.0 0.163946879
C  C107  1  0.87240000  0.72430000  0.24270000  1.0 0.163946879
C  C108  1  0.12760000  0.22430000  0.25730000  1.0 0.163946879
C  C109  1  0.12920000  0.36230000  0.79690000  1.0 -0.2097658916
C  C110  1  0.87080000  0.86230000  0.70310000  1.0 -0.2097658916
C  C111  1  0.87080000  0.63770000  0.20310000  1.0 -0.2097658916
C  C112  1  0.12920000  0.13770000  0.29690000  1.0 -0.2097658916
C  C113  1  0.16770000  0.35620000  0.86900000  1.0 0.091553499
C  C114  1  0.83230000  0.85620000  0.63100000  1.0 0.091553499
C  C115  1  0.83230000  0.64380000  0.13100000  1.0 0.091553499
C  C116  1  0.16770000  0.14380000  0.36900000  1.0 0.091553499
C  C117  1  0.17210000  0.18490000  0.79730000  1.0 -0.2185899917
C  C118  1  0.82790000  0.68490000  0.70270000  1.0 -0.2185899917
C  C119  1  0.82790000  0.81510000  0.20270000  1.0 -0.2185899917
C  C120  1  0.17210000  0.31510000  0.29730000  1.0 -0.2185899917
C  C121  1  0.21240000  0.18440000  0.87020000  1.0 0.0836371714
C  C122  1  0.78760000  0.68440000  0.62980000  1.0 0.0836371714
C  C123  1  0.78760000  0.81560000  0.12980000  1.0 0.0836371714
C  C124  1  0.21240000  0.31560000  0.37020000  1.0 0.0836371714
C  C125  1  0.42350000  0.15000000  0.04790000  1.0 0.5587186711
C  C126  1  0.57650000  0.65000000  0.45210000  1.0 0.5587186711
C  C127  1  0.57650000  0.85000000  0.95210000  1.0 0.5587186711
C  C128  1  0.42350000  0.35000000  0.54790000  1.0 0.5587186711
C  C129  1  0.46470000  0.06960000  0.02600000  1.0 -0.0222103561
C  C130  1  0.53530000  0.56960000  0.47400000  1.0 -0.0282470265
C  C131  1  0.53530000  0.93040000  0.97400000  1.0 -0.0282470265
C  C132  1  0.46470000  0.43040000  0.52600000  1.0 -0.0282470265
C  C133  1  0.51960000  0.10550000  0.00650000  1.0 -0.1531488104
C  C134  1  0.48040000  0.60550000  0.49350000  1.0 -0.1531488104
C  C135  1  0.48040000  0.89450000  0.99350000  1.0 -0.1531488104
C  C136  1  0.51960000  0.39450000  0.50650000  1.0 -0.1531488104
C  C137  1  0.44490000  0.96180000  0.02030000  1.0 -0.0282470265
C  C138  1  0.55510000  0.46180000  0.47970000  1.0 -0.0282470265
C  C139  1  0.55510000  0.03820000  0.97970000  1.0 -0.0282470265
C  C140  1  0.44490000  0.53820000  0.52030000  1.0 -0.0282470265
C  C141  1  0.39700000  0.91330000  0.05050000  1.0 0.5405388669
C  C142  1  0.60300000  0.41330000  0.44950000  1.0 0.5405388669
C  C143  1  0.60300000  0.08670000  0.94950000  1.0 0.5405388669
C  C144  1  0.39700000  0.58670000  0.55050000  1.0 0.5405388669
N  N1  1  0.32990000  0.86910000  0.50660000  1.0 -0.2097658916
N  N2  1  0.67010000  0.36910000  0.99340000  1.0 -0.2097658916
N  N3  1  0.67010000  0.13090000  0.49340000  1.0 -0.2097658916
N  N4  1  0.32990000  0.63090000  0.00660000  1.0 -0.2097658916
N  N5  1  0.30910000  0.24620000  0.11390000  1.0 -0.2344462527
N  N6  1  0.69090000  0.74620000  0.38610000  1.0 -0.2344462527
N  N7  1  0.69090000  0.75380000  0.88610000  1.0 -0.2344462527
N  N8  1  0.30910000  0.25380000  0.61390000  1.0 -0.2344462527
N  N9  1  0.20950000  0.26670000  0.90570000  1.0 -0.2407264216
N  N10  1  0.79050000  0.76670000  0.59430000  1.0 -0.2407264216
N  N11  1  0.79050000  0.73330000  0.09430000  1.0 -0.2407264216
N  N12  1  0.20950000  0.23330000  0.40570000  1.0 -0.2407264216
N  N13  1  0.20780000  0.64340000  0.54290000  1.0 -0.2185899917
N  N14  1  0.79220000  0.14340000  0.95710000  1.0 -0.2185899917
N  N15  1  0.79220000  0.35660000  0.45710000  1.0 -0.2185899917
N  N16  1  0.20780000  0.85660000  0.04290000  1.0 -0.2185899917
O  O1  1  0.18670000  0.37520000  0.00290000  1.0 -0.5537239267
O  O2  1  0.81330000  0.87520000  0.49710000  1.0 -0.5537239267
O  O3  1  0.81330000  0.62480000  0.99710000  1.0 -0.5537239267
O  O4  1  0.18670000  0.12480000  0.50290000  1.0 -0.5537239267
O  O5  1  0.06950000  0.26460000  0.94800000  1.0 -0.5740699126
O  O6  1  0.93050000  0.76460000  0.55200000  1.0 -0.5740699126
O  O7  1  0.93050000  0.73540000  0.05200000  1.0 -0.5740699126
O  O8  1  0.06950000  0.23540000  0.44800000  1.0 -0.5740699126
O  O9  1  0.11910000  0.59520000  0.92630000  1.0 -0.5379802092
O  O10  1  0.88090000  0.09520000  0.57370000  1.0 -0.5379802092
O  O11  1  0.88090000  0.40480000  0.07370000  1.0 -0.5379802092
O  O12  1  0.11910000  0.90480000  0.42630000  1.0 -0.5379802092
O  O13  1  0.20280000  0.63570000  0.04170000  1.0 -0.4510509773
O  O14  1  0.79720000  0.13570000  0.45830000  1.0 -0.4510509773
O  O15  1  0.79720000  0.36430000  0.95830000  1.0 -0.4510509773
O  O16  1  0.20280000  0.86430000  0.54170000  1.0 -0.4510509773
O  O17  1  0.33890000  0.14270000  0.01700000  1.0 -0.5537239267
O  O18  1  0.66110000  0.64270000  0.48300000  1.0 -0.5537239267
O  O19  1  0.66110000  0.85730000  0.98300000  1.0 -0.5537239267
O  O20  1  0.33890000  0.35730000  0.51700000  1.0 -0.5537239267
O  O21  1  0.47100000  0.22300000  0.08950000  1.0 -0.5568323834
O  O22  1  0.52900000  0.72300000  0.41050000  1.0 -0.5568323834
O  O23  1  0.52900000  0.77700000  0.91050000  1.0 -0.5568323834
O  O24  1  0.47100000  0.27700000  0.58950000  1.0 -0.5568323834
O  O25  1  0.33680000  0.84740000  0.00980000  1.0 -0.4510509773
O  O26  1  0.66320000  0.34740000  0.49020000  1.0 -0.4510509773
O  O27  1  0.66320000  0.15260000  0.99020000  1.0 -0.4510509773
O  O28  1  0.33680000  0.65260000  0.50980000  1.0 -0.4510509773
O  O29  1  0.41950000  0.93810000  0.11050000  1.0 -0.5157244308
O  O30  1  0.58050000  0.43810000  0.38950000  1.0 -0.5157244308
O  O31  1  0.58050000  0.06190000  0.88950000  1.0 -0.5157244308
O  O32  1  0.41950000  0.56190000  0.61050000  1.0 -0.5157244308
