# DDEC6 charges by PACMAN v1.1 (https://github.com/mtap-research/PACMAN-charge/)
data_MAJJUF_FSR_pacman
_symmetry_space_group_name_H-M   'P 1'
_cell_length_a   22.73070000
_cell_length_b   22.73070000
_cell_length_c   22.73070000
_cell_angle_alpha   93.45580000
_cell_angle_beta   93.45580000
_cell_angle_gamma   151.57500000
_symmetry_Int_Tables_number   1
_chemical_formula_structural   Cu2B16H16C11O10
_chemical_formula_sum   'Cu8 B64 H64 C44 O40'
_cell_volume   5419.41579346
_cell_formula_units_Z   4
loop_
 _symmetry_equiv_pos_site_id
 _symmetry_equiv_pos_as_xyz
  1  'x, y, z'
loop_
 _atom_site_type_symbol
 _atom_site_label
 _atom_site_symmetry_multiplicity
 _atom_site_fract_x
 _atom_site_fract_y
 _atom_site_fract_z
 _atom_site_occupancy
 _atom_site_charge
Cu  Cu1  1  0.69550000  0.42489000  0.72939000  1.0 1.0923971982
Cu  Cu2  1  0.69550000  0.96611000  0.27061000  1.0 1.0923971982
Cu  Cu3  1  0.21611000  0.44550000  0.77061000  1.0 1.0923971982
Cu  Cu4  1  0.67489000  0.44550000  0.22939000  1.0 1.0923971982
Cu  Cu5  1  0.92190000  0.68026000  0.75836000  1.0 0.9286354484
Cu  Cu6  1  0.92190000  0.16354000  0.24164000  1.0 0.9286354484
Cu  Cu7  1  0.41354000  0.67190000  0.74164000  1.0 0.9286354484
Cu  Cu8  1  0.93026000  0.67190000  0.25836000  1.0 0.9286354484
B  B1  1  0.72980000  0.53620000  0.52400000  1.0 0.02730899
B  B2  1  0.01220000  0.20580000  0.47600000  1.0 0.02730899
B  B3  1  0.45580000  0.47980000  0.69360000  1.0 0.02730899
B  B4  1  0.78620000  0.76220000  0.30640000  1.0 0.02730899
B  B5  1  0.72980000  0.20580000  0.19360000  1.0 0.02730899
B  B6  1  0.01220000  0.53620000  0.80640000  1.0 0.02730899
B  B7  1  0.45580000  0.76220000  0.97600000  1.0 0.0221024753
B  B8  1  0.78620000  0.47980000  0.02400000  1.0 0.02730899
B  B9  1  0.89500000  0.67040000  0.53940000  1.0 -0.0202396186
B  B10  1  0.13100000  0.35560000  0.46060000  1.0 -0.0202396186
B  B11  1  0.60560000  0.64500000  0.72460000  1.0 -0.0202396186
B  B12  1  0.92040000  0.88100000  0.27540000  1.0 -0.0202396186
B  B13  1  0.89500000  0.35560000  0.22460000  1.0 -0.0202396186
B  B14  1  0.13100000  0.67040000  0.77540000  1.0 -0.0202396186
B  B15  1  0.60560000  0.88100000  0.96060000  1.0 -0.0202396186
B  B16  1  0.92040000  0.64500000  0.03940000  1.0 -0.0202396186
B  B17  1  0.81910000  0.62870000  0.46780000  1.0 0.02730899
B  B18  1  0.16090000  0.35130000  0.53220000  1.0 0.02730899
B  B19  1  0.60130000  0.56910000  0.69040000  1.0 0.02730899
B  B20  1  0.87870000  0.91090000  0.30960000  1.0 0.02730899
B  B21  1  0.81910000  0.35130000  0.19040000  1.0 0.02730899
B  B22  1  0.16090000  0.62870000  0.80960000  1.0 0.0221024753
B  B23  1  0.60130000  0.91090000  0.03220000  1.0 0.02730899
B  B24  1  0.87870000  0.56910000  0.96780000  1.0 0.02730899
B  B25  1  0.87570000  0.57550000  0.53120000  1.0 0.02730899
B  B26  1  0.04430000  0.34450000  0.46880000  1.0 0.02730899
B  B27  1  0.59450000  0.62570000  0.80020000  1.0 0.02730899
B  B28  1  0.82550000  0.79430000  0.19980000  1.0 0.02730899
B  B29  1  0.87570000  0.34450000  0.30020000  1.0 0.02730899
B  B30  1  0.04430000  0.57550000  0.69980000  1.0 0.02730899
B  B31  1  0.59450000  0.79430000  0.96880000  1.0 0.0221024753
B  B32  1  0.82550000  0.62570000  0.03120000  1.0 0.02730899
B  B33  1  0.67710000  0.45340000  0.44850000  1.0 -0.0285449201
B  B34  1  0.00490000  0.22860000  0.55150000  1.0 -0.0285449201
B  B35  1  0.47860000  0.42710000  0.72370000  1.0 -0.0285449201
B  B36  1  0.70340000  0.75490000  0.27630000  1.0 -0.0285449201
B  B37  1  0.67710000  0.22860000  0.22370000  1.0 -0.0285449201
B  B38  1  0.00490000  0.45340000  0.77630000  1.0 -0.0285449201
B  B39  1  0.47860000  0.75490000  0.05150000  1.0 -0.0285449201
B  B40  1  0.70340000  0.42710000  0.94850000  1.0 -0.0285449201
B  B41  1  0.70350000  0.43400000  0.51350000  1.0 -0.0500435335
B  B42  1  0.92050000  0.19000000  0.48650000  1.0 -0.0500435335
B  B43  1  0.44000000  0.45350000  0.76950000  1.0 -0.039519891
B  B44  1  0.68400000  0.67050000  0.23050000  1.0 -0.0500435335
B  B45  1  0.70350000  0.19000000  0.26950000  1.0 -0.0500435335
B  B46  1  0.92050000  0.43400000  0.73050000  1.0 -0.039519891
B  B47  1  0.44000000  0.67050000  0.98650000  1.0 -0.039519891
B  B48  1  0.68400000  0.45350000  0.01350000  1.0 -0.0500435335
B  B49  1  0.78340000  0.48630000  0.45370000  1.0 -0.0013672041
B  B50  1  0.03260000  0.32970000  0.54630000  1.0 0.001456462
B  B51  1  0.57970000  0.53340000  0.79710000  1.0 -0.0013672041
B  B52  1  0.73630000  0.78260000  0.20290000  1.0 -0.0013672041
B  B53  1  0.78340000  0.32970000  0.29710000  1.0 -0.0013672041
B  B54  1  0.03260000  0.48630000  0.70290000  1.0 -0.0013672041
B  B55  1  0.57970000  0.78260000  0.04630000  1.0 0.001456462
B  B56  1  0.73630000  0.53340000  0.95370000  1.0 -0.0013672041
B  B57  1  0.92000000  0.65500000  0.47300000  1.0 -0.0285449201
B  B58  1  0.18200000  0.44700000  0.52700000  1.0 -0.0285449201
B  B59  1  0.69700000  0.67000000  0.76500000  1.0 -0.0285449201
B  B60  1  0.90500000  0.93200000  0.23500000  1.0 -0.0285449201
B  B61  1  0.92000000  0.44700000  0.26500000  1.0 -0.0285449201
B  B62  1  0.18200000  0.65500000  0.73500000  1.0 -0.0285449201
B  B63  1  0.69700000  0.93200000  0.02700000  1.0 -0.0285449201
B  B64  1  0.90500000  0.67000000  0.97300000  1.0 -0.0285449201
H  H1  1  0.67858000  0.52299000  0.53861000  1.0 -0.0112239897
H  H2  1  0.98438000  0.13997000  0.46139000  1.0 -0.0112239897
H  H3  1  0.38997000  0.42858000  0.65559000  1.0 -0.0112239897
H  H4  1  0.77299000  0.73438000  0.34441000  1.0 -0.0112239897
H  H5  1  0.67858000  0.13997000  0.15559000  1.0 -0.0112239897
H  H6  1  0.98438000  0.52299000  0.84441000  1.0 -0.0112239897
H  H7  1  0.38997000  0.73438000  0.96139000  1.0 -0.0112239897
H  H8  1  0.77299000  0.42858000  0.03861000  1.0 -0.0112239897
H  H9  1  0.96585000  0.75722000  0.56615000  1.0 -0.0500435335
H  H10  1  0.19107000  0.39970000  0.43385000  1.0 -0.0500435335
H  H11  1  0.64970000  0.71585000  0.70863000  1.0 -0.0500435335
H  H12  1  0.00722000  0.94107000  0.29137000  1.0 -0.0500435335
H  H13  1  0.96585000  0.39970000  0.20863000  1.0 -0.0500435335
H  H14  1  0.19107000  0.75722000  0.79137000  1.0 -0.0500435335
H  H15  1  0.64970000  0.94107000  0.93385000  1.0 -0.0500435335
H  H16  1  0.00722000  0.71585000  0.06615000  1.0 -0.0500435335
H  H17  1  0.83063000  0.67964000  0.45597000  1.0 -0.0202396186
H  H18  1  0.22367000  0.37466000  0.54403000  1.0 -0.0202396186
H  H19  1  0.62466000  0.58063000  0.65099000  1.0 -0.0202396186
H  H20  1  0.92964000  0.97367000  0.34901000  1.0 -0.0202396186
H  H21  1  0.83063000  0.37466000  0.15099000  1.0 -0.0202396186
H  H22  1  0.22367000  0.67964000  0.84901000  1.0 -0.0112239897
H  H23  1  0.62466000  0.97367000  0.04403000  1.0 -0.0112239897
H  H24  1  0.92964000  0.58063000  0.95597000  1.0 -0.0112239897
H  H25  1  0.92892000  0.58963000  0.55071000  1.0 -0.0112239897
H  H26  1  0.03892000  0.37821000  0.44929000  1.0 -0.0112239897
H  H27  1  0.62821000  0.67892000  0.83929000  1.0 -0.0112239897
H  H28  1  0.83963000  0.78892000  0.16071000  1.0 -0.0112239897
H  H29  1  0.92892000  0.37821000  0.33929000  1.0 -0.0112239897
H  H30  1  0.03892000  0.58963000  0.66071000  1.0 -0.0112239897
H  H31  1  0.62821000  0.78892000  0.94929000  1.0 -0.0112239897
H  H32  1  0.83963000  0.67892000  0.05071000  1.0 -0.0112239897
H  H33  1  0.58899000  0.38052000  0.42311000  1.0 -0.0285449201
H  H34  1  0.95741000  0.16588000  0.57689000  1.0 -0.0285449201
H  H35  1  0.41588000  0.33899000  0.70847000  1.0 -0.0285449201
H  H36  1  0.63052000  0.70741000  0.29153000  1.0 -0.0285449201
H  H37  1  0.58899000  0.16588000  0.20847000  1.0 -0.0285449201
H  H38  1  0.95741000  0.38052000  0.79153000  1.0 -0.0285449201
H  H39  1  0.41588000  0.70741000  0.07689000  1.0 -0.0285449201
H  H40  1  0.63052000  0.33899000  0.92311000  1.0 -0.0285449201
H  H41  1  0.63367000  0.34719000  0.52048000  1.0 -0.039519891
H  H42  1  0.82672000  0.11320000  0.47952000  1.0 -0.0285449201
H  H43  1  0.36319000  0.38367000  0.78648000  1.0 -0.039519891
H  H44  1  0.59720000  0.57671000  0.21352000  1.0 -0.039519891
H  H45  1  0.63368000  0.11320000  0.28648000  1.0 -0.0285449201
H  H46  1  0.82672000  0.34719000  0.71352000  1.0 -0.0285449201
H  H47  1  0.36319000  0.57671000  0.97952000  1.0 -0.0285449201
H  H48  1  0.59720000  0.38367000  0.02048000  1.0 -0.039519891
H  H49  1  0.77051000  0.43526000  0.43133000  1.0 -0.0013672041
H  H50  1  0.00393000  0.33918000  0.56867000  1.0 -0.0013672041
H  H51  1  0.58918000  0.52051000  0.83525000  1.0 -0.0013672041
H  H52  1  0.68526000  0.75393000  0.16475000  1.0 -0.0013672041
H  H53  1  0.77051000  0.33918000  0.33525000  1.0 -0.0013672041
H  H54  1  0.00393000  0.43526000  0.66475000  1.0 -0.0013672041
H  H55  1  0.58918000  0.75393000  0.06867000  1.0 -0.0013672041
H  H56  1  0.68526000  0.52051000  0.93133000  1.0 -0.0013672041
H  H57  1  0.00658000  0.72681000  0.46529000  1.0 -0.0285449201
H  H58  1  0.26152000  0.54129000  0.53471000  1.0 -0.0202396186
H  H59  1  0.79129000  0.75658000  0.77977000  1.0 -0.0285449201
H  H60  1  0.97681000  0.01152000  0.22023000  1.0 -0.0285449201
H  H61  1  0.00658000  0.54129000  0.27977000  1.0 -0.0285449201
H  H62  1  0.26152000  0.72681000  0.72023000  1.0 -0.0285449201
H  H63  1  0.79129000  0.01152000  0.03471000  1.0 -0.0285449201
H  H64  1  0.97681000  0.75658000  0.96529000  1.0 -0.0285449201
C  C1  1  0.80850000  0.55760000  0.63510000  1.0 0.6433200476
C  C2  1  0.92250000  0.17340000  0.36490000  1.0 0.6433200476
C  C3  1  0.42340000  0.55850000  0.75090000  1.0 0.6433200476
C  C4  1  0.80760000  0.67250000  0.24910000  1.0 0.6433200476
C  C5  1  0.80850000  0.17340000  0.25090000  1.0 0.6433200476
C  C6  1  0.92250000  0.55760000  0.74910000  1.0 0.6454584153
C  C7  1  0.42340000  0.67250000  0.86490000  1.0 0.6433200476
C  C8  1  0.80760000  0.55850000  0.13510000  1.0 0.6433200476
C  C9  1  0.80500000  0.55700000  0.56720000  1.0 -0.0013672041
C  C10  1  0.98980000  0.23780000  0.43280000  1.0 0.001456462
C  C11  1  0.48780000  0.55500000  0.74800000  1.0 -0.0013672041
C  C12  1  0.80700000  0.73980000  0.25200000  1.0 -0.0013672041
C  C13  1  0.80500000  0.23780000  0.24800000  1.0 -0.0013672041
C  C14  1  0.98980000  0.55700000  0.75200000  1.0 -0.0013672041
C  C15  1  0.48780000  0.73980000  0.93280000  1.0 0.001456462
C  C16  1  0.80700000  0.55500000  0.06720000  1.0 -0.0013672041
C  C17  1  0.80210000  0.56060000  0.35450000  1.0 0.6699110643
C  C18  1  0.20610000  0.44760000  0.64550000  1.0 0.6699110643
C  C19  1  0.69760000  0.55210000  0.74150000  1.0 0.6699110643
C  C20  1  0.81060000  0.95610000  0.25850000  1.0 0.6699110643
C  C21  1  0.80210000  0.44760000  0.24150000  1.0 0.6699110643
C  C22  1  0.20610000  0.56060000  0.75850000  1.0 0.6699110643
C  C23  1  0.69760000  0.95610000  0.14550000  1.0 0.6699110643
C  C24  1  0.81060000  0.55210000  0.85450000  1.0 0.6699110643
C  C25  1  0.80360000  0.56060000  0.42080000  1.0 -0.0202396186
C  C26  1  0.13980000  0.38280000  0.57920000  1.0 -0.0202396186
C  C27  1  0.63280000  0.55360000  0.74300000  1.0 -0.0202396186
C  C28  1  0.81060000  0.88980000  0.25700000  1.0 -0.0202396186
C  C29  1  0.80360000  0.38280000  0.24300000  1.0 -0.0202396186
C  C30  1  0.13980000  0.56060000  0.75700000  1.0 -0.0202396186
C  C31  1  0.63280000  0.88980000  0.07920000  1.0 -0.0202396186
C  C32  1  0.81060000  0.55360000  0.92080000  1.0 -0.0202396186
C  C33  1  0.11300000  0.94010000  0.82710000  1.0 0.4414424525
C  C34  1  0.11300000  0.28590000  0.17290000  1.0 0.4414424525
C  C35  1  0.53590000  0.86300000  0.67290000  1.0 0.4414424525
C  C36  1  0.19010000  0.86300000  0.32710000  1.0 0.4414424525
C  C37  1  0.21000000  0.05740000  0.84740000  1.0 -0.2773398681
C  C38  1  0.21000000  0.36260000  0.15260000  1.0 -0.2773398681
C  C39  1  0.61260000  0.96000000  0.65260000  1.0 -0.2773398681
C  C40  1  0.30740000  0.96000000  0.34740000  1.0 -0.2773398681
C  C41  1  0.17200000  0.06800000  0.89600000  1.0 0.2430043203
C  C42  1  0.17200000  0.27600000  0.10400000  1.0 0.2430043203
C  C43  1  0.52600000  0.92200000  0.60400000  1.0 0.2430043203
C  C44  1  0.31800000  0.92200000  0.39600000  1.0 0.2430043203
O  O1  1  0.89740000  0.65700000  0.67040000  1.0 -0.4938240582
O  O2  1  0.98660000  0.22700000  0.32960000  1.0 -0.4938240582
O  O3  1  0.47700000  0.64740000  0.74040000  1.0 -0.4938240582
O  O4  1  0.90700000  0.73660000  0.25960000  1.0 -0.4938240582
O  O5  1  0.89740000  0.22700000  0.24040000  1.0 -0.4938240582
O  O6  1  0.98660000  0.65700000  0.75960000  1.0 -0.4966743438
O  O7  1  0.47700000  0.73660000  0.82960000  1.0 -0.4938240582
O  O8  1  0.90700000  0.64740000  0.17040000  1.0 -0.4938240582
O  O9  1  0.69180000  0.46250000  0.31790000  1.0 -0.5104218
O  O10  1  0.14460000  0.37390000  0.68210000  1.0 -0.5104218
O  O11  1  0.62390000  0.44180000  0.72930000  1.0 -0.5104218
O  O12  1  0.71250000  0.89460000  0.27070000  1.0 -0.5104218
O  O13  1  0.69180000  0.37390000  0.22930000  1.0 -0.5104218
O  O14  1  0.14460000  0.46250000  0.77070000  1.0 -0.5104218
O  O15  1  0.62390000  0.89460000  0.18210000  1.0 -0.5104218
O  O16  1  0.71250000  0.44180000  0.81790000  1.0 -0.5104218
O  O17  1  0.09550000  0.88370000  0.78820000  1.0 -0.2908342107
O  O18  1  0.09550000  0.30730000  0.21180000  1.0 -0.2908342107
O  O19  1  0.55730000  0.84550000  0.71180000  1.0 -0.2908342107
O  O20  1  0.13370000  0.84550000  0.28820000  1.0 -0.2908342107
O  O21  1  0.71500000  0.45120000  0.64620000  1.0 -0.5104218
O  O22  1  0.80500000  0.06880000  0.35380000  1.0 -0.5104218
O  O23  1  0.31880000  0.46500000  0.76380000  1.0 -0.5104218
O  O24  1  0.70120000  0.55500000  0.23620000  1.0 -0.5104218
O  O25  1  0.71500000  0.06880000  0.26380000  1.0 -0.5104218
O  O26  1  0.80500000  0.45120000  0.73620000  1.0 -0.5104218
O  O27  1  0.31880000  0.55500000  0.85380000  1.0 -0.5104218
O  O28  1  0.70120000  0.46500000  0.14620000  1.0 -0.5104218
O  O29  1  0.90800000  0.65440000  0.34200000  1.0 -0.5104218
O  O30  1  0.31240000  0.56600000  0.65800000  1.0 -0.5104218
O  O31  1  0.81600000  0.65800000  0.75360000  1.0 -0.5104218
O  O32  1  0.90440000  0.06240000  0.24640000  1.0 -0.5104218
O  O33  1  0.90800000  0.56600000  0.25360000  1.0 -0.5104218
O  O34  1  0.31240000  0.65440000  0.74640000  1.0 -0.5104218
O  O35  1  0.81600000  0.06240000  0.15800000  1.0 -0.5104218
O  O36  1  0.90440000  0.65800000  0.84200000  1.0 -0.5104218
O  O37  1  0.51820000  0.22430000  0.70610000  1.0 -0.2203033813
O  O38  1  0.51820000  0.81210000  0.29390000  1.0 -0.2203033813
O  O39  1  0.06210000  0.26820000  0.79390000  1.0 -0.2262057214
O  O40  1  0.47430000  0.26820000  0.20610000  1.0 -0.2203033813
