# DDEC6 charges by PACMAN v1.1 (https://github.com/mtap-research/PACMAN-charge/)
data_MAJTUQ_ion_pacman
_symmetry_space_group_name_H-M   'P 1'
_cell_length_a   16.91170000
_cell_length_b   16.91170000
_cell_length_c   23.36100000
_cell_angle_alpha   86.95280000
_cell_angle_beta   93.04720000
_cell_angle_gamma   130.33400000
_symmetry_Int_Tables_number   1
_chemical_formula_structural   Zr6H40C92N10Cl4O29
_chemical_formula_sum   'Zr12 H80 C184 N20 Cl8 O58'
_cell_volume   5084.36443543
_cell_formula_units_Z   2
loop_
 _symmetry_equiv_pos_site_id
 _symmetry_equiv_pos_as_xyz
  1  'x, y, z'
loop_
 _atom_site_type_symbol
 _atom_site_label
 _atom_site_symmetry_multiplicity
 _atom_site_fract_x
 _atom_site_fract_y
 _atom_site_fract_z
 _atom_site_occupancy
 _atom_site_charge
Zr  Zr1  1  0.14620000  0.00822000  0.82181000  1.0 2.2287996688
Zr  Zr2  1  0.12870000  0.01436000  0.67276000  1.0 2.2226122895
Zr  Zr3  1  0.34851000  0.22297000  0.74431000  1.0 2.2287996688
Zr  Zr4  1  0.00822000  0.14620000  0.67819000  1.0 2.2287996688
Zr  Zr5  1  0.01436000  0.12870000  0.82724000  1.0 2.2226122895
Zr  Zr6  1  0.22297000  0.34851000  0.75569000  1.0 2.2287996688
Zr  Zr7  1  0.85380000  0.99178000  0.17819000  1.0 2.2287996688
Zr  Zr8  1  0.87130000  0.98564000  0.32724000  1.0 2.2226122895
Zr  Zr9  1  0.65149000  0.77703000  0.25569000  1.0 2.2287996688
Zr  Zr10  1  0.99178000  0.85380000  0.32181000  1.0 2.2287996688
Zr  Zr11  1  0.98564000  0.87130000  0.17276000  1.0 2.2226122895
Zr  Zr12  1  0.77703000  0.65149000  0.24431000  1.0 2.2287996688
H  H1  1  0.51621000  0.45141000  0.61240000  1.0 0.1191559251
H  H2  1  0.45030000  0.40558000  0.51564000  1.0 0.1103985445
H  H3  1  0.32732000  0.28814000  0.44843000  1.0 0.1103985445
H  H4  1  0.18314000  0.11836000  0.47701000  1.0 0.1367534297
H  H5  1  0.24199000  0.09345000  0.99508000  1.0 0.1191559251
H  H6  1  0.41704000  0.24940000  0.01349000  1.0 0.1191559251
H  H7  1  0.57600000  0.40198000  0.98295000  1.0 0.1191559251
H  H8  1  0.60615000  0.44453000  0.88557000  1.0 0.1367534297
H  H9  1  0.82499000  0.73725000  0.63526000  1.0 0.1191559251
H  H10  1  0.72021000  0.62499000  0.71302000  1.0 0.1191559251
H  H11  1  0.69647000  0.57712000  0.80957000  1.0 0.1291337704
H  H12  1  0.82965000  0.68627000  0.87844000  1.0 0.1291337704
H  H13  1  0.19676000  0.93182000  0.62111000  1.0 0.363591572
H  H14  1  0.04916000  0.89614000  0.93652000  1.0 0.3462242066
H  H15  1  0.50575000  0.22765000  0.72900000  1.0 0.37607499
H  H16  1  0.24152000  0.93340000  0.80713000  1.0 0.3697146901
H  H17  1  0.00213000  0.92357000  0.56210000  1.0 0.3462242066
H  H18  1  0.23150000  0.90250000  0.86320000  1.0 0.37607499
H  H19  1  0.22600000  0.92800000  0.67500000  1.0 0.3462242066
H  H20  1  0.43300000  0.13100000  0.70900000  1.0 0.363591572
H  H21  1  0.45141000  0.51621000  0.88760000  1.0 0.1191559251
H  H22  1  0.40558000  0.45030000  0.98436000  1.0 0.1103985445
H  H23  1  0.28814000  0.32732000  0.05157000  1.0 0.1103985445
H  H24  1  0.11836000  0.18314000  0.02299000  1.0 0.1367534297
H  H25  1  0.09345000  0.24199000  0.50492000  1.0 0.1191559251
H  H26  1  0.24940000  0.41704000  0.48651000  1.0 0.1191559251
H  H27  1  0.40198000  0.57600000  0.51705000  1.0 0.1191559251
H  H28  1  0.44453000  0.60615000  0.61443000  1.0 0.1367534297
H  H29  1  0.73725000  0.82499000  0.86474000  1.0 0.1191559251
H  H30  1  0.62499000  0.72021000  0.78698000  1.0 0.1191559251
H  H31  1  0.57713000  0.69648000  0.69043000  1.0 0.1291337704
H  H32  1  0.68627000  0.82965000  0.62156000  1.0 0.1291337704
H  H33  1  0.93182000  0.19676000  0.87889000  1.0 0.363591572
H  H34  1  0.89614000  0.04916000  0.56348000  1.0 0.3462242066
H  H35  1  0.22765000  0.50575000  0.77100000  1.0 0.37607499
H  H36  1  0.93340000  0.24152000  0.69287000  1.0 0.3697146901
H  H37  1  0.92357000  0.00213000  0.93790000  1.0 0.3462242066
H  H38  1  0.90250000  0.23150000  0.63680000  1.0 0.37607499
H  H39  1  0.92800000  0.22600000  0.82500000  1.0 0.3462242066
H  H40  1  0.13100000  0.43300000  0.79100000  1.0 0.363591572
H  H41  1  0.48379000  0.54859000  0.38760000  1.0 0.1191559251
H  H42  1  0.54970000  0.59442000  0.48436000  1.0 0.1103985445
H  H43  1  0.67268000  0.71186000  0.55157000  1.0 0.1103985445
H  H44  1  0.81686000  0.88164000  0.52299000  1.0 0.1367534297
H  H45  1  0.75801000  0.90655000  0.00492000  1.0 0.1191559251
H  H46  1  0.58296000  0.75060000  0.98651000  1.0 0.1191559251
H  H47  1  0.42400000  0.59802000  0.01705000  1.0 0.1191559251
H  H48  1  0.39385000  0.55547000  0.11443000  1.0 0.1367534297
H  H49  1  0.17501000  0.26275000  0.36474000  1.0 0.1191559251
H  H50  1  0.27979000  0.37501000  0.28698000  1.0 0.1191559251
H  H51  1  0.30352000  0.42288000  0.19043000  1.0 0.1291337704
H  H52  1  0.17035000  0.31373000  0.12156000  1.0 0.1291337704
H  H53  1  0.80324000  0.06818000  0.37889000  1.0 0.363591572
H  H54  1  0.95084000  0.10386000  0.06348000  1.0 0.3462242066
H  H55  1  0.49425000  0.77235000  0.27100000  1.0 0.37607499
H  H56  1  0.75848000  0.06660000  0.19287000  1.0 0.3697146901
H  H57  1  0.99787000  0.07643000  0.43790000  1.0 0.3462242066
H  H58  1  0.76850000  0.09750000  0.13680000  1.0 0.37607499
H  H59  1  0.77400000  0.07200000  0.32500000  1.0 0.3462242066
H  H60  1  0.56700000  0.86900000  0.29100000  1.0 0.363591572
H  H61  1  0.54859000  0.48379000  0.11240000  1.0 0.1191559251
H  H62  1  0.59442000  0.54970000  0.01564000  1.0 0.1103985445
H  H63  1  0.71186000  0.67268000  0.94843000  1.0 0.1103985445
H  H64  1  0.88164000  0.81686000  0.97701000  1.0 0.1367534297
H  H65  1  0.90655000  0.75801000  0.49508000  1.0 0.1191559251
H  H66  1  0.75060000  0.58296000  0.51349000  1.0 0.1191559251
H  H67  1  0.59802000  0.42400000  0.48295000  1.0 0.1191559251
H  H68  1  0.55547000  0.39385000  0.38557000  1.0 0.1367534297
H  H69  1  0.26275000  0.17501000  0.13526000  1.0 0.1191559251
H  H70  1  0.37501000  0.27979000  0.21302000  1.0 0.1191559251
H  H71  1  0.42288000  0.30352000  0.30957000  1.0 0.1291337704
H  H72  1  0.31373000  0.17035000  0.37844000  1.0 0.1291337704
H  H73  1  0.06818000  0.80324000  0.12111000  1.0 0.363591572
H  H74  1  0.10386000  0.95084000  0.43652000  1.0 0.3462242066
H  H75  1  0.77235000  0.49425000  0.22900000  1.0 0.37607499
H  H76  1  0.06660000  0.75848000  0.30713000  1.0 0.3697146901
H  H77  1  0.07643000  0.99787000  0.06210000  1.0 0.3462242066
H  H78  1  0.09750000  0.76850000  0.36320000  1.0 0.37607499
H  H79  1  0.07200000  0.77400000  0.17500000  1.0 0.3462242066
H  H80  1  0.86900000  0.56700000  0.20900000  1.0 0.363591572
C  C1  1  0.46210000  0.38350000  0.62700000  1.0 0.019794917
C  C2  1  0.38470000  0.30750000  0.58610000  1.0 -0.0044174349
C  C3  1  0.39330000  0.33690000  0.52760000  1.0 -0.1713081097
C  C4  1  0.31990000  0.26730000  0.48770000  1.0 -0.0909766576
C  C5  1  0.23400000  0.16580000  0.50460000  1.0 -0.1899170859
C  C6  1  0.22400000  0.13500000  0.56210000  1.0 0.2288591393
C  C7  1  0.29950000  0.20530000  0.60230000  1.0 0.2046610692
C  C8  1  0.25100000  0.10220000  0.95480000  1.0 0.0587847361
C  C9  1  0.35000000  0.19680000  0.93370000  1.0 -0.0186279898
C  C10  1  0.42870000  0.26550000  0.97360000  1.0 -0.1396413541
C  C11  1  0.52320000  0.35660000  0.95550000  1.0 -0.1005764923
C  C12  1  0.54120000  0.38180000  0.89750000  1.0 -0.2005327477
C  C13  1  0.46540000  0.31640000  0.85710000  1.0 0.2288591393
C  C14  1  0.36960000  0.22180000  0.87570000  1.0 0.2288591393
C  C15  1  0.88270000  0.78470000  0.65990000  1.0 0.0487413305
C  C16  1  0.87020000  0.75960000  0.72070000  1.0 -0.0186279898
C  C17  1  0.77530000  0.66830000  0.73990000  1.0 -0.1240895114
C  C18  1  0.76080000  0.64060000  0.79750000  1.0 -0.0690635422
C  C19  1  0.84010000  0.70530000  0.83880000  1.0 -0.2123606115
C  C20  1  0.93260000  0.79600000  0.82040000  1.0 0.2081859508
C  C21  1  0.94890000  0.82330000  0.76150000  1.0 0.2191113175
C  C22  1  0.38350000  0.46210000  0.87300000  1.0 0.019794917
C  C23  1  0.30750000  0.38470000  0.91390000  1.0 -0.0044174349
C  C24  1  0.33690000  0.39330000  0.97240000  1.0 -0.1713081097
C  C25  1  0.26730000  0.31990000  0.01230000  1.0 -0.0909766576
C  C26  1  0.16580000  0.23400000  0.99540000  1.0 -0.1899170859
C  C27  1  0.13500000  0.22400000  0.93790000  1.0 0.2288591393
C  C28  1  0.20530000  0.29950000  0.89770000  1.0 0.2081859508
C  C29  1  0.10220000  0.25100000  0.54520000  1.0 0.0587847361
C  C30  1  0.19680000  0.35000000  0.56630000  1.0 -0.0186279898
C  C31  1  0.26550000  0.42870000  0.52640000  1.0 -0.1396413541
C  C32  1  0.35660000  0.52320000  0.54450000  1.0 -0.1005764923
C  C33  1  0.38180000  0.54120000  0.60250000  1.0 -0.2005327477
C  C34  1  0.31640000  0.46540000  0.64290000  1.0 0.2288591393
C  C35  1  0.22180000  0.36960000  0.62430000  1.0 0.2288591393
C  C36  1  0.78470000  0.88270000  0.84010000  1.0 0.0487413305
C  C37  1  0.75960000  0.87020000  0.77930000  1.0 -0.0186279898
C  C38  1  0.66830000  0.77530000  0.76010000  1.0 -0.1240895114
C  C39  1  0.64060000  0.76080000  0.70250000  1.0 -0.0690635422
C  C40  1  0.70530000  0.84010000  0.66120000  1.0 -0.2123606115
C  C41  1  0.79600000  0.93260000  0.67960000  1.0 0.2081859508
C  C42  1  0.82330000  0.94890000  0.73850000  1.0 0.2191113175
C  C43  1  0.53790000  0.61650000  0.37300000  1.0 0.019794917
C  C44  1  0.61530000  0.69250000  0.41390000  1.0 -0.0044174349
C  C45  1  0.60670000  0.66310000  0.47240000  1.0 -0.1713081097
C  C46  1  0.68010000  0.73270000  0.51230000  1.0 -0.0909766576
C  C47  1  0.76600000  0.83420000  0.49540000  1.0 -0.1899170859
C  C48  1  0.77600000  0.86500000  0.43790000  1.0 0.2288591393
C  C49  1  0.70050000  0.79470000  0.39770000  1.0 0.2081859508
C  C50  1  0.74900000  0.89780000  0.04520000  1.0 0.0587847361
C  C51  1  0.65000000  0.80320000  0.06630000  1.0 -0.0186279898
C  C52  1  0.57130000  0.73450000  0.02640000  1.0 -0.1396413541
C  C53  1  0.47680000  0.64340000  0.04450000  1.0 -0.1005764923
C  C54  1  0.45880000  0.61820000  0.10250000  1.0 -0.2005327477
C  C55  1  0.53460000  0.68360000  0.14290000  1.0 0.2288591393
C  C56  1  0.63040000  0.77820000  0.12430000  1.0 0.2288591393
C  C57  1  0.11730000  0.21530000  0.34010000  1.0 0.0487413305
C  C58  1  0.12980000  0.24040000  0.27930000  1.0 -0.0186279898
C  C59  1  0.22470000  0.33170000  0.26010000  1.0 -0.1240895114
C  C60  1  0.23920000  0.35940000  0.20250000  1.0 -0.0690635422
C  C61  1  0.15990000  0.29470000  0.16120000  1.0 -0.2123606115
C  C62  1  0.06740000  0.20400000  0.17960000  1.0 0.2081859508
C  C63  1  0.05110000  0.17670000  0.23850000  1.0 0.2191113175
C  C64  1  0.61650000  0.53790000  0.12700000  1.0 0.019794917
C  C65  1  0.69250000  0.61530000  0.08610000  1.0 -0.0044174349
C  C66  1  0.66310000  0.60670000  0.02760000  1.0 -0.1713081097
C  C67  1  0.73270000  0.68010000  0.98770000  1.0 -0.0909766576
C  C68  1  0.83420000  0.76600000  0.00460000  1.0 -0.1899170859
C  C69  1  0.86500000  0.77600000  0.06210000  1.0 0.2288591393
C  C70  1  0.79470000  0.70050000  0.10230000  1.0 0.2081859508
C  C71  1  0.89780000  0.74900000  0.45480000  1.0 0.0587847361
C  C72  1  0.80320000  0.65000000  0.43370000  1.0 -0.0186279898
C  C73  1  0.73450000  0.57130000  0.47360000  1.0 -0.1396413541
C  C74  1  0.64340000  0.47680000  0.45550000  1.0 -0.1005764923
C  C75  1  0.61820000  0.45880000  0.39750000  1.0 -0.2005327477
C  C76  1  0.68360000  0.53460000  0.35710000  1.0 0.2288591393
C  C77  1  0.77820000  0.63040000  0.37570000  1.0 0.2288591393
C  C78  1  0.21530000  0.11730000  0.15990000  1.0 0.0487413305
C  C79  1  0.24040000  0.12980000  0.22070000  1.0 -0.0186279898
C  C80  1  0.33170000  0.22470000  0.23990000  1.0 -0.1240895114
C  C81  1  0.35940000  0.23920000  0.29750000  1.0 -0.0690635422
C  C82  1  0.29470000  0.15990000  0.33880000  1.0 -0.2123606115
C  C83  1  0.20400000  0.06740000  0.32040000  1.0 0.2081859508
C  C84  1  0.17670000  0.05110000  0.26150000  1.0 0.2191113175
C  C85  1  0.46030000  0.10170000  0.07400000  1.0 0.0020102675
C  C86  1  0.44350000  0.94350000  0.15300000  1.0 -0.0044174349
C  C87  1  0.94020000  0.36980000  0.27030000  1.0 0.0587847361
C  C88  1  0.48770000  0.90510000  0.99630000  1.0 -0.0816878418
C  C89  1  0.39910000  0.99810000  0.05690000  1.0 0.1022584939
C  C90  1  0.50550000  0.93530000  0.06280000  1.0 0.1367534297
C  C91  1  0.97060000  0.32880000  0.22100000  1.0 -0.0314073439
C  C92  1  0.31080000  0.72320000  0.10300000  1.0 0.0130801264
C  C93  1  0.98110000  0.35870000  0.17040000  1.0 -0.064163821
C  C94  1  0.06220000  0.47500000  0.15930000  1.0 0.1022584939
C  C95  1  0.84230000  0.51530000  0.09230000  1.0 -0.1142254977
C  C96  1  0.96970000  0.48470000  0.07260000  1.0 0.2046610692
C  C97  1  0.09400000  0.46260000  0.05950000  1.0 0.019794917
C  C98  1  0.85810000  0.55630000  0.03780000  1.0 0.0130801264
C  C99  1  0.30930000  0.80650000  0.08120000  1.0 0.0487413305
C  C100  1  0.26360000  0.67440000  0.10570000  1.0 0.0742985585
C  C101  1  0.91860000  0.51540000  0.11180000  1.0 -0.0098522207
C  C102  1  0.14630000  0.62110000  0.09460000  1.0 -0.0537407987
C  C103  1  0.46380000  0.15640000  0.10550000  1.0 -0.2678625902
C  C104  1  0.33230000  0.98370000  0.26330000  1.0 0.0413202983
C  C105  1  0.36180000  0.92840000  0.18790000  1.0 -0.0186279898
C  C106  1  0.21940000  0.62260000  0.08780000  1.0 -0.0690635422
C  C107  1  0.34690000  0.79310000  0.09650000  1.0 0.0413202983
C  C108  1  0.96750000  0.40550000  0.24940000  1.0 0.0907240787
C  C109  1  0.11520000  0.49860000  0.99440000  1.0 -0.0909766576
C  C110  1  0.10170000  0.46030000  0.42600000  1.0 0.0020102675
C  C111  1  0.94350000  0.44350000  0.34700000  1.0 -0.0098522207
C  C112  1  0.36980000  0.94020000  0.22970000  1.0 0.0587847361
C  C113  1  0.90510000  0.48770000  0.50370000  1.0 -0.0816878418
C  C114  1  0.99810000  0.39910000  0.44310000  1.0 0.1022584939
C  C115  1  0.93530000  0.50550000  0.43720000  1.0 0.1367534297
C  C116  1  0.32880000  0.97060000  0.27900000  1.0 -0.0314073439
C  C117  1  0.72320000  0.31080000  0.39700000  1.0 0.0130801264
C  C118  1  0.35870000  0.98110000  0.32960000  1.0 -0.064163821
C  C119  1  0.47500000  0.06220000  0.34070000  1.0 0.1022584939
C  C120  1  0.51530000  0.84230000  0.40770000  1.0 -0.1142254977
C  C121  1  0.48470000  0.96970000  0.42740000  1.0 0.2081859508
C  C122  1  0.46260000  0.09400000  0.44050000  1.0 0.019794917
C  C123  1  0.55630000  0.85810000  0.46220000  1.0 0.0130801264
C  C124  1  0.80650000  0.30930000  0.41880000  1.0 0.0487413305
C  C125  1  0.67440000  0.26360000  0.39430000  1.0 0.0742985585
C  C126  1  0.51540000  0.91860000  0.38820000  1.0 -0.0098522207
C  C127  1  0.62110000  0.14630000  0.40540000  1.0 -0.0537407987
C  C128  1  0.15640000  0.46380000  0.39450000  1.0 -0.2678625902
C  C129  1  0.98370000  0.33230000  0.23670000  1.0 0.0413202983
C  C130  1  0.92840000  0.36180000  0.31210000  1.0 -0.0186279898
C  C131  1  0.62260000  0.21940000  0.41220000  1.0 -0.0690635422
C  C132  1  0.79310000  0.34690000  0.40350000  1.0 0.0487413305
C  C133  1  0.40550000  0.96750000  0.25060000  1.0 0.0907240787
C  C134  1  0.49860000  0.11520000  0.50560000  1.0 -0.0909766576
C  C135  1  0.53970000  0.89830000  0.92600000  1.0 0.0020102675
C  C136  1  0.55650000  0.05650000  0.84700000  1.0 -0.0044174349
C  C137  1  0.05980000  0.63020000  0.72970000  1.0 0.0587847361
C  C138  1  0.51230000  0.09490000  0.00370000  1.0 -0.0816878418
C  C139  1  0.60090000  0.00190000  0.94310000  1.0 0.1022584939
C  C140  1  0.49450000  0.06470000  0.93720000  1.0 0.1367534297
C  C141  1  0.02940000  0.67120000  0.77900000  1.0 -0.0314073439
C  C142  1  0.68920000  0.27680000  0.89700000  1.0 0.0130801264
C  C143  1  0.01890000  0.64130000  0.82960000  1.0 -0.0690635422
C  C144  1  0.93780000  0.52500000  0.84070000  1.0 0.1022584939
C  C145  1  0.15770000  0.48470000  0.90770000  1.0 -0.1142254977
C  C146  1  0.03030000  0.51530000  0.92740000  1.0 0.2081859508
C  C147  1  0.90600000  0.53740000  0.94050000  1.0 0.019794917
C  C148  1  0.14190000  0.44370000  0.96220000  1.0 0.0130801264
C  C149  1  0.69070000  0.19350000  0.91880000  1.0 0.0487413305
C  C150  1  0.73640000  0.32560000  0.89430000  1.0 0.0754294523
C  C151  1  0.08140000  0.48460000  0.88820000  1.0 -0.0098522207
C  C152  1  0.85370000  0.37890000  0.90540000  1.0 -0.0537407987
C  C153  1  0.53620000  0.84360000  0.89450000  1.0 -0.2678625902
C  C154  1  0.66770000  0.01630000  0.73670000  1.0 0.0413202983
C  C155  1  0.63820000  0.07160000  0.81210000  1.0 -0.0186279898
C  C156  1  0.78060000  0.37740000  0.91220000  1.0 -0.0690635422
C  C157  1  0.65310000  0.20690000  0.90350000  1.0 0.0413202983
C  C158  1  0.03250000  0.59450000  0.75060000  1.0 0.0907240787
C  C159  1  0.88480000  0.50140000  0.00560000  1.0 -0.0909766576
C  C160  1  0.89830000  0.53970000  0.57400000  1.0 0.0020102675
C  C161  1  0.05650000  0.55650000  0.65300000  1.0 -0.0098522207
C  C162  1  0.63020000  0.05980000  0.77030000  1.0 0.0587847361
C  C163  1  0.09490000  0.51230000  0.49630000  1.0 -0.0816878418
C  C164  1  0.00190000  0.60090000  0.55690000  1.0 0.1022584939
C  C165  1  0.06470000  0.49450000  0.56280000  1.0 0.1291337704
C  C166  1  0.67120000  0.02940000  0.72100000  1.0 -0.0314073439
C  C167  1  0.27680000  0.68920000  0.60300000  1.0 0.0130801264
C  C168  1  0.64130000  0.01890000  0.67040000  1.0 -0.064163821
C  C169  1  0.52500000  0.93780000  0.65930000  1.0 0.1103985445
C  C170  1  0.48470000  0.15770000  0.59230000  1.0 -0.1142254977
C  C171  1  0.51530000  0.03030000  0.57260000  1.0 0.2081859508
C  C172  1  0.53740000  0.90600000  0.55950000  1.0 0.019794917
C  C173  1  0.44370000  0.14190000  0.53780000  1.0 0.0130801264
C  C174  1  0.19350000  0.69070000  0.58120000  1.0 0.0487413305
C  C175  1  0.32560000  0.73640000  0.60570000  1.0 0.0742985585
C  C176  1  0.48460000  0.08140000  0.61180000  1.0 -0.0098522207
C  C177  1  0.37890000  0.85370000  0.59460000  1.0 -0.0537407987
C  C178  1  0.84360000  0.53620000  0.60550000  1.0 -0.2678625902
C  C179  1  0.01630000  0.66770000  0.76330000  1.0 0.0413202983
C  C180  1  0.07160000  0.63820000  0.68790000  1.0 -0.0186279898
C  C181  1  0.37740000  0.78060000  0.58780000  1.0 -0.0690635422
C  C182  1  0.20690000  0.65310000  0.59650000  1.0 0.0487413305
C  C183  1  0.59450000  0.03250000  0.74940000  1.0 0.0907240787
C  C184  1  0.50140000  0.88480000  0.49440000  1.0 -0.0909766576
N  N1  1  0.46410000  0.36750000  0.68090000  1.0 -0.0909766576
N  N2  1  0.17516000  0.02984000  0.92280000  1.0 -0.1792310479
N  N3  1  0.96555000  0.86605000  0.63620000  1.0 -0.1792310479
N  N4  1  0.36750000  0.46410000  0.81910000  1.0 -0.0909766576
N  N5  1  0.02984000  0.17516000  0.57720000  1.0 -0.1792310479
N  N6  1  0.86605000  0.96555000  0.86380000  1.0 -0.1792310479
N  N7  1  0.53590000  0.63250000  0.31910000  1.0 -0.0909766576
N  N8  1  0.82484000  0.97016000  0.07720000  1.0 -0.1792310479
N  N9  1  0.03445000  0.13395000  0.36380000  1.0 -0.1792310479
N  N10  1  0.63250000  0.53590000  0.18090000  1.0 -0.0909766576
N  N11  1  0.97016000  0.82484000  0.42280000  1.0 -0.1792310479
N  N12  1  0.13395000  0.03445000  0.13620000  1.0 -0.1792310479
N  N13  1  0.07670000  0.51970000  0.09480000  1.0 0.0587847361
N  N14  1  0.41460000  0.92140000  0.08890000  1.0 0.0487413305
N  N15  1  0.51970000  0.07670000  0.40520000  1.0 0.0587847361
N  N16  1  0.92140000  0.41460000  0.41110000  1.0 0.0487413305
N  N17  1  0.92330000  0.48030000  0.90520000  1.0 0.0587847361
N  N18  1  0.58540000  0.07860000  0.91110000  1.0 0.0487413305
N  N19  1  0.48030000  0.92330000  0.59480000  1.0 0.0587847361
N  N20  1  0.07860000  0.58540000  0.58890000  1.0 0.0487413305
Cl  Cl1  1  0.79644000  0.20652000  0.56177000  1.0 -0.4502406091
Cl  Cl2  1  0.93896000  0.33366000  0.76286000  1.0 -0.4502406091
Cl  Cl3  1  0.20652000  0.79644000  0.93823000  1.0 -0.4502406091
Cl  Cl4  1  0.33366000  0.93896000  0.73714000  1.0 -0.4502406091
Cl  Cl5  1  0.20356000  0.79348000  0.43823000  1.0 -0.4502406091
Cl  Cl6  1  0.06104000  0.66634000  0.23714000  1.0 -0.4560297302
Cl  Cl7  1  0.79348000  0.20356000  0.06177000  1.0 -0.4502406091
Cl  Cl8  1  0.66634000  0.06104000  0.26286000  1.0 -0.4560297302
O  O1  1  0.54590000  0.45950000  0.70940000  1.0 -0.3834878674
O  O2  1  0.28447000  0.16833000  0.65695000  1.0 -0.7216435543
O  O3  1  0.14396000  0.03924000  0.58273000  1.0 -0.6424476823
O  O4  1  0.17473000  0.91847000  0.65460000  1.0 -0.7417436114
O  O5  1  0.07010000  0.08190000  0.67813000  1.0 -1.082577936
O  O6  1  0.08896000  0.94984000  0.95610000  1.0 -0.3113621047
O  O7  1  0.30252000  0.16028000  0.83339000  1.0 -0.7008786074
O  O8  1  0.47565000  0.33395000  0.79909000  1.0 -0.6068651697
O  O9  1  0.44350000  0.17470000  0.73400000  1.0 -0.7310761234
O  O10  1  0.22501000  0.94079000  0.83850000  1.0 -0.7700972727
O  O11  1  0.22423000  0.06577000  0.74522000  1.0 -1.13107001
O  O12  1  0.04361000  0.91139000  0.74817000  1.0 -0.7008786074
O  O13  1  0.01497000  0.86463000  0.85626000  1.0 -0.6539128742
O  O14  1  0.95010000  0.86730000  0.57638000  1.0 -0.3216112575
O  O15  1  0.45950000  0.54590000  0.79060000  1.0 -0.3834878674
O  O16  1  0.16833000  0.28447000  0.84305000  1.0 -0.7216435543
O  O17  1  0.03924000  0.14396000  0.91727000  1.0 -0.6424476823
O  O18  1  0.91847000  0.17473000  0.84540000  1.0 -0.7417436114
O  O19  1  0.08190000  0.07010000  0.82187000  1.0 -1.082577936
O  O20  1  0.94984000  0.08896000  0.54390000  1.0 -0.3113621047
O  O21  1  0.16028000  0.30252000  0.66666667  1.0 -0.7008786074
O  O22  1  0.33395000  0.47565000  0.70091000  1.0 -0.6068651697
O  O23  1  0.17470000  0.44350000  0.76600000  1.0 -0.7310761234
O  O24  1  0.94079000  0.22501000  0.66150000  1.0 -0.7700972727
O  O25  1  0.06577000  0.22423000  0.75478000  1.0 -1.135613831
O  O26  1  0.91139000  0.04361000  0.75183000  1.0 -0.7008786074
O  O27  1  0.86463000  0.01497000  0.64374000  1.0 -0.6539128742
O  O28  1  0.86730000  0.95010000  0.92362000  1.0 -0.3216112575
O  O29  1  0.28010000  0.28010000  0.75000000  1.0 -1.082577936
O  O30  1  0.45410000  0.54050000  0.29060000  1.0 -0.3834878674
O  O31  1  0.71553000  0.83167000  0.34305000  1.0 -0.7216435543
O  O32  1  0.85604000  0.96076000  0.41727000  1.0 -0.6424476823
O  O33  1  0.82527000  0.08153000  0.34540000  1.0 -0.7417436114
O  O34  1  0.92990000  0.91810000  0.32187000  1.0 -1.0856700263
O  O35  1  0.91104000  0.05016000  0.04390000  1.0 -0.3113621047
O  O36  1  0.69748000  0.83972000  0.16661000  1.0 -0.7008786074
O  O37  1  0.52435000  0.66605000  0.20091000  1.0 -0.6068651697
O  O38  1  0.55650000  0.82530000  0.26600000  1.0 -0.7310761234
O  O39  1  0.77499000  0.05921000  0.16150000  1.0 -0.7700972727
O  O40  1  0.77577000  0.93423000  0.25478000  1.0 -1.13107001
O  O41  1  0.95639000  0.08861000  0.25183000  1.0 -0.7008786074
O  O42  1  0.98503000  0.13537000  0.14374000  1.0 -0.6539128742
O  O43  1  0.04990000  0.13270000  0.42362000  1.0 -0.3216112575
O  O44  1  0.54050000  0.45410000  0.20940000  1.0 -0.3834878674
O  O45  1  0.83167000  0.71553000  0.15695000  1.0 -0.7216435543
O  O46  1  0.96076000  0.85604000  0.08273000  1.0 -0.6424476823
O  O47  1  0.08153000  0.82527000  0.15460000  1.0 -0.7417436114
O  O48  1  0.91810000  0.92990000  0.17813000  1.0 -1.0856700263
O  O49  1  0.05016000  0.91104000  0.45610000  1.0 -0.3113621047
O  O50  1  0.83972000  0.69748000  0.33339000  1.0 -0.7008786074
O  O51  1  0.66605000  0.52435000  0.29909000  1.0 -0.6068651697
O  O52  1  0.82530000  0.55650000  0.23400000  1.0 -0.7310761234
O  O53  1  0.05921000  0.77499000  0.33850000  1.0 -0.7700972727
O  O54  1  0.93423000  0.77577000  0.24522000  1.0 -1.13107001
O  O55  1  0.08861000  0.95639000  0.24817000  1.0 -0.7008786074
O  O56  1  0.13537000  0.98503000  0.35626000  1.0 -0.6539128742
O  O57  1  0.13270000  0.04990000  0.07638000  1.0 -0.3216112575
O  O58  1  0.71990000  0.71990000  0.25000000  1.0 -1.0856700263
