# DDEC6 charges by PACMAN v1.1 (https://github.com/mtap-research/PACMAN-charge/)
data_MAKHOZ_ion_pacman
_symmetry_space_group_name_H-M   'P 1'
_cell_length_a   11.53160000
_cell_length_b   14.68270000
_cell_length_c   26.67910000
_cell_angle_alpha   90.00000000
_cell_angle_beta   92.80170000
_cell_angle_gamma   90.00000000
_symmetry_Int_Tables_number   1
_chemical_formula_structural   Ba2Nb10H27C8N2O33
_chemical_formula_sum   'Ba8 Nb40 H108 C32 N8 O132'
_cell_volume   4511.77300598
_cell_formula_units_Z   4
loop_
 _symmetry_equiv_pos_site_id
 _symmetry_equiv_pos_as_xyz
  1  'x, y, z'
loop_
 _atom_site_type_symbol
 _atom_site_label
 _atom_site_symmetry_multiplicity
 _atom_site_fract_x
 _atom_site_fract_y
 _atom_site_fract_z
 _atom_site_occupancy
 _atom_site_charge
Ba  Ba1  1  0.88415000  0.64631000  0.61719000  1.0 1.5236435096
Ba  Ba2  1  0.11373000  0.15433000  0.88386000  1.0 1.4313135903
Ba  Ba3  1  0.61575000  0.47858000  0.63351000  1.0 1.5236435096
Ba  Ba4  1  0.61000000  0.48411000  0.13498000  1.0 1.536140577
Ba  Ba5  1  0.11585000  0.14631000  0.38281000  1.0 1.5264348548
Ba  Ba6  1  0.88627000  0.65433000  0.11614000  1.0 1.4313135903
Ba  Ba7  1  0.38425000  0.97858000  0.36649000  1.0 1.5264348548
Ba  Ba8  1  0.39000000  0.98411000  0.86502000  1.0 1.536140577
Nb  Nb1  1  0.30930000  0.72280000  0.43228000  1.0 2.3178753019
Nb  Nb2  1  0.09655000  0.59364000  0.37919000  1.0 2.2103017927
Nb  Nb3  1  0.27847000  0.71720000  0.30933000  1.0 2.3302700978
Nb  Nb4  1  0.13361000  0.59919000  0.50207000  1.0 2.3513828761
Nb  Nb5  1  0.41463000  0.53689000  0.49245000  1.0 2.3387708227
Nb  Nb6  1  0.20073000  0.40762000  0.43970000  1.0 2.3178753019
Nb  Nb7  1  0.06617000  0.58771000  0.25670000  1.0 2.3302700978
Nb  Nb8  1  0.38396000  0.53101000  0.36989000  1.0 2.2103017927
Nb  Nb9  1  0.34895000  0.52650000  0.24708000  1.0 2.3513828761
Nb  Nb10  1  0.17129000  0.40207000  0.31661000  1.0 2.3302700978
Nb  Nb11  1  0.33184000  0.71717000  0.81153000  1.0 2.3036065857
Nb  Nb12  1  0.30819000  0.73156000  0.93372000  1.0 2.3178753019
Nb  Nb13  1  0.11331000  0.60522000  0.86426000  1.0 2.2180443566
Nb  Nb14  1  0.41866000  0.51887000  0.76315000  1.0 2.3513828761
Nb  Nb15  1  0.14017000  0.59054000  0.74257000  1.0 2.370349006
Nb  Nb16  1  0.39738000  0.53351000  0.88473000  1.0 2.2103017927
Nb  Nb17  1  0.09121000  0.61869000  0.98607000  1.0 2.3302700978
Nb  Nb18  1  0.17921000  0.42136000  0.93727000  1.0 2.3036065857
Nb  Nb19  1  0.36936000  0.54770000  0.00621000  1.0 2.370349006
Nb  Nb20  1  0.20220000  0.40616000  0.81569000  1.0 2.3513828761
Nb  Nb21  1  0.69070000  0.22280000  0.56772000  1.0 2.3178753019
Nb  Nb22  1  0.90345000  0.09364000  0.62081000  1.0 2.2103017927
Nb  Nb23  1  0.72153000  0.21720000  0.69067000  1.0 2.3302700978
Nb  Nb24  1  0.86639000  0.09919000  0.49793000  1.0 2.3553281586
Nb  Nb25  1  0.58537000  0.03689000  0.50755000  1.0 2.3387708227
Nb  Nb26  1  0.79927000  0.90762000  0.56030000  1.0 2.3178753019
Nb  Nb27  1  0.93383000  0.08771000  0.74330000  1.0 2.3302700978
Nb  Nb28  1  0.61604000  0.03101000  0.63011000  1.0 2.2103017927
Nb  Nb29  1  0.65105000  0.02650000  0.75292000  1.0 2.3513828761
Nb  Nb30  1  0.82871000  0.90207000  0.68339000  1.0 2.3302700978
Nb  Nb31  1  0.66816000  0.21717000  0.18847000  1.0 2.3107980054
Nb  Nb32  1  0.69181000  0.23156000  0.06628000  1.0 2.3178753019
Nb  Nb33  1  0.88669000  0.10522000  0.13574000  1.0 2.2264014046
Nb  Nb34  1  0.58134000  0.01887000  0.23685000  1.0 2.3513828761
Nb  Nb35  1  0.85983000  0.09054000  0.25743000  1.0 2.370349006
Nb  Nb36  1  0.60262000  0.03351000  0.11527000  1.0 2.2103017927
Nb  Nb37  1  0.90879000  0.11869000  0.01393000  1.0 2.3302700978
Nb  Nb38  1  0.82079000  0.92136000  0.06273000  1.0 2.3036065857
Nb  Nb39  1  0.63064000  0.04770000  0.99379000  1.0 2.370349006
Nb  Nb40  1  0.79780000  0.90616000  0.18431000  1.0 2.3513828761
H  H1  1  0.93853000  0.11141000  0.85881000  1.0 0.2130565132
H  H2  1  0.87782000  0.03675000  0.87033000  1.0 0.3496194939
H  H3  1  0.79202000  0.56715000  0.21620000  1.0 0.3496194939
H  H4  1  0.69822000  0.62116000  0.22106000  1.0 0.3353911798
H  H5  1  0.34374000  0.53907000  0.65178000  1.0 0.3622848253
H  H6  1  0.34513000  0.53952000  0.60143000  1.0 0.3622848253
H  H7  1  0.06147000  0.61141000  0.14119000  1.0 0.2130565132
H  H8  1  0.12218000  0.53675000  0.12967000  1.0 0.3496194939
H  H9  1  0.20798000  0.06715000  0.78380000  1.0 0.3496194939
H  H10  1  0.30178000  0.12116000  0.77894000  1.0 0.334471808
H  H11  1  0.65626000  0.03907000  0.34822000  1.0 0.3622848253
H  H12  1  0.65487000  0.03952000  0.39857000  1.0 0.3622848253
H  H13  1  0.31150000  0.85475000  0.19496000  1.0 0.1779795434
H  H14  1  0.32019000  0.76079000  0.16749000  1.0 0.1779795434
H  H15  1  0.40709000  0.83932000  0.15602000  1.0 0.1779795434
H  H16  1  0.31450000  0.97867000  0.10835000  1.0 0.1707764595
H  H17  1  0.18165000  0.97121000  0.09343000  1.0 0.1707764595
H  H18  1  0.22318000  0.98199000  0.14995000  1.0 0.1707764595
H  H19  1  0.10997000  0.81326000  0.15697000  1.0 0.1779795434
H  H20  1  0.07933000  0.85868000  0.10482000  1.0 0.1779795434
H  H21  1  0.13383000  0.76087000  0.10732000  1.0 0.1707764595
H  H22  1  0.27290000  0.76746000  0.06508000  1.0 0.1779795434
H  H23  1  0.29059000  0.86876000  0.04853000  1.0 0.1779795434
H  H24  1  0.38734000  0.81924000  0.08165000  1.0 0.1779795434
H  H25  1  0.72819000  0.36827000  0.43101000  1.0 0.1779795434
H  H26  1  0.79149000  0.45045000  0.40665000  1.0 0.162249447
H  H27  1  0.65658000  0.43976000  0.39870000  1.0 0.1707764595
H  H28  1  0.57062000  0.33410000  0.33895000  1.0 0.1779795434
H  H29  1  0.65104000  0.26469000  0.31258000  1.0 0.1779795434
H  H30  1  0.62525000  0.25195000  0.36930000  1.0 0.1707764595
H  H31  1  0.83273000  0.25123000  0.39037000  1.0 0.1707764595
H  H32  1  0.87038000  0.27347000  0.33604000  1.0 0.1779795434
H  H33  1  0.91051000  0.33654000  0.38102000  1.0 0.1779795434
H  H34  1  0.84309000  0.41830000  0.31094000  1.0 0.1779795434
H  H35  1  0.71954000  0.39336000  0.28785000  1.0 0.1779795434
H  H36  1  0.73459000  0.47517000  0.32537000  1.0 0.162249447
H  H37  1  0.88046000  0.78560000  0.44228000  1.0 0.1779795434
H  H38  1  0.89013000  0.80430000  0.38479000  1.0 0.1707764595
H  H39  1  0.81638000  0.86938000  0.41723000  1.0 0.1707764595
H  H40  1  0.62654000  0.85337000  0.38709000  1.0 0.162249447
H  H41  1  0.56347000  0.76053000  0.39581000  1.0 0.1779795434
H  H42  1  0.61961000  0.81439000  0.44157000  1.0 0.1779795434
H  H43  1  0.73845000  0.71107000  0.47329000  1.0 0.1779795434
H  H44  1  0.66804000  0.64475000  0.43720000  1.0 0.1707764595
H  H45  1  0.80412000  0.64350000  0.43909000  1.0 0.1707764595
H  H46  1  0.81626000  0.68036000  0.34861000  1.0 0.1707764595
H  H47  1  0.68210000  0.66269000  0.34761000  1.0 0.1707764595
H  H48  1  0.72996000  0.75395000  0.32618000  1.0 0.1707764595
H  H49  1  0.34418000  0.37843000  0.13843000  1.0 0.1707764595
H  H50  1  0.41844000  0.29637000  0.12036000  1.0 0.1779795434
H  H51  1  0.36278000  0.36495000  0.08109000  1.0 0.1779795434
H  H52  1  0.15563000  0.37015000  0.06777000  1.0 0.1779795434
H  H53  1  0.07705000  0.29197000  0.08733000  1.0 0.1779795434
H  H54  1  0.12452000  0.36775000  0.12430000  1.0 0.1707764595
H  H55  1  0.21370000  0.26663000  0.18192000  1.0 0.1779795434
H  H56  1  0.16340000  0.18390000  0.15072000  1.0 0.1707764595
H  H57  1  0.29706000  0.19010000  0.16410000  1.0 0.1707764595
H  H58  1  0.33184000  0.17974000  0.06999000  1.0 0.1779795434
H  H59  1  0.19672000  0.16869000  0.06348000  1.0 0.1707764595
H  H60  1  0.25958000  0.24518000  0.03408000  1.0 0.1779795434
H  H61  1  0.68850000  0.35475000  0.80504000  1.0 0.1779795434
H  H62  1  0.67981000  0.26079000  0.83251000  1.0 0.1779795434
H  H63  1  0.59291000  0.33932000  0.84398000  1.0 0.1779795434
H  H64  1  0.68550000  0.47867000  0.89165000  1.0 0.1707764595
H  H65  1  0.81835000  0.47121000  0.90657000  1.0 0.1707764595
H  H66  1  0.77682000  0.48199000  0.85005000  1.0 0.1707764595
H  H67  1  0.89003000  0.31326000  0.84303000  1.0 0.1779795434
H  H68  1  0.92067000  0.35868000  0.89518000  1.0 0.1779795434
H  H69  1  0.86617000  0.26087000  0.89268000  1.0 0.1707764595
H  H70  1  0.72710000  0.26746000  0.93492000  1.0 0.1779795434
H  H71  1  0.70941000  0.36876000  0.95147000  1.0 0.1707764595
H  H72  1  0.61266000  0.31924000  0.91835000  1.0 0.1707764595
H  H73  1  0.27181000  0.86827000  0.56899000  1.0 0.1779795434
H  H74  1  0.20851000  0.95045000  0.59335000  1.0 0.162249447
H  H75  1  0.34342000  0.93976000  0.60130000  1.0 0.1707764595
H  H76  1  0.42938000  0.83410000  0.66105000  1.0 0.1779795434
H  H77  1  0.34896000  0.76469000  0.68742000  1.0 0.1779795434
H  H78  1  0.37475000  0.75195000  0.63070000  1.0 0.1707764595
H  H79  1  0.16727000  0.75123000  0.60963000  1.0 0.1707764595
H  H80  1  0.12962000  0.77347000  0.66396000  1.0 0.1707764595
H  H81  1  0.08949000  0.83654000  0.61898000  1.0 0.1779795434
H  H82  1  0.15691000  0.91830000  0.68906000  1.0 0.1779795434
H  H83  1  0.28046000  0.89336000  0.71215000  1.0 0.1779795434
H  H84  1  0.26541000  0.97517000  0.67463000  1.0 0.162249447
H  H85  1  0.11954000  0.28560000  0.55772000  1.0 0.1779795434
H  H86  1  0.10987000  0.30430000  0.61521000  1.0 0.1707764595
H  H87  1  0.18362000  0.36938000  0.58277000  1.0 0.1707764595
H  H88  1  0.37346000  0.35337000  0.61291000  1.0 0.162249447
H  H89  1  0.43653000  0.26053000  0.60419000  1.0 0.1779795434
H  H90  1  0.38039000  0.31439000  0.55843000  1.0 0.1779795434
H  H91  1  0.26155000  0.21107000  0.52671000  1.0 0.1779795434
H  H92  1  0.33196000  0.14475000  0.56280000  1.0 0.1707764595
H  H93  1  0.19588000  0.14350000  0.56091000  1.0 0.1707764595
H  H94  1  0.18374000  0.18036000  0.65139000  1.0 0.1707764595
H  H95  1  0.31790000  0.16269000  0.65239000  1.0 0.1707764595
H  H96  1  0.27004000  0.25395000  0.67382000  1.0 0.1707764595
H  H97  1  0.65582000  0.87843000  0.86157000  1.0 0.1707764595
H  H98  1  0.58156000  0.79637000  0.87964000  1.0 0.1779795434
H  H99  1  0.63722000  0.86495000  0.91891000  1.0 0.1779795434
H  H100  1  0.84437000  0.87015000  0.93223000  1.0 0.1779795434
H  H101  1  0.92295000  0.79197000  0.91267000  1.0 0.1779795434
H  H102  1  0.87548000  0.86775000  0.87570000  1.0 0.1707764595
H  H103  1  0.78630000  0.76663000  0.81808000  1.0 0.1779795434
H  H104  1  0.83660000  0.68390000  0.84928000  1.0 0.1707764595
H  H105  1  0.70294000  0.69010000  0.83590000  1.0 0.1707764595
H  H106  1  0.66816000  0.67974000  0.93001000  1.0 0.1779795434
H  H107  1  0.80328000  0.66869000  0.93652000  1.0 0.1707764595
H  H108  1  0.74042000  0.74518000  0.96592000  1.0 0.1779795434
C  C1  1  0.32880000  0.82550000  0.16400000  1.0 -0.3140414085
C  C2  1  0.24120000  0.95560000  0.11830000  1.0 -0.3298034369
C  C3  1  0.13320000  0.81960000  0.12310000  1.0 -0.3298034369
C  C4  1  0.30500000  0.82500000  0.07500000  1.0 -0.3216883261
C  C5  1  0.72900000  0.40760000  0.40230000  1.0 -0.3356261391
C  C6  1  0.63780000  0.29580000  0.34340000  1.0 -0.3140414085
C  C7  1  0.84840000  0.29930000  0.36720000  1.0 -0.3356261391
C  C8  1  0.76200000  0.41550000  0.31720000  1.0 -0.3298034369
C  C9  1  0.83990000  0.80740000  0.41240000  1.0 -0.3140414085
C  C10  1  0.62710000  0.79880000  0.40690000  1.0 -0.3298034369
C  C11  1  0.73680000  0.68150000  0.44120000  1.0 -0.3298034369
C  C12  1  0.74160000  0.70800000  0.35160000  1.0 -0.3298034369
C  C13  1  0.35230000  0.33420000  0.11230000  1.0 -0.3298034369
C  C14  1  0.14170000  0.33120000  0.09580000  1.0 -0.3216883261
C  C15  1  0.22820000  0.22450000  0.15540000  1.0 -0.3216883261
C  C16  1  0.25950000  0.21170000  0.06500000  1.0 -0.3140414085
C  C17  1  0.67120000  0.32550000  0.83600000  1.0 -0.3140414085
C  C18  1  0.75880000  0.45560000  0.88170000  1.0 -0.3298034369
C  C19  1  0.86680000  0.31960000  0.87690000  1.0 -0.3298034369
C  C20  1  0.69500000  0.32500000  0.92500000  1.0 -0.3216883261
C  C21  1  0.27100000  0.90760000  0.59770000  1.0 -0.3356261391
C  C22  1  0.36220000  0.79580000  0.65660000  1.0 -0.3140414085
C  C23  1  0.15160000  0.79930000  0.63280000  1.0 -0.3356261391
C  C24  1  0.23800000  0.91550000  0.68280000  1.0 -0.3298034369
C  C25  1  0.16010000  0.30740000  0.58760000  1.0 -0.3140414085
C  C26  1  0.37290000  0.29880000  0.59310000  1.0 -0.3298034369
C  C27  1  0.26320000  0.18150000  0.55880000  1.0 -0.3298034369
C  C28  1  0.25840000  0.20800000  0.64840000  1.0 -0.3298034369
C  C29  1  0.64770000  0.83420000  0.88770000  1.0 -0.3298034369
C  C30  1  0.85830000  0.83120000  0.90420000  1.0 -0.3216883261
C  C31  1  0.77180000  0.72450000  0.84460000  1.0 -0.3298034369
C  C32  1  0.74050000  0.71170000  0.93500000  1.0 -0.3140414085
N  N1  1  0.24770000  0.85880000  0.12330000  1.0 0.2962961059
N  N2  1  0.74470000  0.35470000  0.35860000  1.0 0.2833848656
N  N3  1  0.73620000  0.75040000  0.40140000  1.0 0.2879795741
N  N4  1  0.24470000  0.27620000  0.10770000  1.0 0.2879795741
N  N5  1  0.75230000  0.35880000  0.87670000  1.0 0.2879795741
N  N6  1  0.25530000  0.85470000  0.64140000  1.0 0.2833848656
N  N7  1  0.26380000  0.25040000  0.59860000  1.0 0.2879795741
N  N8  1  0.75530000  0.77620000  0.89230000  1.0 0.2833848656
O  O1  1  0.88840000  0.09220000  0.87860000  1.0 -0.6190715869
O  O2  1  0.38900000  0.66666667  0.36870000  1.0 -1.0204949457
O  O3  1  0.17840000  0.71220000  0.37480000  1.0 -1.0204949457
O  O4  1  0.35110000  0.83530000  0.42810000  1.0 -0.7782180845
O  O5  1  0.19720000  0.55550000  0.21600000  1.0 -0.9789136687
O  O6  1  0.19290000  0.71930000  0.48150000  1.0 -0.9326490383
O  O7  1  0.05070000  0.45700000  0.27500000  1.0 -0.9326490383
O  O8  1  0.45680000  0.50970000  0.31210000  1.0 -0.8597560365
O  O9  1  0.31400000  0.83230000  0.30810000  1.0 -0.7908839424
O  O10  1  0.37250000  0.65780000  0.26130000  1.0 -0.9405736763
O  O11  1  0.28510000  0.56870000  0.53300000  1.0 -0.9789136687
O  O12  1  0.48790000  0.51550000  0.42340000  1.0 -0.8809432526
O  O13  1  0.34410000  0.41510000  0.48030000  1.0 -0.9405736763
O  O14  1  0.22660000  0.56020000  0.32280000  1.0 -1.260230704
O  O15  1  0.13610000  0.70930000  0.26940000  1.0 -0.9326490383
O  O16  1  0.10720000  0.46660000  0.48800000  1.0 -0.9477961276
O  O17  1  0.04870000  0.62210000  0.55230000  1.0 -0.8372734327
O  O18  1  0.99260000  0.60960000  0.32530000  1.0 -0.8809432526
O  O19  1  0.28810000  0.40530000  0.26710000  1.0 -0.9405736763
O  O20  1  0.53010000  0.51910000  0.53660000  1.0 -0.7782180845
O  O21  1  0.02490000  0.61480000  0.43770000  1.0 -0.8686264494
O  O22  1  0.43360000  0.50390000  0.19630000  1.0 -0.8465909202
O  O23  1  0.43080000  0.66700000  0.47410000  1.0 -0.9326490383
O  O24  1  0.25440000  0.56530000  0.42710000  1.0 -1.260230704
O  O25  1  0.95200000  0.60500000  0.21220000  1.0 -0.8372734327
O  O26  1  0.09110000  0.45620000  0.38060000  1.0 -1.0204949457
O  O27  1  0.13010000  0.28730000  0.32130000  1.0 -0.8196503137
O  O28  1  0.30160000  0.41110000  0.37450000  1.0 -1.0296261747
O  O29  1  0.15890000  0.29340000  0.44150000  1.0 -0.8196503137
O  O30  1  0.20440000  0.72080000  0.86650000  1.0 -1.0204949457
O  O31  1  0.41240000  0.66920000  0.88040000  1.0 -1.0296261747
O  O32  1  0.35720000  0.84260000  0.93130000  1.0 -0.7601492046
O  O33  1  0.37980000  0.83000000  0.81120000  1.0 -0.8314943452
O  O34  1  0.10690000  0.46220000  0.76310000  1.0 -0.9477961276
O  O35  1  0.16810000  0.73580000  0.97080000  1.0 -0.9326490383
O  O36  1  0.22310000  0.58690000  0.03210000  1.0 -0.9613475342
O  O37  1  0.44350000  0.65100000  0.77520000  1.0 -0.9326490383
O  O38  1  0.26700000  0.56280000  0.82320000  1.0 -1.2714032967
O  O39  1  0.47430000  0.51900000  0.94620000  1.0 -0.8686264494
O  O40  1  0.49590000  0.50580000  0.83510000  1.0 -0.8809432526
O  O41  1  0.28660000  0.54960000  0.71710000  1.0 -0.9789136687
O  O42  1  0.20980000  0.71080000  0.76010000  1.0 -0.9405736763
O  O43  1  0.34050000  0.40180000  0.77830000  1.0 -0.9405736763
O  O44  1  0.01510000  0.63290000  0.91420000  1.0 -0.8961189229
O  O45  1  0.30090000  0.42660000  0.98960000  1.0 -0.9477961276
O  O46  1  0.03730000  0.62000000  0.80310000  1.0 -0.8686264494
O  O47  1  0.06570000  0.48560000  0.97420000  1.0 -0.9405736763
O  O48  1  0.05110000  0.60910000  0.68920000  1.0 -0.8196503137
O  O49  1  0.40280000  0.67620000  0.98720000  1.0 -0.9405736763
O  O50  1  0.52640000  0.48810000  0.72380000  1.0 -0.8115362762
O  O51  1  0.98240000  0.64450000  0.02530000  1.0 -0.7782180845
O  O52  1  0.46180000  0.52790000  0.05920000  1.0 -0.8196503137
O  O53  1  0.24500000  0.57500000  0.92700000  1.0 -1.260230704
O  O54  1  0.09830000  0.46930000  0.86920000  1.0 -1.0368197997
O  O55  1  0.13220000  0.30850000  0.93620000  1.0 -0.8115362762
O  O56  1  0.15200000  0.29390000  0.82010000  1.0 -0.8115362762
O  O57  1  0.30740000  0.41660000  0.88310000  1.0 -1.0204949457
O  O58  1  0.76930000  0.58170000  0.70150000  1.0 -0.5894623239
O  O59  1  0.63890000  0.66820000  0.62240000  1.0 -0.7320653041
O  O60  1  0.71850000  0.56520000  0.21950000  1.0 -0.6828959424
O  O61  1  0.85130000  0.46340000  0.12810000  1.0 -0.7601492046
O  O62  1  0.64030000  0.67400000  0.12720000  1.0 -0.6892988045
O  O63  1  0.86900000  0.45350000  0.62500000  1.0 -0.5894623239
O  O64  1  0.38260000  0.52030000  0.62760000  1.0 -0.6892988045
O  O65  1  0.76220000  0.54920000  0.53980000  1.0 -0.4957023103
O  O66  1  0.72610000  0.55740000  0.04790000  1.0 -0.5190265019
O  O67  1  0.11160000  0.59220000  0.12140000  1.0 -0.6190715869
O  O68  1  0.61100000  0.16667000  0.63130000  1.0 -1.0204949457
O  O69  1  0.82160000  0.21220000  0.62520000  1.0 -1.0204949457
O  O70  1  0.64890000  0.33530000  0.57190000  1.0 -0.7782180845
O  O71  1  0.80280000  0.05550000  0.78400000  1.0 -0.9789136687
O  O72  1  0.80710000  0.21930000  0.51850000  1.0 -0.9405736763
O  O73  1  0.94930000  0.95700000  0.72500000  1.0 -0.9326490383
O  O74  1  0.54320000  0.00970000  0.68790000  1.0 -0.8597560365
O  O75  1  0.68600000  0.33230000  0.69190000  1.0 -0.7908839424
O  O76  1  0.62750000  0.15780000  0.73870000  1.0 -0.9405736763
O  O77  1  0.71490000  0.06870000  0.46700000  1.0 -0.9789136687
O  O78  1  0.51210000  0.01550000  0.57660000  1.0 -0.8809432526
O  O79  1  0.65590000  0.91510000  0.51970000  1.0 -0.9405736763
O  O80  1  0.77340000  0.06020000  0.67720000  1.0 -1.260230704
O  O81  1  0.86390000  0.20930000  0.73060000  1.0 -0.9326490383
O  O82  1  0.89280000  0.96660000  0.51200000  1.0 -0.9477961276
O  O83  1  0.95130000  0.12210000  0.44770000  1.0 -0.8372734327
O  O84  1  0.00740000  0.10960000  0.67470000  1.0 -0.8809432526
O  O85  1  0.71190000  0.90530000  0.73290000  1.0 -0.9477961276
O  O86  1  0.46990000  0.01910000  0.46340000  1.0 -0.7782180845
O  O87  1  0.97510000  0.11480000  0.56230000  1.0 -0.8686264494
O  O88  1  0.56640000  0.00390000  0.80370000  1.0 -0.8465909202
O  O89  1  0.56920000  0.16700000  0.52590000  1.0 -0.9326490383
O  O90  1  0.74560000  0.06530000  0.57290000  1.0 -1.260230704
O  O91  1  0.04800000  0.10500000  0.78780000  1.0 -0.8372734327
O  O92  1  0.90890000  0.95620000  0.61940000  1.0 -1.0204949457
O  O93  1  0.86990000  0.78730000  0.67870000  1.0 -0.8196503137
O  O94  1  0.69840000  0.91110000  0.62550000  1.0 -1.0296261747
O  O95  1  0.84110000  0.79340000  0.55850000  1.0 -0.8196503137
O  O96  1  0.79560000  0.22080000  0.13350000  1.0 -1.0204949457
O  O97  1  0.58760000  0.16920000  0.11960000  1.0 -1.0296261747
O  O98  1  0.64280000  0.34260000  0.06870000  1.0 -0.7601492046
O  O99  1  0.62020000  0.33000000  0.18880000  1.0 -0.8314943452
O  O100  1  0.89310000  0.96220000  0.23690000  1.0 -0.9477961276
O  O101  1  0.83190000  0.23580000  0.02920000  1.0 -0.9326490383
O  O102  1  0.77690000  0.08690000  0.96790000  1.0 -0.9613475342
O  O103  1  0.55650000  0.15100000  0.22480000  1.0 -0.9326490383
O  O104  1  0.73300000  0.06280000  0.17680000  1.0 -1.2714032967
O  O105  1  0.52570000  0.01900000  0.05380000  1.0 -0.8686264494
O  O106  1  0.50410000  0.00580000  0.16490000  1.0 -0.8809432526
O  O107  1  0.71340000  0.04960000  0.28290000  1.0 -0.9789136687
O  O108  1  0.79020000  0.21080000  0.23990000  1.0 -0.9405736763
O  O109  1  0.65950000  0.90180000  0.22170000  1.0 -0.9405736763
O  O110  1  0.98490000  0.13290000  0.08580000  1.0 -0.8944962461
O  O111  1  0.69910000  0.92660000  0.01040000  1.0 -0.9477961276
O  O112  1  0.96270000  0.12000000  0.19690000  1.0 -0.8686264494
O  O113  1  0.93430000  0.98560000  0.02580000  1.0 -0.9405736763
O  O114  1  0.94890000  0.10910000  0.31080000  1.0 -0.8196503137
O  O115  1  0.59720000  0.17620000  0.01280000  1.0 -0.9477961276
O  O116  1  0.47360000  0.98810000  0.27620000  1.0 -0.8115362762
O  O117  1  0.01760000  0.14450000  0.97470000  1.0 -0.7782180845
O  O118  1  0.53820000  0.02790000  0.94080000  1.0 -0.8196503137
O  O119  1  0.75500000  0.07500000  0.07300000  1.0 -1.260230704
O  O120  1  0.90170000  0.96930000  0.13080000  1.0 -1.0368197997
O  O121  1  0.86780000  0.80850000  0.06380000  1.0 -0.8115362762
O  O122  1  0.84800000  0.79390000  0.17990000  1.0 -0.8115362762
O  O123  1  0.69260000  0.91660000  0.11690000  1.0 -1.0204949457
O  O124  1  0.23070000  0.08170000  0.29850000  1.0 -0.5843724449
O  O125  1  0.36110000  0.16820000  0.37760000  1.0 -0.7320653041
O  O126  1  0.28150000  0.06520000  0.78050000  1.0 -0.6892988045
O  O127  1  0.14870000  0.96340000  0.87190000  1.0 -0.7540026147
O  O128  1  0.35970000  0.17400000  0.87280000  1.0 -0.6892988045
O  O129  1  0.13100000  0.95350000  0.37500000  1.0 -0.5986574728
O  O130  1  0.61740000  0.02030000  0.37240000  1.0 -0.6892988045
O  O131  1  0.23780000  0.04920000  0.46020000  1.0 -0.4957023103
O  O132  1  0.27390000  0.05740000  0.95210000  1.0 -0.5190265019
