# DDEC6 charges by PACMAN v1.1 (https://github.com/mtap-research/PACMAN-charge/)
data_MAKRAU_FSR_pacman
_symmetry_space_group_name_H-M   'P 1'
_cell_length_a   12.63680000
_cell_length_b   14.48270000
_cell_length_c   18.08200000
_cell_angle_alpha   83.37300000
_cell_angle_beta   69.73200000
_cell_angle_gamma   85.88800000
_symmetry_Int_Tables_number   1
_chemical_formula_structural   KNiH42C55N5O13
_chemical_formula_sum   'K2 Ni2 H84 C110 N10 O26'
_cell_volume   3081.84490819
_cell_formula_units_Z   2
loop_
 _symmetry_equiv_pos_site_id
 _symmetry_equiv_pos_as_xyz
  1  'x, y, z'
loop_
 _atom_site_type_symbol
 _atom_site_label
 _atom_site_symmetry_multiplicity
 _atom_site_fract_x
 _atom_site_fract_y
 _atom_site_fract_z
 _atom_site_occupancy
 _atom_site_charge
K  K1  1  0.42860000  0.50226000  0.91774000  1.0 0.8680073676
K  K2  1  0.57140000  0.49774000  0.08226000  1.0 0.8680073676
Ni  Ni1  1  0.20733000  0.02331000  0.48400000  1.0 0.3833430168
Ni  Ni2  1  0.79267000  0.97669000  0.51600000  1.0 0.3860869166
H  H1  1  0.24070000  0.37160000  0.44030000  1.0 0.1198983973
H  H2  1  0.75930000  0.62840000  0.55970000  1.0 0.1198983973
H  H3  1  0.15220000  0.33600000  0.34630000  1.0 0.1198983973
H  H4  1  0.84780000  0.66400000  0.65370000  1.0 0.1198983973
H  H5  1  0.95610000  0.03870000  0.32020000  1.0 0.1294889919
H  H6  1  0.04390000  0.96130000  0.67980000  1.0 0.1294889919
H  H7  1  0.97830000  0.87260000  0.35570000  1.0 0.1294889919
H  H8  1  0.02170000  0.12740000  0.64430000  1.0 0.1294889919
H  H9  1  0.27140000  0.67770000  0.46860000  1.0 0.1198983973
H  H10  1  0.72860000  0.32230000  0.53140000  1.0 0.1198983973
H  H11  1  0.36220000  0.71120000  0.56170000  1.0 0.1198983973
H  H12  1  0.63780000  0.28880000  0.43830000  1.0 0.1198983973
H  H13  1  0.36410000  0.00610000  0.70520000  1.0 0.1294889919
H  H14  1  0.63590000  0.99390000  0.29480000  1.0 0.1294889919
H  H15  1  0.32570000  0.17260000  0.67950000  1.0 0.1294889919
H  H16  1  0.67430000  0.82740000  0.32050000  1.0 0.1294889919
H  H17  1  0.93160000  0.28640000  0.37930000  1.0 0.1122794463
H  H18  1  0.06840000  0.71360000  0.62070000  1.0 0.1122794463
H  H19  1  0.86470000  0.37200000  0.28850000  1.0 0.1379009914
H  H20  1  0.13530000  0.62800000  0.71150000  1.0 0.1379009914
H  H21  1  0.08100000  0.23580000  0.11560000  1.0 0.1122794463
H  H22  1  0.91900000  0.76420000  0.88440000  1.0 0.1122794463
H  H23  1  0.14560000  0.14760000  0.20740000  1.0 0.1198983973
H  H24  1  0.85440000  0.85240000  0.79260000  1.0 0.1198983973
H  H25  1  0.96980000  0.29130000  0.05530000  1.0 0.1122794463
H  H26  1  0.03020000  0.70870000  0.94470000  1.0 0.1122794463
H  H27  1  0.02400000  0.38950000  0.03970000  1.0 0.1294889919
H  H28  1  0.97600000  0.61050000  0.96030000  1.0 0.1294889919
H  H29  1  0.84660000  0.43830000  0.94460000  1.0 0.332830852
H  H30  1  0.15340000  0.56170000  0.05540000  1.0 0.332830852
H  H31  1  0.17600000  0.79910000  0.27880000  1.0 0.1198983973
H  H32  1  0.82400000  0.20090000  0.72120000  1.0 0.1198983973
H  H33  1  0.17130000  0.66890000  0.21810000  1.0 0.1198983973
H  H34  1  0.82870000  0.33110000  0.78190000  1.0 0.1198983973
H  H35  1  0.06280000  0.52430000  0.43140000  1.0 0.1294889919
H  H36  1  0.93720000  0.47570000  0.56860000  1.0 0.1294889919
H  H37  1  0.06530000  0.65460000  0.49010000  1.0 0.1122794463
H  H38  1  0.93470000  0.34540000  0.50990000  1.0 0.1122794463
H  H39  1  0.09130000  0.55230000  0.19340000  1.0 0.1122794463
H  H40  1  0.90870000  0.44770000  0.80660000  1.0 0.1122794463
H  H41  1  0.11480000  0.44460000  0.19700000  1.0 0.1198983973
H  H42  1  0.88520000  0.55540000  0.80300000  1.0 0.1198983973
H  H43  1  0.24990000  0.76710000  0.71770000  1.0 0.1198983973
H  H44  1  0.75010000  0.23290000  0.28230000  1.0 0.1198983973
H  H45  1  0.32130000  0.68860000  0.80930000  1.0 0.1379009914
H  H46  1  0.67870000  0.31140000  0.19070000  1.0 0.1379009914
H  H47  1  0.61660000  0.80860000  0.69840000  1.0 0.1198983973
H  H48  1  0.38340000  0.19140000  0.30160000  1.0 0.1198983973
H  H49  1  0.54320000  0.88780000  0.60730000  1.0 0.1198983973
H  H50  1  0.45680000  0.11220000  0.39270000  1.0 0.1198983973
H  H51  1  0.60420000  0.79170000  0.82980000  1.0 0.1294889919
H  H52  1  0.39580000  0.20830000  0.17020000  1.0 0.1294889919
H  H53  1  0.67170000  0.70290000  0.79300000  1.0 0.1379009914
H  H54  1  0.32830000  0.29710000  0.20700000  1.0 0.1379009914
H  H55  1  0.69230000  0.69060000  0.97070000  1.0 0.3428561297
H  H56  1  0.30770000  0.30940000  0.02930000  1.0 0.3428561297
H  H57  1  0.15200000  0.37970000  0.58770000  1.0 0.1198983973
H  H58  1  0.84800000  0.62030000  0.41230000  1.0 0.1198983973
H  H59  1  0.20640000  0.51260000  0.62030000  1.0 0.1294889919
H  H60  1  0.79360000  0.48740000  0.37970000  1.0 0.1294889919
H  H61  1  0.51370000  0.39710000  0.59190000  1.0 0.1294889919
H  H62  1  0.48630000  0.60290000  0.40810000  1.0 0.1294889919
H  H63  1  0.45860000  0.26540000  0.55670000  1.0 0.1122794463
H  H64  1  0.54140000  0.73460000  0.44330000  1.0 0.1122794463
H  H65  1  0.51480000  0.63040000  0.62020000  1.0 0.1294889919
H  H66  1  0.48520000  0.36960000  0.37980000  1.0 0.1294889919
H  H67  1  0.55520000  0.53840000  0.57910000  1.0 0.1122794463
H  H68  1  0.44480000  0.46160000  0.42090000  1.0 0.1122794463
H  H69  1  0.64500000  0.50320000  0.72800000  1.0 0.3544395027
H  H70  1  0.35500000  0.49680000  0.27200000  1.0 0.3544395027
H  H71  1  0.23070000  0.24510000  0.93750000  1.0 0.0963257906
H  H72  1  0.76930000  0.75490000  0.06250000  1.0 0.0963257906
H  H73  1  0.20120000  0.46430000  0.86420000  1.0 0.1198983973
H  H74  1  0.79880000  0.53570000  0.13580000  1.0 0.1198983973
H  H75  1  0.11060000  0.44190000  0.82820000  1.0 0.1198983973
H  H76  1  0.88940000  0.55810000  0.17180000  1.0 0.1198983973
H  H77  1  0.23920000  0.43650000  0.77730000  1.0 0.1294889919
H  H78  1  0.76080000  0.56350000  0.22270000  1.0 0.1294889919
H  H79  1  0.10150000  0.21570000  0.86940000  1.0 0.1294889919
H  H80  1  0.89850000  0.78430000  0.13060000  1.0 0.1294889919
H  H81  1  0.18490000  0.24020000  0.78320000  1.0 0.1294889919
H  H82  1  0.81510000  0.75980000  0.21680000  1.0 0.1294889919
H  H83  1  0.07270000  0.29950000  0.81570000  1.0 0.1379009914
H  H84  1  0.92730000  0.70050000  0.18430000  1.0 0.1379009914
C  C1  1  0.22751000  0.22828000  0.48168000  1.0 0.1606279619
C  C2  1  0.77249000  0.77172000  0.51832000  1.0 0.1606279619
C  C3  1  0.21777000  0.31363000  0.43553000  1.0 -0.1917570967
C  C4  1  0.78223000  0.68637000  0.56447000  1.0 -0.1917570967
C  C5  1  0.16914000  0.29414000  0.38398000  1.0 -0.1990628995
C  C6  1  0.83086000  0.70586000  0.61602000  1.0 -0.1990628995
C  C7  1  0.14830000  0.19664000  0.39810000  1.0 0.1606279619
C  C8  1  0.85170000  0.80336000  0.60190000  1.0 0.1606279619
C  C9  1  0.08994000  0.15206000  0.36168000  1.0 -0.071452652
C  C10  1  0.91006000  0.84794000  0.63832000  1.0 -0.071452652
C  C11  1  0.07212000  0.05812000  0.37670000  1.0 0.1606279619
C  C12  1  0.92788000  0.94188000  0.62330000  1.0 0.1606279619
C  C13  1  0.00225000  0.01117000  0.34756000  1.0 -0.1917570967
C  C14  1  0.99775000  0.98883000  0.65244000  1.0 -0.1917570967
C  C15  1  0.01473000  0.92017000  0.36657000  1.0 -0.1917570967
C  C16  1  0.98527000  0.07983000  0.63343000  1.0 -0.1917570967
C  C17  1  0.09533000  0.91001000  0.40713000  1.0 0.1730802116
C  C18  1  0.90467000  0.08999000  0.59287000  1.0 0.1730802116
C  C19  1  0.14341000  0.82528000  0.42529000  1.0 -0.071452652
C  C20  1  0.85659000  0.17472000  0.57471000  1.0 -0.071452652
C  C21  1  0.21498000  0.81915000  0.46924000  1.0 0.1730802116
C  C22  1  0.78502000  0.18085000  0.53076000  1.0 0.1730802116
C  C23  1  0.27054000  0.73469000  0.48783000  1.0 -0.1990628995
C  C24  1  0.72946000  0.26531000  0.51217000  1.0 -0.1917570967
C  C25  1  0.32114000  0.75329000  0.53832000  1.0 -0.1917570967
C  C26  1  0.67886000  0.24671000  0.46168000  1.0 -0.1917570967
C  C27  1  0.30019000  0.84987000  0.54952000  1.0 0.1606279619
C  C28  1  0.69981000  0.15013000  0.45048000  1.0 0.1606279619
C  C29  1  0.33459000  0.89391000  0.60072000  1.0 -0.071452652
C  C30  1  0.66541000  0.10609000  0.39928000  1.0 -0.071452652
C  C31  1  0.31768000  0.98795000  0.60662000  1.0 0.1606279619
C  C32  1  0.68232000  0.01205000  0.39338000  1.0 0.1606279619
C  C33  1  0.33983000  0.03413000  0.66472000  1.0 -0.1771389711
C  C34  1  0.66017000  0.96587000  0.33528000  1.0 -0.1771389711
C  C35  1  0.31930000  0.12552000  0.65053000  1.0 -0.1917570967
C  C36  1  0.68070000  0.87448000  0.34947000  1.0 -0.1917570967
C  C37  1  0.28530000  0.13617000  0.58137000  1.0 0.1606279619
C  C38  1  0.71470000  0.86383000  0.41863000  1.0 0.1606279619
C  C39  1  0.26734000  0.22179000  0.54402000  1.0 -0.071452652
C  C40  1  0.73266000  0.77821000  0.45598000  1.0 -0.071452652
C  C41  1  0.04534000  0.20786000  0.30327000  1.0 0.0686667059
C  C42  1  0.95466000  0.79214000  0.69673000  1.0 0.0686667059
C  C43  1  0.96164000  0.27521000  0.32627000  1.0 -0.1243515405
C  C44  1  0.03836000  0.72479000  0.67373000  1.0 -0.1243515405
C  C45  1  0.92138000  0.32654000  0.27193000  1.0 -0.2192829748
C  C46  1  0.07862000  0.67346000  0.72807000  1.0 -0.2192829748
C  C47  1  0.96436000  0.31089000  0.19421000  1.0 0.2227776405
C  C48  1  0.03564000  0.68911000  0.80579000  1.0 0.2227776405
C  C49  1  0.04984000  0.24516000  0.16900000  1.0 -0.2192829748
C  C50  1  0.95016000  0.75484000  0.83100000  1.0 -0.2192829748
C  C51  1  0.08902000  0.19313000  0.22404000  1.0 -0.1290992442
C  C52  1  0.91098000  0.80687000  0.77596000  1.0 -0.1290992442
C  C53  1  0.95480000  0.35620000  0.06529000  1.0 -0.1705420333
C  C54  1  0.04520000  0.64380000  0.93471000  1.0 -0.1705420333
C  C55  1  0.86280000  0.39790000  0.03383000  1.0 0.5796136913
C  C56  1  0.13720000  0.60210000  0.96617000  1.0 0.5796136913
C  C57  1  0.12658000  0.74104000  0.39058000  1.0 0.0686667059
C  C58  1  0.87342000  0.25896000  0.60942000  1.0 0.0686667059
C  C59  1  0.15463000  0.74313000  0.30980000  1.0 -0.1243515405
C  C60  1  0.84537000  0.25687000  0.69020000  1.0 -0.1243515405
C  C61  1  0.15225000  0.66505000  0.27282000  1.0 -0.2192829748
C  C62  1  0.84775000  0.33495000  0.72718000  1.0 -0.2192829748
C  C63  1  0.12142000  0.58185000  0.31803000  1.0 0.2421113011
C  C64  1  0.87858000  0.41815000  0.68197000  1.0 0.2421113011
C  C65  1  0.08727000  0.57952000  0.40015000  1.0 -0.2192829748
C  C66  1  0.91273000  0.42048000  0.59985000  1.0 -0.2192829748
C  C67  1  0.08934000  0.65745000  0.43516000  1.0 -0.1361893173
C  C68  1  0.91066000  0.34255000  0.56484000  1.0 -0.1361893173
C  C69  1  0.13917000  0.50259000  0.20684000  1.0 -0.1990628995
C  C70  1  0.86083000  0.49741000  0.79316000  1.0 -0.1990628995
C  C71  1  0.25951000  0.51733000  0.15170000  1.0 0.5972184744
C  C72  1  0.74049000  0.48267000  0.84830000  1.0 0.5972184744
C  C73  1  0.38699000  0.83796000  0.65464000  1.0 0.0686667059
C  C74  1  0.61301000  0.16204000  0.34536000  1.0 0.0686667059
C  C75  1  0.32346000  0.77705000  0.71417000  1.0 -0.1290992442
C  C76  1  0.67654000  0.22295000  0.28583000  1.0 -0.1290992442
C  C77  1  0.36596000  0.72989000  0.76929000  1.0 -0.1990628995
C  C78  1  0.63404000  0.27011000  0.23071000  1.0 -0.1990628995
C  C79  1  0.47390000  0.74402000  0.76488000  1.0 0.2227776405
C  C80  1  0.52610000  0.25598000  0.23512000  1.0 0.2227776405
C  C81  1  0.54182000  0.80144000  0.70330000  1.0 -0.2192829748
C  C82  1  0.45818000  0.19856000  0.29670000  1.0 -0.2192829748
C  C83  1  0.49764000  0.84852000  0.64866000  1.0 -0.1290992442
C  C84  1  0.50236000  0.15148000  0.35134000  1.0 -0.1290992442
C  C85  1  0.60467000  0.72436000  0.83375000  1.0 -0.1771389711
C  C86  1  0.39533000  0.27564000  0.16625000  1.0 -0.1771389711
C  C87  1  0.60523000  0.68450000  0.91428000  1.0 0.5972184744
C  C88  1  0.39477000  0.31550000  0.08572000  1.0 0.5972184744
C  C89  1  0.29927000  0.30841000  0.56833000  1.0 0.0686667059
C  C90  1  0.70073000  0.69159000  0.43167000  1.0 0.0686667059
C  C91  1  0.22514000  0.38305000  0.58785000  1.0 -0.1361893173
C  C92  1  0.77486000  0.61695000  0.41215000  1.0 -0.1361893173
C  C93  1  0.25754000  0.46251000  0.60751000  1.0 -0.2192829748
C  C94  1  0.74246000  0.53749000  0.39249000  1.0 -0.2192829748
C  C95  1  0.36719000  0.46873000  0.60837000  1.0 0.2421113011
C  C96  1  0.63281000  0.53127000  0.39163000  1.0 0.2421113011
C  C97  1  0.44113000  0.39449000  0.59038000  1.0 -0.2192829748
C  C98  1  0.55887000  0.60551000  0.40962000  1.0 -0.2192829748
C  C99  1  0.40739000  0.31536000  0.56987000  1.0 -0.1290992442
C  C100  1  0.59261000  0.68464000  0.43013000  1.0 -0.1290992442
C  C101  1  0.50220000  0.56436000  0.62549000  1.0 -0.1917570967
C  C102  1  0.49780000  0.43564000  0.37451000  1.0 -0.1917570967
C  C103  1  0.52495000  0.51921000  0.69833000  1.0 0.5721091685
C  C104  1  0.47505000  0.48079000  0.30167000  1.0 0.5721091685
C  C105  1  0.23620000  0.30680000  0.91600000  1.0 0.2667155322
C  C106  1  0.76380000  0.69320000  0.08400000  1.0 0.2667155322
C  C107  1  0.18500000  0.42610000  0.82970000  1.0 -0.3327970225
C  C108  1  0.81500000  0.57390000  0.17030000  1.0 -0.3327970225
C  C109  1  0.13250000  0.26540000  0.82930000  1.0 -0.3327970225
C  C110  1  0.86750000  0.73460000  0.17070000  1.0 -0.3327970225
N  N1  1  0.18841000  0.15573000  0.45665000  1.0 -0.2891307342
N  N2  1  0.81159000  0.84427000  0.54335000  1.0 -0.2891307342
N  N3  1  0.12577000  0.99565000  0.41707000  1.0 -0.2810199502
N  N4  1  0.87423000  0.00435000  0.58293000  1.0 -0.2810199502
N  N5  1  0.23749000  0.89091000  0.50422000  1.0 -0.2891307342
N  N6  1  0.76251000  0.10909000  0.49578000  1.0 -0.2891307342
N  N7  1  0.27865000  0.05143000  0.55749000  1.0 -0.2810199502
N  N8  1  0.72135000  0.94857000  0.44251000  1.0 -0.2810199502
N  N9  1  0.19100000  0.32780000  0.85929000  1.0 0.0212398712
N  N10  1  0.80900000  0.67220000  0.14071000  1.0 0.0212398712
O  O1  1  0.91487000  0.36451000  0.14675000  1.0 -0.1645560357
O  O2  1  0.08513000  0.63549000  0.85325000  1.0 -0.1645560357
O  O3  1  0.76949000  0.40924000  0.07563000  1.0 -0.4763634446
O  O4  1  0.23051000  0.59076000  0.92437000  1.0 -0.4763634446
O  O5  1  0.89885000  0.41701000  0.95912000  1.0 -0.4500719104
O  O6  1  0.10115000  0.58299000  0.04088000  1.0 -0.4500719104
O  O7  1  0.12146000  0.49969000  0.28842000  1.0 -0.1705420333
O  O8  1  0.87854000  0.50031000  0.71158000  1.0 -0.1705420333
O  O9  1  0.33859000  0.51024000  0.17752000  1.0 -0.5690248552
O  O10  1  0.66141000  0.48976000  0.82248000  1.0 -0.5690248552
O  O11  1  0.27041000  0.53415000  0.08002000  1.0 -0.5875620785
O  O12  1  0.72959000  0.46585000  0.91998000  1.0 -0.5875620785
O  O13  1  0.50777000  0.69511000  0.82346000  1.0 -0.1705420333
O  O14  1  0.49223000  0.30489000  0.17654000  1.0 -0.1705420333
O  O15  1  0.69297000  0.71179000  0.92646000  1.0 -0.4670388493
O  O16  1  0.30703000  0.28821000  0.07354000  1.0 -0.4670388493
O  O17  1  0.53831000  0.63361000  0.96014000  1.0 -0.5056427959
O  O18  1  0.46169000  0.36639000  0.03986000  1.0 -0.5056427959
O  O19  1  0.39045000  0.55153000  0.62822000  1.0 -0.1705420333
O  O20  1  0.60955000  0.44847000  0.37178000  1.0 -0.1705420333
O  O21  1  0.63276000  0.52530000  0.68773000  1.0 -0.4500719104
O  O22  1  0.36724000  0.47470000  0.31227000  1.0 -0.4500719104
O  O23  1  0.45627000  0.48677000  0.75671000  1.0 -0.4763634446
O  O24  1  0.54373000  0.51323000  0.24329000  1.0 -0.4763634446
O  O25  1  0.28161000  0.35465000  0.94269000  1.0 -0.4367090556
O  O26  1  0.71839000  0.64535000  0.05731000  1.0 -0.4367090556
