# DDEC6 charges by PACMAN v1.1 (https://github.com/mtap-research/PACMAN-charge/)
data_MAKROG_ASR_pacman
_symmetry_space_group_name_H-M   'P 1'
_cell_length_a   15.19260000
_cell_length_b   15.19260000
_cell_length_c   17.46310000
_cell_angle_alpha   86.45730000
_cell_angle_beta   93.54270000
_cell_angle_gamma   151.91200000
_symmetry_Int_Tables_number   1
_chemical_formula_structural   Co3H4C12(N9O)2
_chemical_formula_sum   'Co6 H8 C24 N36 O4'
_cell_volume   1893.93125807
_cell_formula_units_Z   2
loop_
 _symmetry_equiv_pos_site_id
 _symmetry_equiv_pos_as_xyz
  1  'x, y, z'
loop_
 _atom_site_type_symbol
 _atom_site_label
 _atom_site_symmetry_multiplicity
 _atom_site_fract_x
 _atom_site_fract_y
 _atom_site_fract_z
 _atom_site_occupancy
 _atom_site_charge
Co  Co1  1  0.89536000  0.86206000  0.84769000  1.0 1.0247454995
Co  Co2  1  0.86206000  0.89536000  0.65231000  1.0 1.0247454995
Co  Co3  1  0.10464000  0.13794000  0.15231000  1.0 1.0247454995
Co  Co4  1  0.13794000  0.10464000  0.34769000  1.0 1.0247454995
Co  Co5  1  0.50000000  0.00000000  0.00000000  1.0 0.9468758458
Co  Co6  1  0.00000000  0.50000000  0.50000000  1.0 0.9468758458
H  H1  1  0.56860000  0.60880000  0.76310000  1.0 0.3119641745
H  H2  1  0.60880000  0.56860000  0.73690000  1.0 0.3119641745
H  H3  1  0.43140000  0.39120000  0.23690000  1.0 0.3119641745
H  H4  1  0.39120000  0.43140000  0.26310000  1.0 0.3119641745
H  H5  1  0.11980000  0.16140000  0.76210000  1.0 0.317792421
H  H6  1  0.16140000  0.11980000  0.73790000  1.0 0.317792421
H  H7  1  0.88020000  0.83860000  0.23790000  1.0 0.317792421
H  H8  1  0.83860000  0.88020000  0.26210000  1.0 0.317792421
C  C1  1  0.72120000  0.89900000  0.86180000  1.0 0.4503707976
C  C2  1  0.89900000  0.72120000  0.63820000  1.0 0.4503707976
C  C3  1  0.27880000  0.10100000  0.13820000  1.0 0.4503707976
C  C4  1  0.10100000  0.27880000  0.36180000  1.0 0.4503707976
C  C5  1  0.59725000  0.92095000  0.89730000  1.0 0.4970167034
C  C6  1  0.92095000  0.59725000  0.60270000  1.0 0.4970167034
C  C7  1  0.40275000  0.07905000  0.10270000  1.0 0.4970167034
C  C8  1  0.07905000  0.40275000  0.39730000  1.0 0.4916765028
C  C9  1  0.57293000  0.48367000  0.94250000  1.0 0.4503707976
C  C10  1  0.48367000  0.57293000  0.55750000  1.0 0.4503707976
C  C11  1  0.42707000  0.51633000  0.05750000  1.0 0.4503707976
C  C12  1  0.51633000  0.42707000  0.44250000  1.0 0.4503707976
C  C13  1  0.26734000  0.18306000  0.94600000  1.0 0.4503707976
C  C14  1  0.18306000  0.26734000  0.55400000  1.0 0.4503707976
C  C15  1  0.73266000  0.81694000  0.05400000  1.0 0.4503707976
C  C16  1  0.81694000  0.73266000  0.44600000  1.0 0.4503707976
C  C17  1  0.05796000  0.81524000  0.81640000  1.0 0.4503707976
C  C18  1  0.81524000  0.05796000  0.68360000  1.0 0.4503707976
C  C19  1  0.94204000  0.18476000  0.18360000  1.0 0.4503707976
C  C20  1  0.18476000  0.94204000  0.31640000  1.0 0.4503707976
C  C21  1  0.24263000  0.86717000  0.86650000  1.0 0.4916765028
C  C22  1  0.86717000  0.24263000  0.63350000  1.0 0.4916765028
C  C23  1  0.75737000  0.13283000  0.13350000  1.0 0.4916765028
C  C24  1  0.13283000  0.75737000  0.36650000  1.0 0.4916765028
N  N1  1  0.80516000  0.90884000  0.86216000  1.0 -0.5178585695
N  N2  1  0.90884000  0.80516000  0.63784000  1.0 -0.5178585695
N  N3  1  0.19484000  0.09116000  0.13784000  1.0 -0.5178585695
N  N4  1  0.09116000  0.19484000  0.36216000  1.0 -0.5178585695
N  N5  1  0.62009000  0.87971000  0.85030000  1.0 -0.4071375153
N  N6  1  0.87971000  0.62009000  0.64970000  1.0 -0.4071375153
N  N7  1  0.37991000  0.12029000  0.14970000  1.0 -0.4071375153
N  N8  1  0.12029000  0.37991000  0.35030000  1.0 -0.4071375153
N  N9  1  0.56079000  0.94761000  0.93180000  1.0 -0.5103942877
N  N10  1  0.94761000  0.56079000  0.56820000  1.0 -0.5178585695
N  N11  1  0.43921000  0.05239000  0.06820000  1.0 -0.5103942877
N  N12  1  0.05239000  0.43921000  0.43180000  1.0 -0.5178585695
N  N13  1  0.70342000  0.63438000  0.91980000  1.0 -0.5029052807
N  N14  1  0.63438000  0.70342000  0.58020000  1.0 -0.5029052807
N  N15  1  0.29658000  0.36562000  0.08020000  1.0 -0.5029052807
N  N16  1  0.36562000  0.29658000  0.41980000  1.0 -0.5029052807
N  N17  1  0.43674000  0.31686000  0.97370000  1.0 -0.3742581478
N  N18  1  0.31686000  0.43674000  0.52630000  1.0 -0.3742581478
N  N19  1  0.56326000  0.68314000  0.02630000  1.0 -0.3742581478
N  N20  1  0.68314000  0.56326000  0.47370000  1.0 -0.3742581478
N  N21  1  0.11682000  0.06038000  0.92440000  1.0 -0.5029052807
N  N22  1  0.06038000  0.11682000  0.57560000  1.0 -0.5029052807
N  N23  1  0.88318000  0.93962000  0.07560000  1.0 -0.5029052807
N  N24  1  0.93962000  0.88318000  0.42440000  1.0 -0.5029052807
N  N25  1  0.98884000  0.82296000  0.81487000  1.0 -0.5296346492
N  N26  1  0.82296000  0.98884000  0.68513000  1.0 -0.5296346492
N  N27  1  0.01116000  0.17704000  0.18513000  1.0 -0.5296346492
N  N28  1  0.17704000  0.01116000  0.31487000  1.0 -0.5296346492
N  N29  1  0.12519000  0.79561000  0.81300000  1.0 -0.421283426
N  N30  1  0.79561000  0.12519000  0.68700000  1.0 -0.421283426
N  N31  1  0.87481000  0.20439000  0.18700000  1.0 -0.421283426
N  N32  1  0.20439000  0.87481000  0.31300000  1.0 -0.421283426
N  N33  1  0.34529000  0.92331000  0.90860000  1.0 -0.5103942877
N  N34  1  0.92331000  0.34529000  0.59140000  1.0 -0.5029052807
N  N35  1  0.65471000  0.07669000  0.09140000  1.0 -0.5103942877
N  N36  1  0.07669000  0.65471000  0.40860000  1.0 -0.5103942877
O  O1  1  0.67300000  0.67300000  0.75000000  1.0 -0.6543636567
O  O2  1  0.32700000  0.32700000  0.25000000  1.0 -0.6543636567
O  O3  1  0.06830000  0.06830000  0.75000000  1.0 -0.6219364053
O  O4  1  0.93170000  0.93170000  0.25000000  1.0 -0.6219364053
