# DDEC6 charges by PACMAN v1.1 (https://github.com/mtap-research/PACMAN-charge/)
data_MANDUD_ASR_pacman
_symmetry_space_group_name_H-M   'P 1'
_cell_length_a   21.25660000
_cell_length_b   21.25660000
_cell_length_c   26.08100000
_cell_angle_alpha   56.45040000
_cell_angle_beta   123.55000000
_cell_angle_gamma   111.14600000
_symmetry_Int_Tables_number   1
_chemical_formula_structural   GdH12(C4O)6
_chemical_formula_sum   'Gd8 H96 C192 O48'
_cell_volume   8159.12183748
_cell_formula_units_Z   8
loop_
 _symmetry_equiv_pos_site_id
 _symmetry_equiv_pos_as_xyz
  1  'x, y, z'
loop_
 _atom_site_type_symbol
 _atom_site_label
 _atom_site_symmetry_multiplicity
 _atom_site_fract_x
 _atom_site_fract_y
 _atom_site_fract_z
 _atom_site_occupancy
 _atom_site_charge
Gd  Gd1  1  0.17069000  0.35975000  0.89978000  1.0 2.0239897488
Gd  Gd2  1  0.64025000  0.82931000  0.39978000  1.0 2.0239897488
Gd  Gd3  1  0.97506000  0.49460000  0.76238000  1.0 2.0690242767
Gd  Gd4  1  0.50540000  0.02494000  0.26238000  1.0 2.0690242767
Gd  Gd5  1  0.35975000  0.17069000  0.60022000  1.0 2.0239897488
Gd  Gd6  1  0.82931000  0.64025000  0.10022000  1.0 2.0239897488
Gd  Gd7  1  0.49460000  0.97506000  0.73762000  1.0 2.0690242767
Gd  Gd8  1  0.02494000  0.50540000  0.23762000  1.0 2.0690242767
H  H1  1  0.10189000  0.62393000  0.88176000  1.0 0.1298144001
H  H2  1  0.37607000  0.89811000  0.38176000  1.0 0.1298144001
H  H3  1  0.29164000  0.53348000  0.97288000  1.0 0.1298144001
H  H4  1  0.46652000  0.70836000  0.47288000  1.0 0.1298144001
H  H5  1  0.16254000  0.68808000  0.94643000  1.0 0.1118291491
H  H6  1  0.31192000  0.83746000  0.44643000  1.0 0.1118291491
H  H7  1  0.35768000  0.60977000  0.02182000  1.0 0.1202773873
H  H8  1  0.39023000  0.64233000  0.52182000  1.0 0.1202773873
H  H9  1  0.29977000  0.85579000  0.04396000  1.0 0.1202773873
H  H10  1  0.14421000  0.70023000  0.54396000  1.0 0.1202773873
H  H11  1  0.46381000  0.71419000  0.16869000  1.0 0.1118291491
H  H12  1  0.28581000  0.53619000  0.66869000  1.0 0.1118291491
H  H13  1  0.36211000  0.91111000  0.11505000  1.0 0.1202773873
H  H14  1  0.08889000  0.63789000  0.61505000  1.0 0.1202773873
H  H15  1  0.52048000  0.76729000  0.24352000  1.0 0.1202773873
H  H16  1  0.23270000  0.47953000  0.74352000  1.0 0.1202773873
H  H17  1  0.87890000  0.35688000  0.65761000  1.0 0.1202773873
H  H18  1  0.64312000  0.12110000  0.15761000  1.0 0.1202773873
H  H19  1  0.03684000  0.21547000  0.79331000  1.0 0.1298144001
H  H20  1  0.78453000  0.96317000  0.29331000  1.0 0.1298144001
H  H21  1  0.81514000  0.28412000  0.59547000  1.0 0.1118291491
H  H22  1  0.71588000  0.18486000  0.09547000  1.0 0.1118291491
H  H23  1  0.98210000  0.14602000  0.73708000  1.0 0.1298144001
H  H24  1  0.85398000  0.01790000  0.23708000  1.0 0.1298144001
H  H25  1  0.72429000  0.17927000  0.45400000  1.0 0.1118291491
H  H26  1  0.82073000  0.27571000  0.95400000  1.0 0.1118291491
H  H27  1  0.84784000  0.00564000  0.61220000  1.0 0.1202773873
H  H28  1  0.99436000  0.15216000  0.11220000  1.0 0.1202773873
H  H29  1  0.65212000  0.10886000  0.39484000  1.0 0.1202773873
H  H30  1  0.89114000  0.34788000  0.89484000  1.0 0.1118291491
H  H31  1  0.77714000  0.93386000  0.55373000  1.0 0.1118291491
H  H32  1  0.06614000  0.22286000  0.05373000  1.0 0.1118291491
H  H33  1  0.32715000  0.32099000  0.83143000  1.0 0.1202773873
H  H34  1  0.67902000  0.67285000  0.33143000  1.0 0.1202773873
H  H35  1  0.41693000  0.47365000  0.89863000  1.0 0.1298144001
H  H36  1  0.52635000  0.58307000  0.39863000  1.0 0.1298144001
H  H37  1  0.43087000  0.33309000  0.82043000  1.0 0.1118291491
H  H38  1  0.66691000  0.56913000  0.32043000  1.0 0.1118291491
H  H39  1  0.52328000  0.49904000  0.88338000  1.0 0.1202773873
H  H40  1  0.50096000  0.47672000  0.38338000  1.0 0.1202773873
H  H41  1  0.73740000  0.50672000  0.87200000  1.0 0.1202773873
H  H42  1  0.49328000  0.26260000  0.37200000  1.0 0.1202773873
H  H43  1  0.61436000  0.39530000  0.75732000  1.0 0.1118291491
H  H44  1  0.60470000  0.38564000  0.25732000  1.0 0.1118291491
H  H45  1  0.84239000  0.51531000  0.85940000  1.0 0.1202773873
H  H46  1  0.48469000  0.15761000  0.35940000  1.0 0.1202773873
H  H47  1  0.71172000  0.42294000  0.73051000  1.0 0.1298144001
H  H48  1  0.57706000  0.28828000  0.23051000  1.0 0.1298144001
H  H49  1  0.62393000  0.10189000  0.61824000  1.0 0.1298144001
H  H50  1  0.89811000  0.37607000  0.11824000  1.0 0.1298144001
H  H51  1  0.53348000  0.29164000  0.52712000  1.0 0.1298144001
H  H52  1  0.70836000  0.46652000  0.02712000  1.0 0.1298144001
H  H53  1  0.68808000  0.16254000  0.55357000  1.0 0.1118291491
H  H54  1  0.83746000  0.31192000  0.05357000  1.0 0.1118291491
H  H55  1  0.60977000  0.35768000  0.47818000  1.0 0.1202773873
H  H56  1  0.64233000  0.39023000  0.97818000  1.0 0.1202773873
H  H57  1  0.85579000  0.29977000  0.45604000  1.0 0.1202773873
H  H58  1  0.70023000  0.14421000  0.95604000  1.0 0.1202773873
H  H59  1  0.71419000  0.46381000  0.33131000  1.0 0.1118291491
H  H60  1  0.53619000  0.28581000  0.83131000  1.0 0.1118291491
H  H61  1  0.91111000  0.36211000  0.38495000  1.0 0.1202773873
H  H62  1  0.63789000  0.08889000  0.88495000  1.0 0.1202773873
H  H63  1  0.76729000  0.52048000  0.25648000  1.0 0.1202773873
H  H64  1  0.47952000  0.23271000  0.75648000  1.0 0.1202773873
H  H65  1  0.35688000  0.87890000  0.84239000  1.0 0.1202773873
H  H66  1  0.12110000  0.64312000  0.34239000  1.0 0.1202773873
H  H67  1  0.21546000  0.03684000  0.70669000  1.0 0.1298144001
H  H68  1  0.96317000  0.78454000  0.20669000  1.0 0.1298144001
H  H69  1  0.28412000  0.81514000  0.90453000  1.0 0.1118291491
H  H70  1  0.18486000  0.71588000  0.40453000  1.0 0.1118291491
H  H71  1  0.14602000  0.98210000  0.76292000  1.0 0.1298144001
H  H72  1  0.01790000  0.85398000  0.26292000  1.0 0.1298144001
H  H73  1  0.17927000  0.72429000  0.04600000  1.0 0.1118291491
H  H74  1  0.27571000  0.82073000  0.54600000  1.0 0.1118291491
H  H75  1  0.00564000  0.84784000  0.88780000  1.0 0.1202773873
H  H76  1  0.15216000  0.99436000  0.38780000  1.0 0.1202773873
H  H77  1  0.10886000  0.65212000  0.10516000  1.0 0.1202773873
H  H78  1  0.34788000  0.89114000  0.60516000  1.0 0.1202773873
H  H79  1  0.93386000  0.77714000  0.94627000  1.0 0.1118291491
H  H80  1  0.22286000  0.06614000  0.44627000  1.0 0.1118291491
H  H81  1  0.32098000  0.32715000  0.66857000  1.0 0.1202773873
H  H82  1  0.67284000  0.67902000  0.16857000  1.0 0.1202773873
H  H83  1  0.47365000  0.41693000  0.60137000  1.0 0.1298144001
H  H84  1  0.58307000  0.52635000  0.10137000  1.0 0.1298144001
H  H85  1  0.33309000  0.43087000  0.67957000  1.0 0.1118291491
H  H86  1  0.56913000  0.66691000  0.17957000  1.0 0.1118291491
H  H87  1  0.49904000  0.52328000  0.61662000  1.0 0.1202773873
H  H88  1  0.47672000  0.50096000  0.11662000  1.0 0.1202773873
H  H89  1  0.50672000  0.73740000  0.62800000  1.0 0.1202773873
H  H90  1  0.26260000  0.49328000  0.12800000  1.0 0.1202773873
H  H91  1  0.39530000  0.61436000  0.74268000  1.0 0.1118291491
H  H92  1  0.38564000  0.60470000  0.24268000  1.0 0.1118291491
H  H93  1  0.51531000  0.84239000  0.64060000  1.0 0.1202773873
H  H94  1  0.15761000  0.48469000  0.14060000  1.0 0.1202773873
H  H95  1  0.42294000  0.71172000  0.76949000  1.0 0.1298144001
H  H96  1  0.28828000  0.57706000  0.26949000  1.0 0.1298144001
C  C1  1  0.14680000  0.52200000  0.88450000  1.0 0.6524325131
C  C2  1  0.47800000  0.85320000  0.38450000  1.0 0.6524325131
C  C3  1  0.19000000  0.56840000  0.92310000  1.0 -0.0245582697
C  C4  1  0.43160000  0.81000000  0.42310000  1.0 -0.0245582697
C  C5  1  0.45120000  0.84740000  0.18790000  1.0 -0.0123625536
C  C6  1  0.15260000  0.54880000  0.68790000  1.0 -0.0123625536
C  C7  1  0.15290000  0.61810000  0.91330000  1.0 -0.0919593736
C  C8  1  0.38190000  0.84710000  0.41330000  1.0 -0.0919593736
C  C9  1  0.26590000  0.56730000  0.96550000  1.0 -0.0919593736
C  C10  1  0.43270000  0.73410000  0.46550000  1.0 -0.0919593736
C  C11  1  0.19090000  0.65970000  0.95040000  1.0 -0.1408125506
C  C12  1  0.34030000  0.80910000  0.45040000  1.0 -0.1408125506
C  C13  1  0.30530000  0.61050000  0.99650000  1.0 -0.1194147256
C  C14  1  0.38950000  0.69470000  0.49650000  1.0 -0.1194147256
C  C15  1  0.26560000  0.66160000  0.99120000  1.0 0.1118291491
C  C16  1  0.33840000  0.73440000  0.49120000  1.0 0.1118291491
C  C17  1  0.30750000  0.70150000  0.03020000  1.0 -0.1014945401
C  C18  1  0.29850000  0.69250000  0.53020000  1.0 -0.1014945401
C  C19  1  0.33860000  0.73820000  0.06070000  1.0 -0.0919593736
C  C20  1  0.26180000  0.66140000  0.56070000  1.0 -0.0919593736
C  C21  1  0.34520000  0.83820000  0.08330000  1.0 -0.1408125506
C  C22  1  0.16180000  0.65480000  0.58330000  1.0 -0.1408125506
C  C23  1  0.44220000  0.75340000  0.15800000  1.0 -0.1408125506
C  C24  1  0.24660000  0.55780000  0.65800000  1.0 -0.1408125506
C  C25  1  0.37520000  0.77940000  0.09840000  1.0 0.1298144001
C  C26  1  0.22060000  0.62480000  0.59840000  1.0 0.1298144001
C  C27  1  0.38290000  0.87070000  0.12670000  1.0 -0.1014945401
C  C28  1  0.12930000  0.61710000  0.62670000  1.0 -0.1014945401
C  C29  1  0.47730000  0.78730000  0.20230000  1.0 -0.1108223808
C  C30  1  0.21270000  0.52270000  0.70230000  1.0 -0.1108223808
C  C31  1  0.49000000  0.88560000  0.23440000  1.0 0.6364632367
C  C32  1  0.11440000  0.51000000  0.73440000  1.0 0.6364632367
C  C33  1  0.99940000  0.33740000  0.77130000  1.0 0.6595401882
C  C34  1  0.66260000  0.00060000  0.27130000  1.0 0.6595401882
C  C35  1  0.96650000  0.29290000  0.73380000  1.0 -0.06848837
C  C36  1  0.70710000  0.03350000  0.23380000  1.0 -0.06848837
C  C37  1  0.90030000  0.31470000  0.67300000  1.0 -0.0808478022
C  C38  1  0.68530000  0.09970000  0.17300000  1.0 -0.0808478022
C  C39  1  0.99260000  0.23140000  0.75200000  1.0 -0.0808478022
C  C40  1  0.76860000  0.00740000  0.25200000  1.0 -0.0808478022
C  C41  1  0.86310000  0.27350000  0.63280000  1.0 -0.1408125506
C  C42  1  0.72650000  0.13690000  0.13280000  1.0 -0.1408125506
C  C43  1  0.96330000  0.19110000  0.71900000  1.0 -0.1290778548
C  C44  1  0.80890000  0.03670000  0.21900000  1.0 -0.1290778548
C  C45  1  0.89820000  0.22280000  0.65000000  1.0 0.1370068758
C  C46  1  0.77720000  0.10180000  0.15000000  1.0 0.1370068758
C  C47  1  0.86580000  0.16920000  0.61700000  1.0 -0.0919593736
C  C48  1  0.83080000  0.13420000  0.11700000  1.0 -0.0919593736
C  C49  1  0.83320000  0.13920000  0.58030000  1.0 -0.1194147256
C  C50  1  0.86080000  0.16680000  0.08030000  1.0 -0.1194147256
C  C51  1  0.78900000  0.09920000  0.53970000  1.0 0.1370068758
C  C52  1  0.90080000  0.21100000  0.03970000  1.0 0.1370068758
C  C53  1  0.73440000  0.12940000  0.47500000  1.0 -0.1577576951
C  C54  1  0.87060000  0.26560000  0.97500000  1.0 -0.1577576951
C  C55  1  0.80760000  0.02600000  0.56840000  1.0 -0.1408125506
C  C56  1  0.97400000  0.19240000  0.06840000  1.0 -0.1408125506
C  C57  1  0.69300000  0.08820000  0.43800000  1.0 -0.0630524836
C  C58  1  0.91180000  0.30700000  0.93800000  1.0 -0.0630524836
C  C59  1  0.76720000  0.98400000  0.53240000  1.0 -0.0630524836
C  C60  1  0.01600000  0.23280000  0.03240000  1.0 -0.0630524836
C  C61  1  0.71150000  0.01610000  0.46440000  1.0 -0.0808478022
C  C62  1  0.98390000  0.28850000  0.96440000  1.0 -0.0808478022
C  C63  1  0.66750000  0.97150000  0.42790000  1.0 0.6364632367
C  C64  1  0.02850000  0.33250000  0.92790000  1.0 0.6364632367
C  C65  1  0.29590000  0.37330000  0.88480000  1.0 0.5355828523
C  C66  1  0.62670000  0.70410000  0.38480000  1.0 0.5348314165
C  C67  1  0.36290000  0.39670000  0.86870000  1.0 -0.0123625536
C  C68  1  0.60330000  0.63710000  0.36870000  1.0 -0.0123625536
C  C69  1  0.36730000  0.35570000  0.84300000  1.0 -0.1108223808
C  C70  1  0.64430000  0.63270000  0.34300000  1.0 -0.1108223808
C  C71  1  0.41940000  0.44680000  0.88140000  1.0 -0.1014945401
C  C72  1  0.55320000  0.58060000  0.38140000  1.0 -0.1014945401
C  C73  1  0.42730000  0.36470000  0.83300000  1.0 -0.1577576951
C  C74  1  0.63530000  0.57270000  0.33300000  1.0 -0.1577576951
C  C75  1  0.48390000  0.46410000  0.87160000  1.0 -0.1577576951
C  C76  1  0.53590000  0.51610000  0.37160000  1.0 -0.1577576951
C  C77  1  0.48430000  0.42390000  0.84220000  1.0 0.1370068758
C  C78  1  0.57610000  0.51570000  0.34220000  1.0 0.1370068758
C  C79  1  0.54850000  0.42870000  0.83530000  1.0 -0.1108223808
C  C80  1  0.57130000  0.45150000  0.33530000  1.0 -0.1108223808
C  C81  1  0.60150000  0.44250000  0.82550000  1.0 -0.0919593736
C  C82  1  0.55750000  0.39850000  0.32550000  1.0 -0.0919593736
C  C83  1  0.66390000  0.45690000  0.81160000  1.0 0.1298144001
C  C84  1  0.54310000  0.33610000  0.31160000  1.0 0.1298144001
C  C85  1  0.73220000  0.48860000  0.84440000  1.0 -0.1577576951
C  C86  1  0.51140000  0.26780000  0.34440000  1.0 -0.1577576951
C  C87  1  0.65810000  0.42430000  0.77370000  1.0 -0.1468799592
C  C88  1  0.57570000  0.34190000  0.27370000  1.0 -0.1468799592
C  C89  1  0.79530000  0.49430000  0.83690000  1.0 -0.0919593736
C  C90  1  0.50570000  0.20470000  0.33690000  1.0 -0.0919593736
C  C91  1  0.71790000  0.43630000  0.76160000  1.0 -0.0919593736
C  C92  1  0.56370000  0.28210000  0.26160000  1.0 -0.0919593736
C  C93  1  0.78410000  0.46690000  0.79440000  1.0 0.0034420837
C  C94  1  0.53310000  0.21590000  0.29440000  1.0 0.0034420837
C  C95  1  0.85400000  0.48320000  0.78210000  1.0 0.5459827899
C  C96  1  0.51680000  0.14600000  0.28210000  1.0 0.5459827899
C  C97  1  0.52200000  0.14680000  0.61550000  1.0 0.6524325131
C  C98  1  0.85320000  0.47800000  0.11550000  1.0 0.6524325131
C  C99  1  0.56840000  0.19000000  0.57690000  1.0 -0.0245582697
C  C100  1  0.81000000  0.43160000  0.07690000  1.0 -0.0245582697
C  C101  1  0.84740000  0.45120000  0.31210000  1.0 -0.0123625536
C  C102  1  0.54880000  0.15260000  0.81210000  1.0 -0.0123625536
C  C103  1  0.61810000  0.15290000  0.58670000  1.0 -0.0919593736
C  C104  1  0.84710000  0.38190000  0.08670000  1.0 -0.0919593736
C  C105  1  0.56730000  0.26590000  0.53450000  1.0 -0.0919593736
C  C106  1  0.73410000  0.43270000  0.03450000  1.0 -0.0919593736
C  C107  1  0.65970000  0.19090000  0.54960000  1.0 -0.1408125506
C  C108  1  0.80910000  0.34030000  0.04960000  1.0 -0.1408125506
C  C109  1  0.61050000  0.30530000  0.50350000  1.0 -0.1194147256
C  C110  1  0.69470000  0.38950000  0.00350000  1.0 -0.1194147256
C  C111  1  0.66160000  0.26560000  0.50880000  1.0 0.1118291491
C  C112  1  0.73440000  0.33840000  0.00880000  1.0 0.1118291491
C  C113  1  0.70150000  0.30750000  0.46980000  1.0 -0.1014945401
C  C114  1  0.69250000  0.29850000  0.96980000  1.0 -0.1014945401
C  C115  1  0.73820000  0.33860000  0.43930000  1.0 -0.0919593736
C  C116  1  0.66140000  0.26180000  0.93930000  1.0 -0.0919593736
C  C117  1  0.83820000  0.34520000  0.41670000  1.0 -0.1408125506
C  C118  1  0.65480000  0.16180000  0.91670000  1.0 -0.1408125506
C  C119  1  0.75340000  0.44220000  0.34200000  1.0 -0.1408125506
C  C120  1  0.55780000  0.24660000  0.84200000  1.0 -0.1408125506
C  C121  1  0.77940000  0.37520000  0.40160000  1.0 0.1298144001
C  C122  1  0.62480000  0.22060000  0.90160000  1.0 0.1298144001
C  C123  1  0.87070000  0.38290000  0.37330000  1.0 -0.1014945401
C  C124  1  0.61710000  0.12930000  0.87330000  1.0 -0.1014945401
C  C125  1  0.78730000  0.47730000  0.29770000  1.0 -0.1108223808
C  C126  1  0.52270000  0.21270000  0.79770000  1.0 -0.1108223808
C  C127  1  0.88560000  0.49000000  0.26560000  1.0 0.6364632367
C  C128  1  0.51000000  0.11440000  0.76560000  1.0 0.6364632367
C  C129  1  0.33740000  0.99940000  0.72870000  1.0 0.6595401882
C  C130  1  0.00060000  0.66260000  0.22870000  1.0 0.6595401882
C  C131  1  0.29290000  0.96650000  0.76620000  1.0 -0.06848837
C  C132  1  0.03350000  0.70710000  0.26620000  1.0 -0.06848837
C  C133  1  0.31470000  0.90030000  0.82700000  1.0 -0.0808478022
C  C134  1  0.09970000  0.68530000  0.32700000  1.0 -0.0808478022
C  C135  1  0.23140000  0.99260000  0.74800000  1.0 -0.0808478022
C  C136  1  0.00740000  0.76860000  0.24800000  1.0 -0.0808478022
C  C137  1  0.27350000  0.86310000  0.86720000  1.0 -0.1408125506
C  C138  1  0.13690000  0.72650000  0.36720000  1.0 -0.1408125506
C  C139  1  0.19110000  0.96330000  0.78100000  1.0 -0.1290778548
C  C140  1  0.03670000  0.80890000  0.28100000  1.0 -0.1290778548
C  C141  1  0.22280000  0.89820000  0.85000000  1.0 0.1370068758
C  C142  1  0.10180000  0.77720000  0.35000000  1.0 0.1370068758
C  C143  1  0.16920000  0.86580000  0.88300000  1.0 -0.0919593736
C  C144  1  0.13420000  0.83080000  0.38300000  1.0 -0.0919593736
C  C145  1  0.13920000  0.83320000  0.91970000  1.0 -0.1194147256
C  C146  1  0.16680000  0.86080000  0.41970000  1.0 -0.1194147256
C  C147  1  0.09920000  0.78900000  0.96030000  1.0 0.1370068758
C  C148  1  0.21100000  0.90080000  0.46030000  1.0 0.1370068758
C  C149  1  0.12940000  0.73440000  0.02500000  1.0 -0.1577576951
C  C150  1  0.26560000  0.87060000  0.52500000  1.0 -0.1577576951
C  C151  1  0.02600000  0.80760000  0.93160000  1.0 -0.1408125506
C  C152  1  0.19240000  0.97400000  0.43160000  1.0 -0.1408125506
C  C153  1  0.08820000  0.69300000  0.06200000  1.0 -0.0630524836
C  C154  1  0.30700000  0.91180000  0.56200000  1.0 -0.0630524836
C  C155  1  0.98400000  0.76720000  0.96760000  1.0 -0.0630524836
C  C156  1  0.23280000  0.01600000  0.46760000  1.0 -0.0630524836
C  C157  1  0.01610000  0.71150000  0.03560000  1.0 -0.0808478022
C  C158  1  0.28850000  0.98390000  0.53560000  1.0 -0.0808478022
C  C159  1  0.97150000  0.66750000  0.07210000  1.0 0.6364632367
C  C160  1  0.33250000  0.02850000  0.57210000  1.0 0.6364632367
C  C161  1  0.37330000  0.29590000  0.61520000  1.0 0.5348314165
C  C162  1  0.70410000  0.62670000  0.11520000  1.0 0.5348314165
C  C163  1  0.39670000  0.36290000  0.63130000  1.0 -0.0123625536
C  C164  1  0.63710000  0.60330000  0.13130000  1.0 -0.0123625536
C  C165  1  0.35570000  0.36730000  0.65700000  1.0 -0.1108223808
C  C166  1  0.63270000  0.64430000  0.15700000  1.0 -0.1108223808
C  C167  1  0.44680000  0.41940000  0.61860000  1.0 -0.1014945401
C  C168  1  0.58060000  0.55320000  0.11860000  1.0 -0.1014945401
C  C169  1  0.36470000  0.42730000  0.66700000  1.0 -0.1577576951
C  C170  1  0.57270000  0.63530000  0.16700000  1.0 -0.1577576951
C  C171  1  0.46410000  0.48390000  0.62840000  1.0 -0.1577576951
C  C172  1  0.51610000  0.53590000  0.12840000  1.0 -0.1577576951
C  C173  1  0.42390000  0.48430000  0.65780000  1.0 0.1370068758
C  C174  1  0.51570000  0.57610000  0.15780000  1.0 0.1370068758
C  C175  1  0.42870000  0.54850000  0.66470000  1.0 -0.1108223808
C  C176  1  0.45150000  0.57130000  0.16470000  1.0 -0.1108223808
C  C177  1  0.44250000  0.60150000  0.67450000  1.0 -0.0919593736
C  C178  1  0.39850000  0.55750000  0.17450000  1.0 -0.0919593736
C  C179  1  0.45690000  0.66390000  0.68840000  1.0 0.1298144001
C  C180  1  0.33610000  0.54310000  0.18840000  1.0 0.1298144001
C  C181  1  0.48860000  0.73220000  0.65560000  1.0 -0.1577576951
C  C182  1  0.26780000  0.51140000  0.15560000  1.0 -0.1577576951
C  C183  1  0.42430000  0.65810000  0.72630000  1.0 -0.1468799592
C  C184  1  0.34190000  0.57570000  0.22630000  1.0 -0.1468799592
C  C185  1  0.49430000  0.79530000  0.66310000  1.0 -0.0919593736
C  C186  1  0.20470000  0.50570000  0.16310000  1.0 -0.0919593736
C  C187  1  0.43630000  0.71790000  0.73840000  1.0 -0.0919593736
C  C188  1  0.28210000  0.56370000  0.23840000  1.0 -0.0919593736
C  C189  1  0.46690000  0.78410000  0.70560000  1.0 0.0034420837
C  C190  1  0.21590000  0.53310000  0.20560000  1.0 0.0034420837
C  C191  1  0.48320000  0.85400000  0.71790000  1.0 0.5459827899
C  C192  1  0.14600000  0.51680000  0.21790000  1.0 0.5459827899
O  O1  1  0.18030000  0.46590000  0.90920000  1.0 -0.6783964664
O  O2  1  0.53410000  0.81970000  0.40920000  1.0 -0.6783964664
O  O3  1  0.08110000  0.53550000  0.84020000  1.0 -0.6285839984
O  O4  1  0.46450000  0.91890000  0.34020000  1.0 -0.6285839984
O  O5  1  0.54570000  0.85930000  0.28590000  1.0 -0.5499877811
O  O6  1  0.14070000  0.45430000  0.78590000  1.0 -0.5499877811
O  O7  1  0.45430000  0.94410000  0.21440000  1.0 -0.8177688599
O  O8  1  0.05590000  0.54570000  0.71440000  1.0 -0.8177688599
O  O9  1  0.06250000  0.31690000  0.82700000  1.0 -0.6991072179
O  O10  1  0.68310000  0.93750000  0.32700000  1.0 -0.6991072179
O  O11  1  0.96720000  0.39560000  0.74500000  1.0 -0.6733076752
O  O12  1  0.60440000  0.03280000  0.24500000  1.0 -0.6733076752
O  O13  1  0.68200000  0.90940000  0.45130000  1.0 -0.5684260012
O  O14  1  0.09060000  0.31800000  0.95130000  1.0 -0.5684260012
O  O15  1  0.60770000  0.00130000  0.36680000  1.0 -0.7537608475
O  O16  1  0.99870000  0.39230000  0.86680000  1.0 -0.7537608475
O  O17  1  0.29710000  0.41530000  0.90660000  1.0 -0.6246192933
O  O18  1  0.58470000  0.70290000  0.40660000  1.0 -0.6285839984
O  O19  1  0.24220000  0.33620000  0.86700000  1.0 -0.5231900395
O  O20  1  0.66380000  0.75780000  0.36700000  1.0 -0.5231900395
O  O21  1  0.84610000  0.45270000  0.74880000  1.0 -0.6465701641
O  O22  1  0.54730000  0.15390000  0.24880000  1.0 -0.6465701641
O  O23  1  0.91510000  0.51690000  0.81250000  1.0 -0.643806401
O  O24  1  0.48310000  0.08490000  0.31250000  1.0 -0.643806401
O  O25  1  0.46590000  0.18030000  0.59080000  1.0 -0.6783964664
O  O26  1  0.81970000  0.53410000  0.09080000  1.0 -0.6783964664
O  O27  1  0.53550000  0.08110000  0.65980000  1.0 -0.6285839984
O  O28  1  0.91890000  0.46450000  0.15980000  1.0 -0.6285839984
O  O29  1  0.85930000  0.54570000  0.21410000  1.0 -0.5499877811
O  O30  1  0.45430000  0.14070000  0.71410000  1.0 -0.5499877811
O  O31  1  0.94410000  0.45430000  0.28560000  1.0 -0.8177688599
O  O32  1  0.54570000  0.05590000  0.78560000  1.0 -0.8177688599
O  O33  1  0.31690000  0.06250000  0.67300000  1.0 -0.6991072179
O  O34  1  0.93750000  0.68310000  0.17300000  1.0 -0.6991072179
O  O35  1  0.39560000  0.96720000  0.75500000  1.0 -0.6733076752
O  O36  1  0.03280000  0.60440000  0.25500000  1.0 -0.6733076752
O  O37  1  0.90940000  0.68200000  0.04870000  1.0 -0.5684260012
O  O38  1  0.31800000  0.09060000  0.54870000  1.0 -0.5684260012
O  O39  1  0.00130000  0.60770000  0.13320000  1.0 -0.7537608475
O  O40  1  0.39230000  0.99870000  0.63320000  1.0 -0.7537608475
O  O41  1  0.41530000  0.29710000  0.59340000  1.0 -0.6285839984
O  O42  1  0.70290000  0.58470000  0.09340000  1.0 -0.6285839984
O  O43  1  0.33620000  0.24220000  0.63300000  1.0 -0.5231900395
O  O44  1  0.75780000  0.66380000  0.13300000  1.0 -0.5231900395
O  O45  1  0.45270000  0.84610000  0.75120000  1.0 -0.6465701641
O  O46  1  0.15390000  0.54730000  0.25120000  1.0 -0.6465701641
O  O47  1  0.51690000  0.91510000  0.68750000  1.0 -0.643806401
O  O48  1  0.08490000  0.48310000  0.18750000  1.0 -0.643806401
