# DDEC6 charges by PACMAN v1.1 (https://github.com/mtap-research/PACMAN-charge/)
data_MAPFIS_FSR_pacman
_symmetry_space_group_name_H-M   'P 1'
_cell_length_a   16.13700000
_cell_length_b   10.76200000
_cell_length_c   20.80230000
_cell_angle_alpha   90.00000000
_cell_angle_beta   114.48800000
_cell_angle_gamma   90.00000000
_symmetry_Int_Tables_number   1
_chemical_formula_structural   TiH8C12O5
_chemical_formula_sum   'Ti8 H64 C96 O40'
_cell_volume   3287.69477306
_cell_formula_units_Z   8
loop_
 _symmetry_equiv_pos_site_id
 _symmetry_equiv_pos_as_xyz
  1  'x, y, z'
loop_
 _atom_site_type_symbol
 _atom_site_label
 _atom_site_symmetry_multiplicity
 _atom_site_fract_x
 _atom_site_fract_y
 _atom_site_fract_z
 _atom_site_occupancy
 _atom_site_charge
Ti  Ti1  1  0.32650000  0.64020000  0.78830000  1.0 1.9282003673
Ti  Ti2  1  0.67350000  0.14020000  0.71170000  1.0 1.9282003673
Ti  Ti3  1  0.67350000  0.35980000  0.21170000  1.0 1.9282003673
Ti  Ti4  1  0.32650000  0.85980000  0.28830000  1.0 1.9282003673
Ti  Ti5  1  0.17340000  0.42150000  0.71380000  1.0 1.9126163157
Ti  Ti6  1  0.82660000  0.92150000  0.78620000  1.0 1.9126163157
Ti  Ti7  1  0.82660000  0.57850000  0.28620000  1.0 1.9126163157
Ti  Ti8  1  0.17340000  0.07850000  0.21380000  1.0 1.9126163157
H  H1  1  0.32420000  0.41270000  0.63150000  1.0 0.1596054019
H  H2  1  0.67580000  0.91270000  0.86850000  1.0 0.1596054019
H  H3  1  0.67580000  0.58730000  0.36850000  1.0 0.1596054019
H  H4  1  0.32420000  0.08730000  0.13150000  1.0 0.1596054019
H  H5  1  0.43310000  0.28610000  0.61690000  1.0 0.150084273
H  H6  1  0.56690000  0.78610000  0.88310000  1.0 0.150084273
H  H7  1  0.56690000  0.71390000  0.38310000  1.0 0.150084273
H  H8  1  0.43310000  0.21390000  0.11690000  1.0 0.150084273
H  H9  1  0.45130000  0.72280000  0.67550000  1.0 0.150084273
H  H10  1  0.54870000  0.22280000  0.82450000  1.0 0.150084273
H  H11  1  0.54870000  0.27720000  0.32450000  1.0 0.150084273
H  H12  1  0.45130000  0.77720000  0.17550000  1.0 0.150084273
H  H13  1  0.43970000  0.34750000  0.83850000  1.0 0.150084273
H  H14  1  0.56030000  0.84750000  0.66150000  1.0 0.150084273
H  H15  1  0.56030000  0.65250000  0.16150000  1.0 0.150084273
H  H16  1  0.43970000  0.15250000  0.33850000  1.0 0.150084273
H  H17  1  0.95410000  0.83800000  0.68240000  1.0 0.150084273
H  H18  1  0.04590000  0.33800000  0.81760000  1.0 0.150084273
H  H19  1  0.04590000  0.16200000  0.31760000  1.0 0.150084273
H  H20  1  0.95410000  0.66200000  0.18240000  1.0 0.150084273
H  H21  1  0.05990000  0.70750000  0.66740000  1.0 0.150084273
H  H22  1  0.94010000  0.20750000  0.83260000  1.0 0.150084273
H  H23  1  0.94010000  0.29250000  0.33260000  1.0 0.150084273
H  H24  1  0.05990000  0.79250000  0.16740000  1.0 0.150084273
H  H25  1  0.17140000  0.64160000  0.87540000  1.0 0.1596054019
H  H26  1  0.82860000  0.14160000  0.62460000  1.0 0.1596054019
H  H27  1  0.82860000  0.35840000  0.12460000  1.0 0.1596054019
H  H28  1  0.17140000  0.85840000  0.37540000  1.0 0.1596054019
H  H29  1  0.07090000  0.77860000  0.89020000  1.0 0.1380676119
H  H30  1  0.92910000  0.27860000  0.60980000  1.0 0.1380676119
H  H31  1  0.92910000  0.22140000  0.10980000  1.0 0.1380676119
H  H32  1  0.07090000  0.72140000  0.39020000  1.0 0.1380676119
H  H33  1  0.17140000  0.92660000  0.80770000  1.0 0.1346930744
H  H34  1  0.82860000  0.42660000  0.69230000  1.0 0.1346930744
H  H35  1  0.82860000  0.07340000  0.19230000  1.0 0.1346930744
H  H36  1  0.17140000  0.57340000  0.30770000  1.0 0.1346930744
H  H37  1  0.11930000  0.12040000  0.75640000  1.0 0.1380676119
H  H38  1  0.88070000  0.62040000  0.74360000  1.0 0.1380676119
H  H39  1  0.88070000  0.87960000  0.24360000  1.0 0.1380676119
H  H40  1  0.11930000  0.37960000  0.25640000  1.0 0.1380676119
H  H41  1  0.32000000  0.12810000  0.68970000  1.0 0.1380676119
H  H42  1  0.68000000  0.62810000  0.81030000  1.0 0.1380676119
H  H43  1  0.68000000  0.87190000  0.31030000  1.0 0.1380676119
H  H44  1  0.32000000  0.37190000  0.18970000  1.0 0.1380676119
H  H45  1  0.36950000  0.93410000  0.73770000  1.0 0.1380676119
H  H46  1  0.63050000  0.43410000  0.76230000  1.0 0.1380676119
H  H47  1  0.63050000  0.06590000  0.26230000  1.0 0.1380676119
H  H48  1  0.36950000  0.56590000  0.23770000  1.0 0.1380676119
H  H49  1  0.53110000  0.55450000  0.90400000  1.0 0.1380676119
H  H50  1  0.46890000  0.05450000  0.59600000  1.0 0.1380676119
H  H51  1  0.46890000  0.44550000  0.09600000  1.0 0.1380676119
H  H52  1  0.53110000  0.94550000  0.40400000  1.0 0.1380676119
H  H53  1  0.35200000  0.51000000  0.99070000  1.0 0.150084273
H  H54  1  0.64800000  0.01000000  0.50930000  1.0 0.150084273
H  H55  1  0.64800000  0.49000000  0.00930000  1.0 0.150084273
H  H56  1  0.35200000  0.99000000  0.49070000  1.0 0.150084273
H  H57  1  0.07040000  0.68360000  0.55210000  1.0 0.150084273
H  H58  1  0.92960000  0.18360000  0.94790000  1.0 0.150084273
H  H59  1  0.92960000  0.31640000  0.44790000  1.0 0.150084273
H  H60  1  0.07040000  0.81640000  0.05210000  1.0 0.150084273
H  H61  1  0.04870000  0.31150000  0.56010000  1.0 0.1380676119
H  H62  1  0.95130000  0.81150000  0.93990000  1.0 0.1380676119
H  H63  1  0.95130000  0.68850000  0.43990000  1.0 0.1380676119
H  H64  1  0.04870000  0.18850000  0.06010000  1.0 0.1380676119
C  C1  1  0.37390000  0.39780000  0.73650000  1.0 0.3001916142
C  C2  1  0.62610000  0.89780000  0.76350000  1.0 0.3001916142
C  C3  1  0.62610000  0.60220000  0.26350000  1.0 0.3001916142
C  C4  1  0.37390000  0.10220000  0.23650000  1.0 0.3001916142
C  C5  1  0.36980000  0.37590000  0.67060000  1.0 -0.1907027571
C  C6  1  0.63020000  0.87590000  0.82940000  1.0 -0.1907027571
C  C7  1  0.63020000  0.62410000  0.32940000  1.0 -0.1907027571
C  C8  1  0.36980000  0.12410000  0.17060000  1.0 -0.1907027571
C  C9  1  0.43430000  0.29800000  0.66150000  1.0 -0.1792316323
C  C10  1  0.56570000  0.79800000  0.83850000  1.0 -0.1792316323
C  C11  1  0.56570000  0.70200000  0.33850000  1.0 -0.1792316323
C  C12  1  0.43430000  0.20200000  0.16150000  1.0 -0.1792316323
C  C13  1  0.50050000  0.73920000  0.78040000  1.0 0.2915557729
C  C14  1  0.49950000  0.23920000  0.71960000  1.0 0.2915557729
C  C15  1  0.49950000  0.26080000  0.21960000  1.0 0.2915557729
C  C16  1  0.50050000  0.76080000  0.28040000  1.0 0.2915557729
C  C17  1  0.49660000  0.75990000  0.71460000  1.0 -0.1907027571
C  C18  1  0.50340000  0.25990000  0.78540000  1.0 -0.1907027571
C  C19  1  0.50340000  0.24010000  0.28540000  1.0 -0.1907027571
C  C20  1  0.49660000  0.74010000  0.21460000  1.0 -0.1907027571
C  C21  1  0.43890000  0.33700000  0.79390000  1.0 -0.1712501117
C  C22  1  0.56110000  0.83700000  0.70610000  1.0 -0.1712501117
C  C23  1  0.56110000  0.66300000  0.20610000  1.0 -0.1712501117
C  C24  1  0.43890000  0.16300000  0.29390000  1.0 -0.1712501117
C  C25  1  0.00240000  0.82250000  0.78730000  1.0 0.2915557729
C  C26  1  0.99760000  0.32250000  0.71270000  1.0 0.2915557729
C  C27  1  0.99760000  0.17750000  0.21270000  1.0 0.2915557729
C  C28  1  0.00240000  0.67750000  0.28730000  1.0 0.2915557729
C  C29  1  0.99900000  0.80020000  0.72150000  1.0 -0.1792316323
C  C30  1  0.00100000  0.30020000  0.77850000  1.0 -0.1792316323
C  C31  1  0.00100000  0.19980000  0.27850000  1.0 -0.1792316323
C  C32  1  0.99900000  0.69980000  0.22150000  1.0 -0.1792316323
C  C33  1  0.06210000  0.72110000  0.71220000  1.0 -0.1792316323
C  C34  1  0.93790000  0.22110000  0.78780000  1.0 -0.1792316323
C  C35  1  0.93790000  0.27890000  0.28780000  1.0 -0.1792316323
C  C36  1  0.06210000  0.77890000  0.21220000  1.0 -0.1792316323
C  C37  1  0.12750000  0.66380000  0.77030000  1.0 0.3096985252
C  C38  1  0.87250000  0.16380000  0.72970000  1.0 0.3096985252
C  C39  1  0.87250000  0.33620000  0.22970000  1.0 0.3096985252
C  C40  1  0.12750000  0.83620000  0.27030000  1.0 0.3096985252
C  C41  1  0.12900000  0.68320000  0.83650000  1.0 -0.1792316323
C  C42  1  0.87100000  0.18320000  0.66350000  1.0 -0.1792316323
C  C43  1  0.87100000  0.31680000  0.16350000  1.0 -0.1792316323
C  C44  1  0.12900000  0.81680000  0.33650000  1.0 -0.1792316323
C  C45  1  0.06790000  0.76380000  0.84520000  1.0 -0.1792316323
C  C46  1  0.93210000  0.26380000  0.65480000  1.0 -0.1792316323
C  C47  1  0.93210000  0.23620000  0.15480000  1.0 -0.1792316323
C  C48  1  0.06790000  0.73620000  0.34520000  1.0 -0.1792316323
C  C49  1  0.27480000  0.91140000  0.77870000  1.0 0.320920846
C  C50  1  0.72520000  0.41140000  0.72130000  1.0 0.320920846
C  C51  1  0.72520000  0.08860000  0.22130000  1.0 0.320920846
C  C52  1  0.27480000  0.58860000  0.27870000  1.0 0.320920846
C  C53  1  0.20130000  0.96730000  0.78400000  1.0 -0.1907027571
C  C54  1  0.79870000  0.46730000  0.71600000  1.0 -0.1907027571
C  C55  1  0.79870000  0.03270000  0.21600000  1.0 -0.1907027571
C  C56  1  0.20130000  0.53270000  0.28400000  1.0 -0.1907027571
C  C57  1  0.17040000  0.08440000  0.75420000  1.0 -0.1712501117
C  C58  1  0.82960000  0.58440000  0.74580000  1.0 -0.1712501117
C  C59  1  0.82960000  0.91560000  0.24580000  1.0 -0.1712501117
C  C60  1  0.17040000  0.41560000  0.25420000  1.0 -0.1712501117
C  C61  1  0.21940000  0.14640000  0.72090000  1.0 0.3297527265
C  C62  1  0.78060000  0.64640000  0.77910000  1.0 0.3297527265
C  C63  1  0.78060000  0.85360000  0.27910000  1.0 0.3297527265
C  C64  1  0.21940000  0.35360000  0.22090000  1.0 0.3297527265
C  C65  1  0.29060000  0.08810000  0.71410000  1.0 -0.1993207974
C  C66  1  0.70940000  0.58810000  0.78590000  1.0 -0.1993207974
C  C67  1  0.70940000  0.91190000  0.28590000  1.0 -0.1993207974
C  C68  1  0.29060000  0.41190000  0.21410000  1.0 -0.1993207974
C  C69  1  0.32040000  0.97180000  0.74240000  1.0 -0.1712501117
C  C70  1  0.67960000  0.47180000  0.75760000  1.0 -0.1712501117
C  C71  1  0.67960000  0.02820000  0.25760000  1.0 -0.1712501117
C  C72  1  0.32040000  0.52820000  0.24240000  1.0 -0.1712501117
C  C73  1  0.42990000  0.54400000  0.93880000  1.0 0.3096985252
C  C74  1  0.57010000  0.04400000  0.56120000  1.0 0.3096985252
C  C75  1  0.57010000  0.45600000  0.06120000  1.0 0.3096985252
C  C76  1  0.42990000  0.95600000  0.43880000  1.0 0.320920846
C  C77  1  0.51900000  0.53390000  0.94270000  1.0 -0.1993207974
C  C78  1  0.48100000  0.03390000  0.55730000  1.0 -0.1993207974
C  C79  1  0.48100000  0.46610000  0.05730000  1.0 -0.1993207974
C  C80  1  0.51900000  0.96610000  0.44270000  1.0 -0.1993207974
C  C81  1  0.41150000  0.50730000  0.99470000  1.0 -0.1907027571
C  C82  1  0.58850000  0.00730000  0.50530000  1.0 -0.1907027571
C  C83  1  0.58850000  0.49270000  0.00530000  1.0 -0.1907027571
C  C84  1  0.41150000  0.99270000  0.49470000  1.0 -0.1907027571
C  C85  1  0.07880000  0.49950000  0.56550000  1.0 0.3353695901
C  C86  1  0.92120000  0.99950000  0.93450000  1.0 0.3297527265
C  C87  1  0.92120000  0.50050000  0.43450000  1.0 0.3297527265
C  C88  1  0.07880000  0.00050000  0.06550000  1.0 0.3353695901
C  C89  1  0.04370000  0.60920000  0.53070000  1.0 -0.1993207974
C  C90  1  0.95630000  0.10920000  0.96930000  1.0 -0.1993207974
C  C91  1  0.95630000  0.39080000  0.46930000  1.0 -0.1993207974
C  C92  1  0.04370000  0.89080000  0.03070000  1.0 -0.1993207974
C  C93  1  0.03080000  0.38630000  0.53580000  1.0 -0.1907027571
C  C94  1  0.96920000  0.88630000  0.96420000  1.0 -0.1907027571
C  C95  1  0.96920000  0.61370000  0.46420000  1.0 -0.1907027571
C  C96  1  0.03080000  0.11370000  0.03580000  1.0 -0.1907027571
O  O1  1  0.30380000  0.79830000  0.81000000  1.0 -0.6203383473
O  O2  1  0.69620000  0.29830000  0.69000000  1.0 -0.6203383473
O  O3  1  0.69620000  0.20170000  0.19000000  1.0 -0.6203383473
O  O4  1  0.30380000  0.70170000  0.31000000  1.0 -0.6203383473
O  O5  1  0.30930000  0.46850000  0.74620000  1.0 -0.6905944763
O  O6  1  0.69070000  0.96850000  0.75380000  1.0 -0.6905944763
O  O7  1  0.69070000  0.53150000  0.25380000  1.0 -0.6905944763
O  O8  1  0.30930000  0.03150000  0.24620000  1.0 -0.6905944763
O  O9  1  0.35960000  0.58100000  0.87680000  1.0 -0.6117322861
O  O10  1  0.64040000  0.08100000  0.62320000  1.0 -0.6117322861
O  O11  1  0.64040000  0.41900000  0.12320000  1.0 -0.6117322861
O  O12  1  0.35960000  0.91900000  0.37680000  1.0 -0.6117322861
O  O13  1  0.19270000  0.58770000  0.76290000  1.0 -0.6905944763
O  O14  1  0.80730000  0.08770000  0.73710000  1.0 -0.6905944763
O  O15  1  0.80730000  0.41230000  0.23710000  1.0 -0.6905944763
O  O16  1  0.19270000  0.91230000  0.26290000  1.0 -0.6905944763
O  O17  1  0.26260000  0.69930000  0.67780000  1.0 -0.3184672786
O  O18  1  0.73740000  0.19930000  0.82220000  1.0 -0.3184672786
O  O19  1  0.73740000  0.30070000  0.32220000  1.0 -0.3184672786
O  O20  1  0.26260000  0.80070000  0.17780000  1.0 -0.3184672786
O  O21  1  0.43570000  0.66500000  0.78810000  1.0 -0.6299518912
O  O22  1  0.56430000  0.16500000  0.71190000  1.0 -0.6299518912
O  O23  1  0.56430000  0.33500000  0.21190000  1.0 -0.6299518912
O  O24  1  0.43570000  0.83500000  0.28810000  1.0 -0.6299518912
O  O25  1  0.22660000  0.36700000  0.82490000  1.0 -0.3105850709
O  O26  1  0.77340000  0.86700000  0.67510000  1.0 -0.3105850709
O  O27  1  0.77340000  0.63300000  0.17510000  1.0 -0.3105850709
O  O28  1  0.22660000  0.13300000  0.32490000  1.0 -0.3105850709
O  O29  1  0.94140000  0.90460000  0.79470000  1.0 -0.6299518912
O  O30  1  0.05860000  0.40460000  0.70530000  1.0 -0.6299518912
O  O31  1  0.05860000  0.09540000  0.20530000  1.0 -0.6299518912
O  O32  1  0.94140000  0.59540000  0.29470000  1.0 -0.6299518912
O  O33  1  0.19210000  0.26190000  0.69500000  1.0 -0.6117322861
O  O34  1  0.80790000  0.76190000  0.80500000  1.0 -0.6117322861
O  O35  1  0.80790000  0.73810000  0.30500000  1.0 -0.6117322861
O  O36  1  0.19210000  0.23810000  0.19500000  1.0 -0.6117322861
O  O37  1  0.14930000  0.49910000  0.62830000  1.0 -0.5871239869
O  O38  1  0.85070000  0.99910000  0.87170000  1.0 -0.5871239869
O  O39  1  0.85070000  0.50090000  0.37170000  1.0 -0.5871239869
O  O40  1  0.14930000  0.00090000  0.12830000  1.0 -0.5871239869
