# DDEC6 charges by PACMAN v1.1 (https://github.com/mtap-research/PACMAN-charge/)
data_MAQMEZ_ASR_pacman
_symmetry_space_group_name_H-M   'P 1'
_cell_length_a   12.99700000
_cell_length_b   13.10600000
_cell_length_c   17.21300000
_cell_angle_alpha   93.89500000
_cell_angle_beta   107.63900000
_cell_angle_gamma   95.01800000
_symmetry_Int_Tables_number   1
_chemical_formula_structural   ZnH15C25NO4
_chemical_formula_sum   'Zn4 H60 C100 N4 O16'
_cell_volume   2769.67410653
_cell_formula_units_Z   4
loop_
 _symmetry_equiv_pos_site_id
 _symmetry_equiv_pos_as_xyz
  1  'x, y, z'
loop_
 _atom_site_type_symbol
 _atom_site_label
 _atom_site_symmetry_multiplicity
 _atom_site_fract_x
 _atom_site_fract_y
 _atom_site_fract_z
 _atom_site_occupancy
 _atom_site_charge
Zn  Zn1  1  0.02435000  0.33725000  0.76442000  1.0 0.8362841392
Zn  Zn2  1  0.93336000  0.33372000  0.58323000  1.0 0.833530047
Zn  Zn3  1  0.97565000  0.66275000  0.23558000  1.0 0.8362841392
Zn  Zn4  1  0.06664000  0.66628000  0.41677000  1.0 0.833530047
H  H1  1  0.88060000  0.45980000  0.43970000  1.0 0.1193846838
H  H2  1  0.75190000  0.45860000  0.31370000  1.0 0.1394647196
H  H3  1  0.61800000  0.18520000  0.34830000  1.0 0.1394647196
H  H4  1  0.75480000  0.18980000  0.47080000  1.0 0.1193846838
H  H5  1  0.51200000  0.37340000  0.37160000  1.0 0.1121708058
H  H6  1  0.34670000  0.40640000  0.37750000  1.0 0.1121708058
H  H7  1  0.19910000  0.39660000  0.25830000  1.0 0.1121708058
H  H8  1  0.22110000  0.36190000  0.13320000  1.0 0.1193846838
H  H9  1  0.46650000  0.29740000  0.96440000  1.0 0.1121708058
H  H10  1  0.63460000  0.26760000  0.95790000  1.0 0.0906341111
H  H11  1  0.77980000  0.26710000  0.07780000  1.0 0.1121708058
H  H12  1  0.75370000  0.28890000  0.20270000  1.0 0.1121708058
H  H13  1  0.24310000  0.18730000  0.01010000  1.0 0.1394647196
H  H14  1  0.10040000  0.19570000  0.89270000  1.0 0.1193846838
H  H15  1  0.19720000  0.48180000  0.88440000  1.0 0.1193846838
H  H16  1  0.34160000  0.47950000  0.00090000  1.0 0.1299915845
H  H17  1  0.03910000  0.66600000  0.82200000  1.0 0.1193846838
H  H18  1  0.03700000  0.84110000  0.83690000  1.0 0.1193846838
H  H19  1  0.94660000  0.66540000  0.57670000  1.0 0.1193846838
H  H20  1  0.91720000  0.83130000  0.51390000  1.0 0.1299915845
H  H21  1  0.91130000  0.00450000  0.52870000  1.0 0.1193846838
H  H22  1  0.00750000  0.00640000  0.77470000  1.0 0.1193846838
H  H23  1  0.61530000  0.33410000  0.58640000  1.0 0.1299915845
H  H24  1  0.54430000  0.36780000  0.83560000  1.0 0.0906341111
H  H25  1  0.71890000  0.35980000  0.83250000  1.0 0.0980826048
H  H26  1  0.34370000  0.34100000  0.75980000  1.0 0.1193846838
H  H27  1  0.24340000  0.34030000  0.51560000  1.0 0.1193846838
H  H28  1  0.41840000  0.33950000  0.51310000  1.0 0.1193846838
H  H29  1  0.53210000  0.29430000  0.82610000  1.0 0.0906341111
H  H30  1  0.70910000  0.29740000  0.82570000  1.0 0.0906341111
H  H31  1  0.11940000  0.54020000  0.56030000  1.0 0.1193846838
H  H32  1  0.24810000  0.54140000  0.68630000  1.0 0.1394647196
H  H33  1  0.38200000  0.81480000  0.65170000  1.0 0.1394647196
H  H34  1  0.24520000  0.81020000  0.52920000  1.0 0.1193846838
H  H35  1  0.48800000  0.62660000  0.62840000  1.0 0.1121708058
H  H36  1  0.65330000  0.59360000  0.62250000  1.0 0.1121708058
H  H37  1  0.80090000  0.60340000  0.74170000  1.0 0.1121708058
H  H38  1  0.77890000  0.63810000  0.86680000  1.0 0.1193846838
H  H39  1  0.53350000  0.70260000  0.03560000  1.0 0.1121708058
H  H40  1  0.36540000  0.73240000  0.04210000  1.0 0.0906341111
H  H41  1  0.22020000  0.73290000  0.92220000  1.0 0.1121708058
H  H42  1  0.24630000  0.71110000  0.79730000  1.0 0.1121708058
H  H43  1  0.75690000  0.81270000  0.98990000  1.0 0.1394647196
H  H44  1  0.89960000  0.80430000  0.10730000  1.0 0.1193846838
H  H45  1  0.80280000  0.51820000  0.11560000  1.0 0.1193846838
H  H46  1  0.65840000  0.52050000  0.99910000  1.0 0.1299915845
H  H47  1  0.96090000  0.33400000  0.17800000  1.0 0.1193846838
H  H48  1  0.96300000  0.15890000  0.16310000  1.0 0.1193846838
H  H49  1  0.05340000  0.33460000  0.42330000  1.0 0.1193846838
H  H50  1  0.08280000  0.16870000  0.48610000  1.0 0.1299915845
H  H51  1  0.08870000  0.99550000  0.47130000  1.0 0.1193846838
H  H52  1  0.99250000  0.99360000  0.22530000  1.0 0.1193846838
H  H53  1  0.38470000  0.66590000  0.41360000  1.0 0.1299915845
H  H54  1  0.45570000  0.63220000  0.16440000  1.0 0.0906341111
H  H55  1  0.28110000  0.64020000  0.16750000  1.0 0.0980826048
H  H56  1  0.65630000  0.65900000  0.24020000  1.0 0.1193846838
H  H57  1  0.75660000  0.65970000  0.48440000  1.0 0.1193846838
H  H58  1  0.58160000  0.66050000  0.48690000  1.0 0.1193846838
H  H59  1  0.46790000  0.70570000  0.17390000  1.0 0.0906341111
H  H60  1  0.29090000  0.70260000  0.17430000  1.0 0.0906341111
C  C1  1  0.82760000  0.40360000  0.42080000  1.0 0.0906341111
C  C2  1  0.74930000  0.40430000  0.34530000  1.0 -0.1932580424
C  C3  1  0.66770000  0.32340000  0.31750000  1.0 0.1193846838
C  C4  1  0.67080000  0.24170000  0.36570000  1.0 -0.1932580424
C  C5  1  0.75300000  0.24510000  0.43960000  1.0 0.0906341111
C  C6  1  0.57540000  0.32600000  0.24010000  1.0 -0.0416892632
C  C7  1  0.47350000  0.34570000  0.24640000  1.0 0.0317973802
C  C8  1  0.45470000  0.37050000  0.32320000  1.0 -0.1512707586
C  C9  1  0.35630000  0.38980000  0.32690000  1.0 -0.1017543329
C  C10  1  0.26730000  0.38520000  0.25480000  1.0 -0.1017543329
C  C11  1  0.28050000  0.36430000  0.18010000  1.0 -0.1512707586
C  C12  1  0.38310000  0.34600000  0.17260000  1.0 0.0317973802
C  C13  1  0.40140000  0.32950000  0.09570000  1.0 -0.0416892632
C  C14  1  0.50350000  0.31320000  0.08980000  1.0 0.0387039902
C  C15  1  0.52320000  0.29640000  0.01270000  1.0 -0.1669070736
C  C16  1  0.62380000  0.27880000  0.00860000  1.0 -0.1179793766
C  C17  1  0.71130000  0.27750000  0.08100000  1.0 -0.1083311888
C  C18  1  0.69560000  0.29160000  0.15570000  1.0 -0.1397643825
C  C19  1  0.59300000  0.31020000  0.16370000  1.0 0.0387039902
C  C20  1  0.30820000  0.33370000  0.01940000  1.0 0.1121708058
C  C21  1  0.23540000  0.24860000  0.98580000  1.0 -0.1932580424
C  C22  1  0.14910000  0.25440000  0.91480000  1.0 0.0980826048
C  C23  1  0.20590000  0.42150000  0.91010000  1.0 0.0507150656
C  C24  1  0.29310000  0.42040000  0.98040000  1.0 -0.2139787516
C  C25  1  0.99370000  0.53320000  0.68840000  1.0 0.5720434273
C  C26  1  0.99330000  0.64810000  0.69710000  1.0 -0.0297114458
C  C27  1  0.02030000  0.70180000  0.77580000  1.0 -0.1316957464
C  C28  1  0.01890000  0.80660000  0.78470000  1.0 -0.1585474556
C  C29  1  0.99050000  0.86260000  0.71550000  1.0 0.0766012641
C  C30  1  0.96290000  0.80860000  0.63600000  1.0 0.0766012641
C  C31  1  0.96480000  0.70100000  0.62850000  1.0 -0.1585474556
C  C32  1  0.93430000  0.86550000  0.56610000  1.0 -0.1397643825
C  C33  1  0.93180000  0.96890000  0.57500000  1.0 -0.1083311888
C  C34  1  0.96030000  0.02350000  0.65430000  1.0 -0.0214361129
C  C35  1  0.98900000  0.97060000  0.72300000  1.0 -0.1669070736
C  C36  1  0.16120000  0.33810000  0.64160000  1.0 0.5720434273
C  C37  1  0.96400000  0.13830000  0.66280000  1.0 0.5885283733
C  C38  1  0.79710000  0.33420000  0.70520000  1.0 0.5538338209
C  C39  1  0.68210000  0.33700000  0.70730000  1.0 0.0061547286
C  C40  1  0.59970000  0.33620000  0.63570000  1.0 -0.1995269237
C  C41  1  0.49120000  0.33850000  0.63530000  1.0 0.0507150656
C  C42  1  0.46890000  0.34150000  0.71150000  1.0 0.0710257376
C  C43  1  0.55740000  0.35590000  0.78580000  1.0 -0.0500579914
C  C44  1  0.66150000  0.35230000  0.78380000  1.0 -0.0500579914
C  C45  1  0.35930000  0.34040000  0.71050000  1.0 -0.1932580424
C  C46  1  0.27600000  0.33850000  0.63930000  1.0 -0.0297114458
C  C47  1  0.29940000  0.33950000  0.56420000  1.0 -0.1083311888
C  C48  1  0.40430000  0.33920000  0.56290000  1.0 -0.1512707586
C  C49  1  0.55050000  0.31300000  0.78040000  1.0 -0.0416892632
C  C50  1  0.65550000  0.31300000  0.77980000  1.0 -0.0416892632
C  C51  1  0.17240000  0.59640000  0.57920000  1.0 0.0906341111
C  C52  1  0.25070000  0.59570000  0.65470000  1.0 -0.1932580424
C  C53  1  0.33230000  0.67660000  0.68250000  1.0 0.1193846838
C  C54  1  0.32920000  0.75830000  0.63430000  1.0 -0.1932580424
C  C55  1  0.24700000  0.75490000  0.56040000  1.0 0.0906341111
C  C56  1  0.42460000  0.67400000  0.75990000  1.0 -0.0416892632
C  C57  1  0.52650000  0.65430000  0.75360000  1.0 0.0317973802
C  C58  1  0.54530000  0.62950000  0.67680000  1.0 -0.1512707586
C  C59  1  0.64370000  0.61020000  0.67310000  1.0 -0.1017543329
C  C60  1  0.73270000  0.61480000  0.74520000  1.0 -0.1017543329
C  C61  1  0.71950000  0.63570000  0.81990000  1.0 -0.1512707586
C  C62  1  0.61690000  0.65400000  0.82740000  1.0 0.0317973802
C  C63  1  0.59860000  0.67050000  0.90430000  1.0 -0.0416892632
C  C64  1  0.49650000  0.68680000  0.91020000  1.0 0.0387039902
C  C65  1  0.47680000  0.70360000  0.98730000  1.0 -0.1669070736
C  C66  1  0.37620000  0.72120000  0.99140000  1.0 -0.1179793766
C  C67  1  0.28870000  0.72250000  0.91900000  1.0 -0.1083311888
C  C68  1  0.30440000  0.70840000  0.84430000  1.0 -0.1397643825
C  C69  1  0.40700000  0.68980000  0.83630000  1.0 0.0387039902
C  C70  1  0.69180000  0.66630000  0.98060000  1.0 0.1121708058
C  C71  1  0.76460000  0.75140000  0.01420000  1.0 -0.1932580424
C  C72  1  0.85090000  0.74560000  0.08520000  1.0 0.0980826048
C  C73  1  0.79410000  0.57850000  0.08990000  1.0 0.0507150656
C  C74  1  0.70690000  0.57960000  0.01960000  1.0 -0.2139787516
C  C75  1  0.00630000  0.46680000  0.31160000  1.0 0.5720434273
C  C76  1  0.00670000  0.35190000  0.30290000  1.0 -0.0297114458
C  C77  1  0.97970000  0.29820000  0.22420000  1.0 -0.1316957464
C  C78  1  0.98110000  0.19340000  0.21530000  1.0 -0.1585474556
C  C79  1  0.00950000  0.13740000  0.28450000  1.0 0.0766012641
C  C80  1  0.03710000  0.19140000  0.36400000  1.0 0.0766012641
C  C81  1  0.03520000  0.29900000  0.37150000  1.0 -0.1585474556
C  C82  1  0.06570000  0.13450000  0.43390000  1.0 -0.1397643825
C  C83  1  0.06820000  0.03110000  0.42500000  1.0 -0.1083311888
C  C84  1  0.03970000  0.97650000  0.34570000  1.0 -0.0214361129
C  C85  1  0.01100000  0.02940000  0.27700000  1.0 -0.1585474556
C  C86  1  0.83880000  0.66190000  0.35840000  1.0 0.5720434273
C  C87  1  0.03600000  0.86170000  0.33720000  1.0 0.5885283733
C  C88  1  0.20290000  0.66580000  0.29480000  1.0 0.5538338209
C  C89  1  0.31790000  0.66300000  0.29270000  1.0 0.0061547286
C  C90  1  0.40030000  0.66380000  0.36430000  1.0 -0.1995269237
C  C91  1  0.50880000  0.66150000  0.36470000  1.0 0.0507150656
C  C92  1  0.53110000  0.65850000  0.28850000  1.0 0.0710257376
C  C93  1  0.44260000  0.64410000  0.21420000  1.0 -0.0500579914
C  C94  1  0.33850000  0.64770000  0.21620000  1.0 -0.0500579914
C  C95  1  0.64070000  0.65960000  0.28950000  1.0 -0.1932580424
C  C96  1  0.72400000  0.66150000  0.36070000  1.0 -0.0297114458
C  C97  1  0.70060000  0.66050000  0.43580000  1.0 -0.1083311888
C  C98  1  0.59570000  0.66080000  0.43710000  1.0 -0.1512707586
C  C99  1  0.44950000  0.68700000  0.21960000  1.0 -0.0416892632
C  C100  1  0.34450000  0.68700000  0.22020000  1.0 -0.0416892632
N  N1  1  0.83020000  0.32560000  0.46747000  1.0 -0.2243074691
N  N2  1  0.13360000  0.33840000  0.87787000  1.0 -0.1995269237
N  N3  1  0.16980000  0.67440000  0.53253000  1.0 -0.2243074691
N  N4  1  0.86640000  0.66160000  0.12213000  1.0 -0.1995269237
O  O1  1  0.95972000  0.48798000  0.61677000  1.0 -0.5399040943
O  O2  1  0.02720000  0.49060000  0.75319000  1.0 -0.549935402
O  O3  1  0.87080000  0.33790000  0.77216000  1.0 -0.4988419031
O  O4  1  0.81084000  0.32810000  0.63671000  1.0 -0.5301940655
O  O5  1  0.99280000  0.18340000  0.73448000  1.0 -0.549935402
O  O6  1  0.93920000  0.18160000  0.59739000  1.0 -0.549935402
O  O7  1  0.14766000  0.33420000  0.71083000  1.0 -0.558996818
O  O8  1  0.08717000  0.34052000  0.57459000  1.0 -0.5399040943
O  O9  1  0.04028000  0.51202000  0.38323000  1.0 -0.5399040943
O  O10  1  0.97280000  0.50940000  0.24681000  1.0 -0.549935402
O  O11  1  0.12920000  0.66210000  0.22784000  1.0 -0.4988419031
O  O12  1  0.18916000  0.67190000  0.36329000  1.0 -0.5301940655
O  O13  1  0.00720000  0.81660000  0.26552000  1.0 -0.549935402
O  O14  1  0.06080000  0.81840000  0.40261000  1.0 -0.549935402
O  O15  1  0.85234000  0.66580000  0.28917000  1.0 -0.558996818
O  O16  1  0.91283000  0.65948000  0.42541000  1.0 -0.5399040943
