# DDEC6 charges by PACMAN v1.1 (https://github.com/mtap-research/PACMAN-charge/)
data_MAQRAA01_FSR_pacman
_symmetry_space_group_name_H-M   'P 1'
_cell_length_a   6.61320000
_cell_length_b   16.73750000
_cell_length_c   12.91270000
_cell_angle_alpha   90.00000000
_cell_angle_beta   115.45400000
_cell_angle_gamma   90.00000000
_symmetry_Int_Tables_number   1
_chemical_formula_structural   CuH4C6SO5
_chemical_formula_sum   'Cu4 H16 C24 S4 O20'
_cell_volume   1290.54660905
_cell_formula_units_Z   4
loop_
 _symmetry_equiv_pos_site_id
 _symmetry_equiv_pos_as_xyz
  1  'x, y, z'
loop_
 _atom_site_type_symbol
 _atom_site_label
 _atom_site_symmetry_multiplicity
 _atom_site_fract_x
 _atom_site_fract_y
 _atom_site_fract_z
 _atom_site_occupancy
 _atom_site_charge
Cu  Cu1  1  0.50000000  0.50000000  0.50000000  1.0 0.9027243328
Cu  Cu2  1  0.50000000  0.00000000  0.00000000  1.0 0.9027243328
Cu  Cu3  1  0.00000000  0.50000000  0.50000000  1.0 0.9413108897
Cu  Cu4  1  0.00000000  0.00000000  0.00000000  1.0 0.9413108897
H  H1  1  0.65000000  0.44060000  0.36600000  1.0 0.3589494821
H  H2  1  0.67760000  0.51080000  0.31660000  1.0 0.3905031081
H  H3  1  0.67700000  0.29575000  0.75358000  1.0 0.1280701977
H  H4  1  0.87995000  0.17969000  0.86456000  1.0 0.1429093551
H  H5  1  0.35000000  0.94060000  0.13400000  1.0 0.3589494821
H  H6  1  0.32240000  0.01080000  0.18340000  1.0 0.3905031081
H  H7  1  0.32300000  0.79575000  0.74642000  1.0 0.1280701977
H  H8  1  0.12005000  0.67969000  0.63544000  1.0 0.1429093551
H  H9  1  0.35000000  0.55940000  0.63400000  1.0 0.3589494821
H  H10  1  0.32240000  0.48920000  0.68340000  1.0 0.3905031081
H  H11  1  0.32300000  0.70425000  0.24642000  1.0 0.1280701977
H  H12  1  0.12005000  0.82031000  0.13544000  1.0 0.1429093551
H  H13  1  0.65000000  0.05940000  0.86600000  1.0 0.3589494821
H  H14  1  0.67760000  0.98920000  0.81660000  1.0 0.3905031081
H  H15  1  0.67700000  0.20425000  0.25358000  1.0 0.1280701977
H  H16  1  0.87995000  0.32031000  0.36456000  1.0 0.1429093551
C  C1  1  0.84250000  0.38106000  0.61610000  1.0 0.6043385338
C  C2  1  0.91220000  0.31027000  0.69260000  1.0 -0.1177351907
C  C3  1  0.80940000  0.27659000  0.75400000  1.0 -0.1105404612
C  C4  1  0.92630000  0.20963000  0.81800000  1.0 -0.1105404612
C  C5  1  0.11520000  0.19375000  0.80380000  1.0 -0.1014931839
C  C6  1  0.28990000  0.13086000  0.85560000  1.0 0.6043385338
C  C7  1  0.15750000  0.88106000  0.88390000  1.0 0.6043385338
C  C8  1  0.08780000  0.81027000  0.80740000  1.0 -0.1177351907
C  C9  1  0.19060000  0.77659000  0.74600000  1.0 -0.1105404612
C  C10  1  0.07370000  0.70963000  0.68200000  1.0 -0.1105404612
C  C11  1  0.88480000  0.69375000  0.69620000  1.0 -0.1014931839
C  C12  1  0.71010000  0.63086000  0.64440000  1.0 0.6043385338
C  C13  1  0.15750000  0.61894000  0.38390000  1.0 0.6043385338
C  C14  1  0.08780000  0.68973000  0.30740000  1.0 -0.1177351907
C  C15  1  0.19060000  0.72341000  0.24600000  1.0 -0.1105404612
C  C16  1  0.07370000  0.79037000  0.18200000  1.0 -0.1105404612
C  C17  1  0.88480000  0.80625000  0.19620000  1.0 -0.1014931839
C  C18  1  0.71010000  0.86914000  0.14440000  1.0 0.6043385338
C  C19  1  0.84250000  0.11894000  0.11610000  1.0 0.6043385338
C  C20  1  0.91220000  0.18973000  0.19260000  1.0 -0.1177351907
C  C21  1  0.80940000  0.22341000  0.25400000  1.0 -0.1105404612
C  C22  1  0.92630000  0.29037000  0.31800000  1.0 -0.1105404612
C  C23  1  0.11520000  0.30625000  0.30380000  1.0 -0.1014931839
C  C24  1  0.28990000  0.36914000  0.35560000  1.0 0.6043385338
S  S1  1  0.15286000  0.26082000  0.71327000  1.0 0.1502854374
S  S2  1  0.84714000  0.76082000  0.78673000  1.0 0.1502854374
S  S3  1  0.84714000  0.73918000  0.28673000  1.0 0.1502854374
S  S4  1  0.15286000  0.23918000  0.21327000  1.0 0.1502854374
O  O1  1  0.66041000  0.41266000  0.60081000  1.0 -0.514202528
O  O2  1  0.97440000  0.40231000  0.57400000  1.0 -0.5677872974
O  O3  1  0.25383000  0.07508000  0.91243000  1.0 -0.5967632759
O  O4  1  0.46010000  0.13810000  0.83790000  1.0 -0.5297025967
O  O5  1  0.70895000  0.48493000  0.37555000  1.0 -0.6526472646
O  O6  1  0.33959000  0.91266000  0.89919000  1.0 -0.514202528
O  O7  1  0.02560000  0.90231000  0.92600000  1.0 -0.5677872974
O  O8  1  0.74617000  0.57508000  0.58757000  1.0 -0.5967632759
O  O9  1  0.53990000  0.63810000  0.66210000  1.0 -0.5297025967
O  O10  1  0.29105000  0.98493000  0.12445000  1.0 -0.6526472646
O  O11  1  0.33959000  0.58734000  0.39919000  1.0 -0.514202528
O  O12  1  0.02560000  0.59769000  0.42600000  1.0 -0.5677872974
O  O13  1  0.74617000  0.92492000  0.08757000  1.0 -0.5967632759
O  O14  1  0.53990000  0.86190000  0.16210000  1.0 -0.5297025967
O  O15  1  0.29105000  0.51507000  0.62445000  1.0 -0.6526472646
O  O16  1  0.66041000  0.08734000  0.10081000  1.0 -0.514202528
O  O17  1  0.97440000  0.09769000  0.07400000  1.0 -0.5677872974
O  O18  1  0.25383000  0.42492000  0.41243000  1.0 -0.5967632759
O  O19  1  0.46010000  0.36190000  0.33790000  1.0 -0.5297025967
O  O20  1  0.70895000  0.01507000  0.87555000  1.0 -0.6526472646
