# DDEC6 charges by PACMAN v1.1 (https://github.com/mtap-research/PACMAN-charge/)
data_MAQRAA_FSR_pacman
_symmetry_space_group_name_H-M   'P 1'
_cell_length_a   6.58860000
_cell_length_b   16.76070000
_cell_length_c   12.86410000
_cell_angle_alpha   90.00000000
_cell_angle_beta   114.99900000
_cell_angle_gamma   90.00000000
_symmetry_Int_Tables_number   1
_chemical_formula_structural   CuH4C6SO5
_chemical_formula_sum   'Cu4 H16 C24 S4 O20'
_cell_volume   1287.49024751
_cell_formula_units_Z   4
loop_
 _symmetry_equiv_pos_site_id
 _symmetry_equiv_pos_as_xyz
  1  'x, y, z'
loop_
 _atom_site_type_symbol
 _atom_site_label
 _atom_site_symmetry_multiplicity
 _atom_site_fract_x
 _atom_site_fract_y
 _atom_site_fract_z
 _atom_site_occupancy
 _atom_site_charge
Cu  Cu1  1  0.00000000  0.50000000  0.00000000  1.0 0.9269754411
Cu  Cu2  1  0.00000000  0.00000000  0.50000000  1.0 0.9269754411
Cu  Cu3  1  0.50000000  0.00000000  0.50000000  1.0 0.9839216889
Cu  Cu4  1  0.50000000  0.50000000  0.00000000  1.0 0.9839216889
H  H1  1  0.62400000  0.67870000  0.13590000  1.0 0.1504603819
H  H2  1  0.82890000  0.79370000  0.24760000  1.0 0.1314247818
H  H3  1  0.15830000  0.99080000  0.31250000  1.0 0.361699027
H  H4  1  0.13520000  0.05900000  0.35500000  1.0 0.3414155365
H  H5  1  0.37600000  0.17870000  0.36410000  1.0 0.1504603819
H  H6  1  0.17110000  0.29370000  0.25240000  1.0 0.1314247818
H  H7  1  0.84170000  0.49080000  0.18750000  1.0 0.361699027
H  H8  1  0.86480000  0.55900000  0.14500000  1.0 0.3414155365
H  H9  1  0.37600000  0.32130000  0.86410000  1.0 0.1504603819
H  H10  1  0.17110000  0.20630000  0.75240000  1.0 0.1314247818
H  H11  1  0.84170000  0.00920000  0.68750000  1.0 0.361699027
H  H12  1  0.86480000  0.94100000  0.64500000  1.0 0.3414155365
H  H13  1  0.62400000  0.82130000  0.63590000  1.0 0.1504603819
H  H14  1  0.82890000  0.70630000  0.74760000  1.0 0.1314247818
H  H15  1  0.15830000  0.50920000  0.81250000  1.0 0.361699027
H  H16  1  0.13520000  0.44100000  0.85500000  1.0 0.3414155365
C  C1  1  0.21110000  0.63179000  0.14430000  1.0 0.6064627887
C  C2  1  0.38510000  0.69393000  0.19540000  1.0 -0.1085129471
C  C3  1  0.57670000  0.70894000  0.18210000  1.0 -0.1039890303
C  C4  1  0.69460000  0.77540000  0.24630000  1.0 -0.1085129471
C  C5  1  0.58910000  0.81016000  0.30690000  1.0 -0.1085129471
C  C6  1  0.65770000  0.88098000  0.38340000  1.0 0.6064627887
C  C7  1  0.78890000  0.13179000  0.35570000  1.0 0.6064627887
C  C8  1  0.61490000  0.19393000  0.30460000  1.0 -0.1085129471
C  C9  1  0.42330000  0.20894000  0.31790000  1.0 -0.1039890303
C  C10  1  0.30540000  0.27540000  0.25370000  1.0 -0.1085129471
C  C11  1  0.41090000  0.31016000  0.19310000  1.0 -0.1085129471
C  C12  1  0.34230000  0.38098000  0.11660000  1.0 0.6064627887
C  C13  1  0.78890000  0.36821000  0.85570000  1.0 0.6064627887
C  C14  1  0.61490000  0.30607000  0.80460000  1.0 -0.1085129471
C  C15  1  0.42330000  0.29106000  0.81790000  1.0 -0.1039890303
C  C16  1  0.30540000  0.22460000  0.75370000  1.0 -0.1085129471
C  C17  1  0.41090000  0.18984000  0.69310000  1.0 -0.1085129471
C  C18  1  0.34230000  0.11902000  0.61660000  1.0 0.6064627887
C  C19  1  0.21110000  0.86821000  0.64430000  1.0 0.6064627887
C  C20  1  0.38510000  0.80607000  0.69540000  1.0 -0.1085129471
C  C21  1  0.57670000  0.79106000  0.68210000  1.0 -0.1039890303
C  C22  1  0.69460000  0.72460000  0.74630000  1.0 -0.1085129471
C  C23  1  0.58910000  0.68984000  0.80690000  1.0 -0.1085129471
C  C24  1  0.65770000  0.61902000  0.88340000  1.0 0.6064627887
S  S1  1  0.34601000  0.76143000  0.28550000  1.0 0.1504603819
S  S2  1  0.65399000  0.26143000  0.21450000  1.0 0.1504603819
S  S3  1  0.65399000  0.23857000  0.71450000  1.0 0.1504603819
S  S4  1  0.34601000  0.73857000  0.78550000  1.0 0.1504603819
O  O1  1  0.20937000  0.01585000  0.37587000  1.0 -0.6726334869
O  O2  1  0.24790000  0.57509000  0.08780000  1.0 -0.5974615692
O  O3  1  0.03879000  0.63937000  0.16059000  1.0 -0.5228726371
O  O4  1  0.84144000  0.91237000  0.39854000  1.0 -0.5228726371
O  O5  1  0.52515000  0.90240000  0.42525000  1.0 -0.5584660499
O  O6  1  0.79063000  0.51585000  0.12413000  1.0 -0.6726334869
O  O7  1  0.75210000  0.07509000  0.41220000  1.0 -0.5974615692
O  O8  1  0.96121000  0.13937000  0.33941000  1.0 -0.5228726371
O  O9  1  0.15856000  0.41237000  0.10146000  1.0 -0.5228726371
O  O10  1  0.47485000  0.40240000  0.07475000  1.0 -0.5584660499
O  O11  1  0.79063000  0.98415000  0.62413000  1.0 -0.6726334869
O  O12  1  0.75210000  0.42491000  0.91220000  1.0 -0.5974615692
O  O13  1  0.96121000  0.36063000  0.83941000  1.0 -0.5228726371
O  O14  1  0.15856000  0.08763000  0.60146000  1.0 -0.5228726371
O  O15  1  0.47485000  0.09760000  0.57475000  1.0 -0.5584660499
O  O16  1  0.20937000  0.48415000  0.87587000  1.0 -0.6726334869
O  O17  1  0.24790000  0.92491000  0.58780000  1.0 -0.5974615692
O  O18  1  0.03879000  0.86063000  0.66059000  1.0 -0.5228726371
O  O19  1  0.84144000  0.58763000  0.89854000  1.0 -0.5228726371
O  O20  1  0.52515000  0.59760000  0.92525000  1.0 -0.5584660499
