# DDEC6 charges by PACMAN v1.1 (https://github.com/mtap-research/PACMAN-charge/)
data_MARLOJ_ASR_pacman
_symmetry_space_group_name_H-M   'P 1'
_cell_length_a   18.25500000
_cell_length_b   8.83400000
_cell_length_c   21.74470000
_cell_angle_alpha   90.00000000
_cell_angle_beta   118.40600000
_cell_angle_gamma   90.00000000
_symmetry_Int_Tables_number   1
_chemical_formula_structural   LaH8(C5O3)2
_chemical_formula_sum   'La8 H64 C80 O48'
_cell_volume   3084.44663916
_cell_formula_units_Z   8
loop_
 _symmetry_equiv_pos_site_id
 _symmetry_equiv_pos_as_xyz
  1  'x, y, z'
loop_
 _atom_site_type_symbol
 _atom_site_label
 _atom_site_symmetry_multiplicity
 _atom_site_fract_x
 _atom_site_fract_y
 _atom_site_fract_z
 _atom_site_occupancy
 _atom_site_charge
La  La1  1  0.74460000  0.47166000  0.76647000  1.0 1.8561276787
La  La2  1  0.74376000  0.97264000  0.74238000  1.0 1.8426285677
La  La3  1  0.25540000  0.97166000  0.73353000  1.0 1.8561276787
La  La4  1  0.25624000  0.47264000  0.75762000  1.0 1.8426285677
La  La5  1  0.25540000  0.52834000  0.23353000  1.0 1.8549191349
La  La6  1  0.25624000  0.02736000  0.25762000  1.0 1.8426285677
La  La7  1  0.74460000  0.02834000  0.26647000  1.0 1.8549191349
La  La8  1  0.74376000  0.52736000  0.24238000  1.0 1.8426285677
H  H1  1  0.96790000  0.36190000  0.86720000  1.0 0.1309265519
H  H2  1  0.01830000  0.24840000  0.84610000  1.0 0.1433791363
H  H3  1  0.04290000  0.09540000  0.94520000  1.0 0.1080351253
H  H4  1  0.01460000  0.36830000  0.98730000  1.0 0.1080351253
H  H5  1  0.09880000  0.11120000  0.06890000  1.0 0.1433791363
H  H6  1  0.03120000  0.19290000  0.08170000  1.0 0.1433791363
H  H7  1  0.86600000  0.14090000  0.97300000  1.0 0.1222916686
H  H8  1  0.78650000  0.11330000  0.98110000  1.0 0.1309265519
H  H9  1  0.82180000  0.41920000  0.97660000  1.0 0.1080351253
H  H10  1  0.84540000  0.25140000  0.08860000  1.0 0.1080351253
H  H11  1  0.92670000  0.47940000  0.14070000  1.0 0.1309265519
H  H12  1  0.85900000  0.56680000  0.07590000  1.0 0.1222916686
H  H13  1  0.51970000  0.09090000  0.62690000  1.0 0.1309265519
H  H14  1  0.46450000  0.22970000  0.62480000  1.0 0.1309265519
H  H15  1  0.40620000  0.44950000  0.41970000  1.0 0.1080351253
H  H16  1  0.48090000  0.34240000  0.43360000  1.0 0.1309265519
H  H17  1  0.03210000  0.86190000  0.63280000  1.0 0.1309265519
H  H18  1  0.98170000  0.74840000  0.65390000  1.0 0.1433791363
H  H19  1  0.95710000  0.59540000  0.55480000  1.0 0.1080351253
H  H20  1  0.98540000  0.86830000  0.51270000  1.0 0.1080351253
H  H21  1  0.90120000  0.61120000  0.43110000  1.0 0.1433791363
H  H22  1  0.96880000  0.69290000  0.41830000  1.0 0.1433791363
H  H23  1  0.13400000  0.64090000  0.52700000  1.0 0.1222916686
H  H24  1  0.21350000  0.61330000  0.51890000  1.0 0.1309265519
H  H25  1  0.17820000  0.91920000  0.52340000  1.0 0.1080351253
H  H26  1  0.15460000  0.75140000  0.41140000  1.0 0.1080351253
H  H27  1  0.07330000  0.97940000  0.35930000  1.0 0.1309265519
H  H28  1  0.14100000  0.06680000  0.42410000  1.0 0.1222916686
H  H29  1  0.48030000  0.59090000  0.87310000  1.0 0.1309265519
H  H30  1  0.53550000  0.72970000  0.87520000  1.0 0.1309265519
H  H31  1  0.59380000  0.94950000  0.08030000  1.0 0.1080351253
H  H32  1  0.51910000  0.84240000  0.06640000  1.0 0.1309265519
H  H33  1  0.03210000  0.63810000  0.13280000  1.0 0.1309265519
H  H34  1  0.98170000  0.75160000  0.15390000  1.0 0.1433791363
H  H35  1  0.95710000  0.90460000  0.05480000  1.0 0.1080351253
H  H36  1  0.98540000  0.63170000  0.01270000  1.0 0.1080351253
H  H37  1  0.90120000  0.88880000  0.93110000  1.0 0.1433791363
H  H38  1  0.96880000  0.80710000  0.91830000  1.0 0.1433791363
H  H39  1  0.13400000  0.85910000  0.02700000  1.0 0.1222916686
H  H40  1  0.21350000  0.88670000  0.01890000  1.0 0.1309265519
H  H41  1  0.17820000  0.58080000  0.02340000  1.0 0.1080351253
H  H42  1  0.15460000  0.74860000  0.91140000  1.0 0.1080351253
H  H43  1  0.07330000  0.52060000  0.85930000  1.0 0.1309265519
H  H44  1  0.14100000  0.43320000  0.92410000  1.0 0.1222916686
H  H45  1  0.48030000  0.90910000  0.37310000  1.0 0.1309265519
H  H46  1  0.53550000  0.77030000  0.37520000  1.0 0.1309265519
H  H47  1  0.59380000  0.55050000  0.58030000  1.0 0.1080351253
H  H48  1  0.51910000  0.65760000  0.56640000  1.0 0.1309265519
H  H49  1  0.96790000  0.13810000  0.36720000  1.0 0.1309265519
H  H50  1  0.01830000  0.25160000  0.34610000  1.0 0.1433791363
H  H51  1  0.04290000  0.40460000  0.44520000  1.0 0.1080351253
H  H52  1  0.01460000  0.13170000  0.48730000  1.0 0.1080351253
H  H53  1  0.09880000  0.38880000  0.56890000  1.0 0.1433791363
H  H54  1  0.03120000  0.30710000  0.58170000  1.0 0.1433791363
H  H55  1  0.86600000  0.35910000  0.47300000  1.0 0.1222916686
H  H56  1  0.78650000  0.38670000  0.48110000  1.0 0.1309265519
H  H57  1  0.82180000  0.08080000  0.47660000  1.0 0.1080351253
H  H58  1  0.84540000  0.24860000  0.58860000  1.0 0.1080351253
H  H59  1  0.92670000  0.02060000  0.64070000  1.0 0.1309265519
H  H60  1  0.85900000  0.93320000  0.57590000  1.0 0.1222916686
H  H61  1  0.51970000  0.40910000  0.12690000  1.0 0.1309265519
H  H62  1  0.46450000  0.27030000  0.12480000  1.0 0.1309265519
H  H63  1  0.40620000  0.05050000  0.91970000  1.0 0.1080351253
H  H64  1  0.48090000  0.15760000  0.93360000  1.0 0.1309265519
C  C1  1  0.90140000  0.17060000  0.82010000  1.0 0.6480557018
C  C2  1  0.98080000  0.25580000  0.86600000  1.0 -0.3407046019
C  C3  1  0.02300000  0.19410000  0.93900000  1.0 -0.0978488855
C  C4  1  0.03360000  0.26890000  0.99400000  1.0 -0.0720678426
C  C5  1  0.07420000  0.20880000  0.06820000  1.0 -0.3472756154
C  C6  1  0.14000000  0.30940000  0.12140000  1.0 0.6480557018
C  C7  1  0.75930000  0.18460000  0.88410000  1.0 0.6659811132
C  C8  1  0.81200000  0.18270000  0.96230000  1.0 -0.3407046019
C  C9  1  0.82670000  0.33010000  0.00100000  1.0 -0.0797653907
C  C10  1  0.84560000  0.34030000  0.06570000  1.0 -0.0797653907
C  C11  1  0.86780000  0.48240000  0.10720000  1.0 -0.3284106261
C  C12  1  0.81970000  0.51170000  0.14630000  1.0 0.6284866624
C  C13  1  0.59000000  0.27860000  0.67700000  1.0 0.6409383707
C  C14  1  0.51350000  0.19980000  0.62120000  1.0 -0.2328893847
C  C15  1  0.50400000  0.24600000  0.55010000  1.0 0.0093714888
C  C16  1  0.43480000  0.30700000  0.49970000  1.0 -0.0161420589
C  C17  1  0.42630000  0.34630000  0.43090000  1.0 -0.2406634397
C  C18  1  0.36810000  0.24380000  0.37270000  1.0 0.6409383707
C  C19  1  0.46830000  0.29140000  0.55430000  1.0 -0.0013777371
C  C20  1  0.47230000  0.25800000  0.50100000  1.0 0.0093714888
C  C21  1  0.09860000  0.67060000  0.67990000  1.0 0.6480557018
C  C22  1  0.01920000  0.75580000  0.63400000  1.0 -0.3407046019
C  C23  1  0.97700000  0.69410000  0.56100000  1.0 -0.0978488855
C  C24  1  0.96640000  0.76890000  0.50600000  1.0 -0.0720678426
C  C25  1  0.92580000  0.70880000  0.43180000  1.0 -0.3472756154
C  C26  1  0.86000000  0.80940000  0.37860000  1.0 0.6480557018
C  C27  1  0.24070000  0.68460000  0.61590000  1.0 0.6659811132
C  C28  1  0.18800000  0.68270000  0.53770000  1.0 -0.3407046019
C  C29  1  0.17330000  0.83010000  0.49900000  1.0 -0.0797653907
C  C30  1  0.15440000  0.84030000  0.43430000  1.0 -0.0797653907
C  C31  1  0.13220000  0.98240000  0.39280000  1.0 -0.3284106261
C  C32  1  0.18030000  0.01170000  0.35370000  1.0 0.6284866624
C  C33  1  0.41000000  0.77860000  0.82300000  1.0 0.6409383707
C  C34  1  0.48650000  0.69980000  0.87880000  1.0 -0.2328893847
C  C35  1  0.49600000  0.74600000  0.94990000  1.0 0.0093714888
C  C36  1  0.56520000  0.80700000  0.00030000  1.0 -0.0161420589
C  C37  1  0.57370000  0.84630000  0.06910000  1.0 -0.2406634397
C  C38  1  0.63190000  0.74380000  0.12730000  1.0 0.6409383707
C  C39  1  0.53170000  0.79140000  0.94570000  1.0 -0.0013777371
C  C40  1  0.52770000  0.75800000  0.99900000  1.0 0.0093714888
C  C41  1  0.09860000  0.82940000  0.17990000  1.0 0.6480557018
C  C42  1  0.01920000  0.74420000  0.13400000  1.0 -0.3407046019
C  C43  1  0.97700000  0.80590000  0.06100000  1.0 -0.0978488855
C  C44  1  0.96640000  0.73110000  0.00600000  1.0 -0.0720678426
C  C45  1  0.92580000  0.79120000  0.93180000  1.0 -0.3472756154
C  C46  1  0.86000000  0.69060000  0.87860000  1.0 0.6480557018
C  C47  1  0.24070000  0.81540000  0.11590000  1.0 0.6659811132
C  C48  1  0.18800000  0.81730000  0.03770000  1.0 -0.3407046019
C  C49  1  0.17330000  0.66990000  0.99900000  1.0 -0.0797653907
C  C50  1  0.15440000  0.65970000  0.93430000  1.0 -0.0797653907
C  C51  1  0.13220000  0.51760000  0.89280000  1.0 -0.3284106261
C  C52  1  0.18030000  0.48830000  0.85370000  1.0 0.6284866624
C  C53  1  0.41000000  0.72140000  0.32300000  1.0 0.6409383707
C  C54  1  0.48650000  0.80020000  0.37880000  1.0 -0.2328893847
C  C55  1  0.49600000  0.75400000  0.44990000  1.0 0.0093714888
C  C56  1  0.56520000  0.69300000  0.50030000  1.0 -0.0161420589
C  C57  1  0.57370000  0.65370000  0.56910000  1.0 -0.2406634397
C  C58  1  0.63190000  0.75620000  0.62730000  1.0 0.6409383707
C  C59  1  0.53170000  0.70860000  0.44570000  1.0 -0.0013777371
C  C60  1  0.52770000  0.74200000  0.49900000  1.0 0.0093714888
C  C61  1  0.90140000  0.32940000  0.32010000  1.0 0.6480557018
C  C62  1  0.98080000  0.24420000  0.36600000  1.0 -0.3407046019
C  C63  1  0.02300000  0.30590000  0.43900000  1.0 -0.0978488855
C  C64  1  0.03360000  0.23110000  0.49400000  1.0 -0.0720678426
C  C65  1  0.07420000  0.29120000  0.56820000  1.0 -0.3472756154
C  C66  1  0.14000000  0.19060000  0.62140000  1.0 0.6480557018
C  C67  1  0.75930000  0.31540000  0.38410000  1.0 0.6659811132
C  C68  1  0.81200000  0.31730000  0.46230000  1.0 -0.3407046019
C  C69  1  0.82670000  0.16990000  0.50100000  1.0 -0.0797653907
C  C70  1  0.84560000  0.15970000  0.56570000  1.0 -0.0850185237
C  C71  1  0.86780000  0.01760000  0.60720000  1.0 -0.3284106261
C  C72  1  0.81970000  0.98830000  0.64630000  1.0 0.6284866624
C  C73  1  0.59000000  0.22140000  0.17700000  1.0 0.6409383707
C  C74  1  0.51350000  0.30020000  0.12120000  1.0 -0.2328893847
C  C75  1  0.50400000  0.25400000  0.05010000  1.0 0.0093714888
C  C76  1  0.43480000  0.19300000  0.99970000  1.0 -0.0161420589
C  C77  1  0.42630000  0.15370000  0.93090000  1.0 -0.2406634397
C  C78  1  0.36810000  0.25620000  0.87270000  1.0 0.6409383707
C  C79  1  0.46830000  0.20860000  0.05430000  1.0 -0.0013777371
C  C80  1  0.47230000  0.24200000  0.00100000  1.0 0.0093714888
O  O1  1  0.90340000  0.03130000  0.81180000  1.0 -0.573358909
O  O2  1  0.83340000  0.24270000  0.78980000  1.0 -0.6639318622
O  O3  1  0.19410000  0.24980000  0.17860000  1.0 -0.6767522402
O  O4  1  0.13960000  0.44890000  0.11110000  1.0 -0.6019606299
O  O5  1  0.75269000  0.05930000  0.85499000  1.0 -0.6292915798
O  O6  1  0.72949000  0.30700000  0.85409000  1.0 -0.6019606299
O  O7  1  0.77830000  0.40330000  0.15320000  1.0 -0.6083159826
O  O8  1  0.82400000  0.63920000  0.17440000  1.0 -0.6083159826
O  O9  1  0.65914000  0.20830000  0.70414000  1.0 -0.6430809654
O  O10  1  0.58640000  0.41230000  0.69370000  1.0 -0.5541934378
O  O11  1  0.36885000  0.10470000  0.38155000  1.0 -0.5584581024
O  O12  1  0.31845000  0.30220000  0.31295000  1.0 -0.69019121
O  O13  1  0.09660000  0.53130000  0.68820000  1.0 -0.573358909
O  O14  1  0.16660000  0.74270000  0.71020000  1.0 -0.6639318622
O  O15  1  0.80590000  0.74980000  0.32140000  1.0 -0.6767522402
O  O16  1  0.86040000  0.94890000  0.38890000  1.0 -0.6019606299
O  O17  1  0.24731000  0.55930000  0.64501000  1.0 -0.6292915798
O  O18  1  0.27051000  0.80700000  0.64591000  1.0 -0.6019606299
O  O19  1  0.22170000  0.90330000  0.34680000  1.0 -0.6083159826
O  O20  1  0.17600000  0.13920000  0.32560000  1.0 -0.6083159826
O  O21  1  0.34086000  0.70830000  0.79586000  1.0 -0.6430809654
O  O22  1  0.41360000  0.91230000  0.80630000  1.0 -0.5584581024
O  O23  1  0.63115000  0.60470000  0.11845000  1.0 -0.5584581024
O  O24  1  0.68155000  0.80220000  0.18705000  1.0 -0.69019121
O  O25  1  0.09660000  0.96870000  0.18820000  1.0 -0.573358909
O  O26  1  0.16660000  0.75730000  0.21020000  1.0 -0.6639318622
O  O27  1  0.80590000  0.75020000  0.82140000  1.0 -0.6767522402
O  O28  1  0.86040000  0.55110000  0.88890000  1.0 -0.6019606299
O  O29  1  0.24731000  0.94070000  0.14501000  1.0 -0.6292915798
O  O30  1  0.27051000  0.69300000  0.14591000  1.0 -0.6019606299
O  O31  1  0.22170000  0.59670000  0.84680000  1.0 -0.6083159826
O  O32  1  0.17600000  0.36080000  0.82560000  1.0 -0.6083159826
O  O33  1  0.34086000  0.79170000  0.29586000  1.0 -0.6430809654
O  O34  1  0.41360000  0.58770000  0.30630000  1.0 -0.5541934378
O  O35  1  0.63115000  0.89530000  0.61845000  1.0 -0.5584581024
O  O36  1  0.68155000  0.69780000  0.68705000  1.0 -0.69019121
O  O37  1  0.90340000  0.46870000  0.31180000  1.0 -0.573358909
O  O38  1  0.83340000  0.25730000  0.28980000  1.0 -0.6639318622
O  O39  1  0.19410000  0.25020000  0.67860000  1.0 -0.6767522402
O  O40  1  0.13960000  0.05110000  0.61110000  1.0 -0.6019606299
O  O41  1  0.75269000  0.44070000  0.35499000  1.0 -0.6292915798
O  O42  1  0.72949000  0.19300000  0.35409000  1.0 -0.6019606299
O  O43  1  0.77830000  0.09670000  0.65320000  1.0 -0.6083159826
O  O44  1  0.82400000  0.86080000  0.67440000  1.0 -0.6083159826
O  O45  1  0.65914000  0.29170000  0.20414000  1.0 -0.6430809654
O  O46  1  0.58640000  0.08770000  0.19370000  1.0 -0.5541934378
O  O47  1  0.36885000  0.39530000  0.88155000  1.0 -0.5584581024
O  O48  1  0.31845000  0.19780000  0.81295000  1.0 -0.69019121
