# DDEC6 charges by PACMAN v1.1 (https://github.com/mtap-research/PACMAN-charge/)
data_MARLUP_ASR_pacman
_symmetry_space_group_name_H-M   'P 1'
_cell_length_a   18.20800000
_cell_length_b   8.79700000
_cell_length_c   21.71270000
_cell_angle_alpha   90.00000000
_cell_angle_beta   118.38800000
_cell_angle_gamma   90.00000000
_symmetry_Int_Tables_number   1
_chemical_formula_structural   CeH8(C5O3)2
_chemical_formula_sum   'Ce8 H64 C80 O48'
_cell_volume   3059.63090967
_cell_formula_units_Z   8
loop_
 _symmetry_equiv_pos_site_id
 _symmetry_equiv_pos_as_xyz
  1  'x, y, z'
loop_
 _atom_site_type_symbol
 _atom_site_label
 _atom_site_symmetry_multiplicity
 _atom_site_fract_x
 _atom_site_fract_y
 _atom_site_fract_z
 _atom_site_occupancy
 _atom_site_charge
Ce  Ce1  1  0.74445000  0.47194000  0.76639000  1.0 1.7977337666
Ce  Ce2  1  0.74387000  0.97290000  0.74246000  1.0 1.9704444237
Ce  Ce3  1  0.25555000  0.97194000  0.73361000  1.0 1.7977337666
Ce  Ce4  1  0.25613000  0.47290000  0.75754000  1.0 1.9704444237
Ce  Ce5  1  0.25555000  0.52806000  0.23361000  1.0 1.7977337666
Ce  Ce6  1  0.25613000  0.02710000  0.25754000  1.0 1.9704444237
Ce  Ce7  1  0.74445000  0.02806000  0.26639000  1.0 1.7977337666
Ce  Ce8  1  0.74387000  0.52710000  0.24246000  1.0 1.9704444237
H  H1  1  0.96610000  0.36260000  0.86860000  1.0 0.1295323566
H  H2  1  0.01700000  0.25270000  0.84610000  1.0 0.1400848223
H  H3  1  0.52320000  0.09090000  0.62740000  1.0 0.1295323566
H  H4  1  0.46720000  0.22640000  0.62780000  1.0 0.1400848223
H  H5  1  0.86500000  0.13690000  0.97420000  1.0 0.1203640919
H  H6  1  0.78350000  0.11480000  0.98030000  1.0 0.1295323566
H  H7  1  0.04400000  0.09320000  0.94630000  1.0 0.1045045346
H  H8  1  0.82380000  0.41910000  0.97600000  1.0 0.1089798649
H  H9  1  0.01520000  0.37210000  0.98670000  1.0 0.1089798649
H  H10  1  0.84130000  0.25430000  0.08740000  1.0 0.1045045346
H  H11  1  0.09980000  0.11220000  0.06820000  1.0 0.1400848223
H  H12  1  0.03130000  0.19110000  0.08110000  1.0 0.1400848223
H  H13  1  0.40460000  0.45180000  0.42010000  1.0 0.1089798649
H  H14  1  0.47950000  0.34620000  0.43230000  1.0 0.1295323566
H  H15  1  0.92760000  0.48030000  0.14190000  1.0 0.1295323566
H  H16  1  0.86070000  0.57150000  0.07760000  1.0 0.1203640919
H  H17  1  0.03390000  0.86260000  0.63140000  1.0 0.1295323566
H  H18  1  0.98300000  0.75270000  0.65390000  1.0 0.1400848223
H  H19  1  0.47680000  0.59090000  0.87260000  1.0 0.1295323566
H  H20  1  0.53280000  0.72640000  0.87220000  1.0 0.1400848223
H  H21  1  0.13500000  0.63690000  0.52580000  1.0 0.1203640919
H  H22  1  0.21650000  0.61480000  0.51970000  1.0 0.1295323566
H  H23  1  0.95600000  0.59320000  0.55370000  1.0 0.1045045346
H  H24  1  0.17620000  0.91910000  0.52400000  1.0 0.1089798649
H  H25  1  0.98480000  0.87210000  0.51330000  1.0 0.1089798649
H  H26  1  0.15870000  0.75430000  0.41260000  1.0 0.1045045346
H  H27  1  0.90020000  0.61220000  0.43180000  1.0 0.1400848223
H  H28  1  0.96870000  0.69110000  0.41890000  1.0 0.1400848223
H  H29  1  0.59540000  0.95180000  0.07990000  1.0 0.1089798649
H  H30  1  0.52050000  0.84620000  0.06770000  1.0 0.1295323566
H  H31  1  0.07240000  0.98030000  0.35810000  1.0 0.1295323566
H  H32  1  0.13930000  0.07150000  0.42240000  1.0 0.1203640919
H  H33  1  0.03390000  0.63740000  0.13140000  1.0 0.1295323566
H  H34  1  0.98300000  0.74730000  0.15390000  1.0 0.1400848223
H  H35  1  0.47680000  0.90910000  0.37260000  1.0 0.1295323566
H  H36  1  0.53280000  0.77360000  0.37220000  1.0 0.1400848223
H  H37  1  0.13500000  0.86310000  0.02580000  1.0 0.1203640919
H  H38  1  0.21650000  0.88520000  0.01970000  1.0 0.1295323566
H  H39  1  0.95600000  0.90680000  0.05370000  1.0 0.1045045346
H  H40  1  0.17620000  0.58090000  0.02400000  1.0 0.1089798649
H  H41  1  0.98480000  0.62790000  0.01330000  1.0 0.1089798649
H  H42  1  0.15870000  0.74570000  0.91260000  1.0 0.1045045346
H  H43  1  0.90020000  0.88780000  0.93180000  1.0 0.1400848223
H  H44  1  0.96870000  0.80890000  0.91890000  1.0 0.1400848223
H  H45  1  0.59540000  0.54820000  0.57990000  1.0 0.1089798649
H  H46  1  0.52050000  0.65380000  0.56770000  1.0 0.1295323566
H  H47  1  0.07240000  0.51970000  0.85810000  1.0 0.1295323566
H  H48  1  0.13930000  0.42850000  0.92240000  1.0 0.1203640919
H  H49  1  0.96610000  0.13740000  0.36860000  1.0 0.1295323566
H  H50  1  0.01700000  0.24730000  0.34610000  1.0 0.1400848223
H  H51  1  0.52320000  0.40910000  0.12740000  1.0 0.1295323566
H  H52  1  0.46720000  0.27360000  0.12780000  1.0 0.1400848223
H  H53  1  0.86500000  0.36310000  0.47420000  1.0 0.1203640919
H  H54  1  0.78350000  0.38520000  0.48030000  1.0 0.1295323566
H  H55  1  0.04400000  0.40680000  0.44630000  1.0 0.1045045346
H  H56  1  0.82380000  0.08090000  0.47600000  1.0 0.1089798649
H  H57  1  0.01520000  0.12790000  0.48670000  1.0 0.1089798649
H  H58  1  0.84130000  0.24570000  0.58740000  1.0 0.1045045346
H  H59  1  0.09980000  0.38780000  0.56820000  1.0 0.1400848223
H  H60  1  0.03130000  0.30890000  0.58110000  1.0 0.1400848223
H  H61  1  0.40460000  0.04820000  0.92010000  1.0 0.1089798649
H  H62  1  0.47950000  0.15380000  0.93230000  1.0 0.1295323566
H  H63  1  0.92760000  0.01970000  0.64190000  1.0 0.1295323566
H  H64  1  0.86070000  0.92850000  0.57760000  1.0 0.1203640919
C  C1  1  0.90010000  0.17070000  0.81940000  1.0 0.6569416501
C  C2  1  0.59070000  0.27770000  0.67730000  1.0 0.6412632592
C  C3  1  0.75970000  0.18900000  0.88330000  1.0 0.6674794234
C  C4  1  0.97970000  0.25680000  0.86640000  1.0 -0.3386158493
C  C5  1  0.51560000  0.20020000  0.62240000  1.0 -0.2324119791
C  C6  1  0.81150000  0.18210000  0.96270000  1.0 -0.3386158493
C  C7  1  0.02370000  0.19220000  0.93970000  1.0 -0.0967893232
C  C8  1  0.50040000  0.24900000  0.54840000  1.0 0.0190059821
C  C9  1  0.82690000  0.33060000  0.00050000  1.0 -0.0793950288
C  C10  1  0.03380000  0.27190000  0.99380000  1.0 -0.0793950288
C  C11  1  0.43500000  0.30500000  0.49900000  1.0 -0.0210504142
C  C12  1  0.84430000  0.34260000  0.06520000  1.0 -0.0793950288
C  C13  1  0.07460000  0.20940000  0.06800000  1.0 -0.3386158493
C  C14  1  0.42530000  0.34840000  0.43050000  1.0 -0.2324119791
C  C15  1  0.86880000  0.48530000  0.10800000  1.0 -0.3278266139
C  C16  1  0.14050000  0.31070000  0.12280000  1.0 0.6569416501
C  C17  1  0.36620000  0.24480000  0.37200000  1.0 0.6468045392
C  C18  1  0.81820000  0.50930000  0.14640000  1.0 0.6292545028
C  C19  1  0.46800000  0.29300000  0.55530000  1.0 -0.0054509233
C  C20  1  0.47150000  0.25900000  0.50050000  1.0 0.0190059821
C  C21  1  0.09990000  0.67070000  0.68060000  1.0 0.6569416501
C  C22  1  0.40930000  0.77770000  0.82270000  1.0 0.6412632592
C  C23  1  0.24030000  0.68900000  0.61670000  1.0 0.6674794234
C  C24  1  0.02030000  0.75680000  0.63360000  1.0 -0.3386158493
C  C25  1  0.48440000  0.70020000  0.87760000  1.0 -0.2324119791
C  C26  1  0.18850000  0.68210000  0.53730000  1.0 -0.3386158493
C  C27  1  0.97630000  0.69220000  0.56030000  1.0 -0.0967893232
C  C28  1  0.49960000  0.74900000  0.95160000  1.0 0.0190059821
C  C29  1  0.17310000  0.83060000  0.49950000  1.0 -0.0793950288
C  C30  1  0.96620000  0.77190000  0.50620000  1.0 -0.0793950288
C  C31  1  0.56500000  0.80500000  0.00100000  1.0 -0.0210504142
C  C32  1  0.15570000  0.84260000  0.43480000  1.0 -0.0793950288
C  C33  1  0.92540000  0.70940000  0.43200000  1.0 -0.3386158493
C  C34  1  0.57470000  0.84840000  0.06950000  1.0 -0.2324119791
C  C35  1  0.13120000  0.98530000  0.39200000  1.0 -0.3278266139
C  C36  1  0.85950000  0.81070000  0.37720000  1.0 0.6569416501
C  C37  1  0.63380000  0.74480000  0.12800000  1.0 0.6468045392
C  C38  1  0.18180000  0.00930000  0.35360000  1.0 0.6292545028
C  C39  1  0.53200000  0.79300000  0.94470000  1.0 -0.0041557841
C  C40  1  0.52850000  0.75900000  0.99950000  1.0 0.0190059821
C  C41  1  0.09990000  0.82930000  0.18060000  1.0 0.6569416501
C  C42  1  0.40930000  0.72230000  0.32270000  1.0 0.6412632592
C  C43  1  0.24030000  0.81100000  0.11670000  1.0 0.6674794234
C  C44  1  0.02030000  0.74320000  0.13360000  1.0 -0.3386158493
C  C45  1  0.48440000  0.79980000  0.37760000  1.0 -0.2324119791
C  C46  1  0.18850000  0.81790000  0.03730000  1.0 -0.3386158493
C  C47  1  0.97630000  0.80780000  0.06030000  1.0 -0.0967893232
C  C48  1  0.49960000  0.75100000  0.45160000  1.0 0.0190059821
C  C49  1  0.17310000  0.66940000  0.99950000  1.0 -0.0793950288
C  C50  1  0.96620000  0.72810000  0.00620000  1.0 -0.0793950288
C  C51  1  0.56500000  0.69500000  0.50100000  1.0 -0.0210504142
C  C52  1  0.15570000  0.65740000  0.93480000  1.0 -0.0793950288
C  C53  1  0.92540000  0.79060000  0.93200000  1.0 -0.3386158493
C  C54  1  0.57470000  0.65160000  0.56950000  1.0 -0.2324119791
C  C55  1  0.13120000  0.51470000  0.89200000  1.0 -0.3278266139
C  C56  1  0.85950000  0.68930000  0.87720000  1.0 0.6569416501
C  C57  1  0.63380000  0.75520000  0.62800000  1.0 0.6468045392
C  C58  1  0.18180000  0.49070000  0.85360000  1.0 0.6292545028
C  C59  1  0.53200000  0.70700000  0.44470000  1.0 -0.0041557841
C  C60  1  0.52850000  0.74100000  0.49950000  1.0 0.0190059821
C  C61  1  0.90010000  0.32930000  0.31940000  1.0 0.6569416501
C  C62  1  0.59070000  0.22230000  0.17730000  1.0 0.6412632592
C  C63  1  0.75970000  0.31100000  0.38330000  1.0 0.6674794234
C  C64  1  0.97970000  0.24320000  0.36640000  1.0 -0.3386158493
C  C65  1  0.51560000  0.29980000  0.12240000  1.0 -0.2324119791
C  C66  1  0.81150000  0.31790000  0.46270000  1.0 -0.3386158493
C  C67  1  0.02370000  0.30780000  0.43970000  1.0 -0.0967893232
C  C68  1  0.50040000  0.25100000  0.04840000  1.0 0.0190059821
C  C69  1  0.82690000  0.16940000  0.50050000  1.0 -0.0793950288
C  C70  1  0.03380000  0.22810000  0.49380000  1.0 -0.0793950288
C  C71  1  0.43500000  0.19500000  0.99900000  1.0 -0.0210504142
C  C72  1  0.84430000  0.15740000  0.56520000  1.0 -0.0852641634
C  C73  1  0.07460000  0.29060000  0.56800000  1.0 -0.3386158493
C  C74  1  0.42530000  0.15160000  0.93050000  1.0 -0.2324119791
C  C75  1  0.86880000  0.01470000  0.60800000  1.0 -0.3278266139
C  C76  1  0.14050000  0.18930000  0.62280000  1.0 0.6569416501
C  C77  1  0.36620000  0.25520000  0.87200000  1.0 0.6468045392
C  C78  1  0.81820000  0.99070000  0.64640000  1.0 0.6292545028
C  C79  1  0.46800000  0.20700000  0.05530000  1.0 -0.0041557841
C  C80  1  0.47150000  0.24100000  0.00050000  1.0 0.0190059821
O  O1  1  0.83250000  0.24610000  0.78830000  1.0 -0.6930427276
O  O2  1  0.66010000  0.20720000  0.70480000  1.0 -0.6541068427
O  O3  1  0.58750000  0.41310000  0.69420000  1.0 -0.5728378297
O  O4  1  0.80510000  0.75190000  0.82070000  1.0 -0.6958624147
O  O5  1  0.85910000  0.54970000  0.88780000  1.0 -0.6049863867
O  O6  1  0.72950000  0.30890000  0.85400000  1.0 -0.5728378297
O  O7  1  0.68280000  0.69770000  0.68740000  1.0 -0.6930427276
O  O8  1  0.90320000  0.03080000  0.81190000  1.0 -0.5800176699
O  O9  1  0.77790000  0.09700000  0.65420000  1.0 -0.5908551536
O  O10  1  0.82380000  0.86110000  0.67550000  1.0 -0.6221634321
O  O11  1  0.75290000  0.05900000  0.85440000  1.0 -0.6574055277
O  O12  1  0.63230000  0.89640000  0.61880000  1.0 -0.5800176699
O  O13  1  0.16750000  0.74610000  0.71170000  1.0 -0.6930427276
O  O14  1  0.33990000  0.70720000  0.79520000  1.0 -0.6541068427
O  O15  1  0.41250000  0.91310000  0.80580000  1.0 -0.5800176699
O  O16  1  0.19490000  0.25190000  0.67930000  1.0 -0.6958624147
O  O17  1  0.14090000  0.04970000  0.61220000  1.0 -0.6049863867
O  O18  1  0.27050000  0.80890000  0.64600000  1.0 -0.5728378297
O  O19  1  0.31720000  0.19770000  0.81260000  1.0 -0.6930427276
O  O20  1  0.09680000  0.53080000  0.68810000  1.0 -0.5800176699
O  O21  1  0.22210000  0.59700000  0.84580000  1.0 -0.5908551536
O  O22  1  0.17620000  0.36110000  0.82450000  1.0 -0.6221634321
O  O23  1  0.24710000  0.55900000  0.64560000  1.0 -0.6574055277
O  O24  1  0.36770000  0.39640000  0.88120000  1.0 -0.5800176699
O  O25  1  0.16750000  0.75390000  0.21170000  1.0 -0.6930427276
O  O26  1  0.33990000  0.79280000  0.29520000  1.0 -0.6541068427
O  O27  1  0.41250000  0.58690000  0.30580000  1.0 -0.5728378297
O  O28  1  0.19490000  0.24810000  0.17930000  1.0 -0.6958624147
O  O29  1  0.14090000  0.45030000  0.11220000  1.0 -0.6049863867
O  O30  1  0.27050000  0.69110000  0.14600000  1.0 -0.5728378297
O  O31  1  0.31720000  0.30230000  0.31260000  1.0 -0.6930427276
O  O32  1  0.09680000  0.96920000  0.18810000  1.0 -0.5800176699
O  O33  1  0.22210000  0.90300000  0.34580000  1.0 -0.5908551536
O  O34  1  0.17620000  0.13890000  0.32450000  1.0 -0.6221634321
O  O35  1  0.24710000  0.94100000  0.14560000  1.0 -0.6574055277
O  O36  1  0.36770000  0.10360000  0.38120000  1.0 -0.5800176699
O  O37  1  0.83250000  0.25390000  0.28830000  1.0 -0.6930427276
O  O38  1  0.66010000  0.29280000  0.20480000  1.0 -0.6541068427
O  O39  1  0.58750000  0.08690000  0.19420000  1.0 -0.5728378297
O  O40  1  0.80510000  0.74810000  0.32070000  1.0 -0.6958624147
O  O41  1  0.85910000  0.95030000  0.38780000  1.0 -0.6054349117
O  O42  1  0.72950000  0.19110000  0.35400000  1.0 -0.5728378297
O  O43  1  0.68280000  0.80230000  0.18740000  1.0 -0.6930427276
O  O44  1  0.90320000  0.46920000  0.31190000  1.0 -0.5800176699
O  O45  1  0.77790000  0.40300000  0.15420000  1.0 -0.5908551536
O  O46  1  0.82380000  0.63890000  0.17550000  1.0 -0.6221634321
O  O47  1  0.75290000  0.44100000  0.35440000  1.0 -0.6574055277
O  O48  1  0.63230000  0.60360000  0.11880000  1.0 -0.5800176699
