# DDEC6 charges by PACMAN v1.1 (https://github.com/mtap-research/PACMAN-charge/)
data_MATWUC_ASR_pacman
_symmetry_space_group_name_H-M   'P 1'
_cell_length_a   12.94750000
_cell_length_b   12.94750000
_cell_length_c   14.47540000
_cell_angle_alpha   85.18680000
_cell_angle_beta   94.81320000
_cell_angle_gamma   93.74090000
_symmetry_Int_Tables_number   1
_chemical_formula_structural   ZnH5C13N3O5
_chemical_formula_sum   'Zn4 H20 C52 N12 O20'
_cell_volume   2405.39596799
_cell_formula_units_Z   4
loop_
 _symmetry_equiv_pos_site_id
 _symmetry_equiv_pos_as_xyz
  1  'x, y, z'
loop_
 _atom_site_type_symbol
 _atom_site_label
 _atom_site_symmetry_multiplicity
 _atom_site_fract_x
 _atom_site_fract_y
 _atom_site_fract_z
 _atom_site_occupancy
 _atom_site_charge
Zn  Zn1  1  0.46263000  0.04305000  0.92603000  1.0 0.9669642151
Zn  Zn2  1  0.04305000  0.46263000  0.07397000  1.0 0.9669642151
Zn  Zn3  1  0.52270000  0.85388000  0.11686000  1.0 0.9378781319
Zn  Zn4  1  0.85388000  0.52270000  0.88314000  1.0 0.9378781319
H  H1  1  0.45110000  0.84770000  0.72160000  1.0 0.1227090955
H  H2  1  0.84770000  0.45110000  0.27840000  1.0 0.1227090955
H  H3  1  0.55320000  0.74880000  0.82390000  1.0 0.1417253837
H  H4  1  0.74880000  0.55320000  0.17610000  1.0 0.1417253837
H  H5  1  0.66080000  0.61540000  0.61480000  1.0 0.1227090955
H  H6  1  0.61540000  0.66080000  0.38520000  1.0 0.1227090955
H  H7  1  0.55680000  0.71700000  0.51520000  1.0 0.1307271521
H  H8  1  0.71700000  0.55680000  0.48480000  1.0 0.1307271521
H  H9  1  0.30870000  0.97830000  0.30120000  1.0 0.1417253837
H  H10  1  0.97830000  0.30870000  0.69880000  1.0 0.1417253837
H  H11  1  0.30770000  0.19170000  0.08200000  1.0 0.1417253837
H  H12  1  0.19170000  0.30770000  0.91800000  1.0 0.1417253837
H  H13  1  0.14410000  0.22910000  0.30100000  1.0 0.1307271521
H  H14  1  0.22910000  0.14410000  0.69900000  1.0 0.1307271521
H  H15  1  0.32280000  0.91180000  0.79610000  1.0 0.1307271521
H  H16  1  0.91180000  0.32280000  0.20390000  1.0 0.1307271521
H  H17  1  0.24250000  0.69450000  0.99670000  1.0 0.1497090087
H  H18  1  0.69450000  0.24250000  0.00330000  1.0 0.1497090087
H  H19  1  0.03770000  0.77170000  0.77990000  1.0 0.1497090087
H  H20  1  0.77170000  0.03770000  0.22010000  1.0 0.1497090087
C  C1  1  0.49760000  0.79740000  0.60570000  1.0 0.2173134089
C  C2  1  0.79740000  0.49760000  0.39430000  1.0 0.2173134089
C  C3  1  0.49570000  0.80390000  0.69940000  1.0 -0.1236425191
C  C4  1  0.80390000  0.49570000  0.30060000  1.0 -0.1236425191
C  C5  1  0.55930000  0.74590000  0.76070000  1.0 -0.0711461715
C  C6  1  0.74590000  0.55930000  0.23930000  1.0 -0.0711461715
C  C7  1  0.62990000  0.68510000  0.73470000  1.0 -0.0076350802
C  C8  1  0.68510000  0.62990000  0.26530000  1.0 -0.0076350802
C  C9  1  0.62320000  0.66580000  0.63660000  1.0 -0.0803882777
C  C10  1  0.66580000  0.62320000  0.36340000  1.0 -0.0803882777
C  C11  1  0.55890000  0.72570000  0.57850000  1.0 -0.1355802118
C  C12  1  0.72570000  0.55890000  0.42150000  1.0 -0.1312727838
C  C13  1  0.70430000  0.62850000  0.79970000  1.0 0.5340042711
C  C14  1  0.62850000  0.70430000  0.20030000  1.0 0.5340042711
C  C15  1  0.22400000  0.09960000  0.31660000  1.0 0.2013587505
C  C16  1  0.09960000  0.22400000  0.68340000  1.0 0.2013587505
C  C17  1  0.28590000  0.04030000  0.27180000  1.0 -0.1312727838
C  C18  1  0.04030000  0.28590000  0.72820000  1.0 -0.1312727838
C  C19  1  0.31490000  0.07330000  0.18100000  1.0 0.0171781834
C  C20  1  0.07330000  0.31490000  0.81900000  1.0 0.0134158377
C  C21  1  0.28500000  0.16740000  0.13960000  1.0 -0.1015660315
C  C22  1  0.16740000  0.28500000  0.86040000  1.0 -0.1015660315
C  C23  1  0.22190000  0.22530000  0.18320000  1.0 0.0171781834
C  C24  1  0.22530000  0.22190000  0.81680000  1.0 0.0171781834
C  C25  1  0.18890000  0.19070000  0.27260000  1.0 -0.1106710378
C  C26  1  0.19070000  0.18890000  0.72740000  1.0 -0.1106710378
C  C27  1  0.37970000  0.00770000  0.13160000  1.0 0.5887802542
C  C28  1  0.00770000  0.37970000  0.86840000  1.0 0.5887802542
C  C29  1  0.18240000  0.32440000  0.13630000  1.0 0.5587929488
C  C30  1  0.32440000  0.18240000  0.86370000  1.0 0.5587929488
C  C31  1  0.17520000  0.84900000  0.77570000  1.0 0.22614941
C  C32  1  0.84900000  0.17520000  0.22430000  1.0 0.22614941
C  C33  1  0.27380000  0.86400000  0.82120000  1.0 -0.1106710378
C  C34  1  0.86400000  0.27380000  0.17880000  1.0 -0.1106710378
C  C35  1  0.29750000  0.80610000  0.90460000  1.0 -0.0203926619
C  C36  1  0.80610000  0.29750000  0.09540000  1.0 -0.0203926619
C  C37  1  0.22560000  0.73400000  0.94150000  1.0 -0.0803882777
C  C38  1  0.73400000  0.22560000  0.05850000  1.0 -0.0803882777
C  C39  1  0.12650000  0.72110000  0.89420000  1.0 -0.0076350802
C  C40  1  0.72110000  0.12650000  0.10580000  1.0 -0.0076350802
C  C41  1  0.10310000  0.77990000  0.81120000  1.0 -0.1312727838
C  C42  1  0.77990000  0.10310000  0.18880000  1.0 -0.1312727838
C  C43  1  0.39960000  0.82560000  0.95590000  1.0 0.6002670527
C  C44  1  0.82560000  0.39960000  0.04410000  1.0 0.6002670527
C  C45  1  0.05190000  0.64050000  0.93350000  1.0 0.6002670527
C  C46  1  0.64050000  0.05190000  0.06650000  1.0 0.6002670527
C  C47  1  0.34540000  0.90140000  0.54490000  1.0 0.4821308206
C  C48  1  0.90140000  0.34540000  0.45510000  1.0 0.4821308206
C  C49  1  0.22620000  0.00240000  0.47510000  1.0 0.4821308206
C  C50  1  0.00240000  0.22620000  0.52490000  1.0 0.4821308206
C  C51  1  0.20880000  0.92820000  0.61930000  1.0 0.4821308206
C  C52  1  0.92820000  0.20880000  0.38070000  1.0 0.4821308206
N  N1  1  0.17000000  0.99520000  0.54970000  1.0 -0.3682652711
N  N2  1  0.99520000  0.17000000  0.45030000  1.0 -0.3682652711
N  N3  1  0.31520000  0.96020000  0.46740000  1.0 -0.4021036922
N  N4  1  0.96020000  0.31520000  0.53260000  1.0 -0.4021036922
N  N5  1  0.29450000  0.87990000  0.62160000  1.0 -0.4297852814
N  N6  1  0.87990000  0.29450000  0.37840000  1.0 -0.4297852814
N  N7  1  0.18660000  0.06940000  0.40400000  1.0 -0.3080871402
N  N8  1  0.06940000  0.18660000  0.59600000  1.0 -0.3080871402
N  N9  1  0.14940000  0.91120000  0.69010000  1.0 -0.340152045
N  N10  1  0.91120000  0.14940000  0.30990000  1.0 -0.3451988697
N  N11  1  0.43820000  0.85500000  0.53650000  1.0 -0.340152045
N  N12  1  0.85500000  0.43820000  0.46350000  1.0 -0.340152045
O  O1  1  0.76410000  0.56710000  0.77030000  1.0 -0.459923923
O  O2  1  0.56710000  0.76410000  0.22970000  1.0 -0.459923923
O  O3  1  0.71170000  0.64230000  0.88430000  1.0 -0.4403596818
O  O4  1  0.64230000  0.71170000  0.11570000  1.0 -0.4403596818
O  O5  1  0.43468000  0.94252000  0.18030000  1.0 -0.5017463266
O  O6  1  0.94252000  0.43468000  0.81970000  1.0 -0.5017463266
O  O7  1  0.37010000  0.01710000  0.04440000  1.0 -0.539405018
O  O8  1  0.01710000  0.37010000  0.95560000  1.0 -0.539405018
O  O9  1  0.09610000  0.34990000  0.15640000  1.0 -0.5096577902
O  O10  1  0.34990000  0.09610000  0.84360000  1.0 -0.5096577902
O  O11  1  0.23650000  0.37770000  0.07920000  1.0 -0.459923923
O  O12  1  0.37770000  0.23650000  0.92080000  1.0 -0.459923923
O  O13  1  0.41540000  0.77980000  0.03700000  1.0 -0.4800560474
O  O14  1  0.77980000  0.41540000  0.96300000  1.0 -0.4800560474
O  O15  1  0.46562000  0.89018000  0.92130000  1.0 -0.5612715482
O  O16  1  0.89018000  0.46562000  0.07870000  1.0 -0.5612715482
O  O17  1  0.09030000  0.57730000  0.99140000  1.0 -0.5096577902
O  O18  1  0.57730000  0.09030000  0.00860000  1.0 -0.5096577902
O  O19  1  0.95860000  0.64100000  0.90270000  1.0 -0.5096577902
O  O20  1  0.64100000  0.95860000  0.09730000  1.0 -0.5096577902
