# DDEC6 charges by PACMAN v1.1 (https://github.com/mtap-research/PACMAN-charge/)
data_MAVNUU_ASR_pacman
_symmetry_space_group_name_H-M   'P 1'
_cell_length_a   7.23090000
_cell_length_b   26.98420000
_cell_length_c   31.26260000
_cell_angle_alpha   90.00000000
_cell_angle_beta   90.00000000
_cell_angle_gamma   90.00000000
_symmetry_Int_Tables_number   1
_chemical_formula_structural   Zn2H31C53O8
_chemical_formula_sum   'Zn8 H124 C212 O32'
_cell_volume   6099.96013078
_cell_formula_units_Z   4
loop_
 _symmetry_equiv_pos_site_id
 _symmetry_equiv_pos_as_xyz
  1  'x, y, z'
loop_
 _atom_site_type_symbol
 _atom_site_label
 _atom_site_symmetry_multiplicity
 _atom_site_fract_x
 _atom_site_fract_y
 _atom_site_fract_z
 _atom_site_occupancy
 _atom_site_charge
Zn  Zn1  1  0.00020000  0.03200000  0.76214000  1.0 0.8657776876
Zn  Zn2  1  0.69270000  0.45326000  0.73094000  1.0 0.8299255683
Zn  Zn3  1  0.00020000  0.96800000  0.23786000  1.0 0.8657776876
Zn  Zn4  1  0.69270000  0.54674000  0.26906000  1.0 0.8299255683
Zn  Zn5  1  0.99980000  0.46800000  0.26214000  1.0 0.8657776876
Zn  Zn6  1  0.30730000  0.04674000  0.23094000  1.0 0.8299255683
Zn  Zn7  1  0.99980000  0.53200000  0.73786000  1.0 0.8642385765
Zn  Zn8  1  0.30730000  0.95326000  0.76906000  1.0 0.8299255683
H  H1  1  0.40447000  0.01649000  0.32515000  1.0 0.0900613786
H  H2  1  0.94616000  0.11590000  0.35731000  1.0 0.0986833306
H  H3  1  0.15095000  0.16053000  0.41046000  1.0 0.0813939548
H  H4  1  0.60853000  0.06079000  0.37863000  1.0 0.0986833306
H  H5  1  0.17189000  0.17088000  0.48078000  1.0 0.0813939548
H  H6  1  0.39120000  0.12156000  0.52740000  1.0 0.0900613786
H  H7  1  0.11554000  0.17851000  0.64202000  1.0 0.0986833306
H  H8  1  0.89486000  0.22753000  0.59557000  1.0 0.0900613786
H  H9  1  0.64443000  0.13359000  0.57616000  1.0 0.0813939548
H  H10  1  0.86669000  0.10073000  0.63166000  1.0 0.0986833306
H  H11  1  0.40393000  0.07567000  0.71962000  1.0 0.0986833306
H  H12  1  0.18171000  0.10892000  0.66411000  1.0 0.0986833306
H  H13  1  0.87484000  0.24368000  0.41324000  1.0 0.0900613786
H  H14  1  0.08360000  0.29674000  0.36725000  1.0 0.0900613786
H  H15  1  0.40896000  0.33645000  0.48058000  1.0 0.0900613786
H  H16  1  0.20033000  0.28330000  0.52645000  1.0 0.0813939548
H  H17  1  0.90019000  0.12640000  0.49081000  1.0 0.0900613786
H  H18  1  0.67750000  0.07702000  0.44508000  1.0 0.0900613786
H  H19  1  0.38121000  0.21351000  0.41243000  1.0 0.0900613786
H  H20  1  0.60296000  0.26285000  0.45845000  1.0 0.0813939548
H  H21  1  0.90960000  0.33473000  0.51007000  1.0 0.0900613786
H  H22  1  0.69216000  0.39010000  0.55193000  1.0 0.0900613786
H  H23  1  0.38527000  0.25947000  0.59542000  1.0 0.0900613786
H  H24  1  0.60294000  0.20410000  0.55358000  1.0 0.0813939548
H  H25  1  0.93768000  0.36373000  0.63572000  1.0 0.0986833306
H  H26  1  0.14965000  0.30944000  0.59157000  1.0 0.0813939548
H  H27  1  0.60276000  0.41485000  0.61163000  1.0 0.0900613786
H  H28  1  0.38998000  0.46912000  0.65570000  1.0 0.0986833306
H  H29  1  0.34297000  0.44113000  0.31536000  1.0 0.1062772139
H  H30  1  0.14806000  0.39040000  0.36635000  1.0 0.0900613786
H  H31  1  0.64871000  0.32041000  0.41706000  1.0 0.0900613786
H  H32  1  0.84428000  0.37151000  0.36640000  1.0 0.0900613786
H  H33  1  0.40447000  0.98351000  0.67485000  1.0 0.0900613786
H  H34  1  0.94616000  0.88410000  0.64269000  1.0 0.0986833306
H  H35  1  0.15095000  0.83947000  0.58954000  1.0 0.0813939548
H  H36  1  0.60854000  0.93919000  0.62136000  1.0 0.0986833306
H  H37  1  0.17189000  0.82912000  0.51922000  1.0 0.0813939548
H  H38  1  0.39120000  0.87844000  0.47260000  1.0 0.0900613786
H  H39  1  0.11554000  0.82149000  0.35798000  1.0 0.0986833306
H  H40  1  0.89493000  0.77249000  0.40438000  1.0 0.0900613786
H  H41  1  0.64443000  0.86641000  0.42384000  1.0 0.0813939548
H  H42  1  0.86669000  0.89927000  0.36834000  1.0 0.0986833306
H  H43  1  0.40393000  0.92433000  0.28038000  1.0 0.0986833306
H  H44  1  0.18171000  0.89108000  0.33589000  1.0 0.0986833306
H  H45  1  0.87484000  0.75632000  0.58676000  1.0 0.0900613786
H  H46  1  0.08360000  0.70326000  0.63275000  1.0 0.0900613786
H  H47  1  0.40896000  0.66355000  0.51942000  1.0 0.0900613786
H  H48  1  0.20033000  0.71670000  0.47355000  1.0 0.0813939548
H  H49  1  0.90019000  0.87360000  0.50919000  1.0 0.0900613786
H  H50  1  0.67750000  0.92298000  0.55492000  1.0 0.0900613786
H  H51  1  0.38121000  0.78649000  0.58757000  1.0 0.0900613786
H  H52  1  0.60302000  0.73715000  0.54154000  1.0 0.0813939548
H  H53  1  0.90960000  0.66527000  0.48993000  1.0 0.0900613786
H  H54  1  0.69216000  0.60990000  0.44807000  1.0 0.0900613786
H  H55  1  0.38527000  0.74053000  0.40458000  1.0 0.0900613786
H  H56  1  0.60292000  0.79590000  0.44642000  1.0 0.0813939548
H  H57  1  0.93768000  0.63627000  0.36428000  1.0 0.0986833306
H  H58  1  0.14965000  0.69056000  0.40843000  1.0 0.0813939548
H  H59  1  0.60276000  0.58515000  0.38837000  1.0 0.0900613786
H  H60  1  0.38998000  0.53088000  0.34430000  1.0 0.0986833306
H  H61  1  0.34297000  0.55887000  0.68464000  1.0 0.1062772139
H  H62  1  0.14806000  0.60960000  0.63365000  1.0 0.0900613786
H  H63  1  0.64871000  0.67959000  0.58294000  1.0 0.0900613786
H  H64  1  0.84428000  0.62849000  0.63360000  1.0 0.0900613786
H  H65  1  0.59553000  0.48351000  0.82515000  1.0 0.0900613786
H  H66  1  0.05384000  0.38410000  0.85731000  1.0 0.0986833306
H  H67  1  0.84905000  0.33947000  0.91046000  1.0 0.0813939548
H  H68  1  0.39146000  0.43919000  0.87864000  1.0 0.0986833306
H  H69  1  0.82811000  0.32912000  0.98078000  1.0 0.0813939548
H  H70  1  0.60880000  0.37844000  0.02740000  1.0 0.0900613786
H  H71  1  0.88446000  0.32149000  0.14202000  1.0 0.0986833306
H  H72  1  0.10514000  0.27247000  0.09557000  1.0 0.0900613786
H  H73  1  0.35557000  0.36641000  0.07616000  1.0 0.0813939548
H  H74  1  0.13331000  0.39927000  0.13166000  1.0 0.0986833306
H  H75  1  0.59607000  0.42433000  0.21962000  1.0 0.0986833306
H  H76  1  0.81827000  0.39109000  0.16413000  1.0 0.0986833306
H  H77  1  0.12516000  0.25632000  0.91324000  1.0 0.0900613786
H  H78  1  0.91640000  0.20326000  0.86725000  1.0 0.0900613786
H  H79  1  0.59104000  0.16355000  0.98058000  1.0 0.0900613786
H  H80  1  0.79967000  0.21670000  0.02645000  1.0 0.0813939548
H  H81  1  0.09981000  0.37360000  0.99081000  1.0 0.0900613786
H  H82  1  0.32250000  0.42298000  0.94508000  1.0 0.0900613786
H  H83  1  0.61879000  0.28649000  0.91243000  1.0 0.0900613786
H  H84  1  0.39704000  0.23715000  0.95845000  1.0 0.0813939548
H  H85  1  0.09040000  0.16527000  0.01007000  1.0 0.0900613786
H  H86  1  0.30784000  0.10990000  0.05193000  1.0 0.0900613786
H  H87  1  0.61473000  0.24053000  0.09542000  1.0 0.0900613786
H  H88  1  0.39708000  0.29590000  0.05358000  1.0 0.0813939548
H  H89  1  0.06232000  0.13627000  0.13572000  1.0 0.0986833306
H  H90  1  0.85035000  0.19056000  0.09157000  1.0 0.0813939548
H  H91  1  0.39724000  0.08515000  0.11163000  1.0 0.0900613786
H  H92  1  0.61002000  0.03088000  0.15570000  1.0 0.0986833306
H  H93  1  0.65703000  0.05887000  0.81536000  1.0 0.1062772139
H  H94  1  0.85194000  0.10960000  0.86635000  1.0 0.0900613786
H  H95  1  0.35129000  0.17959000  0.91706000  1.0 0.0900613786
H  H96  1  0.15572000  0.12849000  0.86640000  1.0 0.0900613786
H  H97  1  0.59553000  0.51649000  0.17485000  1.0 0.0900613786
H  H98  1  0.05384000  0.61590000  0.14269000  1.0 0.0986833306
H  H99  1  0.84905000  0.66053000  0.08954000  1.0 0.0900613786
H  H100  1  0.39146000  0.56081000  0.12136000  1.0 0.0900613786
H  H101  1  0.35557000  0.63359000  0.92384000  1.0 0.0900613786
H  H102  1  0.13331000  0.60073000  0.86834000  1.0 0.0986833306
H  H103  1  0.59607000  0.57567000  0.78038000  1.0 0.0986833306
H  H104  1  0.81829000  0.60892000  0.83589000  1.0 0.1062772139
H  H105  1  0.12516000  0.74368000  0.08676000  1.0 0.0900613786
H  H106  1  0.91640000  0.79674000  0.13275000  1.0 0.0900613786
H  H107  1  0.59104000  0.83645000  0.01942000  1.0 0.0900613786
H  H108  1  0.79967000  0.78330000  0.97355000  1.0 0.0813939548
H  H109  1  0.09981000  0.62640000  0.00919000  1.0 0.0900613786
H  H110  1  0.32250000  0.57702000  0.05492000  1.0 0.0900613786
H  H111  1  0.61879000  0.71351000  0.08757000  1.0 0.0900613786
H  H112  1  0.39704000  0.76285000  0.04155000  1.0 0.0813939548
H  H113  1  0.09040000  0.83473000  0.98993000  1.0 0.0900613786
H  H114  1  0.30784000  0.89010000  0.94807000  1.0 0.0900613786
H  H115  1  0.61473000  0.75947000  0.90458000  1.0 0.0900613786
H  H116  1  0.39708000  0.70410000  0.94642000  1.0 0.0813939548
H  H117  1  0.06232000  0.86373000  0.86428000  1.0 0.0986833306
H  H118  1  0.85035000  0.80944000  0.90843000  1.0 0.0813939548
H  H119  1  0.39724000  0.91485000  0.88837000  1.0 0.0900613786
H  H120  1  0.61002000  0.96912000  0.84430000  1.0 0.0986833306
H  H121  1  0.65703000  0.94113000  0.18464000  1.0 0.1062772139
H  H122  1  0.85194000  0.89040000  0.13365000  1.0 0.0900613786
H  H123  1  0.35129000  0.82041000  0.08294000  1.0 0.0900613786
H  H124  1  0.15572000  0.87151000  0.13360000  1.0 0.0900613786
C  C1  1  0.34700000  0.04890000  0.34440000  1.0 -0.0689247635
C  C2  1  0.16500000  0.06400000  0.33850000  1.0 -0.0895804249
C  C3  1  0.09550000  0.10350000  0.36200000  1.0 -0.0601145302
C  C4  1  0.20800000  0.12800000  0.39130000  1.0 -0.1270726984
C  C5  1  0.39000000  0.11280000  0.39720000  1.0 0.0813939548
C  C6  1  0.45940000  0.07330000  0.37380000  1.0 -0.1117423262
C  C7  1  0.05500000  0.03940000  0.30680000  1.0 0.5663328632
C  C8  1  0.02230000  0.20160000  0.53590000  1.0 0.0519490615
C  C9  1  0.15900000  0.17250000  0.51710000  1.0 -0.1204250053
C  C10  1  0.27940000  0.14550000  0.54270000  1.0 -0.1117423262
C  C11  1  0.26390000  0.14760000  0.58700000  1.0 0.0592536782
C  C12  1  0.12800000  0.17670000  0.60570000  1.0 -0.1204250053
C  C13  1  0.00680000  0.20370000  0.58020000  1.0 -0.1270726984
C  C14  1  0.40200000  0.12290000  0.61730000  1.0 0.0741360276
C  C15  1  0.59000000  0.12060000  0.60850000  1.0 -0.1270726984
C  C16  1  0.71240000  0.10250000  0.63900000  1.0 -0.0689247635
C  C17  1  0.64600000  0.08660000  0.67840000  1.0 -0.0541837639
C  C18  1  0.45800000  0.08880000  0.68730000  1.0 -0.0601145302
C  C19  1  0.33600000  0.10700000  0.65680000  1.0 -0.1204250053
C  C20  1  0.78500000  0.07140000  0.70930000  1.0 0.5404219046
C  C21  1  0.02670000  0.26100000  0.47210000  1.0 0.0592536782
C  C22  1  0.99510000  0.26460000  0.42840000  1.0 -0.1270726984
C  C23  1  0.11000000  0.29370000  0.40310000  1.0 -0.1270726984
C  C24  1  0.25720000  0.31910000  0.42160000  1.0 0.0592536782
C  C25  1  0.28880000  0.31550000  0.46540000  1.0 -0.1117423262
C  C26  1  0.17400000  0.28640000  0.49060000  1.0 -0.1204250053
C  C27  1  0.90100000  0.22980000  0.50480000  1.0 0.0240632285
C  C28  1  0.76220000  0.19710000  0.47690000  1.0 0.0592536782
C  C29  1  0.78310000  0.14600000  0.47320000  1.0 -0.1270726984
C  C30  1  0.66100000  0.11890000  0.44800000  1.0 -0.1204250053
C  C31  1  0.51900000  0.14290000  0.42640000  1.0 0.0592536782
C  C32  1  0.49810000  0.19390000  0.43010000  1.0 -0.1117423262
C  C33  1  0.62000000  0.22100000  0.45540000  1.0 -0.1204250053
C  C34  1  0.72300000  0.43710000  0.31100000  1.0 0.5663328632
C  C35  1  0.76670000  0.26670000  0.52980000  1.0 0.0519490615
C  C36  1  0.79150000  0.31780000  0.52930000  1.0 -0.1270726984
C  C37  1  0.67200000  0.34820000  0.55230000  1.0 -0.1204250053
C  C38  1  0.52820000  0.32750000  0.57570000  1.0 0.0592536782
C  C39  1  0.50340000  0.27640000  0.57620000  1.0 -0.1117423262
C  C40  1  0.62300000  0.24600000  0.55320000  1.0 -0.1204250053
C  C41  1  0.08760000  0.37520000  0.63030000  1.0 -0.0689247635
C  C42  1  0.20400000  0.34540000  0.60600000  1.0 -0.1270726984
C  C43  1  0.38700000  0.35950000  0.59930000  1.0 0.0592536782
C  C44  1  0.45290000  0.40330000  0.61700000  1.0 -0.1117423262
C  C45  1  0.33600000  0.43310000  0.64130000  1.0 -0.0895804249
C  C46  1  0.15400000  0.41900000  0.64800000  1.0 -0.0145449443
C  C47  1  0.02100000  0.45660000  0.67680000  1.0 0.5763557567
C  C48  1  0.41200000  0.41400000  0.33830000  1.0 -0.0434879647
C  C49  1  0.30490000  0.38610000  0.36630000  1.0 -0.1204250053
C  C50  1  0.38900000  0.35300000  0.39420000  1.0 0.0813939548
C  C51  1  0.58000000  0.34770000  0.39420000  1.0 -0.1270726984
C  C52  1  0.68740000  0.37570000  0.36630000  1.0 -0.0689247635
C  C53  1  0.60300000  0.40880000  0.33830000  1.0 -0.0820594602
C  C54  1  0.34700000  0.95110000  0.65560000  1.0 -0.0689247635
C  C55  1  0.16500000  0.93600000  0.66150000  1.0 -0.0895804249
C  C56  1  0.09550000  0.89650000  0.63800000  1.0 -0.0601145302
C  C57  1  0.20800000  0.87200000  0.60870000  1.0 -0.1270726984
C  C58  1  0.39000000  0.88720000  0.60280000  1.0 0.0813939548
C  C59  1  0.45940000  0.92670000  0.62620000  1.0 -0.1117423262
C  C60  1  0.05500000  0.96060000  0.69320000  1.0 0.5663328632
C  C61  1  0.02230000  0.79840000  0.46410000  1.0 0.0519490615
C  C62  1  0.15900000  0.82750000  0.48290000  1.0 -0.1204250053
C  C63  1  0.27940000  0.85450000  0.45730000  1.0 -0.1117423262
C  C64  1  0.26390000  0.85240000  0.41300000  1.0 0.0592536782
C  C65  1  0.12800000  0.82330000  0.39430000  1.0 -0.1204250053
C  C66  1  0.00680000  0.79630000  0.41980000  1.0 -0.1270726984
C  C67  1  0.40200000  0.87710000  0.38270000  1.0 0.0741360276
C  C68  1  0.59000000  0.87940000  0.39150000  1.0 -0.1270726984
C  C69  1  0.71240000  0.89750000  0.36100000  1.0 -0.0689247635
C  C70  1  0.64600000  0.91340000  0.32160000  1.0 -0.0541837639
C  C71  1  0.45800000  0.91120000  0.31270000  1.0 -0.0601145302
C  C72  1  0.33600000  0.89300000  0.34320000  1.0 -0.1204250053
C  C73  1  0.78500000  0.92860000  0.29070000  1.0 0.5404219046
C  C74  1  0.02670000  0.73900000  0.52790000  1.0 0.0592536782
C  C75  1  0.99510000  0.73540000  0.57160000  1.0 -0.1270726984
C  C76  1  0.11000000  0.70630000  0.59690000  1.0 -0.1270726984
C  C77  1  0.25720000  0.68090000  0.57840000  1.0 0.0592536782
C  C78  1  0.28880000  0.68450000  0.53460000  1.0 -0.1117423262
C  C79  1  0.17400000  0.71360000  0.50940000  1.0 -0.1117423262
C  C80  1  0.90100000  0.77020000  0.49520000  1.0 0.0240632285
C  C81  1  0.76220000  0.80290000  0.52310000  1.0 0.0592536782
C  C82  1  0.78310000  0.85400000  0.52680000  1.0 -0.1270726984
C  C83  1  0.66100000  0.88110000  0.55200000  1.0 -0.1204250053
C  C84  1  0.51900000  0.85710000  0.57360000  1.0 0.0592536782
C  C85  1  0.49810000  0.80610000  0.56990000  1.0 -0.1117423262
C  C86  1  0.62000000  0.77900000  0.54460000  1.0 -0.1204250053
C  C87  1  0.72300000  0.56290000  0.68900000  1.0 0.5663328632
C  C88  1  0.76670000  0.73330000  0.47020000  1.0 0.0519490615
C  C89  1  0.79150000  0.68220000  0.47070000  1.0 -0.1270726984
C  C90  1  0.67200000  0.65180000  0.44770000  1.0 -0.1204250053
C  C91  1  0.52820000  0.67250000  0.42430000  1.0 0.0592536782
C  C92  1  0.50340000  0.72360000  0.42380000  1.0 -0.1117423262
C  C93  1  0.62300000  0.75400000  0.44680000  1.0 -0.1204250053
C  C94  1  0.08760000  0.62480000  0.36970000  1.0 -0.0689247635
C  C95  1  0.20400000  0.65460000  0.39400000  1.0 -0.1270726984
C  C96  1  0.38700000  0.64050000  0.40070000  1.0 0.0592536782
C  C97  1  0.45290000  0.59670000  0.38300000  1.0 -0.1117423262
C  C98  1  0.33600000  0.56690000  0.35870000  1.0 -0.0895804249
C  C99  1  0.15400000  0.58100000  0.35200000  1.0 -0.0145449443
C  C100  1  0.02100000  0.54340000  0.32320000  1.0 0.5763557567
C  C101  1  0.41200000  0.58600000  0.66170000  1.0 -0.0434879647
C  C102  1  0.30490000  0.61390000  0.63370000  1.0 -0.1204250053
C  C103  1  0.38900000  0.64700000  0.60580000  1.0 0.0813939548
C  C104  1  0.58000000  0.65230000  0.60580000  1.0 -0.1270726984
C  C105  1  0.68740000  0.62430000  0.63370000  1.0 -0.0689247635
C  C106  1  0.60300000  0.59120000  0.66170000  1.0 -0.0820594602
C  C107  1  0.65300000  0.45110000  0.84440000  1.0 -0.0689247635
C  C108  1  0.83500000  0.43600000  0.83850000  1.0 -0.0895804249
C  C109  1  0.90450000  0.39650000  0.86200000  1.0 -0.0601145302
C  C110  1  0.79200000  0.37200000  0.89130000  1.0 -0.1270726984
C  C111  1  0.61000000  0.38720000  0.89720000  1.0 0.0813939548
C  C112  1  0.54060000  0.42670000  0.87380000  1.0 -0.1117423262
C  C113  1  0.94500000  0.46060000  0.80680000  1.0 0.5663328632
C  C114  1  0.97770000  0.29840000  0.03590000  1.0 0.0519490615
C  C115  1  0.84100000  0.32750000  0.01710000  1.0 -0.1204250053
C  C116  1  0.72060000  0.35450000  0.04270000  1.0 -0.1117423262
C  C117  1  0.73610000  0.35240000  0.08700000  1.0 0.0592536782
C  C118  1  0.87200000  0.32330000  0.10570000  1.0 -0.1204250053
C  C119  1  0.99320000  0.29630000  0.08020000  1.0 -0.1270726984
C  C120  1  0.59800000  0.37710000  0.11730000  1.0 0.0741360276
C  C121  1  0.41000000  0.37940000  0.10850000  1.0 -0.1270726984
C  C122  1  0.28760000  0.39750000  0.13900000  1.0 -0.0601145302
C  C123  1  0.35400000  0.41340000  0.17840000  1.0 -0.0541837639
C  C124  1  0.54200000  0.41120000  0.18730000  1.0 -0.0601145302
C  C125  1  0.66400000  0.39300000  0.15680000  1.0 -0.1204250053
C  C126  1  0.21500000  0.42860000  0.20930000  1.0 0.5404219046
C  C127  1  0.97330000  0.23900000  0.97210000  1.0 0.0592536782
C  C128  1  0.00490000  0.23540000  0.92840000  1.0 -0.1270726984
C  C129  1  0.89000000  0.20630000  0.90310000  1.0 -0.1270726984
C  C130  1  0.74280000  0.18090000  0.92160000  1.0 0.0592536782
C  C131  1  0.71120000  0.18450000  0.96540000  1.0 -0.1117423262
C  C132  1  0.82600000  0.21360000  0.99060000  1.0 -0.1204250053
C  C133  1  0.09900000  0.27020000  0.00480000  1.0 0.0240632285
C  C134  1  0.23780000  0.30290000  0.97690000  1.0 0.0592536782
C  C135  1  0.21690000  0.35400000  0.97320000  1.0 -0.1270726984
C  C136  1  0.33900000  0.38110000  0.94800000  1.0 -0.1204250053
C  C137  1  0.48100000  0.35710000  0.92640000  1.0 0.0592536782
C  C138  1  0.50190000  0.30610000  0.93010000  1.0 -0.1117423262
C  C139  1  0.38000000  0.27900000  0.95540000  1.0 -0.1204250053
C  C140  1  0.27700000  0.06290000  0.81100000  1.0 0.5663328632
C  C141  1  0.23330000  0.23330000  0.02980000  1.0 0.0519490615
C  C142  1  0.20850000  0.18220000  0.02930000  1.0 -0.1270726984
C  C143  1  0.32800000  0.15180000  0.05230000  1.0 -0.1204250053
C  C144  1  0.47180000  0.17250000  0.07570000  1.0 0.0592536782
C  C145  1  0.49660000  0.22360000  0.07620000  1.0 -0.1117423262
C  C146  1  0.37700000  0.25400000  0.05320000  1.0 -0.1204250053
C  C147  1  0.91240000  0.12480000  0.13030000  1.0 -0.0689247635
C  C148  1  0.79600000  0.15460000  0.10600000  1.0 -0.1270726984
C  C149  1  0.61300000  0.14050000  0.09930000  1.0 0.0592536782
C  C150  1  0.54710000  0.09670000  0.11700000  1.0 -0.1117423262
C  C151  1  0.66400000  0.06690000  0.14130000  1.0 -0.0895804249
C  C152  1  0.84600000  0.08100000  0.14800000  1.0 -0.0145449443
C  C153  1  0.97900000  0.04340000  0.17680000  1.0 0.5763557567
C  C154  1  0.58800000  0.08600000  0.83830000  1.0 -0.0434879647
C  C155  1  0.69510000  0.11390000  0.86630000  1.0 -0.1204250053
C  C156  1  0.61100000  0.14700000  0.89420000  1.0 0.0813939548
C  C157  1  0.42000000  0.15230000  0.89420000  1.0 -0.1270726984
C  C158  1  0.31260000  0.12430000  0.86630000  1.0 -0.0689247635
C  C159  1  0.39700000  0.09120000  0.83830000  1.0 -0.0820594602
C  C160  1  0.65300000  0.54890000  0.15560000  1.0 -0.0689247635
C  C161  1  0.83500000  0.56400000  0.16150000  1.0 -0.1021256308
C  C162  1  0.90450000  0.60350000  0.13800000  1.0 -0.0601145302
C  C163  1  0.79200000  0.62800000  0.10870000  1.0 -0.1204250053
C  C164  1  0.61000000  0.61280000  0.10280000  1.0 0.0813939548
C  C165  1  0.54060000  0.57330000  0.12620000  1.0 -0.1204250053
C  C166  1  0.94500000  0.53940000  0.19320000  1.0 0.5663328632
C  C167  1  0.97770000  0.70160000  0.96410000  1.0 0.0360368765
C  C168  1  0.84100000  0.67250000  0.98290000  1.0 -0.1117423262
C  C169  1  0.72060000  0.64550000  0.95730000  1.0 -0.0601145302
C  C170  1  0.73610000  0.64760000  0.91300000  1.0 0.0519490615
C  C171  1  0.87200000  0.67670000  0.89430000  1.0 -0.0689247635
C  C172  1  0.99320000  0.70370000  0.91980000  1.0 -0.0689247635
C  C173  1  0.59800000  0.62290000  0.88270000  1.0 0.0813939548
C  C174  1  0.41000000  0.62060000  0.89150000  1.0 -0.1204250053
C  C175  1  0.28760000  0.60250000  0.86100000  1.0 -0.0689247635
C  C176  1  0.35400000  0.58660000  0.82160000  1.0 -0.0541837639
C  C177  1  0.54200000  0.58880000  0.81270000  1.0 -0.0689247635
C  C178  1  0.66400000  0.60700000  0.84320000  1.0 -0.1117423262
C  C179  1  0.21500000  0.57140000  0.79070000  1.0 0.5404219046
C  C180  1  0.97330000  0.76100000  0.02790000  1.0 0.0592536782
C  C181  1  0.00490000  0.76460000  0.07160000  1.0 -0.1204250053
C  C182  1  0.89000000  0.79370000  0.09690000  1.0 -0.1270726984
C  C183  1  0.74280000  0.81910000  0.07840000  1.0 0.0592536782
C  C184  1  0.71120000  0.81550000  0.03460000  1.0 -0.1117423262
C  C185  1  0.82600000  0.78640000  0.00940000  1.0 -0.1021256308
C  C186  1  0.09900000  0.72980000  0.99520000  1.0 0.0519490615
C  C187  1  0.23780000  0.69710000  0.02310000  1.0 0.0592536782
C  C188  1  0.21690000  0.64600000  0.02680000  1.0 -0.1117423262
C  C189  1  0.33900000  0.61890000  0.05200000  1.0 -0.1117423262
C  C190  1  0.48100000  0.64290000  0.07360000  1.0 0.0592536782
C  C191  1  0.50190000  0.69390000  0.06990000  1.0 -0.1021256308
C  C192  1  0.38000000  0.72100000  0.04460000  1.0 -0.1204250053
C  C193  1  0.27700000  0.93710000  0.18900000  1.0 0.5663328632
C  C194  1  0.23330000  0.76670000  0.97020000  1.0 0.0592536782
C  C195  1  0.20850000  0.81780000  0.97070000  1.0 -0.1270726984
C  C196  1  0.32800000  0.84820000  0.94770000  1.0 -0.1204250053
C  C197  1  0.47180000  0.82750000  0.92430000  1.0 0.0592536782
C  C198  1  0.49660000  0.77640000  0.92380000  1.0 -0.1117423262
C  C199  1  0.37700000  0.74600000  0.94680000  1.0 -0.1117423262
C  C200  1  0.91240000  0.87520000  0.86970000  1.0 -0.0689247635
C  C201  1  0.79600000  0.84540000  0.89400000  1.0 -0.1204250053
C  C202  1  0.61300000  0.85950000  0.90070000  1.0 0.0592536782
C  C203  1  0.54710000  0.90330000  0.88300000  1.0 -0.1117423262
C  C204  1  0.66400000  0.93310000  0.85870000  1.0 -0.0895804249
C  C205  1  0.84600000  0.91900000  0.85200000  1.0 -0.0145449443
C  C206  1  0.97900000  0.95660000  0.82320000  1.0 0.5763557567
C  C207  1  0.58800000  0.91400000  0.16170000  1.0 -0.0434879647
C  C208  1  0.69510000  0.88610000  0.13370000  1.0 -0.1204250053
C  C209  1  0.61100000  0.85300000  0.10580000  1.0 0.0813939548
C  C210  1  0.42000000  0.84770000  0.10580000  1.0 -0.1270726984
C  C211  1  0.31260000  0.87570000  0.13370000  1.0 -0.0601145302
C  C212  1  0.39700000  0.90880000  0.16170000  1.0 -0.0820594602
O  O1  1  0.86000000  0.43490000  0.67960000  1.0 -0.573179333
O  O2  1  0.88700000  0.04680000  0.30650000  1.0 -0.4717564606
O  O3  1  0.73300000  0.04910000  0.74120000  1.0 -0.4717564606
O  O4  1  0.94900000  0.07890000  0.70330000  1.0 -0.4895744608
O  O5  1  0.86200000  0.42530000  0.29820000  1.0 -0.4065204894
O  O6  1  0.64400000  0.47900000  0.30090000  1.0 -0.5517300502
O  O7  1  0.12750000  0.01690000  0.27510000  1.0 -0.557813941
O  O8  1  0.09600000  0.48650000  0.69410000  1.0 -0.426666318
O  O9  1  0.86000000  0.56510000  0.32040000  1.0 -0.573179333
O  O10  1  0.88700000  0.95320000  0.69350000  1.0 -0.4717564606
O  O11  1  0.73300000  0.95090000  0.25880000  1.0 -0.4717564606
O  O12  1  0.94900000  0.92110000  0.29670000  1.0 -0.4895744608
O  O13  1  0.86200000  0.57470000  0.70180000  1.0 -0.4024101333
O  O14  1  0.64400000  0.52100000  0.69910000  1.0 -0.5517300502
O  O15  1  0.12750000  0.98310000  0.72490000  1.0 -0.557813941
O  O16  1  0.09600000  0.51350000  0.30590000  1.0 -0.426666318
O  O17  1  0.14000000  0.06510000  0.17960000  1.0 -0.573179333
O  O18  1  0.11300000  0.45320000  0.80650000  1.0 -0.4717564606
O  O19  1  0.26700000  0.45090000  0.24120000  1.0 -0.4717564606
O  O20  1  0.05100000  0.42110000  0.20330000  1.0 -0.4895744608
O  O21  1  0.13800000  0.07470000  0.79820000  1.0 -0.4065204894
O  O22  1  0.35600000  0.02100000  0.80090000  1.0 -0.5517300502
O  O23  1  0.87250000  0.48310000  0.77510000  1.0 -0.557813941
O  O24  1  0.90400000  0.01350000  0.19410000  1.0 -0.426666318
O  O25  1  0.14000000  0.93490000  0.82040000  1.0 -0.573179333
O  O26  1  0.11300000  0.54680000  0.19350000  1.0 -0.4717564606
O  O27  1  0.26700000  0.54910000  0.75880000  1.0 -0.4717564606
O  O28  1  0.05100000  0.57890000  0.79670000  1.0 -0.4895744608
O  O29  1  0.13800000  0.92530000  0.20180000  1.0 -0.4065204894
O  O30  1  0.35600000  0.97900000  0.19910000  1.0 -0.5517300502
O  O31  1  0.87250000  0.51690000  0.22490000  1.0 -0.557813941
O  O32  1  0.90400000  0.98650000  0.80590000  1.0 -0.426666318
