# DDEC6 charges by PACMAN v1.1 (https://github.com/mtap-research/PACMAN-charge/)
data_MAWMEG_ion_pacman
_symmetry_space_group_name_H-M   'P 1'
_cell_length_a   17.60000000
_cell_length_b   7.63800000
_cell_length_c   24.02700000
_cell_angle_alpha   90.00000000
_cell_angle_beta   99.77400000
_cell_angle_gamma   90.00000000
_symmetry_Int_Tables_number   1
_chemical_formula_structural   Zn3H28C46(N11O7)2
_chemical_formula_sum   'Zn6 H56 C92 N44 O28'
_cell_volume   3183.03859264
_cell_formula_units_Z   2
loop_
 _symmetry_equiv_pos_site_id
 _symmetry_equiv_pos_as_xyz
  1  'x, y, z'
loop_
 _atom_site_type_symbol
 _atom_site_label
 _atom_site_symmetry_multiplicity
 _atom_site_fract_x
 _atom_site_fract_y
 _atom_site_fract_z
 _atom_site_occupancy
 _atom_site_charge
Zn  Zn1  1  0.69393000  0.81365000  0.36245000  1.0 0.6753843537
Zn  Zn2  1  0.30607000  0.31365000  0.13755000  1.0 0.6753843537
Zn  Zn3  1  0.30607000  0.18635000  0.63755000  1.0 0.6753843537
Zn  Zn4  1  0.69393000  0.68635000  0.86245000  1.0 0.6753843537
Zn  Zn5  1  0.00000000  0.50000000  0.50000000  1.0 0.7079586199
Zn  Zn6  1  0.00000000  0.00000000  0.00000000  1.0 0.7079586199
H  H1  1  0.26959000  0.41443000  0.26407000  1.0 0.1398477006
H  H2  1  0.83799000  0.79388000  0.46998000  1.0 0.1024293823
H  H3  1  0.52852000  0.87859000  0.39656000  1.0 0.1296486275
H  H4  1  0.41832000  0.62187000  0.17762000  1.0 0.1296486275
H  H5  1  0.34305000  0.06112000  0.51136000  1.0 0.1212931879
H  H6  1  0.21684000  0.66898000  0.32340000  1.0 0.169408854
H  H7  1  0.43175000  0.78040000  0.26749000  1.0 0.1398477006
H  H8  1  0.14290000  0.49603000  0.43275000  1.0 0.1296486275
H  H9  1  0.60881000  0.44105000  0.34164000  1.0 0.1296486275
H  H10  1  0.24410000  0.79329000  0.61930000  1.0 0.1398477006
H  H11  1  0.24372000  0.60619000  0.53607000  1.0 0.1398477006
H  H12  1  0.47198000  0.39051000  0.34724000  1.0 0.1398477006
H  H13  1  0.03246000  0.92532000  0.45963000  1.0 0.1508078486
H  H14  1  0.14743000  0.01613000  0.42163000  1.0 0.1508078486
H  H15  1  0.73041000  0.91443000  0.23593000  1.0 0.1398477006
H  H16  1  0.16201000  0.29388000  0.03002000  1.0 0.1024293823
H  H17  1  0.47148000  0.37859000  0.10344000  1.0 0.1296486275
H  H18  1  0.58168000  0.12187000  0.32238000  1.0 0.1296486275
H  H19  1  0.65695000  0.56112000  0.98864000  1.0 0.1212931879
H  H20  1  0.78316000  0.16898000  0.17660000  1.0 0.169408854
H  H21  1  0.56825000  0.28040000  0.23251000  1.0 0.1398477006
H  H22  1  0.85710000  0.99603000  0.06725000  1.0 0.1296486275
H  H23  1  0.39119000  0.94105000  0.15836000  1.0 0.1296486275
H  H24  1  0.75590000  0.29329000  0.88070000  1.0 0.1398477006
H  H25  1  0.75628000  0.10619000  0.96393000  1.0 0.1398477006
H  H26  1  0.52802000  0.89051000  0.15276000  1.0 0.1398477006
H  H27  1  0.96754000  0.42532000  0.04037000  1.0 0.1508078486
H  H28  1  0.85257000  0.51613000  0.07837000  1.0 0.1508078486
H  H29  1  0.73041000  0.58557000  0.73593000  1.0 0.1398477006
H  H30  1  0.16201000  0.20612000  0.53002000  1.0 0.1024293823
H  H31  1  0.47148000  0.12141000  0.60344000  1.0 0.1296486275
H  H32  1  0.58168000  0.37813000  0.82238000  1.0 0.1296486275
H  H33  1  0.65695000  0.93888000  0.48864000  1.0 0.1212931879
H  H34  1  0.78316000  0.33102000  0.67660000  1.0 0.169408854
H  H35  1  0.56825000  0.21960000  0.73251000  1.0 0.1398477006
H  H36  1  0.85710000  0.50397000  0.56725000  1.0 0.1296486275
H  H37  1  0.39119000  0.55895000  0.65836000  1.0 0.1296486275
H  H38  1  0.75590000  0.20671000  0.38070000  1.0 0.1398477006
H  H39  1  0.75628000  0.39381000  0.46393000  1.0 0.1398477006
H  H40  1  0.52802000  0.60949000  0.65276000  1.0 0.1398477006
H  H41  1  0.96754000  0.07468000  0.54037000  1.0 0.1508078486
H  H42  1  0.85257000  0.98387000  0.57837000  1.0 0.1508078486
H  H43  1  0.26959000  0.08557000  0.76407000  1.0 0.1398477006
H  H44  1  0.83799000  0.70612000  0.96998000  1.0 0.1024293823
H  H45  1  0.52852000  0.62141000  0.89656000  1.0 0.1296486275
H  H46  1  0.41832000  0.87813000  0.67762000  1.0 0.1296486275
H  H47  1  0.34305000  0.43888000  0.01136000  1.0 0.1212931879
H  H48  1  0.21684000  0.83102000  0.82340000  1.0 0.169408854
H  H49  1  0.43175000  0.71960000  0.76749000  1.0 0.1398477006
H  H50  1  0.14290000  0.00397000  0.93275000  1.0 0.1296486275
H  H51  1  0.60881000  0.05895000  0.84164000  1.0 0.1296486275
H  H52  1  0.24410000  0.70671000  0.11930000  1.0 0.1398477006
H  H53  1  0.24372000  0.89381000  0.03607000  1.0 0.1398477006
H  H54  1  0.47198000  0.10949000  0.84724000  1.0 0.1398477006
H  H55  1  0.03246000  0.57468000  0.95963000  1.0 0.1508078486
H  H56  1  0.14743000  0.48387000  0.92163000  1.0 0.1508078486
C  C1  1  0.30788000  0.48500000  0.25362000  1.0 0.1398477006
C  C2  1  0.88433000  0.49200000  0.39994000  1.0 -0.0091780207
C  C3  1  0.84231000  0.70930000  0.44285000  1.0 0.1508078486
C  C4  1  0.81899000  0.55590000  0.36624000  1.0 0.0203283843
C  C5  1  0.53191000  0.76440000  0.38375000  1.0 0.1296486275
C  C6  1  0.33375000  0.66120000  0.34150000  1.0 0.1212931879
C  C7  1  0.77618000  0.50330000  0.30988000  1.0 0.5517117193
C  C8  1  0.39653000  0.68270000  0.38504000  1.0 0.1212931879
C  C9  1  0.39014000  0.60060000  0.20634000  1.0 -0.0295813271
C  C10  1  0.31893000  0.97180000  0.52807000  1.0 0.1296486275
C  C11  1  0.31066000  0.76120000  0.44871000  1.0 0.1212931879
C  C12  1  0.24741000  0.73340000  0.40594000  1.0 0.1060987616
C  C13  1  0.25884000  0.68520000  0.35213000  1.0 -0.2077044883
C  C14  1  0.39801000  0.68870000  0.25591000  1.0 -0.0798221447
C  C15  1  0.12960000  0.61340000  0.43485000  1.0 0.1024293823
C  C16  1  0.57553000  0.52240000  0.35338000  1.0 -0.0091780207
C  C17  1  0.26422000  0.82340000  0.58722000  1.0 -0.0157511627
C  C18  1  0.38535000  0.73580000  0.43886000  1.0 -0.1689076463
C  C19  1  0.26374000  0.71880000  0.54130000  1.0 -0.0798221447
C  C20  1  0.93566000  0.34310000  0.39240000  1.0 0.5591118744
C  C21  1  0.49983000  0.49300000  0.35638000  1.0 -0.0869217778
C  C22  1  0.06937000  0.85020000  0.44947000  1.0 0.0034730836
C  C23  1  0.13292000  0.90200000  0.42836000  1.0 -0.0966547208
C  C24  1  0.69212000  0.98500000  0.24638000  1.0 0.1398477006
C  C25  1  0.11567000  0.99200000  0.10006000  1.0 -0.0091780207
C  C26  1  0.15769000  0.20930000  0.05715000  1.0 0.1508078486
C  C27  1  0.18101000  0.05590000  0.13376000  1.0 0.0203283843
C  C28  1  0.46809000  0.26440000  0.11625000  1.0 0.1296486275
C  C29  1  0.66625000  0.16120000  0.15850000  1.0 0.1212931879
C  C30  1  0.22382000  0.00330000  0.19012000  1.0 0.5517117193
C  C31  1  0.60347000  0.18270000  0.11496000  1.0 0.1212931879
C  C32  1  0.60986000  0.10060000  0.29366000  1.0 -0.0295813271
C  C33  1  0.68107000  0.47180000  0.97193000  1.0 0.1296486275
C  C34  1  0.68934000  0.26120000  0.05129000  1.0 0.1212931879
C  C35  1  0.75259000  0.23340000  0.09406000  1.0 0.1060987616
C  C36  1  0.74116000  0.18520000  0.14787000  1.0 -0.2077044883
C  C37  1  0.60199000  0.18870000  0.24409000  1.0 -0.0798221447
C  C38  1  0.87040000  0.11340000  0.06515000  1.0 0.1024293823
C  C39  1  0.42447000  0.02240000  0.14662000  1.0 -0.0091780207
C  C40  1  0.73578000  0.32340000  0.91278000  1.0 -0.0157511627
C  C41  1  0.61465000  0.23580000  0.06114000  1.0 -0.1689076463
C  C42  1  0.73626000  0.21880000  0.95870000  1.0 -0.0798221447
C  C43  1  0.06434000  0.84310000  0.10760000  1.0 0.5591118744
C  C44  1  0.50017000  0.99300000  0.14362000  1.0 -0.0869217778
C  C45  1  0.93063000  0.35020000  0.05053000  1.0 0.0034730836
C  C46  1  0.86708000  0.40200000  0.07164000  1.0 -0.0966547208
C  C47  1  0.69212000  0.51500000  0.74638000  1.0 0.1398477006
C  C48  1  0.11567000  0.50800000  0.60006000  1.0 -0.0091780207
C  C49  1  0.15769000  0.29070000  0.55715000  1.0 0.1508078486
C  C50  1  0.18101000  0.44410000  0.63376000  1.0 0.0203283843
C  C51  1  0.46809000  0.23560000  0.61625000  1.0 0.1296486275
C  C52  1  0.66625000  0.33880000  0.65850000  1.0 0.1212931879
C  C53  1  0.22382000  0.49670000  0.69012000  1.0 0.5517117193
C  C54  1  0.60347000  0.31730000  0.61496000  1.0 0.1212931879
C  C55  1  0.60986000  0.39940000  0.79366000  1.0 -0.0295813271
C  C56  1  0.68107000  0.02820000  0.47193000  1.0 0.1296486275
C  C57  1  0.68934000  0.23880000  0.55129000  1.0 0.1212931879
C  C58  1  0.75259000  0.26660000  0.59406000  1.0 0.1060987616
C  C59  1  0.74116000  0.31480000  0.64787000  1.0 -0.2077044883
C  C60  1  0.60199000  0.31130000  0.74409000  1.0 -0.0798221447
C  C61  1  0.87040000  0.38660000  0.56515000  1.0 0.1024293823
C  C62  1  0.42447000  0.47760000  0.64662000  1.0 -0.0091780207
C  C63  1  0.73578000  0.17660000  0.41278000  1.0 -0.0157511627
C  C64  1  0.61465000  0.26420000  0.56114000  1.0 -0.1689076463
C  C65  1  0.73626000  0.28120000  0.45870000  1.0 -0.0798221447
C  C66  1  0.06434000  0.65690000  0.60760000  1.0 0.5591118744
C  C67  1  0.50017000  0.50700000  0.64362000  1.0 -0.0869217778
C  C68  1  0.93063000  0.14980000  0.55053000  1.0 0.0034730836
C  C69  1  0.86708000  0.09800000  0.57164000  1.0 -0.0966547208
C  C70  1  0.30788000  0.01500000  0.75362000  1.0 0.1398477006
C  C71  1  0.88433000  0.00800000  0.89994000  1.0 -0.0091780207
C  C72  1  0.84231000  0.79070000  0.94285000  1.0 0.1508078486
C  C73  1  0.81899000  0.94410000  0.86624000  1.0 0.0203283843
C  C74  1  0.53191000  0.73560000  0.88375000  1.0 0.1296486275
C  C75  1  0.33375000  0.83880000  0.84150000  1.0 0.1212931879
C  C76  1  0.77618000  0.99670000  0.80988000  1.0 0.5517117193
C  C77  1  0.39653000  0.81730000  0.88504000  1.0 0.1212931879
C  C78  1  0.39014000  0.89940000  0.70634000  1.0 -0.0295813271
C  C79  1  0.31893000  0.52820000  0.02807000  1.0 0.1296486275
C  C80  1  0.31066000  0.73880000  0.94871000  1.0 0.1212931879
C  C81  1  0.24741000  0.76660000  0.90594000  1.0 0.1060987616
C  C82  1  0.25884000  0.81480000  0.85213000  1.0 -0.2077044883
C  C83  1  0.39801000  0.81130000  0.75591000  1.0 -0.0798221447
C  C84  1  0.12960000  0.88660000  0.93485000  1.0 0.1024293823
C  C85  1  0.57553000  0.97760000  0.85338000  1.0 -0.0091780207
C  C86  1  0.26422000  0.67660000  0.08722000  1.0 -0.0157511627
C  C87  1  0.38535000  0.76420000  0.93886000  1.0 -0.1689076463
C  C88  1  0.26374000  0.78120000  0.04130000  1.0 -0.0798221447
C  C89  1  0.93566000  0.15690000  0.89240000  1.0 0.5591118744
C  C90  1  0.49983000  0.00700000  0.85638000  1.0 -0.0869217778
C  C91  1  0.06937000  0.64980000  0.94947000  1.0 0.0034730836
C  C92  1  0.13292000  0.59800000  0.92836000  1.0 -0.0966547208
N  N1  1  0.33352000  0.47370000  0.20508000  1.0 -0.2416880375
N  N2  1  0.59515000  0.69210000  0.37051000  1.0 -0.2639119217
N  N3  1  0.89856000  0.59010000  0.44853000  1.0 -0.3157039473
N  N4  1  0.34534000  0.61400000  0.28592000  1.0 0.0203283843
N  N5  1  0.29903000  0.98080000  0.57900000  1.0 -0.2767630184
N  N6  1  0.47330000  0.64820000  0.37592000  1.0 0.0203283843
N  N7  1  0.79231000  0.69490000  0.39384000  1.0 -0.3250247428
N  N8  1  0.17152000  0.74900000  0.41897000  1.0 0.0053927694
N  N9  1  0.29914000  0.81440000  0.50398000  1.0 0.0203283843
N  N10  1  0.06774000  0.67000000  0.45360000  1.0 -0.2416880375
N  N11  1  0.66648000  0.97370000  0.29492000  1.0 -0.2416880375
N  N12  1  0.40485000  0.19210000  0.12949000  1.0 -0.2639119217
N  N13  1  0.10144000  0.09010000  0.05147000  1.0 -0.3157039473
N  N14  1  0.65466000  0.11400000  0.21408000  1.0 0.0203283843
N  N15  1  0.70097000  0.48080000  0.92100000  1.0 -0.2767630184
N  N16  1  0.52670000  0.14820000  0.12408000  1.0 0.0203283843
N  N17  1  0.20769000  0.19490000  0.10616000  1.0 -0.3250247428
N  N18  1  0.82848000  0.24900000  0.08103000  1.0 0.0053927694
N  N19  1  0.70086000  0.31440000  0.99602000  1.0 0.0203283843
N  N20  1  0.93226000  0.17000000  0.04640000  1.0 -0.2416880375
N  N21  1  0.66648000  0.52630000  0.79492000  1.0 -0.2416880375
N  N22  1  0.40485000  0.30790000  0.62949000  1.0 -0.2639119217
N  N23  1  0.10144000  0.40990000  0.55147000  1.0 -0.3157039473
N  N24  1  0.65466000  0.38600000  0.71408000  1.0 0.0203283843
N  N25  1  0.70097000  0.01920000  0.42100000  1.0 -0.2767630184
N  N26  1  0.52670000  0.35180000  0.62408000  1.0 0.0203283843
N  N27  1  0.20769000  0.30510000  0.60616000  1.0 -0.3250247428
N  N28  1  0.82848000  0.25100000  0.58103000  1.0 0.0053927694
N  N29  1  0.70086000  0.18560000  0.49602000  1.0 0.0203283843
N  N30  1  0.93226000  0.33000000  0.54640000  1.0 -0.2416880375
N  N31  1  0.33352000  0.02630000  0.70508000  1.0 -0.2416880375
N  N32  1  0.59515000  0.80790000  0.87051000  1.0 -0.2639119217
N  N33  1  0.89856000  0.90990000  0.94853000  1.0 -0.3157039473
N  N34  1  0.34534000  0.88600000  0.78592000  1.0 0.0203283843
N  N35  1  0.29903000  0.51920000  0.07900000  1.0 -0.2767630184
N  N36  1  0.47330000  0.85180000  0.87592000  1.0 0.0203283843
N  N37  1  0.79231000  0.80510000  0.89384000  1.0 -0.3250247428
N  N38  1  0.17152000  0.75100000  0.91897000  1.0 0.0053927694
N  N39  1  0.29914000  0.68560000  0.00398000  1.0 0.0203283843
N  N40  1  0.06774000  0.83000000  0.95360000  1.0 -0.2416880375
N  N41  1  0.44240000  0.29540000  0.94556000  1.0 0.6932305506
N  N42  1  0.55760000  0.79540000  0.55444000  1.0 0.6932305506
N  N43  1  0.55760000  0.70460000  0.05444000  1.0 0.6932305506
N  N44  1  0.44240000  0.20460000  0.44556000  1.0 0.6932305506
O  O1  1  0.99114000  0.31080000  0.43089000  1.0 -0.560487319
O  O2  1  0.71787000  0.58800000  0.29056000  1.0 -0.5651121328
O  O3  1  0.80260000  0.37080000  0.28570000  1.0 -0.553496618
O  O4  1  0.91996000  0.25540000  0.34638000  1.0 -0.4934525454
O  O5  1  0.00886000  0.81080000  0.06911000  1.0 -0.560487319
O  O6  1  0.28213000  0.08800000  0.20944000  1.0 -0.560487319
O  O7  1  0.19740000  0.87080000  0.21430000  1.0 -0.553496618
O  O8  1  0.08004000  0.75540000  0.15362000  1.0 -0.4934525454
O  O9  1  0.00886000  0.68920000  0.56911000  1.0 -0.560487319
O  O10  1  0.28213000  0.41200000  0.70944000  1.0 -0.560487319
O  O11  1  0.19740000  0.62920000  0.71430000  1.0 -0.553496618
O  O12  1  0.08004000  0.74460000  0.65362000  1.0 -0.4934525454
O  O13  1  0.99114000  0.18920000  0.93089000  1.0 -0.560487319
O  O14  1  0.71787000  0.91200000  0.79056000  1.0 -0.5651121328
O  O15  1  0.80260000  0.12920000  0.78570000  1.0 -0.553496618
O  O16  1  0.91996000  0.24460000  0.84638000  1.0 -0.4934525454
O  O17  1  0.50390000  0.35940000  0.94060000  1.0 -0.4090305233
O  O18  1  0.43420000  0.20600000  0.98798000  1.0 -0.4269175792
O  O19  1  0.38000000  0.31460000  0.90810000  1.0 -0.5036496112
O  O20  1  0.49610000  0.85940000  0.55940000  1.0 -0.4090305233
O  O21  1  0.56580000  0.70600000  0.51202000  1.0 -0.4269175792
O  O22  1  0.62000000  0.81460000  0.59190000  1.0 -0.5052606652
O  O23  1  0.49610000  0.64060000  0.05940000  1.0 -0.4090305233
O  O24  1  0.56580000  0.79400000  0.01202000  1.0 -0.4269175792
O  O25  1  0.62000000  0.68540000  0.09190000  1.0 -0.5036496112
O  O26  1  0.50390000  0.14060000  0.44060000  1.0 -0.4090305233
O  O27  1  0.43420000  0.29400000  0.48798000  1.0 -0.4269175792
O  O28  1  0.38000000  0.18540000  0.40810000  1.0 -0.5036496112
