# DDEC6 charges by PACMAN v1.1 (https://github.com/mtap-research/PACMAN-charge/)
data_MAXGOL_FSR_pacman
_symmetry_space_group_name_H-M   'P 1'
_cell_length_a   16.32880000
_cell_length_b   16.32880000
_cell_length_c   16.07400000
_cell_angle_alpha   82.56810000
_cell_angle_beta   97.43190000
_cell_angle_gamma   153.14600000
_symmetry_Int_Tables_number   1
_chemical_formula_structural   ZnH9C15S(NO)4
_chemical_formula_sum   'Zn4 H36 C60 S4 N16 O16'
_cell_volume   1918.78355933
_cell_formula_units_Z   4
loop_
 _symmetry_equiv_pos_site_id
 _symmetry_equiv_pos_as_xyz
  1  'x, y, z'
loop_
 _atom_site_type_symbol
 _atom_site_label
 _atom_site_symmetry_multiplicity
 _atom_site_fract_x
 _atom_site_fract_y
 _atom_site_fract_z
 _atom_site_occupancy
 _atom_site_charge
Zn  Zn1  1  0.57768000  0.94526000  0.79010000  1.0 0.7790230508
Zn  Zn2  1  0.94526000  0.57768000  0.70990000  1.0 0.7790230508
Zn  Zn3  1  0.42232000  0.05474000  0.20990000  1.0 0.7790230508
Zn  Zn4  1  0.05474000  0.42232000  0.29010000  1.0 0.7790230508
H  H1  1  0.53565000  0.03739000  0.85623000  1.0 0.311280794
H  H2  1  0.65799000  0.16659000  0.78834000  1.0 0.311280794
H  H3  1  0.18296000  0.55012000  0.03693000  1.0 0.1282771151
H  H4  1  0.66948000  0.90194000  0.94427000  1.0 0.1062702849
H  H5  1  0.92319000  0.05995000  0.00696000  1.0 0.1282771151
H  H6  1  0.94172000  0.22390000  0.74617000  1.0 0.1162353005
H  H7  1  0.20050000  0.39036000  0.80122000  1.0 0.1413445692
H  H8  1  0.64373000  0.09405000  0.99740000  1.0 0.1413445692
H  H9  1  0.97257000  0.40807000  0.80114000  1.0 0.1282771151
H  H10  1  0.03739000  0.53565000  0.64377000  1.0 0.311280794
H  H11  1  0.16659000  0.65799000  0.71166000  1.0 0.311280794
H  H12  1  0.55012000  0.18296000  0.46307000  1.0 0.1282771151
H  H13  1  0.90194000  0.66948000  0.55573000  1.0 0.1062702849
H  H14  1  0.05995000  0.92319000  0.49304000  1.0 0.1282771151
H  H15  1  0.22390000  0.94172000  0.75383000  1.0 0.1162353005
H  H16  1  0.39036000  0.20050000  0.69878000  1.0 0.1413445692
H  H17  1  0.09405000  0.64373000  0.50260000  1.0 0.1413445692
H  H18  1  0.40807000  0.97257000  0.69886000  1.0 0.1282771151
H  H19  1  0.46435000  0.96261000  0.14377000  1.0 0.311280794
H  H20  1  0.34201000  0.83341000  0.21166000  1.0 0.311280794
H  H21  1  0.81704000  0.44988000  0.96307000  1.0 0.1282771151
H  H22  1  0.33052000  0.09806000  0.05573000  1.0 0.1062702849
H  H23  1  0.07681000  0.94005000  0.99304000  1.0 0.1282771151
H  H24  1  0.05828000  0.77610000  0.25383000  1.0 0.1162353005
H  H25  1  0.79950000  0.60964000  0.19878000  1.0 0.1413445692
H  H26  1  0.35627000  0.90595000  0.00260000  1.0 0.1413445692
H  H27  1  0.02743000  0.59193000  0.19886000  1.0 0.1282771151
H  H28  1  0.96261000  0.46435000  0.35623000  1.0 0.311280794
H  H29  1  0.83341000  0.34201000  0.28834000  1.0 0.311280794
H  H30  1  0.44988000  0.81704000  0.53693000  1.0 0.1282771151
H  H31  1  0.09806000  0.33052000  0.44427000  1.0 0.1062702849
H  H32  1  0.94005000  0.07681000  0.50696000  1.0 0.1282771151
H  H33  1  0.77610000  0.05828000  0.24617000  1.0 0.1162353005
H  H34  1  0.60964000  0.79950000  0.30122000  1.0 0.1413445692
H  H35  1  0.90595000  0.35627000  0.49740000  1.0 0.1413445692
H  H36  1  0.59193000  0.02743000  0.30114000  1.0 0.1282771151
C  C1  1  0.08273000  0.47007000  0.00040000  1.0 -0.1426613707
C  C2  1  0.45600000  0.43600000  0.02980000  1.0 0.0481695561
C  C3  1  0.77720000  0.00060000  0.91550000  1.0 0.101111108
C  C4  1  0.92970000  0.09490000  0.95350000  1.0 -0.2078345385
C  C5  1  0.93830000  0.19070000  0.79930000  1.0 0.0914109997
C  C6  1  0.09460000  0.29120000  0.83140000  1.0 -0.1847171229
C  C7  1  0.25490000  0.34490000  0.94760000  1.0 0.0481695561
C  C8  1  0.09180000  0.24180000  0.91060000  1.0 0.101111108
C  C9  1  0.91026000  0.31714000  0.03140000  1.0 -0.0124746691
C  C10  1  0.75996000  0.19724000  0.97660000  1.0 -0.1984571744
C  C11  1  0.95720000  0.38560000  0.85880000  1.0 -0.2197914575
C  C12  1  0.10562000  0.50378000  0.91320000  1.0 -0.0124746691
C  C13  1  0.78527000  0.23313000  0.89090000  1.0 0.2498895894
C  C14  1  0.88500000  0.28440000  0.12500000  1.0 0.5468036528
C  C15  1  0.29385000  0.67095000  0.87980000  1.0 0.5468036528
C  C16  1  0.47007000  0.08273000  0.49960000  1.0 -0.1426613707
C  C17  1  0.43600000  0.45600000  0.47020000  1.0 0.0481695561
C  C18  1  0.00060000  0.77720000  0.58450000  1.0 0.101111108
C  C19  1  0.09490000  0.92970000  0.54650000  1.0 -0.2078345385
C  C20  1  0.19070000  0.93830000  0.70070000  1.0 0.0914109997
C  C21  1  0.29120000  0.09460000  0.66860000  1.0 -0.1847171229
C  C22  1  0.34490000  0.25490000  0.55240000  1.0 0.0481695561
C  C23  1  0.24180000  0.09180000  0.58940000  1.0 0.101111108
C  C24  1  0.31714000  0.91026000  0.46860000  1.0 -0.0124746691
C  C25  1  0.19724000  0.75996000  0.52340000  1.0 -0.1984571744
C  C26  1  0.38560000  0.95720000  0.64120000  1.0 -0.2197914575
C  C27  1  0.50378000  0.10562000  0.58680000  1.0 -0.0124746691
C  C28  1  0.23313000  0.78527000  0.60910000  1.0 0.2498895894
C  C29  1  0.28440000  0.88500000  0.37500000  1.0 0.5468036528
C  C30  1  0.67095000  0.29385000  0.62020000  1.0 0.5468036528
C  C31  1  0.91727000  0.52993000  0.99960000  1.0 -0.1426613707
C  C32  1  0.54400000  0.56400000  0.97020000  1.0 0.0481695561
C  C33  1  0.22280000  0.99940000  0.08450000  1.0 0.101111108
C  C34  1  0.07030000  0.90510000  0.04650000  1.0 -0.2078345385
C  C35  1  0.06170000  0.80930000  0.20070000  1.0 0.0914109997
C  C36  1  0.90540000  0.70880000  0.16860000  1.0 -0.1847171229
C  C37  1  0.74510000  0.65510000  0.05240000  1.0 0.0481695561
C  C38  1  0.90820000  0.75820000  0.08940000  1.0 0.101111108
C  C39  1  0.08974000  0.68286000  0.96860000  1.0 -0.0124746691
C  C40  1  0.24004000  0.80276000  0.02340000  1.0 -0.1984571744
C  C41  1  0.04280000  0.61440000  0.14120000  1.0 -0.2197914575
C  C42  1  0.89438000  0.49622000  0.08680000  1.0 -0.0124746691
C  C43  1  0.21473000  0.76687000  0.10910000  1.0 0.2498895894
C  C44  1  0.11500000  0.71560000  0.87500000  1.0 0.5468036528
C  C45  1  0.70615000  0.32905000  0.12020000  1.0 0.5468036528
C  C46  1  0.52993000  0.91727000  0.50040000  1.0 -0.1426613707
C  C47  1  0.56400000  0.54400000  0.52980000  1.0 0.0481695561
C  C48  1  0.99940000  0.22280000  0.41550000  1.0 0.101111108
C  C49  1  0.90510000  0.07030000  0.45350000  1.0 -0.2078345385
C  C50  1  0.80930000  0.06170000  0.29930000  1.0 0.0914109997
C  C51  1  0.70880000  0.90540000  0.33140000  1.0 -0.1847171229
C  C52  1  0.65510000  0.74510000  0.44760000  1.0 0.0481695561
C  C53  1  0.75820000  0.90820000  0.41060000  1.0 0.101111108
C  C54  1  0.68286000  0.08974000  0.53140000  1.0 -0.0124746691
C  C55  1  0.80276000  0.24004000  0.47660000  1.0 -0.1984571744
C  C56  1  0.61440000  0.04280000  0.35880000  1.0 -0.2197914575
C  C57  1  0.49622000  0.89438000  0.41320000  1.0 -0.0124746691
C  C58  1  0.76687000  0.21473000  0.39090000  1.0 0.2498895894
C  C59  1  0.71560000  0.11500000  0.62500000  1.0 0.5468036528
C  C60  1  0.32905000  0.70615000  0.37980000  1.0 0.5468036528
S  S1  1  0.23979000  0.25981000  0.03880000  1.0 -0.0176949792
S  S2  1  0.25981000  0.23979000  0.46120000  1.0 -0.0176949792
S  S3  1  0.76021000  0.74019000  0.96120000  1.0 -0.0176949792
S  S4  1  0.74019000  0.76021000  0.53880000  1.0 -0.0176949792
N  N1  1  0.63234000  0.10626000  0.83160000  1.0 -0.5763462488
N  N2  1  0.78072000  0.04748000  0.83910000  1.0 -0.2339219455
N  N3  1  0.52910000  0.42490000  0.08850000  1.0 -0.0375054688
N  N4  1  0.58860000  0.50400000  0.08280000  1.0 0.0155522484
N  N5  1  0.10626000  0.63234000  0.66840000  1.0 -0.5763462488
N  N6  1  0.04748000  0.78072000  0.66090000  1.0 -0.2339219455
N  N7  1  0.42490000  0.52910000  0.41150000  1.0 -0.0375054688
N  N8  1  0.50400000  0.58860000  0.41720000  1.0 0.0155522484
N  N9  1  0.36766000  0.89374000  0.16840000  1.0 -0.5763462488
N  N10  1  0.21928000  0.95252000  0.16090000  1.0 -0.2339219455
N  N11  1  0.47090000  0.57510000  0.91150000  1.0 -0.0375054688
N  N12  1  0.41140000  0.49600000  0.91720000  1.0 0.0155522484
N  N13  1  0.89374000  0.36766000  0.33160000  1.0 -0.5763462488
N  N14  1  0.95252000  0.21928000  0.33910000  1.0 -0.2339219455
N  N15  1  0.57510000  0.47090000  0.58850000  1.0 -0.0375054688
N  N16  1  0.49600000  0.41140000  0.58280000  1.0 0.0155522484
O  O1  1  0.31025000  0.69435000  0.80010000  1.0 -0.5404398148
O  O2  1  0.03220000  0.40020000  0.16930000  1.0 -0.5599745516
O  O3  1  0.73286000  0.15434000  0.15330000  1.0 -0.5481690843
O  O4  1  0.42870000  0.78430000  0.92870000  1.0 -0.5481690843
O  O5  1  0.69435000  0.31025000  0.69990000  1.0 -0.5404398148
O  O6  1  0.40020000  0.03220000  0.33070000  1.0 -0.5599745516
O  O7  1  0.15434000  0.73286000  0.34670000  1.0 -0.5481690843
O  O8  1  0.78430000  0.42870000  0.57130000  1.0 -0.5481690843
O  O9  1  0.68975000  0.30565000  0.19990000  1.0 -0.5404398148
O  O10  1  0.96780000  0.59980000  0.83070000  1.0 -0.5599745516
O  O11  1  0.26714000  0.84566000  0.84670000  1.0 -0.5481690843
O  O12  1  0.57130000  0.21570000  0.07130000  1.0 -0.5481690843
O  O13  1  0.30565000  0.68975000  0.30010000  1.0 -0.5404398148
O  O14  1  0.59980000  0.96780000  0.66930000  1.0 -0.5599745516
O  O15  1  0.84566000  0.26714000  0.65330000  1.0 -0.5481690843
O  O16  1  0.21570000  0.57130000  0.42870000  1.0 -0.5481690843
