# DDEC6 charges by PACMAN v1.1 (https://github.com/mtap-research/PACMAN-charge/)
data_MAXHUP_ion_pacman
_symmetry_space_group_name_H-M   'P 1'
_cell_length_a   19.59800000
_cell_length_b   19.59800000
_cell_length_c   3.50150000
_cell_angle_alpha   90.00000000
_cell_angle_beta   90.00000000
_cell_angle_gamma   90.00000000
_symmetry_Int_Tables_number   1
_chemical_formula_structural   Ag6H24C8N20Cl
_chemical_formula_sum   'Ag12 H48 C16 N40 Cl2'
_cell_volume   1344.86173641
_cell_formula_units_Z   2
loop_
 _symmetry_equiv_pos_site_id
 _symmetry_equiv_pos_as_xyz
  1  'x, y, z'
loop_
 _atom_site_type_symbol
 _atom_site_label
 _atom_site_symmetry_multiplicity
 _atom_site_fract_x
 _atom_site_fract_y
 _atom_site_fract_z
 _atom_site_occupancy
 _atom_site_charge
Ag  Ag1  1  0.62253000  0.46241000  0.00420000  1.0 0.3816224909
Ag  Ag2  1  0.37747000  0.53759000  0.00420000  1.0 0.3816224909
Ag  Ag3  1  0.53759000  0.62253000  0.99580000  1.0 0.3816224909
Ag  Ag4  1  0.46241000  0.37747000  0.99580000  1.0 0.3816224909
Ag  Ag5  1  0.87747000  0.96241000  0.50420000  1.0 0.3816224909
Ag  Ag6  1  0.12253000  0.03759000  0.50420000  1.0 0.3816224909
Ag  Ag7  1  0.96241000  0.12253000  0.49580000  1.0 0.3816224909
Ag  Ag8  1  0.03759000  0.87747000  0.49580000  1.0 0.3816224909
Ag  Ag9  1  0.67726000  0.17726000  0.25000000  1.0 0.3930807388
Ag  Ag10  1  0.32274000  0.82274000  0.25000000  1.0 0.3930807388
Ag  Ag11  1  0.82274000  0.67726000  0.75000000  1.0 0.3930807388
Ag  Ag12  1  0.17726000  0.32274000  0.75000000  1.0 0.3930807388
H  H1  1  0.73970000  0.37580000  0.70190000  1.0 0.1782718165
H  H2  1  0.26030000  0.62420000  0.70190000  1.0 0.1782718165
H  H3  1  0.62420000  0.73970000  0.29810000  1.0 0.1782718165
H  H4  1  0.37580000  0.26030000  0.29810000  1.0 0.1782718165
H  H5  1  0.76030000  0.87580000  0.20190000  1.0 0.1782718165
H  H6  1  0.23970000  0.12420000  0.20190000  1.0 0.1782718165
H  H7  1  0.87580000  0.23970000  0.79810000  1.0 0.1782718165
H  H8  1  0.12420000  0.76030000  0.79810000  1.0 0.1782718165
H  H9  1  0.75550000  0.30960000  0.51170000  1.0 0.1999501627
H  H10  1  0.24450000  0.69040000  0.51170000  1.0 0.1999501627
H  H11  1  0.69040000  0.75550000  0.48830000  1.0 0.1999501627
H  H12  1  0.30960000  0.24450000  0.48830000  1.0 0.1999501627
H  H13  1  0.74450000  0.80960000  0.01170000  1.0 0.1999501627
H  H14  1  0.25550000  0.19040000  0.01170000  1.0 0.1999501627
H  H15  1  0.80960000  0.25550000  0.98830000  1.0 0.1999501627
H  H16  1  0.19040000  0.74450000  0.98830000  1.0 0.1999501627
H  H17  1  0.52240000  0.17610000  0.57010000  1.0 0.1999501627
H  H18  1  0.47760000  0.82390000  0.57010000  1.0 0.1999501627
H  H19  1  0.82390000  0.52240000  0.42990000  1.0 0.1999501627
H  H20  1  0.17610000  0.47760000  0.42990000  1.0 0.1999501627
H  H21  1  0.97760000  0.67610000  0.07010000  1.0 0.1999501627
H  H22  1  0.02240000  0.32390000  0.07010000  1.0 0.1999501627
H  H23  1  0.67610000  0.02240000  0.92990000  1.0 0.1999501627
H  H24  1  0.32390000  0.97760000  0.92990000  1.0 0.1999501627
H  H25  1  0.46780000  0.22650000  0.65880000  1.0 0.1920832427
H  H26  1  0.53220000  0.77350000  0.65880000  1.0 0.1920832427
H  H27  1  0.77350000  0.46780000  0.34120000  1.0 0.1920832427
H  H28  1  0.22650000  0.53220000  0.34120000  1.0 0.1920832427
H  H29  1  0.03220000  0.72650000  0.15880000  1.0 0.1920832427
H  H30  1  0.96780000  0.27350000  0.15880000  1.0 0.1920832427
H  H31  1  0.72650000  0.96780000  0.84120000  1.0 0.1920832427
H  H32  1  0.27350000  0.03220000  0.84120000  1.0 0.1920832427
H  H33  1  0.52530000  0.23790000  0.55720000  1.0 0.0980799547
H  H34  1  0.47470000  0.76210000  0.55720000  1.0 0.0980799547
H  H35  1  0.76210000  0.52530000  0.44280000  1.0 0.0980799547
H  H36  1  0.23790000  0.47470000  0.44280000  1.0 0.0980799547
H  H37  1  0.97470000  0.73790000  0.05720000  1.0 0.0980799547
H  H38  1  0.02530000  0.26210000  0.05720000  1.0 0.0980799547
H  H39  1  0.73790000  0.02530000  0.94280000  1.0 0.0980799547
H  H40  1  0.26210000  0.97470000  0.94280000  1.0 0.0980799547
H  H41  1  0.71500000  0.33250000  0.59020000  1.0 -0.1229184201
H  H42  1  0.28500000  0.66750000  0.59020000  1.0 -0.1229184201
H  H43  1  0.66750000  0.71500000  0.40980000  1.0 -0.1229184201
H  H44  1  0.33250000  0.28500000  0.40980000  1.0 -0.1229184201
H  H45  1  0.78500000  0.83250000  0.09020000  1.0 -0.1229184201
H  H46  1  0.21500000  0.16750000  0.09020000  1.0 -0.1229184201
H  H47  1  0.83250000  0.21500000  0.90980000  1.0 -0.1229184201
H  H48  1  0.16750000  0.78500000  0.90980000  1.0 -0.1229184201
C  C1  1  0.56100000  0.26960000  0.61900000  1.0 0.2500941878
C  C2  1  0.43900000  0.73040000  0.61900000  1.0 0.2500941878
C  C3  1  0.73040000  0.56100000  0.38100000  1.0 0.2500941878
C  C4  1  0.26960000  0.43900000  0.38100000  1.0 0.2500941878
C  C5  1  0.93900000  0.76960000  0.11900000  1.0 0.2500941878
C  C6  1  0.06100000  0.23040000  0.11900000  1.0 0.2500941878
C  C7  1  0.76960000  0.06100000  0.88100000  1.0 0.2500941878
C  C8  1  0.23040000  0.93900000  0.88100000  1.0 0.2500941878
C  C9  1  0.65600000  0.31920000  0.62400000  1.0 0.3202126002
C  C10  1  0.34400000  0.68080000  0.62400000  1.0 0.3202126002
C  C11  1  0.68080000  0.65600000  0.37600000  1.0 0.3202126002
C  C12  1  0.31920000  0.34400000  0.37600000  1.0 0.3202126002
C  C13  1  0.84400000  0.81920000  0.12400000  1.0 0.3202126002
C  C14  1  0.15600000  0.18080000  0.12400000  1.0 0.3202126002
C  C15  1  0.81920000  0.15600000  0.87600000  1.0 0.3202126002
C  C16  1  0.18080000  0.84400000  0.87600000  1.0 0.3202126002
N  N1  1  0.61170000  0.36230000  0.77700000  1.0 -0.1636092966
N  N2  1  0.38830000  0.63770000  0.77700000  1.0 -0.1636092966
N  N3  1  0.63770000  0.61170000  0.22300000  1.0 -0.1636092966
N  N4  1  0.36230000  0.38830000  0.22300000  1.0 -0.1636092966
N  N5  1  0.88830000  0.86230000  0.27700000  1.0 -0.1636092966
N  N6  1  0.11170000  0.13770000  0.27700000  1.0 -0.1636092966
N  N7  1  0.86230000  0.11170000  0.72300000  1.0 -0.1636092966
N  N8  1  0.13770000  0.88830000  0.72300000  1.0 -0.1636092966
N  N9  1  0.62640000  0.26000000  0.53800000  1.0 -0.3629364916
N  N10  1  0.37360000  0.74000000  0.53800000  1.0 -0.3629364916
N  N11  1  0.74000000  0.62640000  0.46200000  1.0 -0.3629364916
N  N12  1  0.26000000  0.37360000  0.46200000  1.0 -0.3629364916
N  N13  1  0.87360000  0.76000000  0.03800000  1.0 -0.3629364916
N  N14  1  0.12640000  0.24000000  0.03800000  1.0 -0.3629364916
N  N15  1  0.76000000  0.12640000  0.96200000  1.0 -0.3629364916
N  N16  1  0.24000000  0.87360000  0.96200000  1.0 -0.3629364916
N  N17  1  0.55080000  0.33030000  0.78400000  1.0 -0.1760397111
N  N18  1  0.44920000  0.66970000  0.78400000  1.0 -0.1760397111
N  N19  1  0.66970000  0.55080000  0.21600000  1.0 -0.1760397111
N  N20  1  0.33030000  0.44920000  0.21600000  1.0 -0.1760397111
N  N21  1  0.94920000  0.83030000  0.28400000  1.0 -0.1760397111
N  N22  1  0.05080000  0.16970000  0.28400000  1.0 -0.1760397111
N  N23  1  0.83030000  0.05080000  0.71600000  1.0 -0.1760397111
N  N24  1  0.16970000  0.94920000  0.71600000  1.0 -0.1760397111
N  N25  1  0.72630000  0.33730000  0.61100000  1.0 -0.5628844002
N  N26  1  0.27370000  0.66270000  0.61100000  1.0 -0.5628844002
N  N27  1  0.66270000  0.72630000  0.38900000  1.0 -0.5628844002
N  N28  1  0.33730000  0.27370000  0.38900000  1.0 -0.5628844002
N  N29  1  0.77370000  0.83730000  0.11100000  1.0 -0.5628844002
N  N30  1  0.22630000  0.16270000  0.11100000  1.0 -0.5628844002
N  N31  1  0.83730000  0.22630000  0.88900000  1.0 -0.5628844002
N  N32  1  0.16270000  0.77370000  0.88900000  1.0 -0.5628844002
N  N33  1  0.51000000  0.21740000  0.61400000  1.0 -0.4845403308
N  N34  1  0.49000000  0.78260000  0.61400000  1.0 -0.4845403308
N  N35  1  0.78260000  0.51000000  0.38600000  1.0 -0.4845403308
N  N36  1  0.21740000  0.49000000  0.38600000  1.0 -0.4845403308
N  N37  1  0.99000000  0.71740000  0.11400000  1.0 -0.4845403308
N  N38  1  0.01000000  0.28260000  0.11400000  1.0 -0.4845403308
N  N39  1  0.71740000  0.01000000  0.88600000  1.0 -0.4845403308
N  N40  1  0.28260000  0.99000000  0.88600000  1.0 -0.4845403308
Cl  Cl1  1  0.00000000  0.00000000  0.00000000  1.0 -0.5755053485
Cl  Cl2  1  0.50000000  0.50000000  0.50000000  1.0 -0.5755053485
