# DDEC6 charges by PACMAN v1.1 (https://github.com/mtap-research/PACMAN-charge/)
data_MAZFEC03_ASR_pacman
_symmetry_space_group_name_H-M   'P 1'
_cell_length_a   17.14750000
_cell_length_b   17.14750000
_cell_length_c   14.40800000
_cell_angle_alpha   85.54370000
_cell_angle_beta   94.45630000
_cell_angle_gamma   132.47900000
_symmetry_Int_Tables_number   1
_chemical_formula_structural   NdH10C22N2O11
_chemical_formula_sum   'Nd4 H40 C88 N8 O44'
_cell_volume   3113.23099951
_cell_formula_units_Z   4
loop_
 _symmetry_equiv_pos_site_id
 _symmetry_equiv_pos_as_xyz
  1  'x, y, z'
loop_
 _atom_site_type_symbol
 _atom_site_label
 _atom_site_symmetry_multiplicity
 _atom_site_fract_x
 _atom_site_fract_y
 _atom_site_fract_z
 _atom_site_occupancy
 _atom_site_charge
Nd  Nd1  1  0.38478000  0.00430000  0.50986000  1.0 1.9407484683
Nd  Nd2  1  0.00430000  0.38478000  0.99014000  1.0 1.9407484683
Nd  Nd3  1  0.61522000  0.99570000  0.49014000  1.0 1.9343882156
Nd  Nd4  1  0.99570000  0.61522000  0.00986000  1.0 1.9407484683
H  H1  1  0.26773000  0.78895000  0.76127000  1.0 0.1300841225
H  H2  1  0.26279000  0.59243000  0.93564000  1.0 0.143032561
H  H3  1  0.48796000  0.77074000  0.74858000  1.0 0.1300841225
H  H4  1  0.65919000  0.75344000  0.06765000  1.0 0.1300841225
H  H5  1  0.28240000  0.32492000  0.85631000  1.0 0.1249361438
H  H6  1  0.50719000  0.34507000  0.38136000  1.0 0.1106920568
H  H7  1  0.50426000  0.45828000  0.28512000  1.0 0.1106920568
H  H8  1  0.34383000  0.39963000  0.22320000  1.0 0.1106920568
H  H9  1  0.19213000  0.22151000  0.23721000  1.0 0.0962894773
H  H10  1  0.19218000  0.11422000  0.34744000  1.0 0.0932211159
H  H11  1  0.78895000  0.26773000  0.73873000  1.0 0.1300841225
H  H12  1  0.59243000  0.26279000  0.56436000  1.0 0.143032561
H  H13  1  0.77074000  0.48796000  0.75142000  1.0 0.1300841225
H  H14  1  0.75345000  0.65919000  0.43235000  1.0 0.1300841225
H  H15  1  0.32492000  0.28240000  0.64369000  1.0 0.1249361438
H  H16  1  0.34507000  0.50719000  0.11864000  1.0 0.1106920568
H  H17  1  0.45828000  0.50426000  0.21488000  1.0 0.1106920568
H  H18  1  0.39963000  0.34383000  0.27680000  1.0 0.1106920568
H  H19  1  0.22151000  0.19213000  0.26279000  1.0 0.0962894773
H  H20  1  0.11422000  0.19218000  0.15256000  1.0 0.0932211159
H  H21  1  0.73227000  0.21105000  0.23873000  1.0 0.1300841225
H  H22  1  0.73721000  0.40757000  0.06436000  1.0 0.143032561
H  H23  1  0.51204000  0.22926000  0.25142000  1.0 0.1300841225
H  H24  1  0.34081000  0.24655000  0.93235000  1.0 0.1300841225
H  H25  1  0.71760000  0.67508000  0.14369000  1.0 0.1300841225
H  H26  1  0.49281000  0.65493000  0.61864000  1.0 0.1106920568
H  H27  1  0.49574000  0.54172000  0.71488000  1.0 0.1106920568
H  H28  1  0.65617000  0.60037000  0.77680000  1.0 0.1106920568
H  H29  1  0.80787000  0.77849000  0.76279000  1.0 0.0962894773
H  H30  1  0.80782000  0.88578000  0.65256000  1.0 0.0932211159
H  H31  1  0.21105000  0.73227000  0.26127000  1.0 0.1300841225
H  H32  1  0.40757000  0.73721000  0.43564000  1.0 0.143032561
H  H33  1  0.22926000  0.51204000  0.24858000  1.0 0.1300841225
H  H34  1  0.24655000  0.34080000  0.56765000  1.0 0.1300841225
H  H35  1  0.67508000  0.71760000  0.35631000  1.0 0.1300841225
H  H36  1  0.65493000  0.49281000  0.88136000  1.0 0.1106920568
H  H37  1  0.54172000  0.49574000  0.78512000  1.0 0.1106920568
H  H38  1  0.60037000  0.65617000  0.72320000  1.0 0.1106920568
H  H39  1  0.77849000  0.80787000  0.73721000  1.0 0.0962894773
H  H40  1  0.88578000  0.80782000  0.84744000  1.0 0.0932211159
C  C1  1  0.42970000  0.86930000  0.66090000  1.0 0.6439317418
C  C2  1  0.15900000  0.65560000  0.90140000  1.0 0.6179658724
C  C3  1  0.38430000  0.79070000  0.73950000  1.0 -0.0197040579
C  C4  1  0.29570000  0.75930000  0.78220000  1.0 -0.0786145761
C  C5  1  0.24970000  0.68530000  0.85460000  1.0 -0.0197040579
C  C6  1  0.29300000  0.64200000  0.88630000  1.0 -0.145806958
C  C7  1  0.37890000  0.67190000  0.84590000  1.0 0.1667704834
C  C8  1  0.42700000  0.74820000  0.77380000  1.0 -0.1627939651
C  C9  1  0.50720000  0.68380000  0.94360000  1.0 0.4302027998
C  C10  1  0.54190000  0.63190000  0.99570000  1.0 -0.0511942637
C  C11  1  0.48500000  0.52520000  0.97610000  1.0 -0.012556667
C  C12  1  0.39830000  0.46850000  0.91050000  1.0 -0.0864547259
C  C13  1  0.36580000  0.52180000  0.85910000  1.0 0.4302027998
C  C14  1  0.62350000  0.68350000  0.05630000  1.0 -0.0786145761
C  C15  1  0.34180000  0.36360000  0.89630000  1.0 -0.096482968
C  C16  1  0.35180000  0.21560000  0.36590000  1.0 -0.0660403641
C  C17  1  0.44390000  0.32050000  0.35270000  1.0 -0.0197040579
C  C18  1  0.44190000  0.38890000  0.29650000  1.0 -0.1754191713
C  C19  1  0.34620000  0.35300000  0.25700000  1.0 -0.0511942637
C  C20  1  0.25420000  0.24760000  0.27000000  1.0 -0.0511942637
C  C21  1  0.25520000  0.18100000  0.33060000  1.0 -0.0786145761
C  C22  1  0.35500000  0.13980000  0.42510000  1.0 0.4993979735
C  C23  1  0.86930000  0.42970000  0.83910000  1.0 0.6439317418
C  C24  1  0.65560000  0.15900000  0.59860000  1.0 0.6179658724
C  C25  1  0.79070000  0.38430000  0.76050000  1.0 -0.0197040579
C  C26  1  0.75930000  0.29570000  0.71780000  1.0 -0.0786145761
C  C27  1  0.68530000  0.24970000  0.64540000  1.0 -0.0197040579
C  C28  1  0.64200000  0.29300000  0.61370000  1.0 -0.1448195574
C  C29  1  0.67190000  0.37890000  0.65410000  1.0 0.1667704834
C  C30  1  0.74820000  0.42700000  0.72620000  1.0 -0.1627939651
C  C31  1  0.68380000  0.50720000  0.55640000  1.0 0.4302027998
C  C32  1  0.63190000  0.54190000  0.50430000  1.0 -0.0511942637
C  C33  1  0.52520000  0.48500000  0.52390000  1.0 -0.012556667
C  C34  1  0.46850000  0.39830000  0.58950000  1.0 -0.0864547259
C  C35  1  0.52180000  0.36580000  0.64090000  1.0 0.4302027998
C  C36  1  0.68350000  0.62350000  0.44370000  1.0 -0.0786145761
C  C37  1  0.36360000  0.34180000  0.60370000  1.0 -0.096482968
C  C38  1  0.21560000  0.35180000  0.13410000  1.0 -0.0660403641
C  C39  1  0.32050000  0.44390000  0.14730000  1.0 -0.0197040579
C  C40  1  0.38890000  0.44190000  0.20350000  1.0 -0.1754191713
C  C41  1  0.35300000  0.34620000  0.24300000  1.0 -0.0511942637
C  C42  1  0.24760000  0.25420000  0.23000000  1.0 -0.0511942637
C  C43  1  0.18100000  0.25520000  0.16940000  1.0 -0.0786145761
C  C44  1  0.13980000  0.35500000  0.07490000  1.0 0.4993979735
C  C45  1  0.57030000  0.13070000  0.33910000  1.0 0.6439317418
C  C46  1  0.84100000  0.34440000  0.09860000  1.0 0.6179658724
C  C47  1  0.61570000  0.20930000  0.26050000  1.0 -0.0197040579
C  C48  1  0.70430000  0.24070000  0.21780000  1.0 -0.0786145761
C  C49  1  0.75030000  0.31470000  0.14540000  1.0 -0.0197040579
C  C50  1  0.70700000  0.35800000  0.11370000  1.0 -0.1448195574
C  C51  1  0.62110000  0.32810000  0.15410000  1.0 0.1667704834
C  C52  1  0.57300000  0.25180000  0.22620000  1.0 -0.1627939651
C  C53  1  0.49280000  0.31620000  0.05640000  1.0 0.4302027998
C  C54  1  0.45810000  0.36810000  0.00430000  1.0 -0.0511942637
C  C55  1  0.51500000  0.47480000  0.02390000  1.0 -0.012556667
C  C56  1  0.60170000  0.53150000  0.08950000  1.0 -0.0864547259
C  C57  1  0.63420000  0.47820000  0.14090000  1.0 0.4302027998
C  C58  1  0.37650000  0.31650000  0.94370000  1.0 -0.0786145761
C  C59  1  0.65820000  0.63640000  0.10370000  1.0 -0.096482968
C  C60  1  0.64820000  0.78440000  0.63410000  1.0 -0.0660403641
C  C61  1  0.55610000  0.67950000  0.64730000  1.0 -0.0197040579
C  C62  1  0.55810000  0.61110000  0.70350000  1.0 -0.1754191713
C  C63  1  0.65380000  0.64700000  0.74300000  1.0 -0.0511942637
C  C64  1  0.74580000  0.75240000  0.73000000  1.0 -0.0511942637
C  C65  1  0.74480000  0.81900000  0.66940000  1.0 -0.0786145761
C  C66  1  0.64500000  0.86020000  0.57490000  1.0 0.4993979735
C  C67  1  0.13070000  0.57030000  0.16090000  1.0 0.6439317418
C  C68  1  0.34440000  0.84100000  0.40140000  1.0 0.6179658724
C  C69  1  0.20930000  0.61570000  0.23950000  1.0 -0.0197040579
C  C70  1  0.24070000  0.70430000  0.28220000  1.0 -0.0786145761
C  C71  1  0.31470000  0.75030000  0.35460000  1.0 -0.0197040579
C  C72  1  0.35800000  0.70700000  0.38630000  1.0 -0.1448195574
C  C73  1  0.32810000  0.62110000  0.34590000  1.0 0.1667704834
C  C74  1  0.25180000  0.57300000  0.27380000  1.0 -0.1627939651
C  C75  1  0.31620000  0.49280000  0.44360000  1.0 0.4302027998
C  C76  1  0.36810000  0.45810000  0.49570000  1.0 -0.0511942637
C  C77  1  0.47480000  0.51500000  0.47610000  1.0 -0.012556667
C  C78  1  0.53150000  0.60170000  0.41050000  1.0 -0.0864547259
C  C79  1  0.47820000  0.63420000  0.35910000  1.0 0.4302027998
C  C80  1  0.31650000  0.37650000  0.55630000  1.0 -0.0786145761
C  C81  1  0.63640000  0.65820000  0.39630000  1.0 -0.096482968
C  C82  1  0.78440000  0.64820000  0.86590000  1.0 -0.0641094344
C  C83  1  0.67950000  0.55610000  0.85270000  1.0 -0.0197040579
C  C84  1  0.61110000  0.55810000  0.79650000  1.0 -0.1754191713
C  C85  1  0.64700000  0.65380000  0.75700000  1.0 -0.0511942637
C  C86  1  0.75240000  0.74580000  0.77000000  1.0 -0.0511942637
C  C87  1  0.81900000  0.74480000  0.83060000  1.0 -0.0786145761
C  C88  1  0.86020000  0.64500000  0.92510000  1.0 0.4993979735
N  N1  1  0.42203000  0.62617000  0.88320000  1.0 -0.2473699981
N  N2  1  0.35130000  0.14690000  0.43450000  1.0 0.5573280109
N  N3  1  0.62617000  0.42203000  0.61680000  1.0 -0.2473699981
N  N4  1  0.14690000  0.35130000  0.06550000  1.0 0.5573280109
N  N5  1  0.57797000  0.37383000  0.11680000  1.0 -0.2473699981
N  N6  1  0.64870000  0.85310000  0.56550000  1.0 0.5573280109
N  N7  1  0.37383000  0.57797000  0.38320000  1.0 -0.2473699981
N  N8  1  0.85310000  0.64870000  0.93450000  1.0 0.5573280109
O  O1  1  0.37839000  0.89381000  0.62750000  1.0 -0.6690580147
O  O2  1  0.51571000  0.90489000  0.63080000  1.0 -0.6508244621
O  O3  1  0.14146000  0.71554000  0.89690000  1.0 -0.5882643061
O  O4  1  0.10051000  0.56849000  0.94810000  1.0 -0.7273177998
O  O5  1  0.55380000  0.77620000  0.95690000  1.0 -0.383809519
O  O6  1  0.29370000  0.47870000  0.80390000  1.0 -0.3443030762
O  O7  1  0.41930000  0.17270000  0.49500000  1.0 -0.4416638063
O  O8  1  0.28050000  0.05150000  0.42100000  1.0 -0.290590656
O  O9  1  0.35600000  0.21420000  0.39100000  1.0 -0.096482968
O  O10  1  0.43710000  0.18690000  0.48390000  1.0 -0.4719022857
O  O11  1  0.29170000  0.04230000  0.40600000  1.0 -0.3591680052
O  O12  1  0.89381000  0.37839000  0.87250000  1.0 -0.6690580147
O  O13  1  0.90489000  0.51571000  0.86920000  1.0 -0.6508244621
O  O14  1  0.71554000  0.14146000  0.60310000  1.0 -0.5882643061
O  O15  1  0.56849000  0.10051000  0.55190000  1.0 -0.7273177998
O  O16  1  0.77620000  0.55380000  0.54310000  1.0 -0.383809519
O  O17  1  0.47870000  0.29370000  0.69610000  1.0 -0.3443030762
O  O18  1  0.17270000  0.41930000  0.00500000  1.0 -0.4416638063
O  O19  1  0.05150000  0.28050000  0.07900000  1.0 -0.290590656
O  O20  1  0.21420000  0.35600000  0.10900000  1.0 -0.096482968
O  O21  1  0.18690000  0.43710000  0.01610000  1.0 -0.4755915251
O  O22  1  0.04230000  0.29170000  0.09400000  1.0 -0.3591680052
O  O23  1  0.62161000  0.10619000  0.37250000  1.0 -0.6690580147
O  O24  1  0.48429000  0.09511000  0.36920000  1.0 -0.6508244621
O  O25  1  0.85854000  0.28446000  0.10310000  1.0 -0.5882643061
O  O26  1  0.89949000  0.43151000  0.05190000  1.0 -0.7273177998
O  O27  1  0.44620000  0.22380000  0.04310000  1.0 -0.383809519
O  O28  1  0.70630000  0.52130000  0.19610000  1.0 -0.346198787
O  O29  1  0.58070000  0.82730000  0.50500000  1.0 -0.4416638063
O  O30  1  0.71950000  0.94850000  0.57900000  1.0 -0.290590656
O  O31  1  0.64400000  0.78580000  0.60900000  1.0 -0.096482968
O  O32  1  0.56290000  0.81310000  0.51610000  1.0 -0.4755915251
O  O33  1  0.70830000  0.95770000  0.59400000  1.0 -0.3591680052
O  O34  1  0.10619000  0.62161000  0.12750000  1.0 -0.6690580147
O  O35  1  0.09511000  0.48429000  0.13080000  1.0 -0.6508244621
O  O36  1  0.28446000  0.85854000  0.39690000  1.0 -0.5882643061
O  O37  1  0.43151000  0.89949000  0.44810000  1.0 -0.7273177998
O  O38  1  0.22380000  0.44620000  0.45690000  1.0 -0.383809519
O  O39  1  0.52130000  0.70630000  0.30390000  1.0 -0.346198787
O  O40  1  0.82730000  0.58070000  0.99500000  1.0 -0.4416638063
O  O41  1  0.94850000  0.71950000  0.92100000  1.0 -0.290590656
O  O42  1  0.78580000  0.64400000  0.89100000  1.0 -0.096482968
O  O43  1  0.81310000  0.56290000  0.98390000  1.0 -0.4755915251
O  O44  1  0.95770000  0.70830000  0.90600000  1.0 -0.3591680052
