# DDEC6 charges by PACMAN v1.1 (https://github.com/mtap-research/PACMAN-charge/)
data_MAZFEC05_ASR_pacman
_symmetry_space_group_name_H-M   'P 1'
_cell_length_a   17.12280000
_cell_length_b   17.12280000
_cell_length_c   14.42200000
_cell_angle_alpha   85.47660000
_cell_angle_beta   94.52340000
_cell_angle_gamma   132.65500000
_symmetry_Int_Tables_number   1
_chemical_formula_structural   NdH10C22N2O11
_chemical_formula_sum   'Nd4 H40 C88 N8 O44'
_cell_volume   3098.20553708
_cell_formula_units_Z   4
loop_
 _symmetry_equiv_pos_site_id
 _symmetry_equiv_pos_as_xyz
  1  'x, y, z'
loop_
 _atom_site_type_symbol
 _atom_site_label
 _atom_site_symmetry_multiplicity
 _atom_site_fract_x
 _atom_site_fract_y
 _atom_site_fract_z
 _atom_site_occupancy
 _atom_site_charge
Nd  Nd1  1  0.38456000  0.00416000  0.50999000  1.0 1.8591548026
Nd  Nd2  1  0.00416000  0.38456000  0.99001000  1.0 1.8591548026
Nd  Nd3  1  0.61544000  0.99584000  0.49001000  1.0 1.8591548026
Nd  Nd4  1  0.99584000  0.61544000  0.00999000  1.0 1.8591548026
H  H1  1  0.26874000  0.78980000  0.76142000  1.0 0.1367737919
H  H2  1  0.26272000  0.59286000  0.93456000  1.0 0.1300556514
H  H3  1  0.48777000  0.77169000  0.74721000  1.0 0.1300556514
H  H4  1  0.65446000  0.74956000  0.07302000  1.0 0.1367737919
H  H5  1  0.27664000  0.32118000  0.86331000  1.0 0.1202549202
H  H6  1  0.50615000  0.34547000  0.37771000  1.0 0.0990178854
H  H7  1  0.50011000  0.45659000  0.28175000  1.0 0.1202549202
H  H8  1  0.33807000  0.39435000  0.21927000  1.0 0.1084285545
H  H9  1  0.18507000  0.21765000  0.24305000  1.0 0.1084285545
H  H10  1  0.18916000  0.11294000  0.35285000  1.0 0.0849598244
H  H11  1  0.78980000  0.26874000  0.73858000  1.0 0.1367737919
H  H12  1  0.59286000  0.26272000  0.56544000  1.0 0.1300556514
H  H13  1  0.77169000  0.48777000  0.75279000  1.0 0.1300556514
H  H14  1  0.74956000  0.65446000  0.42698000  1.0 0.1367737919
H  H15  1  0.32118000  0.27664000  0.63669000  1.0 0.1202549202
H  H16  1  0.34547000  0.50615000  0.12229000  1.0 0.0990178854
H  H17  1  0.45659000  0.50011000  0.21825000  1.0 0.1202549202
H  H18  1  0.39435000  0.33807000  0.28073000  1.0 0.1084285545
H  H19  1  0.21765000  0.18507000  0.25695000  1.0 0.1084285545
H  H20  1  0.11294000  0.18916000  0.14715000  1.0 0.0854178488
H  H21  1  0.73126000  0.21020000  0.23858000  1.0 0.1367737919
H  H22  1  0.73728000  0.40714000  0.06544000  1.0 0.1300556514
H  H23  1  0.51223000  0.22831000  0.25279000  1.0 0.1300556514
H  H24  1  0.34554000  0.25044000  0.92698000  1.0 0.1367737919
H  H25  1  0.72336000  0.67882000  0.13669000  1.0 0.1300556514
H  H26  1  0.49385000  0.65453000  0.62229000  1.0 0.0990178854
H  H27  1  0.49989000  0.54341000  0.71825000  1.0 0.1202549202
H  H28  1  0.66193000  0.60565000  0.78073000  1.0 0.1084285545
H  H29  1  0.81493000  0.78235000  0.75695000  1.0 0.1084285545
H  H30  1  0.81084000  0.88706000  0.64715000  1.0 0.0854178488
H  H31  1  0.21020000  0.73126000  0.26142000  1.0 0.1367737919
H  H32  1  0.40714000  0.73728000  0.43456000  1.0 0.1300556514
H  H33  1  0.22831000  0.51223000  0.24721000  1.0 0.1300556514
H  H34  1  0.25044000  0.34554000  0.57302000  1.0 0.1367737919
H  H35  1  0.67882000  0.72336000  0.36331000  1.0 0.1202549202
H  H36  1  0.65453000  0.49385000  0.87771000  1.0 0.0990178854
H  H37  1  0.54341000  0.49989000  0.78175000  1.0 0.1202549202
H  H38  1  0.60565000  0.66193000  0.71927000  1.0 0.1084285545
H  H39  1  0.78235000  0.81493000  0.74305000  1.0 0.1084285545
H  H40  1  0.88706000  0.81084000  0.85285000  1.0 0.0849598244
C  C1  1  0.43130000  0.87110000  0.66050000  1.0 0.6492178113
C  C2  1  0.16040000  0.65680000  0.90210000  1.0 0.6188567102
C  C3  1  0.38670000  0.79350000  0.74180000  1.0 -0.0073605787
C  C4  1  0.29720000  0.76060000  0.78290000  1.0 -0.0815661057
C  C5  1  0.25050000  0.68610000  0.85410000  1.0 -0.0151162503
C  C6  1  0.29350000  0.64290000  0.88540000  1.0 -0.1695102594
C  C7  1  0.37920000  0.67220000  0.84580000  1.0 0.1753993452
C  C8  1  0.42750000  0.74990000  0.77360000  1.0 -0.1759463616
C  C9  1  0.50670000  0.68250000  0.94470000  1.0 0.4236473113
C  C10  1  0.54260000  0.63260000  0.99590000  1.0 -0.0472736416
C  C11  1  0.48550000  0.52550000  0.97750000  1.0 -0.0352127675
C  C12  1  0.39710000  0.46690000  0.90970000  1.0 -0.100573382
C  C13  1  0.36720000  0.52340000  0.85860000  1.0 0.409593527
C  C14  1  0.62190000  0.68130000  0.05760000  1.0 -0.0920402482
C  C15  1  0.33970000  0.36230000  0.89890000  1.0 -0.1091535705
C  C16  1  0.34970000  0.21430000  0.36560000  1.0 -0.1091535705
C  C17  1  0.44180000  0.31980000  0.35030000  1.0 -0.0684105262
C  C18  1  0.43800000  0.38680000  0.29400000  1.0 -0.1584836348
C  C19  1  0.34100000  0.34920000  0.25600000  1.0 -0.0472736416
C  C20  1  0.24890000  0.24450000  0.27300000  1.0 -0.0472736416
C  C21  1  0.25190000  0.17930000  0.33400000  1.0 -0.100573382
C  C22  1  0.35470000  0.13970000  0.42480000  1.0 0.4555047671
C  C23  1  0.87110000  0.43130000  0.83950000  1.0 0.6492178113
C  C24  1  0.65680000  0.16040000  0.59790000  1.0 0.6188567102
C  C25  1  0.79350000  0.38670000  0.75820000  1.0 -0.0073605787
C  C26  1  0.76060000  0.29720000  0.71710000  1.0 -0.0815661057
C  C27  1  0.68610000  0.25050000  0.64590000  1.0 -0.0151162503
C  C28  1  0.64290000  0.29350000  0.61460000  1.0 -0.1695102594
C  C29  1  0.67220000  0.37920000  0.65420000  1.0 0.1748134017
C  C30  1  0.74990000  0.42750000  0.72640000  1.0 -0.1759463616
C  C31  1  0.68250000  0.50670000  0.55530000  1.0 0.4236473113
C  C32  1  0.63260000  0.54260000  0.50410000  1.0 -0.0472736416
C  C33  1  0.52550000  0.48550000  0.52250000  1.0 -0.0352127675
C  C34  1  0.46690000  0.39710000  0.59030000  1.0 -0.100573382
C  C35  1  0.52340000  0.36720000  0.64140000  1.0 0.409593527
C  C36  1  0.68130000  0.62190000  0.44240000  1.0 -0.0920402482
C  C37  1  0.36230000  0.33970000  0.60110000  1.0 -0.1091535705
C  C38  1  0.21430000  0.34970000  0.13440000  1.0 -0.1091535705
C  C39  1  0.31980000  0.44180000  0.14970000  1.0 -0.0684105262
C  C40  1  0.38680000  0.43800000  0.20600000  1.0 -0.1584836348
C  C41  1  0.34920000  0.34100000  0.24400000  1.0 -0.0472736416
C  C42  1  0.24450000  0.24890000  0.22700000  1.0 -0.0472736416
C  C43  1  0.17930000  0.25190000  0.16600000  1.0 -0.100573382
C  C44  1  0.13970000  0.35470000  0.07520000  1.0 0.4528983653
C  C45  1  0.56870000  0.12890000  0.33950000  1.0 0.6492178113
C  C46  1  0.83960000  0.34320000  0.09790000  1.0 0.6188567102
C  C47  1  0.61330000  0.20650000  0.25820000  1.0 -0.0073605787
C  C48  1  0.70280000  0.23940000  0.21710000  1.0 -0.0815661057
C  C49  1  0.74950000  0.31390000  0.14590000  1.0 -0.0151162503
C  C50  1  0.70650000  0.35710000  0.11460000  1.0 -0.1695102594
C  C51  1  0.62080000  0.32780000  0.15420000  1.0 0.1753993452
C  C52  1  0.57250000  0.25010000  0.22640000  1.0 -0.1759463616
C  C53  1  0.49330000  0.31750000  0.05530000  1.0 0.4236473113
C  C54  1  0.45740000  0.36740000  0.00410000  1.0 -0.0472736416
C  C55  1  0.51450000  0.47450000  0.02250000  1.0 -0.0307975385
C  C56  1  0.60290000  0.53310000  0.09030000  1.0 -0.0920402482
C  C57  1  0.63280000  0.47660000  0.14140000  1.0 0.409593527
C  C58  1  0.37810000  0.31870000  0.94240000  1.0 -0.0920402482
C  C59  1  0.66030000  0.63770000  0.10110000  1.0 -0.1091535705
C  C60  1  0.65030000  0.78570000  0.63440000  1.0 -0.1091535705
C  C61  1  0.55820000  0.68020000  0.64970000  1.0 -0.0684105262
C  C62  1  0.56200000  0.61320000  0.70600000  1.0 -0.1584836348
C  C63  1  0.65900000  0.65080000  0.74400000  1.0 -0.0472736416
C  C64  1  0.75110000  0.75550000  0.72700000  1.0 -0.0472736416
C  C65  1  0.74810000  0.82070000  0.66600000  1.0 -0.100573382
C  C66  1  0.64530000  0.86030000  0.57520000  1.0 0.4555047671
C  C67  1  0.12890000  0.56870000  0.16050000  1.0 0.6492178113
C  C68  1  0.34320000  0.83960000  0.40210000  1.0 0.6188567102
C  C69  1  0.20650000  0.61330000  0.24180000  1.0 -0.0073605787
C  C70  1  0.23940000  0.70280000  0.28290000  1.0 -0.0815661057
C  C71  1  0.31390000  0.74950000  0.35410000  1.0 -0.0151162503
C  C72  1  0.35710000  0.70650000  0.38540000  1.0 -0.1695102594
C  C73  1  0.32780000  0.62080000  0.34580000  1.0 0.1753993452
C  C74  1  0.25010000  0.57250000  0.27360000  1.0 -0.1759463616
C  C75  1  0.31750000  0.49330000  0.44470000  1.0 0.4236473113
C  C76  1  0.36740000  0.45740000  0.49590000  1.0 -0.0472736416
C  C77  1  0.47450000  0.51450000  0.47750000  1.0 -0.0352127675
C  C78  1  0.53310000  0.60290000  0.40970000  1.0 -0.100573382
C  C79  1  0.47660000  0.63280000  0.35860000  1.0 0.409593527
C  C80  1  0.31870000  0.37810000  0.55760000  1.0 -0.0920402482
C  C81  1  0.63770000  0.66030000  0.39890000  1.0 -0.1091535705
C  C82  1  0.78570000  0.65030000  0.86560000  1.0 -0.1091535705
C  C83  1  0.68020000  0.55820000  0.85030000  1.0 -0.0684105262
C  C84  1  0.61320000  0.56200000  0.79400000  1.0 -0.1584836348
C  C85  1  0.65080000  0.65900000  0.75600000  1.0 -0.0472736416
C  C86  1  0.75550000  0.75110000  0.77300000  1.0 -0.0472736416
C  C87  1  0.82070000  0.74810000  0.83400000  1.0 -0.100573382
C  C88  1  0.86030000  0.64530000  0.92480000  1.0 0.4555047671
N  N1  1  0.42215000  0.62625000  0.88340000  1.0 -0.2409702755
N  N2  1  0.35250000  0.14950000  0.43700000  1.0 0.4965799868
N  N3  1  0.62625000  0.42215000  0.61660000  1.0 -0.2409702755
N  N4  1  0.14950000  0.35250000  0.06300000  1.0 0.4965799868
N  N5  1  0.57785000  0.37375000  0.11660000  1.0 -0.2409702755
N  N6  1  0.64750000  0.85050000  0.56300000  1.0 0.4965799868
N  N7  1  0.37375000  0.57785000  0.38340000  1.0 -0.2409702755
N  N8  1  0.85050000  0.64750000  0.93700000  1.0 0.4965799868
O  O1  1  0.37931000  0.89469000  0.62820000  1.0 -0.6614323437
O  O2  1  0.51680000  0.90580000  0.63030000  1.0 -0.6614323437
O  O3  1  0.14286000  0.71694000  0.89690000  1.0 -0.5821021974
O  O4  1  0.10099000  0.56941000  0.94810000  1.0 -0.7178917408
O  O5  1  0.55430000  0.77750000  0.95900000  1.0 -0.4153700053
O  O6  1  0.29250000  0.47810000  0.80300000  1.0 -0.3901515186
O  O7  1  0.41540000  0.17860000  0.50000000  1.0 -0.2597386568
O  O8  1  0.35740000  0.21260000  0.38800000  1.0 -0.1091535705
O  O9  1  0.28600000  0.05600000  0.42100000  1.0 -0.2409702755
O  O10  1  0.43530000  0.18050000  0.48210000  1.0 -0.2890349582
O  O11  1  0.28570000  0.03630000  0.40700000  1.0 -0.3333887636
O  O12  1  0.89469000  0.37931000  0.87180000  1.0 -0.6614323437
O  O13  1  0.90580000  0.51680000  0.86970000  1.0 -0.6614323437
O  O14  1  0.71694000  0.14286000  0.60310000  1.0 -0.5821021974
O  O15  1  0.56941000  0.10099000  0.55190000  1.0 -0.7178917408
O  O16  1  0.77750000  0.55430000  0.54100000  1.0 -0.4153700053
O  O17  1  0.47810000  0.29250000  0.69700000  1.0 -0.3901515186
O  O18  1  0.17860000  0.41540000  0.00000000  1.0 -0.2597386568
O  O19  1  0.21260000  0.35740000  0.11200000  1.0 -0.1091535705
O  O20  1  0.05600000  0.28600000  0.07900000  1.0 -0.2409702755
O  O21  1  0.18050000  0.43530000  0.01790000  1.0 -0.2890349582
O  O22  1  0.03630000  0.28570000  0.09300000  1.0 -0.3359433293
O  O23  1  0.62069000  0.10531000  0.37180000  1.0 -0.6614323437
O  O24  1  0.48320000  0.09420000  0.36970000  1.0 -0.6650633991
O  O25  1  0.85714000  0.28306000  0.10310000  1.0 -0.5821021974
O  O26  1  0.89901000  0.43059000  0.05190000  1.0 -0.7178917408
O  O27  1  0.44570000  0.22250000  0.04100000  1.0 -0.414035502
O  O28  1  0.70750000  0.52190000  0.19700000  1.0 -0.3901515186
O  O29  1  0.58460000  0.82140000  0.50000000  1.0 -0.2597386568
O  O30  1  0.64260000  0.78740000  0.61200000  1.0 -0.1091535705
O  O31  1  0.71400000  0.94400000  0.57900000  1.0 -0.2409702755
O  O32  1  0.56470000  0.81950000  0.51790000  1.0 -0.2890349582
O  O33  1  0.71430000  0.96370000  0.59300000  1.0 -0.3359433293
O  O34  1  0.10531000  0.62069000  0.12820000  1.0 -0.6614323437
O  O35  1  0.09420000  0.48320000  0.13030000  1.0 -0.6614323437
O  O36  1  0.28306000  0.85714000  0.39690000  1.0 -0.5821021974
O  O37  1  0.43059000  0.89901000  0.44810000  1.0 -0.7178917408
O  O38  1  0.22250000  0.44570000  0.45900000  1.0 -0.414035502
O  O39  1  0.52190000  0.70750000  0.30300000  1.0 -0.3901515186
O  O40  1  0.82140000  0.58460000  0.00000000  1.0 -0.2597386568
O  O41  1  0.78740000  0.64260000  0.88800000  1.0 -0.1091535705
O  O42  1  0.94400000  0.71400000  0.92100000  1.0 -0.2409702755
O  O43  1  0.81950000  0.56470000  0.98210000  1.0 -0.2890349582
O  O44  1  0.96370000  0.71430000  0.90700000  1.0 -0.3333887636
