# DDEC6 charges by PACMAN v1.1 (https://github.com/mtap-research/PACMAN-charge/)
data_MAZFEC08_ASR_pacman
_symmetry_space_group_name_H-M   'P 1'
_cell_length_a   17.13370000
_cell_length_b   17.13370000
_cell_length_c   14.44300000
_cell_angle_alpha   84.45450000
_cell_angle_beta   95.54550000
_cell_angle_gamma   133.82700000
_symmetry_Int_Tables_number   1
_chemical_formula_structural   NdH10C22N2O11
_chemical_formula_sum   'Nd4 H40 C88 N8 O44'
_cell_volume   3041.91246878
_cell_formula_units_Z   4
loop_
 _symmetry_equiv_pos_site_id
 _symmetry_equiv_pos_as_xyz
  1  'x, y, z'
loop_
 _atom_site_type_symbol
 _atom_site_label
 _atom_site_symmetry_multiplicity
 _atom_site_fract_x
 _atom_site_fract_y
 _atom_site_fract_z
 _atom_site_occupancy
 _atom_site_charge
Nd  Nd1  1  0.00404000  0.38444000  0.49144000  1.0 1.8198667582
Nd  Nd2  1  0.38444000  0.00404000  0.00856000  1.0 1.8198667582
Nd  Nd3  1  0.99596000  0.61556000  0.50856000  1.0 1.8198667582
Nd  Nd4  1  0.61556000  0.99596000  0.99144000  1.0 1.8198667582
H  H1  1  0.79255000  0.27575000  0.24059000  1.0 0.1405594837
H  H2  1  0.60644000  0.28074000  0.05608000  1.0 0.1226810979
H  H3  1  0.78061000  0.49483000  0.23986000  1.0 0.1226810979
H  H4  1  0.75518000  0.65866000  0.93073000  1.0 0.1405594837
H  H5  1  0.30347000  0.25840000  0.14484000  1.0 0.1226810979
H  H6  1  0.33502000  0.49340000  0.62546000  1.0 0.1226810979
H  H7  1  0.44951000  0.49215000  0.72387000  1.0 0.1251358953
H  H8  1  0.39451000  0.32871000  0.77631000  1.0 0.1134052839
H  H9  1  0.21885000  0.16723000  0.74329000  1.0 0.1045064148
H  H10  1  0.09849000  0.16981000  0.65871000  1.0 0.0812267255
H  H11  1  0.27575000  0.79255000  0.25941000  1.0 0.1405594837
H  H12  1  0.28074000  0.60644000  0.44392000  1.0 0.1226810979
H  H13  1  0.49483000  0.78061000  0.26014000  1.0 0.1226810979
H  H14  1  0.65866000  0.75518000  0.56927000  1.0 0.1405594837
H  H15  1  0.25840000  0.30347000  0.35516000  1.0 0.1226810979
H  H16  1  0.49340000  0.33502000  0.87454000  1.0 0.1226810979
H  H17  1  0.49215000  0.44951000  0.77613000  1.0 0.1251358953
H  H18  1  0.32871000  0.39451000  0.72369000  1.0 0.1134052839
H  H19  1  0.16723000  0.21885000  0.75671000  1.0 0.1045064148
H  H20  1  0.16981000  0.09849000  0.84129000  1.0 0.0812267255
H  H21  1  0.20745000  0.72425000  0.75941000  1.0 0.1405594837
H  H22  1  0.39356000  0.71926000  0.94392000  1.0 0.1226810979
H  H23  1  0.21939000  0.50517000  0.76014000  1.0 0.1226810979
H  H24  1  0.24482000  0.34134000  0.06927000  1.0 0.1405594837
H  H25  1  0.69652000  0.74159000  0.85516000  1.0 0.1226810979
H  H26  1  0.66498000  0.50660000  0.37454000  1.0 0.1226810979
H  H27  1  0.55049000  0.50785000  0.27613000  1.0 0.1226810979
H  H28  1  0.60549000  0.67129000  0.22369000  1.0 0.1134052839
H  H29  1  0.78115000  0.83277000  0.25671000  1.0 0.1045064148
H  H30  1  0.90151000  0.83019000  0.34129000  1.0 0.0812267255
H  H31  1  0.72425000  0.20745000  0.74059000  1.0 0.1405594837
H  H32  1  0.71926000  0.39356000  0.55608000  1.0 0.1226810979
H  H33  1  0.50517000  0.21939000  0.73986000  1.0 0.1226810979
H  H34  1  0.34134000  0.24482000  0.43073000  1.0 0.1405594837
H  H35  1  0.74159000  0.69652000  0.64484000  1.0 0.1226810979
H  H36  1  0.50660000  0.66498000  0.12546000  1.0 0.1226810979
H  H37  1  0.50785000  0.55049000  0.22387000  1.0 0.1226810979
H  H38  1  0.67129000  0.60549000  0.27631000  1.0 0.1134052839
H  H39  1  0.83277000  0.78115000  0.24329000  1.0 0.1045064148
H  H40  1  0.83019000  0.90151000  0.15871000  1.0 0.0812267255
C  C1  1  0.88060000  0.43740000  0.32800000  1.0 0.6479345676
C  C2  1  0.66650000  0.16690000  0.09660000  1.0 0.6096712467
C  C3  1  0.79710000  0.38990000  0.25690000  1.0 -0.0437480124
C  C4  1  0.76380000  0.30420000  0.21690000  1.0 -0.0858941596
C  C5  1  0.68890000  0.25370000  0.14220000  1.0 -0.0094838749
C  C6  1  0.65150000  0.30530000  0.10940000  1.0 -0.1897233013
C  C7  1  0.67760000  0.38240000  0.15040000  1.0 0.1532114413
C  C8  1  0.75460000  0.43080000  0.21810000  1.0 -0.2004250191
C  C9  1  0.67960000  0.50240000  0.05700000  1.0 0.3469387409
C  C10  1  0.63280000  0.53920000  0.99600000  1.0 -0.0526845637
C  C11  1  0.52920000  0.48480000  0.02000000  1.0 -0.1007342707
C  C12  1  0.46110000  0.39090000  0.09100000  1.0 -0.1528884728
C  C13  1  0.52890000  0.36910000  0.13500000  1.0 0.3943880018
C  C14  1  0.68490000  0.62510000  0.94000000  1.0 -0.1157852675
C  C15  1  0.34720000  0.32280000  0.10900000  1.0 -0.1827978339
C  C16  1  0.20400000  0.33200000  0.63500000  1.0 0.046657355
C  C17  1  0.31010000  0.42790000  0.65200000  1.0 -0.0792197861
C  C18  1  0.38050000  0.42750000  0.70800000  1.0 -0.1157852675
C  C19  1  0.34650000  0.32950000  0.74100000  1.0 -0.0221863078
C  C20  1  0.24120000  0.23280000  0.72200000  1.0 -0.0341352891
C  C21  1  0.16960000  0.23440000  0.67000000  1.0 -0.2004250191
C  C22  1  0.12473000  0.33333333  0.57800000  1.0 0.3725710031
C  C23  1  0.43740000  0.88060000  0.17200000  1.0 0.6479345676
C  C24  1  0.16690000  0.66650000  0.40340000  1.0 0.6096712467
C  C25  1  0.38990000  0.79710000  0.24310000  1.0 -0.0437480124
C  C26  1  0.30420000  0.76380000  0.28310000  1.0 -0.0858941596
C  C27  1  0.25370000  0.68890000  0.35780000  1.0 -0.0094838749
C  C28  1  0.30530000  0.65150000  0.39060000  1.0 -0.1897233013
C  C29  1  0.38240000  0.67760000  0.34960000  1.0 0.1532114413
C  C30  1  0.43080000  0.75460000  0.28190000  1.0 -0.2004250191
C  C31  1  0.50240000  0.67960000  0.44300000  1.0 0.3469387409
C  C32  1  0.53920000  0.63280000  0.50400000  1.0 -0.0526845637
C  C33  1  0.48480000  0.52920000  0.48000000  1.0 -0.1007342707
C  C34  1  0.39090000  0.46110000  0.40900000  1.0 -0.1528884728
C  C35  1  0.36910000  0.52890000  0.36500000  1.0 0.3943880018
C  C36  1  0.62510000  0.68490000  0.56000000  1.0 -0.1157852675
C  C37  1  0.32280000  0.34720000  0.39100000  1.0 -0.1827978339
C  C38  1  0.33200000  0.20400000  0.86500000  1.0 0.046657355
C  C39  1  0.42790000  0.31010000  0.84800000  1.0 -0.0792197861
C  C40  1  0.42750000  0.38050000  0.79200000  1.0 -0.1157852675
C  C41  1  0.32950000  0.34650000  0.75900000  1.0 -0.0221863078
C  C42  1  0.23280000  0.24120000  0.77800000  1.0 -0.0341352891
C  C43  1  0.23440000  0.16960000  0.83000000  1.0 -0.2004250191
C  C44  1  0.33333333  0.12473000  0.92200000  1.0 0.3725710031
C  C45  1  0.11940000  0.56260000  0.67200000  1.0 0.6479345676
C  C46  1  0.33350000  0.83310000  0.90340000  1.0 0.6096712467
C  C47  1  0.20290000  0.61010000  0.74310000  1.0 -0.0437480124
C  C48  1  0.23620000  0.69580000  0.78310000  1.0 -0.0858941596
C  C49  1  0.31110000  0.74630000  0.85780000  1.0 -0.0094838749
C  C50  1  0.34850000  0.69470000  0.89060000  1.0 -0.1897233013
C  C51  1  0.32240000  0.61760000  0.84960000  1.0 0.1532114413
C  C52  1  0.24540000  0.56920000  0.78190000  1.0 -0.2004250191
C  C53  1  0.32040000  0.49760000  0.94300000  1.0 0.3469387409
C  C54  1  0.36720000  0.46080000  0.00400000  1.0 -0.0526845637
C  C55  1  0.47080000  0.51520000  0.98000000  1.0 -0.1007342707
C  C56  1  0.53890000  0.60910000  0.90900000  1.0 -0.1528884728
C  C57  1  0.47110000  0.63090000  0.86500000  1.0 0.3943880018
C  C58  1  0.31510000  0.37490000  0.06000000  1.0 -0.1157852675
C  C59  1  0.65280000  0.67720000  0.89100000  1.0 -0.1827978339
C  C60  1  0.79600000  0.66800000  0.36500000  1.0 0.046657355
C  C61  1  0.68990000  0.57210000  0.34800000  1.0 -0.0792197861
C  C62  1  0.61950000  0.57250000  0.29200000  1.0 -0.1157852675
C  C63  1  0.65350000  0.67050000  0.25900000  1.0 -0.0221863078
C  C64  1  0.75880000  0.76720000  0.27800000  1.0 -0.0341352891
C  C65  1  0.83040000  0.76560000  0.33000000  1.0 -0.2004250191
C  C66  1  0.87527000  0.66666667  0.42200000  1.0 0.3725710031
C  C67  1  0.56260000  0.11940000  0.82800000  1.0 0.6479345676
C  C68  1  0.83310000  0.33350000  0.59660000  1.0 0.6096712467
C  C69  1  0.61010000  0.20290000  0.75690000  1.0 -0.0437480124
C  C70  1  0.69580000  0.23620000  0.71690000  1.0 -0.0858941596
C  C71  1  0.74630000  0.31110000  0.64220000  1.0 -0.0094838749
C  C72  1  0.69470000  0.34850000  0.60940000  1.0 -0.1897233013
C  C73  1  0.61760000  0.32240000  0.65040000  1.0 0.1532114413
C  C74  1  0.56920000  0.24540000  0.71810000  1.0 -0.2004250191
C  C75  1  0.49760000  0.32040000  0.55700000  1.0 0.3469387409
C  C76  1  0.46080000  0.36720000  0.49600000  1.0 -0.0526845637
C  C77  1  0.51520000  0.47080000  0.52000000  1.0 -0.1007342707
C  C78  1  0.60910000  0.53890000  0.59100000  1.0 -0.1528884728
C  C79  1  0.63090000  0.47110000  0.63500000  1.0 0.3943880018
C  C80  1  0.37490000  0.31510000  0.44000000  1.0 -0.1157852675
C  C81  1  0.67720000  0.65280000  0.60900000  1.0 -0.1827978339
C  C82  1  0.66800000  0.79600000  0.13500000  1.0 0.046657355
C  C83  1  0.57210000  0.68990000  0.15200000  1.0 -0.0792197861
C  C84  1  0.57250000  0.61950000  0.20800000  1.0 -0.1157852675
C  C85  1  0.67050000  0.65350000  0.24100000  1.0 -0.0221863078
C  C86  1  0.76720000  0.75880000  0.22200000  1.0 -0.0341352891
C  C87  1  0.76560000  0.83040000  0.17000000  1.0 -0.2004250191
C  C88  1  0.66666667  0.87527000  0.07800000  1.0 0.3725710031
N  N1  1  0.62670000  0.41990000  0.11480000  1.0 -0.2327996675
N  N2  1  0.15260000  0.36340000  0.57000000  1.0 0.2606497895
N  N3  1  0.41990000  0.62670000  0.38520000  1.0 -0.2327996675
N  N4  1  0.36340000  0.15260000  0.93000000  1.0 0.2606497895
N  N5  1  0.37330000  0.58010000  0.88520000  1.0 -0.2327996675
N  N6  1  0.84740000  0.63660000  0.43000000  1.0 0.2606497895
N  N7  1  0.58010000  0.37330000  0.61480000  1.0 -0.2327996675
N  N8  1  0.63660000  0.84740000  0.07000000  1.0 0.2606497895
O  O1  1  0.90390000  0.38390000  0.36710000  1.0 -0.6918823007
O  O2  1  0.91000000  0.51920000  0.36590000  1.0 -0.6780961636
O  O3  1  0.72150000  0.14550000  0.09800000  1.0 -0.5606614533
O  O4  1  0.57450000  0.10570000  0.04690000  1.0 -0.7405698482
O  O5  1  0.78310000  0.56090000  0.03330000  1.0 -0.5067526284
O  O6  1  0.48290000  0.29450000  0.19850000  1.0 -0.4567385498
O  O7  1  0.18560000  0.44240000  0.51700000  1.0 -0.1897233013
O  O8  1  0.21940000  0.36460000  0.61500000  1.0 0.0221298602
O  O9  1  0.05400000  0.28600000  0.57600000  1.0 -0.0094838749
O  O10  1  0.16940000  0.40860000  0.51600000  1.0 -0.1007342707
O  O11  1  0.01950000  0.27050000  0.60700000  1.0 -0.1148463595
O  O12  1  0.38390000  0.90390000  0.13290000  1.0 -0.6918823007
O  O13  1  0.51920000  0.91000000  0.13410000  1.0 -0.6780961636
O  O14  1  0.14550000  0.72150000  0.40200000  1.0 -0.5606614533
O  O15  1  0.10570000  0.57450000  0.45310000  1.0 -0.7405698482
O  O16  1  0.56090000  0.78310000  0.46670000  1.0 -0.5067526284
O  O17  1  0.29450000  0.48290000  0.30150000  1.0 -0.4567385498
O  O18  1  0.44240000  0.18560000  0.98300000  1.0 -0.1897233013
O  O19  1  0.36460000  0.21940000  0.88500000  1.0 0.0221298602
O  O20  1  0.28600000  0.05400000  0.92400000  1.0 -0.0094838749
O  O21  1  0.40860000  0.16940000  0.98400000  1.0 -0.1007342707
O  O22  1  0.27050000  0.01950000  0.89300000  1.0 -0.1157852675
O  O23  1  0.09610000  0.61610000  0.63290000  1.0 -0.6918823007
O  O24  1  0.09000000  0.48080000  0.63410000  1.0 -0.6780961636
O  O25  1  0.27850000  0.85450000  0.90200000  1.0 -0.5606614533
O  O26  1  0.42550000  0.89430000  0.95310000  1.0 -0.7405698482
O  O27  1  0.21690000  0.43910000  0.96670000  1.0 -0.5067526284
O  O28  1  0.51710000  0.70550000  0.80150000  1.0 -0.4567385498
O  O29  1  0.81440000  0.55760000  0.48300000  1.0 -0.1897233013
O  O30  1  0.78060000  0.63540000  0.38500000  1.0 0.0221298602
O  O31  1  0.94600000  0.71400000  0.42400000  1.0 -0.0094838749
O  O32  1  0.83060000  0.59140000  0.48400000  1.0 -0.1007342707
O  O33  1  0.98050000  0.72950000  0.39300000  1.0 -0.1157852675
O  O34  1  0.61610000  0.09610000  0.86710000  1.0 -0.6918823007
O  O35  1  0.48080000  0.09000000  0.86590000  1.0 -0.6780961636
O  O36  1  0.85450000  0.27850000  0.59800000  1.0 -0.5606614533
O  O37  1  0.89430000  0.42550000  0.54690000  1.0 -0.7405698482
O  O38  1  0.43910000  0.21690000  0.53330000  1.0 -0.5067526284
O  O39  1  0.70550000  0.51710000  0.69850000  1.0 -0.4567385498
O  O40  1  0.55760000  0.81440000  0.01700000  1.0 -0.1897233013
O  O41  1  0.63540000  0.78060000  0.11500000  1.0 0.0221298602
O  O42  1  0.71400000  0.94600000  0.07600000  1.0 -0.0094838749
O  O43  1  0.59140000  0.83060000  0.01600000  1.0 -0.1007342707
O  O44  1  0.72950000  0.98050000  0.10700000  1.0 -0.1157852675
