# DDEC6 charges by PACMAN v1.1 (https://github.com/mtap-research/PACMAN-charge/)
data_MAZFEC02_ASR_pacman
_symmetry_space_group_name_H-M   'P 1'
_cell_length_a   17.17320000
_cell_length_b   17.17320000
_cell_length_c   14.40000000
_cell_angle_alpha   85.43450000
_cell_angle_beta   94.56550000
_cell_angle_gamma   132.44500000
_symmetry_Int_Tables_number   1
_chemical_formula_structural   NdH10C22N2O11
_chemical_formula_sum   'Nd4 H40 C88 N8 O44'
_cell_volume   3121.96712576
_cell_formula_units_Z   4
loop_
 _symmetry_equiv_pos_site_id
 _symmetry_equiv_pos_as_xyz
  1  'x, y, z'
loop_
 _atom_site_type_symbol
 _atom_site_label
 _atom_site_symmetry_multiplicity
 _atom_site_fract_x
 _atom_site_fract_y
 _atom_site_fract_z
 _atom_site_occupancy
 _atom_site_charge
Nd  Nd1  1  0.38487000  0.00425000  0.50941000  1.0 1.9169401088
Nd  Nd2  1  0.00425000  0.38487000  0.99059000  1.0 1.9109282651
Nd  Nd3  1  0.61513000  0.99575000  0.49059000  1.0 1.9169401088
Nd  Nd4  1  0.99575000  0.61513000  0.00941000  1.0 1.9169401088
H  H1  1  0.26699000  0.78751000  0.76069000  1.0 0.1301205129
H  H2  1  0.26250000  0.59196000  0.93531000  1.0 0.1434123152
H  H3  1  0.48674000  0.76978000  0.74745000  1.0 0.1301205129
H  H4  1  0.65880000  0.75212000  0.06819000  1.0 0.1301205129
H  H5  1  0.28213000  0.32507000  0.85689000  1.0 0.1301205129
H  H6  1  0.50825000  0.34477000  0.38192000  1.0 0.1092546541
H  H7  1  0.50758000  0.45956000  0.28615000  1.0 0.1092546541
H  H8  1  0.34927000  0.40275000  0.22059000  1.0 0.1092546541
H  H9  1  0.19641000  0.22553000  0.23402000  1.0 0.0926405424
H  H10  1  0.19425000  0.11593000  0.34269000  1.0 0.0926405424
H  H11  1  0.78751000  0.26699000  0.73931000  1.0 0.1301205129
H  H12  1  0.59196000  0.26250000  0.56469000  1.0 0.1434123152
H  H13  1  0.76978000  0.48674000  0.75255000  1.0 0.1301205129
H  H14  1  0.75212000  0.65880000  0.43181000  1.0 0.1301205129
H  H15  1  0.32507000  0.28213000  0.64311000  1.0 0.1301205129
H  H16  1  0.34477000  0.50825000  0.11808000  1.0 0.1092546541
H  H17  1  0.45956000  0.50758000  0.21385000  1.0 0.1092546541
H  H18  1  0.40275000  0.34927000  0.27941000  1.0 0.1092546541
H  H19  1  0.22553000  0.19641000  0.26598000  1.0 0.0926405424
H  H20  1  0.11593000  0.19425000  0.15731000  1.0 0.0926405424
H  H21  1  0.73301000  0.21249000  0.23931000  1.0 0.1301205129
H  H22  1  0.73750000  0.40804000  0.06469000  1.0 0.1434123152
H  H23  1  0.51326000  0.23022000  0.25255000  1.0 0.1301205129
H  H24  1  0.34120000  0.24788000  0.93181000  1.0 0.1301205129
H  H25  1  0.71787000  0.67493000  0.14311000  1.0 0.1301205129
H  H26  1  0.49175000  0.65523000  0.61808000  1.0 0.1092546541
H  H27  1  0.49242000  0.54044000  0.71385000  1.0 0.1092546541
H  H28  1  0.65073000  0.59725000  0.77941000  1.0 0.1092546541
H  H29  1  0.80359000  0.77447000  0.76598000  1.0 0.0926405424
H  H30  1  0.80575000  0.88407000  0.65731000  1.0 0.0926405424
H  H31  1  0.21249000  0.73301000  0.26069000  1.0 0.1301205129
H  H32  1  0.40804000  0.73750000  0.43531000  1.0 0.1434123152
H  H33  1  0.23022000  0.51326000  0.24745000  1.0 0.1301205129
H  H34  1  0.24788000  0.34120000  0.56819000  1.0 0.1301205129
H  H35  1  0.67493000  0.71787000  0.35689000  1.0 0.1301205129
H  H36  1  0.65523000  0.49175000  0.88192000  1.0 0.1092546541
H  H37  1  0.54044000  0.49242000  0.78615000  1.0 0.1092546541
H  H38  1  0.59725000  0.65073000  0.72059000  1.0 0.1092546541
H  H39  1  0.77447000  0.80359000  0.73402000  1.0 0.0926405424
H  H40  1  0.88407000  0.80575000  0.84269000  1.0 0.0926405424
C  C1  1  0.42990000  0.86930000  0.66100000  1.0 0.6456306437
C  C2  1  0.15820000  0.65520000  0.90090000  1.0 0.6185861686
C  C3  1  0.38380000  0.79060000  0.73960000  1.0 -0.0166653244
C  C4  1  0.29540000  0.75840000  0.78210000  1.0 -0.0864605876
C  C5  1  0.24930000  0.68510000  0.85440000  1.0 -0.0166653244
C  C6  1  0.29280000  0.64180000  0.88620000  1.0 -0.1509352709
C  C7  1  0.37910000  0.67230000  0.84550000  1.0 0.1694730156
C  C8  1  0.42640000  0.74780000  0.77330000  1.0 -0.1720337766
C  C9  1  0.50730000  0.68390000  0.94370000  1.0 0.4415208905
C  C10  1  0.54180000  0.63160000  0.99520000  1.0 -0.0589071001
C  C11  1  0.48430000  0.52510000  0.97650000  1.0 -0.0166653244
C  C12  1  0.39810000  0.46830000  0.91060000  1.0 -0.0864605876
C  C13  1  0.36550000  0.52150000  0.85980000  1.0 0.4415208905
C  C14  1  0.62340000  0.68240000  0.05640000  1.0 -0.0815789709
C  C15  1  0.34170000  0.36390000  0.89660000  1.0 -0.0987359202
C  C16  1  0.35280000  0.21640000  0.36510000  1.0 -0.1159969467
C  C17  1  0.44560000  0.32100000  0.35260000  1.0 -0.011972849
C  C18  1  0.44500000  0.39020000  0.29640000  1.0 -0.1720337766
C  C19  1  0.35050000  0.35570000  0.25600000  1.0 -0.0589071001
C  C20  1  0.25800000  0.25060000  0.26700000  1.0 -0.0524520475
C  C21  1  0.25760000  0.18300000  0.32700000  1.0 -0.0696426696
C  C22  1  0.35390000  0.13950000  0.42500000  1.0 0.4869432905
C  C23  1  0.86930000  0.42990000  0.83900000  1.0 0.6456306437
C  C24  1  0.65520000  0.15820000  0.59910000  1.0 0.6185861686
C  C25  1  0.79060000  0.38380000  0.76040000  1.0 -0.0166653244
C  C26  1  0.75840000  0.29540000  0.71790000  1.0 -0.0864605876
C  C27  1  0.68510000  0.24930000  0.64560000  1.0 -0.0166653244
C  C28  1  0.64180000  0.29280000  0.61380000  1.0 -0.1509352709
C  C29  1  0.67230000  0.37910000  0.65450000  1.0 0.1694730156
C  C30  1  0.74780000  0.42640000  0.72670000  1.0 -0.1720337766
C  C31  1  0.68390000  0.50730000  0.55630000  1.0 0.4415208905
C  C32  1  0.63160000  0.54180000  0.50480000  1.0 -0.0589071001
C  C33  1  0.52510000  0.48430000  0.52350000  1.0 -0.0166653244
C  C34  1  0.46830000  0.39810000  0.58940000  1.0 -0.0864605876
C  C35  1  0.52150000  0.36550000  0.64020000  1.0 0.4415208905
C  C36  1  0.68240000  0.62340000  0.44360000  1.0 -0.0815789709
C  C37  1  0.36390000  0.34170000  0.60340000  1.0 -0.0987359202
C  C38  1  0.21640000  0.35280000  0.13490000  1.0 -0.1159969467
C  C39  1  0.32100000  0.44560000  0.14740000  1.0 -0.011972849
C  C40  1  0.39020000  0.44500000  0.20360000  1.0 -0.1720337766
C  C41  1  0.35570000  0.35050000  0.24400000  1.0 -0.0589071001
C  C42  1  0.25060000  0.25800000  0.23300000  1.0 -0.0524520475
C  C43  1  0.18300000  0.25760000  0.17300000  1.0 -0.0696426696
C  C44  1  0.13950000  0.35390000  0.07500000  1.0 0.4869432905
C  C45  1  0.57010000  0.13070000  0.33900000  1.0 0.6456306437
C  C46  1  0.84180000  0.34480000  0.09910000  1.0 0.6185861686
C  C47  1  0.61620000  0.20940000  0.26040000  1.0 -0.0166653244
C  C48  1  0.70460000  0.24160000  0.21790000  1.0 -0.0864605876
C  C49  1  0.75070000  0.31490000  0.14560000  1.0 -0.0166653244
C  C50  1  0.70720000  0.35820000  0.11380000  1.0 -0.1509352709
C  C51  1  0.62090000  0.32770000  0.15450000  1.0 0.1694730156
C  C52  1  0.57360000  0.25220000  0.22670000  1.0 -0.1720337766
C  C53  1  0.49270000  0.31610000  0.05630000  1.0 0.4349478641
C  C54  1  0.45820000  0.36840000  0.00480000  1.0 -0.0589071001
C  C55  1  0.51570000  0.47490000  0.02350000  1.0 -0.011972849
C  C56  1  0.60190000  0.53170000  0.08940000  1.0 -0.0864605876
C  C57  1  0.63450000  0.47850000  0.14020000  1.0 0.4415208905
C  C58  1  0.37660000  0.31760000  0.94360000  1.0 -0.0815789709
C  C59  1  0.65830000  0.63610000  0.10340000  1.0 -0.0987359202
C  C60  1  0.64720000  0.78360000  0.63490000  1.0 -0.1159969467
C  C61  1  0.55440000  0.67900000  0.64740000  1.0 -0.011972849
C  C62  1  0.55500000  0.60980000  0.70360000  1.0 -0.1720337766
C  C63  1  0.64950000  0.64430000  0.74400000  1.0 -0.0589071001
C  C64  1  0.74200000  0.74940000  0.73300000  1.0 -0.0524520475
C  C65  1  0.74240000  0.81700000  0.67300000  1.0 -0.0696426696
C  C66  1  0.64610000  0.86050000  0.57500000  1.0 0.4869432905
C  C67  1  0.13070000  0.57010000  0.16100000  1.0 0.6456306437
C  C68  1  0.34480000  0.84180000  0.40090000  1.0 0.6185861686
C  C69  1  0.20940000  0.61620000  0.23960000  1.0 -0.0166653244
C  C70  1  0.24160000  0.70460000  0.28210000  1.0 -0.0864605876
C  C71  1  0.31490000  0.75070000  0.35440000  1.0 -0.0166653244
C  C72  1  0.35820000  0.70720000  0.38620000  1.0 -0.1509352709
C  C73  1  0.32770000  0.62090000  0.34550000  1.0 0.1694730156
C  C74  1  0.25220000  0.57360000  0.27330000  1.0 -0.1720337766
C  C75  1  0.31610000  0.49270000  0.44370000  1.0 0.4349478641
C  C76  1  0.36840000  0.45820000  0.49520000  1.0 -0.0589071001
C  C77  1  0.47490000  0.51570000  0.47650000  1.0 -0.0166653244
C  C78  1  0.53170000  0.60190000  0.41060000  1.0 -0.0864605876
C  C79  1  0.47850000  0.63450000  0.35980000  1.0 0.4415208905
C  C80  1  0.31760000  0.37660000  0.55640000  1.0 -0.0815789709
C  C81  1  0.63610000  0.65830000  0.39660000  1.0 -0.0987359202
C  C82  1  0.78360000  0.64720000  0.86510000  1.0 -0.1159969467
C  C83  1  0.67900000  0.55440000  0.85260000  1.0 -0.011972849
C  C84  1  0.60980000  0.55500000  0.79640000  1.0 -0.1720337766
C  C85  1  0.64430000  0.64950000  0.75600000  1.0 -0.0589071001
C  C86  1  0.74940000  0.74200000  0.76700000  1.0 -0.0524520475
C  C87  1  0.81700000  0.74240000  0.82700000  1.0 -0.0696426696
C  C88  1  0.86050000  0.64610000  0.92500000  1.0 0.4869432905
N  N1  1  0.42131000  0.62569000  0.88320000  1.0 -0.2508621468
N  N2  1  0.35730000  0.14810000  0.43240000  1.0 0.551302568
N  N3  1  0.62569000  0.42131000  0.61680000  1.0 -0.2508621468
N  N4  1  0.14810000  0.35730000  0.06760000  1.0 0.551302568
N  N5  1  0.57869000  0.37431000  0.11680000  1.0 -0.2508621468
N  N6  1  0.64270000  0.85190000  0.56760000  1.0 0.551302568
N  N7  1  0.37431000  0.57869000  0.38320000  1.0 -0.2508621468
N  N8  1  0.85190000  0.64270000  0.93240000  1.0 0.551302568
O  O1  1  0.37825000  0.89355000  0.62750000  1.0 -0.6702891878
O  O2  1  0.51560000  0.90500000  0.63080000  1.0 -0.6556717148
O  O3  1  0.14072000  0.71448000  0.89670000  1.0 -0.5829342297
O  O4  1  0.10088000  0.56872000  0.94760000  1.0 -0.7156997761
O  O5  1  0.55310000  0.77530000  0.95700000  1.0 -0.3738014838
O  O6  1  0.29360000  0.47860000  0.80410000  1.0 -0.3426615885
O  O7  1  0.43250000  0.17830000  0.48700000  1.0 -0.4967082059
O  O8  1  0.35770000  0.21390000  0.38800000  1.0 -0.1509352709
O  O9  1  0.28130000  0.05130000  0.42400000  1.0 -0.2259938596
O  O10  1  0.29350000  0.04450000  0.40100000  1.0 -0.2839509538
O  O11  1  0.42460000  0.18340000  0.48900000  1.0 -0.4296186409
O  O12  1  0.89355000  0.37825000  0.87250000  1.0 -0.6702891878
O  O13  1  0.90500000  0.51560000  0.86920000  1.0 -0.6556717148
O  O14  1  0.71448000  0.14072000  0.60330000  1.0 -0.5829342297
O  O15  1  0.56872000  0.10088000  0.55240000  1.0 -0.7156997761
O  O16  1  0.77530000  0.55310000  0.54300000  1.0 -0.3738014838
O  O17  1  0.47860000  0.29360000  0.69590000  1.0 -0.3426615885
O  O18  1  0.17830000  0.43250000  0.01300000  1.0 -0.4967082059
O  O19  1  0.21390000  0.35770000  0.11200000  1.0 -0.1509352709
O  O20  1  0.05130000  0.28130000  0.07600000  1.0 -0.2259938596
O  O21  1  0.04450000  0.29350000  0.09900000  1.0 -0.2839509538
O  O22  1  0.18340000  0.42460000  0.01100000  1.0 -0.4296186409
O  O23  1  0.62175000  0.10645000  0.37250000  1.0 -0.6702891878
O  O24  1  0.48440000  0.09500000  0.36920000  1.0 -0.6556717148
O  O25  1  0.85928000  0.28552000  0.10330000  1.0 -0.5829342297
O  O26  1  0.89912000  0.43128000  0.05240000  1.0 -0.7156997761
O  O27  1  0.44690000  0.22470000  0.04300000  1.0 -0.3738014838
O  O28  1  0.70640000  0.52140000  0.19590000  1.0 -0.3426615885
O  O29  1  0.56750000  0.82170000  0.51300000  1.0 -0.4967082059
O  O30  1  0.64230000  0.78610000  0.61200000  1.0 -0.1509352709
O  O31  1  0.71870000  0.94870000  0.57600000  1.0 -0.2259938596
O  O32  1  0.70650000  0.95550000  0.59900000  1.0 -0.2839509538
O  O33  1  0.57540000  0.81660000  0.51100000  1.0 -0.4296186409
O  O34  1  0.10645000  0.62175000  0.12750000  1.0 -0.6702891878
O  O35  1  0.09500000  0.48440000  0.13080000  1.0 -0.6556717148
O  O36  1  0.28552000  0.85928000  0.39670000  1.0 -0.5829342297
O  O37  1  0.43128000  0.89912000  0.44760000  1.0 -0.7156997761
O  O38  1  0.22470000  0.44690000  0.45700000  1.0 -0.3738014838
O  O39  1  0.52140000  0.70640000  0.30410000  1.0 -0.3426615885
O  O40  1  0.82170000  0.56750000  0.98700000  1.0 -0.4967082059
O  O41  1  0.78610000  0.64230000  0.88800000  1.0 -0.1509352709
O  O42  1  0.94870000  0.71870000  0.92400000  1.0 -0.2259938596
O  O43  1  0.95550000  0.70650000  0.90100000  1.0 -0.2839509538
O  O44  1  0.81660000  0.57540000  0.98900000  1.0 -0.4296186409
