# DDEC6 charges by PACMAN v1.1 (https://github.com/mtap-research/PACMAN-charge/)
data_MAZFOM_ASR_pacman
_symmetry_space_group_name_H-M   'P 1'
_cell_length_a   16.61130000
_cell_length_b   16.61130000
_cell_length_c   14.65400000
_cell_angle_alpha   87.24670000
_cell_angle_beta   92.75330000
_cell_angle_gamma   133.22400000
_symmetry_Int_Tables_number   1
_chemical_formula_structural   NdH24C29N4O15
_chemical_formula_sum   'Nd4 H96 C116 N16 O60'
_cell_volume   2942.42755040
_cell_formula_units_Z   4
loop_
 _symmetry_equiv_pos_site_id
 _symmetry_equiv_pos_as_xyz
  1  'x, y, z'
loop_
 _atom_site_type_symbol
 _atom_site_label
 _atom_site_symmetry_multiplicity
 _atom_site_fract_x
 _atom_site_fract_y
 _atom_site_fract_z
 _atom_site_occupancy
 _atom_site_charge
Nd  Nd1  1  0.49429000  0.11799000  0.51726000  1.0 1.5510607036
Nd  Nd2  1  0.11799000  0.49429000  0.98274000  1.0 1.5510607036
Nd  Nd3  1  0.50571000  0.88201000  0.48274000  1.0 1.5510607036
Nd  Nd4  1  0.88201000  0.50571000  0.01726000  1.0 1.5510607036
H  H1  1  0.28813000  0.76395000  0.24650000  1.0 0.1008932865
H  H2  1  0.10064000  0.76792000  0.06347000  1.0 0.1115186944
H  H3  1  0.25597000  0.98277000  0.27046000  1.0 0.1115186944
H  H4  1  0.26629000  0.15813000  0.92901000  1.0 0.1312050568
H  H5  1  0.81890000  0.79280000  0.15747000  1.0 0.1211701138
H  H6  1  0.54817000  0.21511000  0.73064000  1.0 0.1008932865
H  H7  1  0.55335000  0.25921000  0.88166000  1.0 0.0895458111
H  H8  1  0.45854000  0.16392000  0.94956000  1.0 0.0706383626
H  H9  1  0.55481000  0.16949000  0.92373000  1.0 0.0596360536
H  H10  1  0.35617000  0.95225000  0.86524000  1.0 0.0895458111
H  H11  1  0.29789000  0.99437000  0.89130000  1.0 0.1008932865
H  H12  1  0.29017000  0.96067000  0.78855000  1.0 0.0895458111
H  H13  1  0.14955000  0.99827000  0.38424000  1.0 0.1008932865
H  H14  1  0.04139000  0.00033000  0.27874000  1.0 0.1115186944
H  H15  1  0.10973000  0.16763000  0.21475000  1.0 0.1008932865
H  H16  1  0.29436000  0.32776000  0.23874000  1.0 0.1008932865
H  H17  1  0.40264000  0.32652000  0.34550000  1.0 0.1008932865
H  H18  1  0.43494000  0.20526000  0.68364000  1.0 0.1312050568
H  H19  1  0.47604000  0.30620000  0.81258000  1.0 0.0895458111
H  H20  1  0.44530000  0.24070000  0.90800000  1.0 0.0895458111
H  H21  1  0.57111000  0.33029000  0.87657000  1.0 0.0895458111
H  H22  1  0.55643000  0.15639000  0.89283000  1.0 0.0706383626
H  H23  1  0.42680000  0.07394000  0.91066000  1.0 0.0706383626
H  H24  1  0.46935000  0.05929000  0.82302000  1.0 0.1008932865
H  H25  1  0.76395000  0.28813000  0.25350000  1.0 0.1008932865
H  H26  1  0.76792000  0.10064000  0.43653000  1.0 0.1115186944
H  H27  1  0.98277000  0.25597000  0.22954000  1.0 0.1115186944
H  H28  1  0.15813000  0.26629000  0.57099000  1.0 0.1312050568
H  H29  1  0.79280000  0.81890000  0.34253000  1.0 0.1211701138
H  H30  1  0.21511000  0.54817000  0.76936000  1.0 0.1008932865
H  H31  1  0.25921000  0.55335000  0.61834000  1.0 0.0895458111
H  H32  1  0.16392000  0.45854000  0.55044000  1.0 0.0706383626
H  H33  1  0.16949000  0.55481000  0.57627000  1.0 0.0596360536
H  H34  1  0.95225000  0.35617000  0.63476000  1.0 0.0895458111
H  H35  1  0.99437000  0.29789000  0.60870000  1.0 0.1008932865
H  H36  1  0.96067000  0.29017000  0.71145000  1.0 0.0895458111
H  H37  1  0.99827000  0.14955000  0.11576000  1.0 0.1008932865
H  H38  1  0.00033000  0.04139000  0.22126000  1.0 0.1115186944
H  H39  1  0.16763000  0.10973000  0.28525000  1.0 0.1008932865
H  H40  1  0.32776000  0.29436000  0.26126000  1.0 0.1008932865
H  H41  1  0.32652000  0.40264000  0.15450000  1.0 0.1008932865
H  H42  1  0.20526000  0.43494000  0.81636000  1.0 0.1312050568
H  H43  1  0.30620000  0.47604000  0.68742000  1.0 0.0895458111
H  H44  1  0.24070000  0.44530000  0.59200000  1.0 0.0895458111
H  H45  1  0.33029000  0.57111000  0.62343000  1.0 0.0895458111
H  H46  1  0.15639000  0.55643000  0.60717000  1.0 0.0706383626
H  H47  1  0.07394000  0.42680000  0.58934000  1.0 0.0706383626
H  H48  1  0.05929000  0.46935000  0.67698000  1.0 0.1008932865
H  H49  1  0.71187000  0.23605000  0.75350000  1.0 0.1008932865
H  H50  1  0.89936000  0.23208000  0.93653000  1.0 0.1115186944
H  H51  1  0.74403000  0.01723000  0.72954000  1.0 0.1115186944
H  H52  1  0.73371000  0.84187000  0.07099000  1.0 0.1312050568
H  H53  1  0.18110000  0.20720000  0.84253000  1.0 0.1211701138
H  H54  1  0.45183000  0.78489000  0.26936000  1.0 0.1008932865
H  H55  1  0.44665000  0.74079000  0.11834000  1.0 0.0895458111
H  H56  1  0.54146000  0.83608000  0.05044000  1.0 0.0706383626
H  H57  1  0.44519000  0.83051000  0.07627000  1.0 0.0596360536
H  H58  1  0.64383000  0.04775000  0.13476000  1.0 0.0895458111
H  H59  1  0.70211000  0.00563000  0.10870000  1.0 0.1008932865
H  H60  1  0.70983000  0.03933000  0.21145000  1.0 0.0895458111
H  H61  1  0.85045000  0.00173000  0.61576000  1.0 0.1008932865
H  H62  1  0.95861000  0.99967000  0.72126000  1.0 0.1115186944
H  H63  1  0.89027000  0.83237000  0.78525000  1.0 0.1008932865
H  H64  1  0.70564000  0.67224000  0.76126000  1.0 0.1008932865
H  H65  1  0.59736000  0.67348000  0.65450000  1.0 0.1008932865
H  H66  1  0.56506000  0.79474000  0.31636000  1.0 0.1312050568
H  H67  1  0.52396000  0.69380000  0.18742000  1.0 0.0895458111
H  H68  1  0.55470000  0.75930000  0.09200000  1.0 0.0895458111
H  H69  1  0.42889000  0.66971000  0.12343000  1.0 0.0895458111
H  H70  1  0.44357000  0.84361000  0.10717000  1.0 0.0706383626
H  H71  1  0.57320000  0.92606000  0.08934000  1.0 0.0706383626
H  H72  1  0.53065000  0.94071000  0.17698000  1.0 0.1008932865
H  H73  1  0.23605000  0.71187000  0.74650000  1.0 0.1008932865
H  H74  1  0.23208000  0.89936000  0.56347000  1.0 0.1115186944
H  H75  1  0.01723000  0.74403000  0.77046000  1.0 0.1115186944
H  H76  1  0.84187000  0.73371000  0.42901000  1.0 0.1312050568
H  H77  1  0.20720000  0.18110000  0.65747000  1.0 0.1211701138
H  H78  1  0.78489000  0.45183000  0.23064000  1.0 0.1008932865
H  H79  1  0.74079000  0.44665000  0.38166000  1.0 0.0895458111
H  H80  1  0.83608000  0.54146000  0.44956000  1.0 0.0706383626
H  H81  1  0.83051000  0.44519000  0.42373000  1.0 0.0596360536
H  H82  1  0.04775000  0.64383000  0.36524000  1.0 0.0895458111
H  H83  1  0.00563000  0.70211000  0.39130000  1.0 0.1008932865
H  H84  1  0.03933000  0.70983000  0.28855000  1.0 0.0895458111
H  H85  1  0.00173000  0.85045000  0.88424000  1.0 0.1008932865
H  H86  1  0.99967000  0.95861000  0.77874000  1.0 0.1115186944
H  H87  1  0.83237000  0.89027000  0.71475000  1.0 0.1008932865
H  H88  1  0.67224000  0.70564000  0.73874000  1.0 0.1008932865
H  H89  1  0.67348000  0.59736000  0.84550000  1.0 0.1008932865
H  H90  1  0.79474000  0.56506000  0.18364000  1.0 0.1312050568
H  H91  1  0.69380000  0.52396000  0.31258000  1.0 0.0895458111
H  H92  1  0.75930000  0.55470000  0.40800000  1.0 0.1008932865
H  H93  1  0.66971000  0.42889000  0.37657000  1.0 0.0895458111
H  H94  1  0.84361000  0.44357000  0.39283000  1.0 0.0706383626
H  H95  1  0.92606000  0.57320000  0.41066000  1.0 0.0706383626
H  H96  1  0.94071000  0.53065000  0.32302000  1.0 0.1008932865
C  C1  1  0.37930000  0.93870000  0.33740000  1.0 0.3194007771
C  C2  1  0.16066000  0.65694000  0.09980000  1.0 0.461430517
C  C3  1  0.28014000  0.87666000  0.27120000  1.0 0.0043958062
C  C4  1  0.25721000  0.79299000  0.22540000  1.0 -0.2220164603
C  C5  1  0.18915000  0.75045000  0.14830000  1.0 0.0065451783
C  C6  1  0.14687000  0.79593000  0.11670000  1.0 -0.2421628086
C  C7  1  0.17184000  0.88076000  0.16220000  1.0 0.1739982623
C  C8  1  0.23861000  0.92339000  0.23950000  1.0 -0.258694285
C  C9  1  0.19024000  0.00996000  0.05810000  1.0 0.4079796495
C  C10  1  0.13626000  0.04154000  0.00620000  1.0 -0.0984490337
C  C11  1  0.02597000  0.98563000  0.02570000  1.0 -0.0069459647
C  C12  1  0.96477000  0.90143000  0.09480000  1.0 -0.0984490337
C  C13  1  0.01869000  0.87091000  0.14880000  1.0 0.3828815343
C  C14  1  0.19200000  0.12140000  0.94050000  1.0 -0.1434016852
C  C15  1  0.85880000  0.84900000  0.11140000  1.0 -0.1645253776
C  C16  1  0.47320000  0.14740000  0.73570000  1.0 0.1739982623
C  C17  1  0.50730000  0.18170000  0.90090000  1.0 -0.1079086868
C  C18  1  0.33730000  0.99450000  0.84360000  1.0 -0.3496550573
C  C19  1  0.32860000  0.90120000  0.37350000  1.0 0.328950149
C  C20  1  0.36630000  0.16250000  0.44220000  1.0 0.454629329
C  C21  1  0.28680000  0.16100000  0.37310000  1.0 0.1515048416
C  C22  1  0.17950000  0.06570000  0.35460000  1.0 -0.1991152102
C  C23  1  0.11440000  0.06720000  0.29330000  1.0 -0.1079086868
C  C24  1  0.15580000  0.16560000  0.25350000  1.0 -0.0848078309
C  C25  1  0.26420000  0.26100000  0.26990000  1.0 -0.0243294751
C  C26  1  0.32930000  0.25990000  0.33160000  1.0 -0.1991152102
C  C27  1  0.45650000  0.17190000  0.71700000  1.0 0.1739982623
C  C28  1  0.49410000  0.27310000  0.85550000  1.0 -0.2976203887
C  C29  1  0.48310000  0.11290000  0.86360000  1.0 -0.0243294751
C  C30  1  0.93870000  0.37930000  0.16260000  1.0 0.3194007771
C  C31  1  0.65694000  0.16066000  0.40020000  1.0 0.461430517
C  C32  1  0.87666000  0.28014000  0.22880000  1.0 0.0065451783
C  C33  1  0.79299000  0.25721000  0.27460000  1.0 -0.2220164603
C  C34  1  0.75045000  0.18915000  0.35170000  1.0 0.0065451783
C  C35  1  0.79593000  0.14687000  0.38330000  1.0 -0.2421628086
C  C36  1  0.88076000  0.17184000  0.33780000  1.0 0.1739982623
C  C37  1  0.92339000  0.23861000  0.26050000  1.0 -0.248702812
C  C38  1  0.00996000  0.19024000  0.44190000  1.0 0.4079796495
C  C39  1  0.04154000  0.13626000  0.49380000  1.0 -0.0984490337
C  C40  1  0.98563000  0.02597000  0.47430000  1.0 -0.0033080549
C  C41  1  0.90143000  0.96477000  0.40520000  1.0 -0.1079086868
C  C42  1  0.87091000  0.01869000  0.35120000  1.0 0.3828815343
C  C43  1  0.12140000  0.19200000  0.55950000  1.0 -0.1434016852
C  C44  1  0.84900000  0.85880000  0.38860000  1.0 -0.1645253776
C  C45  1  0.14740000  0.47320000  0.76430000  1.0 0.1739982623
C  C46  1  0.18170000  0.50730000  0.59910000  1.0 -0.1079086868
C  C47  1  0.99450000  0.33730000  0.65640000  1.0 -0.3496550573
C  C48  1  0.90120000  0.32860000  0.12650000  1.0 0.328950149
C  C49  1  0.16250000  0.36630000  0.05780000  1.0 0.454629329
C  C50  1  0.16100000  0.28680000  0.12690000  1.0 0.1515048416
C  C51  1  0.06570000  0.17950000  0.14540000  1.0 -0.1991152102
C  C52  1  0.06720000  0.11440000  0.20670000  1.0 -0.1079086868
C  C53  1  0.16560000  0.15580000  0.24650000  1.0 -0.0848078309
C  C54  1  0.26100000  0.26420000  0.23010000  1.0 -0.0243294751
C  C55  1  0.25990000  0.32930000  0.16840000  1.0 -0.1991152102
C  C56  1  0.17190000  0.45650000  0.78300000  1.0 0.1739982623
C  C57  1  0.27310000  0.49410000  0.64450000  1.0 -0.2976203887
C  C58  1  0.11290000  0.48310000  0.63640000  1.0 -0.0253483346
C  C59  1  0.62070000  0.06130000  0.66260000  1.0 0.3194007771
C  C60  1  0.83934000  0.34306000  0.90020000  1.0 0.461430517
C  C61  1  0.71986000  0.12334000  0.72880000  1.0 0.0065451783
C  C62  1  0.74279000  0.20701000  0.77460000  1.0 -0.2220164603
C  C63  1  0.81085000  0.24955000  0.85170000  1.0 0.0065451783
C  C64  1  0.85313000  0.20407000  0.88330000  1.0 -0.2421628086
C  C65  1  0.82816000  0.11924000  0.83780000  1.0 0.1739982623
C  C66  1  0.76139000  0.07661000  0.76050000  1.0 -0.258694285
C  C67  1  0.80976000  0.99004000  0.94190000  1.0 0.4079796495
C  C68  1  0.86374000  0.95846000  0.99380000  1.0 -0.0984490337
C  C69  1  0.97403000  0.01437000  0.97430000  1.0 -0.0033080549
C  C70  1  0.03523000  0.09857000  0.90520000  1.0 -0.1079086868
C  C71  1  0.98131000  0.12909000  0.85120000  1.0 0.3828815343
C  C72  1  0.80800000  0.87860000  0.05950000  1.0 -0.1434016852
C  C73  1  0.14120000  0.15100000  0.88860000  1.0 -0.1645253776
C  C74  1  0.52680000  0.85260000  0.26430000  1.0 0.1739982623
C  C75  1  0.49270000  0.81830000  0.09910000  1.0 -0.1079086868
C  C76  1  0.66270000  0.00550000  0.15640000  1.0 -0.3496550573
C  C77  1  0.67140000  0.09880000  0.62650000  1.0 0.328950149
C  C78  1  0.63370000  0.83750000  0.55780000  1.0 0.461430517
C  C79  1  0.71320000  0.83900000  0.62690000  1.0 0.1515048416
C  C80  1  0.82050000  0.93430000  0.64540000  1.0 -0.1991152102
C  C81  1  0.88560000  0.93280000  0.70670000  1.0 -0.1079086868
C  C82  1  0.84420000  0.83440000  0.74650000  1.0 -0.0879990412
C  C83  1  0.73580000  0.73900000  0.73010000  1.0 -0.0243294751
C  C84  1  0.67070000  0.74010000  0.66840000  1.0 -0.1991152102
C  C85  1  0.54350000  0.82810000  0.28300000  1.0 0.1754312189
C  C86  1  0.50590000  0.72690000  0.14450000  1.0 -0.2976203887
C  C87  1  0.51690000  0.88710000  0.13640000  1.0 -0.0253483346
C  C88  1  0.06130000  0.62070000  0.83740000  1.0 0.3194007771
C  C89  1  0.34306000  0.83934000  0.59980000  1.0 0.461430517
C  C90  1  0.12334000  0.71986000  0.77120000  1.0 0.0043958062
C  C91  1  0.20701000  0.74279000  0.72540000  1.0 -0.2220164603
C  C92  1  0.24955000  0.81085000  0.64830000  1.0 0.0065451783
C  C93  1  0.20407000  0.85313000  0.61670000  1.0 -0.2421628086
C  C94  1  0.11924000  0.82816000  0.66220000  1.0 0.1739982623
C  C95  1  0.07661000  0.76139000  0.73950000  1.0 -0.258694285
C  C96  1  0.99004000  0.80976000  0.55810000  1.0 0.4079796495
C  C97  1  0.95846000  0.86374000  0.50620000  1.0 -0.0879990412
C  C98  1  0.01437000  0.97403000  0.52570000  1.0 -0.0069459647
C  C99  1  0.09857000  0.03523000  0.59480000  1.0 -0.1079086868
C  C100  1  0.12909000  0.98131000  0.64880000  1.0 0.3828815343
C  C101  1  0.87860000  0.80800000  0.44050000  1.0 -0.1434016852
C  C102  1  0.15100000  0.14120000  0.61140000  1.0 -0.1645253776
C  C103  1  0.85260000  0.52680000  0.23570000  1.0 0.1739982623
C  C104  1  0.81830000  0.49270000  0.40090000  1.0 -0.1079086868
C  C105  1  0.00550000  0.66270000  0.34360000  1.0 -0.3496550573
C  C106  1  0.09880000  0.67140000  0.87350000  1.0 0.328950149
C  C107  1  0.83750000  0.63370000  0.94220000  1.0 0.461430517
C  C108  1  0.83900000  0.71320000  0.87310000  1.0 0.1515048416
C  C109  1  0.93430000  0.82050000  0.85460000  1.0 -0.1991152102
C  C110  1  0.93280000  0.88560000  0.79330000  1.0 -0.1079086868
C  C111  1  0.83440000  0.84420000  0.75350000  1.0 -0.0879990412
C  C112  1  0.73900000  0.73580000  0.76990000  1.0 -0.0243294751
C  C113  1  0.74010000  0.67070000  0.83160000  1.0 -0.1991152102
C  C114  1  0.82810000  0.54350000  0.21700000  1.0 0.1739982623
C  C115  1  0.72690000  0.50590000  0.35550000  1.0 -0.2976203887
C  C116  1  0.88710000  0.51690000  0.36360000  1.0 -0.0243294751
N  N1  1  0.12734000  0.92626000  0.12410000  1.0 -0.3496550573
N  N2  1  0.43980000  0.10960000  0.82200000  1.0 0.1211701138
N  N3  1  0.34760000  0.14920000  0.45000000  1.0 0.370880668
N  N4  1  0.47890000  0.18750000  0.81010000  1.0 0.081872656
N  N5  1  0.92626000  0.12734000  0.37590000  1.0 -0.3496550573
N  N6  1  0.10960000  0.43980000  0.67800000  1.0 0.1211701138
N  N7  1  0.14920000  0.34760000  0.05000000  1.0 0.370880668
N  N8  1  0.18750000  0.47890000  0.68990000  1.0 0.081872656
N  N9  1  0.87266000  0.07374000  0.87590000  1.0 -0.3496550573
N  N10  1  0.56020000  0.89040000  0.17800000  1.0 0.1211701138
N  N11  1  0.65240000  0.85080000  0.55000000  1.0 0.370880668
N  N12  1  0.52110000  0.81250000  0.18990000  1.0 0.081872656
N  N13  1  0.07374000  0.87266000  0.62410000  1.0 -0.3496550573
N  N14  1  0.89040000  0.56020000  0.32200000  1.0 0.1211701138
N  N15  1  0.85080000  0.65240000  0.95000000  1.0 0.370880668
N  N16  1  0.81250000  0.52110000  0.31010000  1.0 0.081872656
O  O1  1  0.41100000  0.02540000  0.37030000  1.0 -0.248702812
O  O2  1  0.40240000  0.88220000  0.36410000  1.0 -0.3064300048
O  O3  1  0.22585000  0.64375000  0.10060000  1.0 -0.5404000012
O  O4  1  0.06884000  0.59336000  0.05760000  1.0 -0.6564825503
O  O5  1  0.28292000  0.05228000  0.04560000  1.0 -0.4100531331
O  O6  1  0.97163000  0.80117000  0.21040000  1.0 -0.4564767434
O  O7  1  0.42390000  0.10950000  0.66400000  1.0 -0.1079086868
O  O8  1  0.44410000  0.21870000  0.43730000  1.0 -0.2919916539
O  O9  1  0.30510000  0.06230000  0.48570000  1.0 -0.1883948076
O  O10  1  0.28680000  0.15820000  0.41830000  1.0 -0.0033080549
O  O11  1  0.35650000  0.98430000  0.40940000  1.0 -0.2714241473
O  O12  1  0.35240000  0.84900000  0.40280000  1.0 -0.2714241473
O  O13  1  0.33440000  0.10400000  0.52780000  1.0 -0.2421628086
O  O14  1  0.46490000  0.11390000  0.67830000  1.0 -0.1253950922
O  O15  1  0.46160000  0.22100000  0.42100000  1.0 -0.4100531331
O  O16  1  0.02540000  0.41100000  0.12970000  1.0 -0.248702812
O  O17  1  0.88220000  0.40240000  0.13590000  1.0 -0.3064300048
O  O18  1  0.64375000  0.22585000  0.39940000  1.0 -0.5404000012
O  O19  1  0.59336000  0.06884000  0.44240000  1.0 -0.6564825503
O  O20  1  0.05228000  0.28292000  0.45440000  1.0 -0.4100531331
O  O21  1  0.80117000  0.97163000  0.28960000  1.0 -0.4564767434
O  O22  1  0.10950000  0.42390000  0.83600000  1.0 -0.1079086868
O  O23  1  0.21870000  0.44410000  0.06270000  1.0 -0.2919916539
O  O24  1  0.06230000  0.30510000  0.01430000  1.0 -0.1843444286
O  O25  1  0.15820000  0.28680000  0.08170000  1.0 -0.0033080549
O  O26  1  0.98430000  0.35650000  0.09060000  1.0 -0.2714241473
O  O27  1  0.84900000  0.35240000  0.09720000  1.0 -0.2714241473
O  O28  1  0.10400000  0.33440000  0.97220000  1.0 -0.248702812
O  O29  1  0.11390000  0.46490000  0.82170000  1.0 -0.1253950922
O  O30  1  0.22100000  0.46160000  0.07900000  1.0 -0.4100531331
O  O31  1  0.58900000  0.97460000  0.62970000  1.0 -0.248702812
O  O32  1  0.59760000  0.11780000  0.63590000  1.0 -0.2976203887
O  O33  1  0.77415000  0.35625000  0.89940000  1.0 -0.5404000012
O  O34  1  0.93116000  0.40664000  0.94240000  1.0 -0.6564825503
O  O35  1  0.71708000  0.94772000  0.95440000  1.0 -0.4100531331
O  O36  1  0.02837000  0.19883000  0.78960000  1.0 -0.4564767434
O  O37  1  0.57610000  0.89050000  0.33600000  1.0 -0.1079086868
O  O38  1  0.55590000  0.78130000  0.56270000  1.0 -0.2919916539
O  O39  1  0.69490000  0.93770000  0.51430000  1.0 -0.1883948076
O  O40  1  0.71320000  0.84180000  0.58170000  1.0 -0.0033080549
O  O41  1  0.64350000  0.01570000  0.59060000  1.0 -0.258694285
O  O42  1  0.64760000  0.15100000  0.59720000  1.0 -0.2714241473
O  O43  1  0.66560000  0.89600000  0.47220000  1.0 -0.248702812
O  O44  1  0.53510000  0.88610000  0.32170000  1.0 -0.1237604497
O  O45  1  0.53840000  0.77900000  0.57900000  1.0 -0.4100531331
O  O46  1  0.97460000  0.58900000  0.87030000  1.0 -0.248702812
O  O47  1  0.11780000  0.59760000  0.86410000  1.0 -0.3064300048
O  O48  1  0.35625000  0.77415000  0.60060000  1.0 -0.5404000012
O  O49  1  0.40664000  0.93116000  0.55760000  1.0 -0.6564825503
O  O50  1  0.94772000  0.71708000  0.54560000  1.0 -0.4100531331
O  O51  1  0.19883000  0.02837000  0.71040000  1.0 -0.4564767434
O  O52  1  0.89050000  0.57610000  0.16400000  1.0 -0.1079086868
O  O53  1  0.78130000  0.55590000  0.93730000  1.0 -0.2919916539
O  O54  1  0.93770000  0.69490000  0.98570000  1.0 -0.1883948076
O  O55  1  0.84180000  0.71320000  0.91830000  1.0 -0.0033080549
O  O56  1  0.01570000  0.64350000  0.90940000  1.0 -0.258694285
O  O57  1  0.15100000  0.64760000  0.90280000  1.0 -0.2714241473
O  O58  1  0.89600000  0.66560000  0.02780000  1.0 -0.248702812
O  O59  1  0.88610000  0.53510000  0.17830000  1.0 -0.1237604497
O  O60  1  0.77900000  0.53840000  0.92100000  1.0 -0.4100531331
