# DDEC6 charges by PACMAN v1.1 (https://github.com/mtap-research/PACMAN-charge/)
data_MAZFEC_ASR_pacman
_symmetry_space_group_name_H-M   'P 1'
_cell_length_a   17.19670000
_cell_length_b   17.19670000
_cell_length_c   14.39500000
_cell_angle_alpha   85.28860000
_cell_angle_beta   94.71140000
_cell_angle_gamma   132.41900000
_symmetry_Int_Tables_number   1
_chemical_formula_structural   NdH10C22N2O11
_chemical_formula_sum   'Nd4 H40 C88 N8 O44'
_cell_volume   3129.95289819
_cell_formula_units_Z   4
loop_
 _symmetry_equiv_pos_site_id
 _symmetry_equiv_pos_as_xyz
  1  'x, y, z'
loop_
 _atom_site_type_symbol
 _atom_site_label
 _atom_site_symmetry_multiplicity
 _atom_site_fract_x
 _atom_site_fract_y
 _atom_site_fract_z
 _atom_site_occupancy
 _atom_site_charge
Nd  Nd1  1  0.38500000  0.00416000  0.50878000  1.0 1.8987998422
Nd  Nd2  1  0.00416000  0.38500000  0.99122000  1.0 1.8939540243
Nd  Nd3  1  0.61500000  0.99584000  0.49122000  1.0 1.8987998422
Nd  Nd4  1  0.99584000  0.61500000  0.00878000  1.0 1.8987998422
H  H1  1  0.26824000  0.78942000  0.76121000  1.0 0.1388720056
H  H2  1  0.26306000  0.59280000  0.93627000  1.0 0.1388720056
H  H3  1  0.48598000  0.76922000  0.74789000  1.0 0.1281410461
H  H4  1  0.66057000  0.75363000  0.06715000  1.0 0.1281410461
H  H5  1  0.28227000  0.32615000  0.85682000  1.0 0.1214405751
H  H6  1  0.51307000  0.34879000  0.38198000  1.0 0.1008634126
H  H7  1  0.51399000  0.46433000  0.28578000  1.0 0.1127786083
H  H8  1  0.35858000  0.40486000  0.20945000  1.0 0.1127786083
H  H9  1  0.20676000  0.22814000  0.22165000  1.0 0.0910879631
H  H10  1  0.20125000  0.11835000  0.33244000  1.0 0.0910879631
H  H11  1  0.78942000  0.26824000  0.73879000  1.0 0.1388720056
H  H12  1  0.59280000  0.26306000  0.56373000  1.0 0.1388720056
H  H13  1  0.76922000  0.48598000  0.75211000  1.0 0.1281410461
H  H14  1  0.75363000  0.66057000  0.43285000  1.0 0.1281410461
H  H15  1  0.32615000  0.28227000  0.64318000  1.0 0.1214405751
H  H16  1  0.34879000  0.51307000  0.11802000  1.0 0.1008634126
H  H17  1  0.46433000  0.51399000  0.21422000  1.0 0.1127786083
H  H18  1  0.40486000  0.35858000  0.29055000  1.0 0.1127786083
H  H19  1  0.22814000  0.20676000  0.27835000  1.0 0.0910879631
H  H20  1  0.11835000  0.20125000  0.16756000  1.0 0.0910879631
H  H21  1  0.73176000  0.21058000  0.23879000  1.0 0.1388720056
H  H22  1  0.73694000  0.40720000  0.06373000  1.0 0.1388720056
H  H23  1  0.51402000  0.23078000  0.25211000  1.0 0.1281410461
H  H24  1  0.33943000  0.24637000  0.93285000  1.0 0.1281410461
H  H25  1  0.71773000  0.67385000  0.14318000  1.0 0.1214405751
H  H26  1  0.48693000  0.65121000  0.61802000  1.0 0.1008634126
H  H27  1  0.48601000  0.53567000  0.71422000  1.0 0.1127786083
H  H28  1  0.64142000  0.59514000  0.79055000  1.0 0.1127786083
H  H29  1  0.79324000  0.77186000  0.77835000  1.0 0.0910879631
H  H30  1  0.79875000  0.88165000  0.66756000  1.0 0.0910879631
H  H31  1  0.21058000  0.73176000  0.26121000  1.0 0.1388720056
H  H32  1  0.40720000  0.73694000  0.43627000  1.0 0.1388720056
H  H33  1  0.23078000  0.51402000  0.24789000  1.0 0.1281410461
H  H34  1  0.24637000  0.33943000  0.56715000  1.0 0.1281410461
H  H35  1  0.67385000  0.71773000  0.35682000  1.0 0.1214405751
H  H36  1  0.65121000  0.48693000  0.88198000  1.0 0.1008634126
H  H37  1  0.53567000  0.48601000  0.78578000  1.0 0.1127786083
H  H38  1  0.59514000  0.64142000  0.70945000  1.0 0.1127786083
H  H39  1  0.77186000  0.79324000  0.72165000  1.0 0.0910879631
H  H40  1  0.88165000  0.79875000  0.83244000  1.0 0.0910879631
C  C1  1  0.42910000  0.86870000  0.66050000  1.0 0.6435322916
C  C2  1  0.15800000  0.65460000  0.90100000  1.0 0.6177316314
C  C3  1  0.38350000  0.79070000  0.74060000  1.0 -0.0132740375
C  C4  1  0.29590000  0.75950000  0.78240000  1.0 -0.0785801741
C  C5  1  0.24900000  0.68500000  0.85460000  1.0 -0.017664184
C  C6  1  0.29260000  0.64180000  0.88650000  1.0 -0.1567695824
C  C7  1  0.37740000  0.67080000  0.84570000  1.0 0.1695990419
C  C8  1  0.42580000  0.74740000  0.77360000  1.0 -0.1804516682
C  C9  1  0.50720000  0.68340000  0.94490000  1.0 0.4225306666
C  C10  1  0.54090000  0.63030000  0.99500000  1.0 -0.0672538573
C  C11  1  0.48470000  0.52530000  0.97650000  1.0 -0.017664184
C  C12  1  0.39710000  0.46810000  0.91140000  1.0 -0.0915040815
C  C13  1  0.36410000  0.52050000  0.85990000  1.0 0.4436406946
C  C14  1  0.62480000  0.68380000  0.05610000  1.0 -0.0785801741
C  C15  1  0.34140000  0.36420000  0.89700000  1.0 -0.1136619573
C  C16  1  0.36070000  0.14050000  0.41500000  1.0 0.4041443324
C  C17  1  0.35840000  0.22080000  0.36340000  1.0 0.0220272981
C  C18  1  0.45110000  0.32510000  0.35120000  1.0 -0.1033121789
C  C19  1  0.45180000  0.39440000  0.29340000  1.0 -0.1567695824
C  C20  1  0.35890000  0.35850000  0.24700000  1.0 -0.0785801741
C  C21  1  0.26710000  0.25350000  0.25700000  1.0 -0.0672538573
C  C22  1  0.26470000  0.18610000  0.32000000  1.0 -0.0915040815
C  C23  1  0.86870000  0.42910000  0.83950000  1.0 0.6435322916
C  C24  1  0.65460000  0.15800000  0.59900000  1.0 0.6177316314
C  C25  1  0.79070000  0.38350000  0.75940000  1.0 -0.017664184
C  C26  1  0.75950000  0.29590000  0.71760000  1.0 -0.0785801741
C  C27  1  0.68500000  0.24900000  0.64540000  1.0 -0.0132740375
C  C28  1  0.64180000  0.29260000  0.61350000  1.0 -0.1567695824
C  C29  1  0.67080000  0.37740000  0.65430000  1.0 0.1695990419
C  C30  1  0.74740000  0.42580000  0.72640000  1.0 -0.1746392145
C  C31  1  0.68340000  0.50720000  0.55510000  1.0 0.4225306666
C  C32  1  0.63030000  0.54090000  0.50500000  1.0 -0.0672538573
C  C33  1  0.52530000  0.48470000  0.52350000  1.0 -0.017664184
C  C34  1  0.46810000  0.39710000  0.58860000  1.0 -0.0915040815
C  C35  1  0.52050000  0.36410000  0.64010000  1.0 0.4436406946
C  C36  1  0.68380000  0.62480000  0.44390000  1.0 -0.0785801741
C  C37  1  0.36420000  0.34140000  0.60300000  1.0 -0.1136619573
C  C38  1  0.14050000  0.36070000  0.08500000  1.0 0.4073984011
C  C39  1  0.22080000  0.35840000  0.13660000  1.0 0.0220272981
C  C40  1  0.32510000  0.45110000  0.14880000  1.0 -0.1033121789
C  C41  1  0.39440000  0.45180000  0.20660000  1.0 -0.1567695824
C  C42  1  0.35850000  0.35890000  0.25300000  1.0 -0.0785801741
C  C43  1  0.25350000  0.26710000  0.24300000  1.0 -0.0672538573
C  C44  1  0.18610000  0.26470000  0.18000000  1.0 -0.0915040815
C  C45  1  0.57090000  0.13130000  0.33950000  1.0 0.6435322916
C  C46  1  0.84200000  0.34540000  0.09900000  1.0 0.6177316314
C  C47  1  0.61650000  0.20930000  0.25940000  1.0 -0.017664184
C  C48  1  0.70410000  0.24050000  0.21760000  1.0 -0.0785801741
C  C49  1  0.75100000  0.31500000  0.14540000  1.0 -0.0132740375
C  C50  1  0.70740000  0.35820000  0.11350000  1.0 -0.1567695824
C  C51  1  0.62260000  0.32920000  0.15430000  1.0 0.1695990419
C  C52  1  0.57420000  0.25260000  0.22640000  1.0 -0.1746392145
C  C53  1  0.49280000  0.31660000  0.05510000  1.0 0.4225306666
C  C54  1  0.45910000  0.36970000  0.00500000  1.0 -0.0672538573
C  C55  1  0.51530000  0.47470000  0.02350000  1.0 -0.017664184
C  C56  1  0.60290000  0.53190000  0.08860000  1.0 -0.0915040815
C  C57  1  0.63590000  0.47950000  0.14010000  1.0 0.4436406946
C  C58  1  0.37520000  0.31620000  0.94390000  1.0 -0.0785801741
C  C59  1  0.65860000  0.63580000  0.10300000  1.0 -0.1136619573
C  C60  1  0.63930000  0.85950000  0.58500000  1.0 0.4073984011
C  C61  1  0.64160000  0.77920000  0.63660000  1.0 0.0220272981
C  C62  1  0.54890000  0.67490000  0.64880000  1.0 -0.1033121789
C  C63  1  0.54820000  0.60560000  0.70660000  1.0 -0.1567695824
C  C64  1  0.64110000  0.64150000  0.75300000  1.0 -0.0785801741
C  C65  1  0.73290000  0.74650000  0.74300000  1.0 -0.0672538573
C  C66  1  0.73530000  0.81390000  0.68000000  1.0 -0.0915040815
C  C67  1  0.13130000  0.57090000  0.16050000  1.0 0.6435322916
C  C68  1  0.34540000  0.84200000  0.40100000  1.0 0.6177316314
C  C69  1  0.20930000  0.61650000  0.24060000  1.0 -0.017664184
C  C70  1  0.24050000  0.70410000  0.28240000  1.0 -0.0785801741
C  C71  1  0.31500000  0.75100000  0.35460000  1.0 -0.0132740375
C  C72  1  0.35820000  0.70740000  0.38650000  1.0 -0.1567695824
C  C73  1  0.32920000  0.62260000  0.34570000  1.0 0.1695990419
C  C74  1  0.25260000  0.57420000  0.27360000  1.0 -0.1746392145
C  C75  1  0.31660000  0.49280000  0.44490000  1.0 0.4225306666
C  C76  1  0.36970000  0.45910000  0.49500000  1.0 -0.0672538573
C  C77  1  0.47470000  0.51530000  0.47650000  1.0 -0.017664184
C  C78  1  0.53190000  0.60290000  0.41140000  1.0 -0.0915040815
C  C79  1  0.47950000  0.63590000  0.35990000  1.0 0.4436406946
C  C80  1  0.31620000  0.37520000  0.55610000  1.0 -0.0785801741
C  C81  1  0.63580000  0.65860000  0.39700000  1.0 -0.1136619573
C  C82  1  0.85950000  0.63930000  0.91500000  1.0 0.4073984011
C  C83  1  0.77920000  0.64160000  0.86340000  1.0 0.0252353704
C  C84  1  0.67490000  0.54890000  0.85120000  1.0 -0.1033121789
C  C85  1  0.60560000  0.54820000  0.79340000  1.0 -0.1567695824
C  C86  1  0.64150000  0.64110000  0.74700000  1.0 -0.0785801741
C  C87  1  0.74650000  0.73290000  0.75700000  1.0 -0.0672538573
C  C88  1  0.81390000  0.73530000  0.82000000  1.0 -0.0915040815
N  N1  1  0.42210000  0.62670000  0.88360000  1.0 -0.2862417841
N  N2  1  0.35310000  0.14730000  0.43840000  1.0 0.4073984011
N  N3  1  0.62670000  0.42210000  0.61640000  1.0 -0.2862417841
N  N4  1  0.14730000  0.35310000  0.06160000  1.0 0.4073984011
N  N5  1  0.57790000  0.37330000  0.11640000  1.0 -0.2862417841
N  N6  1  0.64690000  0.85270000  0.56160000  1.0 0.4073984011
N  N7  1  0.37330000  0.57790000  0.38360000  1.0 -0.2862417841
N  N8  1  0.85270000  0.64690000  0.93840000  1.0 0.4073984011
O  O1  1  0.37760000  0.89300000  0.62750000  1.0 -0.6791951949
O  O2  1  0.51610000  0.90630000  0.63180000  1.0 -0.6689837122
O  O3  1  0.14066000  0.71394000  0.89630000  1.0 -0.589534595
O  O4  1  0.10060000  0.56820000  0.94780000  1.0 -0.7207677061
O  O5  1  0.55350000  0.77490000  0.95740000  1.0 -0.383481271
O  O6  1  0.29390000  0.47870000  0.80370000  1.0 -0.356071643
O  O7  1  0.42340000  0.17660000  0.49600000  1.0 -0.390293769
O  O8  1  0.35220000  0.20980000  0.39200000  1.0 -0.017664184
O  O9  1  0.28370000  0.05230000  0.42800000  1.0 -0.1882986868
O  O10  1  0.43320000  0.18080000  0.48120000  1.0 -0.390293769
O  O11  1  0.29040000  0.04360000  0.40040000  1.0 -0.2265099182
O  O12  1  0.89300000  0.37760000  0.87250000  1.0 -0.6791951949
O  O13  1  0.90630000  0.51610000  0.86820000  1.0 -0.6689837122
O  O14  1  0.71394000  0.14066000  0.60370000  1.0 -0.589534595
O  O15  1  0.56820000  0.10060000  0.55220000  1.0 -0.7207677061
O  O16  1  0.77490000  0.55350000  0.54260000  1.0 -0.383481271
O  O17  1  0.47870000  0.29390000  0.69630000  1.0 -0.356071643
O  O18  1  0.17660000  0.42340000  0.00400000  1.0 -0.390293769
O  O19  1  0.20980000  0.35220000  0.10800000  1.0 -0.0132740375
O  O20  1  0.05230000  0.28370000  0.07200000  1.0 -0.1804516682
O  O21  1  0.18080000  0.43320000  0.01880000  1.0 -0.390293769
O  O22  1  0.04360000  0.29040000  0.09960000  1.0 -0.2220129365
O  O23  1  0.62240000  0.10700000  0.37250000  1.0 -0.6791951949
O  O24  1  0.48390000  0.09370000  0.36820000  1.0 -0.6689837122
O  O25  1  0.85934000  0.28606000  0.10370000  1.0 -0.589534595
O  O26  1  0.89940000  0.43180000  0.05220000  1.0 -0.7207677061
O  O27  1  0.44650000  0.22510000  0.04260000  1.0 -0.383481271
O  O28  1  0.70610000  0.52130000  0.19630000  1.0 -0.356071643
O  O29  1  0.57660000  0.82340000  0.50400000  1.0 -0.390293769
O  O30  1  0.64780000  0.79020000  0.60800000  1.0 -0.0132740375
O  O31  1  0.71630000  0.94770000  0.57200000  1.0 -0.1804516682
O  O32  1  0.56680000  0.81920000  0.51880000  1.0 -0.390293769
O  O33  1  0.70960000  0.95640000  0.59960000  1.0 -0.2265099182
O  O34  1  0.10700000  0.62240000  0.12750000  1.0 -0.6791951949
O  O35  1  0.09370000  0.48390000  0.13180000  1.0 -0.6689837122
O  O36  1  0.28606000  0.85934000  0.39630000  1.0 -0.589534595
O  O37  1  0.43180000  0.89940000  0.44780000  1.0 -0.7207677061
O  O38  1  0.22510000  0.44650000  0.45740000  1.0 -0.383481271
O  O39  1  0.52130000  0.70610000  0.30370000  1.0 -0.356071643
O  O40  1  0.82340000  0.57660000  0.99600000  1.0 -0.390293769
O  O41  1  0.79020000  0.64780000  0.89200000  1.0 -0.0132740375
O  O42  1  0.94770000  0.71630000  0.92800000  1.0 -0.1804516682
O  O43  1  0.81920000  0.56680000  0.98120000  1.0 -0.390293769
O  O44  1  0.95640000  0.70960000  0.90040000  1.0 -0.2265099182
