# DDEC6 charges by PACMAN v1.1 (https://github.com/mtap-research/PACMAN-charge/)
data_MAZFEC06_ASR_pacman
_symmetry_space_group_name_H-M   'P 1'
_cell_length_a   17.10920000
_cell_length_b   17.10920000
_cell_length_c   14.43600000
_cell_angle_alpha   85.37180000
_cell_angle_beta   94.62820000
_cell_angle_gamma   132.88900000
_symmetry_Int_Tables_number   1
_chemical_formula_structural   NdH10C22N2O11
_chemical_formula_sum   'Nd4 H40 C88 N8 O44'
_cell_volume   3084.09494233
_cell_formula_units_Z   4
loop_
 _symmetry_equiv_pos_site_id
 _symmetry_equiv_pos_as_xyz
  1  'x, y, z'
loop_
 _atom_site_type_symbol
 _atom_site_label
 _atom_site_symmetry_multiplicity
 _atom_site_fract_x
 _atom_site_fract_y
 _atom_site_fract_z
 _atom_site_occupancy
 _atom_site_charge
Nd  Nd1  1  0.38441000  0.00405000  0.50995000  1.0 1.8997371106
Nd  Nd2  1  0.00405000  0.38441000  0.99005000  1.0 1.8997371106
Nd  Nd3  1  0.61559000  0.99595000  0.49005000  1.0 1.8997371106
Nd  Nd4  1  0.99595000  0.61559000  0.00995000  1.0 1.8997371106
H  H1  1  0.26950000  0.79022000  0.76139000  1.0 0.1365611239
H  H2  1  0.26468000  0.59512000  0.93586000  1.0 0.1270160237
H  H3  1  0.48832000  0.77260000  0.74681000  1.0 0.1270160237
H  H4  1  0.65392000  0.74986000  0.07262000  1.0 0.1365611239
H  H5  1  0.27128000  0.31812000  0.86541000  1.0 0.1270160237
H  H6  1  0.50138000  0.34388000  0.37715000  1.0 0.1025399028
H  H7  1  0.49358000  0.45488000  0.28217000  1.0 0.1204038171
H  H8  1  0.33228000  0.38760000  0.21275000  1.0 0.1025399028
H  H9  1  0.17645000  0.21483000  0.24870000  1.0 0.110772027
H  H10  1  0.18279000  0.10969000  0.35566000  1.0 0.1025399028
H  H11  1  0.79022000  0.26950000  0.73861000  1.0 0.1365611239
H  H12  1  0.59512000  0.26468000  0.56414000  1.0 0.1270160237
H  H13  1  0.77260000  0.48832000  0.75319000  1.0 0.1270160237
H  H14  1  0.74986000  0.65392000  0.42738000  1.0 0.1365611239
H  H15  1  0.31812000  0.27128000  0.63459000  1.0 0.1270160237
H  H16  1  0.34388000  0.50138000  0.12285000  1.0 0.1025399028
H  H17  1  0.45488000  0.49358000  0.21783000  1.0 0.1204038171
H  H18  1  0.38760000  0.33228000  0.28725000  1.0 0.1025399028
H  H19  1  0.21483000  0.17645000  0.25130000  1.0 0.110772027
H  H20  1  0.10969000  0.18279000  0.14434000  1.0 0.1025399028
H  H21  1  0.73050000  0.20978000  0.23861000  1.0 0.1365611239
H  H22  1  0.73532000  0.40488000  0.06414000  1.0 0.1270160237
H  H23  1  0.51168000  0.22740000  0.25319000  1.0 0.1270160237
H  H24  1  0.34608000  0.25014000  0.92738000  1.0 0.1365611239
H  H25  1  0.72872000  0.68188000  0.13459000  1.0 0.1270160237
H  H26  1  0.49862000  0.65612000  0.62285000  1.0 0.1025399028
H  H27  1  0.50642000  0.54512000  0.71783000  1.0 0.1204038171
H  H28  1  0.66772000  0.61240000  0.78725000  1.0 0.1025399028
H  H29  1  0.82355000  0.78517000  0.75130000  1.0 0.110772027
H  H30  1  0.81721000  0.89031000  0.64434000  1.0 0.1025399028
H  H31  1  0.20978000  0.73050000  0.26139000  1.0 0.1365611239
H  H32  1  0.40488000  0.73532000  0.43586000  1.0 0.1270160237
H  H33  1  0.22740000  0.51168000  0.24681000  1.0 0.1270160237
H  H34  1  0.25014000  0.34608000  0.57262000  1.0 0.1365611239
H  H35  1  0.68188000  0.72872000  0.36541000  1.0 0.1270160237
H  H36  1  0.65612000  0.49862000  0.87715000  1.0 0.1025399028
H  H37  1  0.54512000  0.50642000  0.78217000  1.0 0.1204038171
H  H38  1  0.61240000  0.66772000  0.71275000  1.0 0.1025399028
H  H39  1  0.78517000  0.82355000  0.74870000  1.0 0.110772027
H  H40  1  0.89031000  0.81721000  0.85566000  1.0 0.1025399028
C  C1  1  0.43280000  0.87160000  0.66100000  1.0 0.6485645829
C  C2  1  0.16030000  0.65770000  0.90370000  1.0 0.617558202
C  C3  1  0.38680000  0.79420000  0.74200000  1.0 -0.0111474164
C  C4  1  0.29810000  0.76130000  0.78320000  1.0 -0.0887158244
C  C5  1  0.25160000  0.68780000  0.85490000  1.0 -0.0111474164
C  C6  1  0.29500000  0.64440000  0.88600000  1.0 -0.1724245751
C  C7  1  0.37910000  0.67150000  0.84620000  1.0 0.1741549878
C  C8  1  0.42800000  0.75040000  0.77340000  1.0 -0.1724245751
C  C9  1  0.50770000  0.68390000  0.94540000  1.0 0.4211574319
C  C10  1  0.54310000  0.63270000  0.99680000  1.0 -0.0315943973
C  C11  1  0.48660000  0.52600000  0.97710000  1.0 -0.0236877853
C  C12  1  0.39740000  0.46720000  0.91020000  1.0 -0.0887158244
C  C13  1  0.36720000  0.52280000  0.85890000  1.0 0.4211574319
C  C14  1  0.62240000  0.68180000  0.05710000  1.0 -0.0887158244
C  C15  1  0.33590000  0.35990000  0.89930000  1.0 -0.1099385025
C  C16  1  0.34350000  0.21290000  0.36840000  1.0 -0.1170467701
C  C17  1  0.43630000  0.31790000  0.35080000  1.0 -0.0498056987
C  C18  1  0.43170000  0.38410000  0.29370000  1.0 -0.1461489962
C  C19  1  0.33480000  0.34460000  0.25400000  1.0 -0.0498056987
C  C20  1  0.24150000  0.24110000  0.27500000  1.0 -0.0498056987
C  C21  1  0.24550000  0.17670000  0.33600000  1.0 -0.0962296386
C  C22  1  0.35020000  0.14100000  0.43000000  1.0 0.5024044125
C  C23  1  0.87160000  0.43280000  0.83900000  1.0 0.6485645829
C  C24  1  0.65770000  0.16030000  0.59630000  1.0 0.617558202
C  C25  1  0.79420000  0.38680000  0.75800000  1.0 -0.0111474164
C  C26  1  0.76130000  0.29810000  0.71680000  1.0 -0.0887158244
C  C27  1  0.68780000  0.25160000  0.64510000  1.0 -0.0111474164
C  C28  1  0.64440000  0.29500000  0.61400000  1.0 -0.1724245751
C  C29  1  0.67150000  0.37910000  0.65380000  1.0 0.1741549878
C  C30  1  0.75040000  0.42800000  0.72660000  1.0 -0.1724245751
C  C31  1  0.68390000  0.50770000  0.55460000  1.0 0.4211574319
C  C32  1  0.63270000  0.54310000  0.50320000  1.0 -0.0315943973
C  C33  1  0.52600000  0.48660000  0.52290000  1.0 -0.0236877853
C  C34  1  0.46720000  0.39740000  0.58980000  1.0 -0.0887158244
C  C35  1  0.52280000  0.36720000  0.64110000  1.0 0.4211574319
C  C36  1  0.68180000  0.62240000  0.44290000  1.0 -0.0887158244
C  C37  1  0.35990000  0.33590000  0.60070000  1.0 -0.1099385025
C  C38  1  0.21290000  0.34350000  0.13160000  1.0 -0.1170467701
C  C39  1  0.31790000  0.43630000  0.14920000  1.0 -0.0498056987
C  C40  1  0.38410000  0.43170000  0.20630000  1.0 -0.1461489962
C  C41  1  0.34460000  0.33480000  0.24600000  1.0 -0.0498056987
C  C42  1  0.24110000  0.24150000  0.22500000  1.0 -0.0498056987
C  C43  1  0.17670000  0.24550000  0.16400000  1.0 -0.0962296386
C  C44  1  0.14100000  0.35020000  0.07000000  1.0 0.5024044125
C  C45  1  0.56720000  0.12840000  0.33900000  1.0 0.6485645829
C  C46  1  0.83970000  0.34230000  0.09630000  1.0 0.617558202
C  C47  1  0.61320000  0.20580000  0.25800000  1.0 -0.0111474164
C  C48  1  0.70190000  0.23870000  0.21680000  1.0 -0.0887158244
C  C49  1  0.74840000  0.31220000  0.14510000  1.0 -0.0111474164
C  C50  1  0.70500000  0.35560000  0.11400000  1.0 -0.1724245751
C  C51  1  0.62090000  0.32850000  0.15380000  1.0 0.1741549878
C  C52  1  0.57200000  0.24960000  0.22660000  1.0 -0.1724245751
C  C53  1  0.49230000  0.31610000  0.05460000  1.0 0.4211574319
C  C54  1  0.45690000  0.36730000  0.00320000  1.0 -0.0315943973
C  C55  1  0.51340000  0.47400000  0.02290000  1.0 -0.0236877853
C  C56  1  0.60260000  0.53280000  0.08980000  1.0 -0.0887158244
C  C57  1  0.63280000  0.47720000  0.14110000  1.0 0.4263239412
C  C58  1  0.37760000  0.31820000  0.94290000  1.0 -0.0887158244
C  C59  1  0.66410000  0.64010000  0.10070000  1.0 -0.1099385025
C  C60  1  0.65650000  0.78710000  0.63160000  1.0 -0.1170467701
C  C61  1  0.56370000  0.68210000  0.64920000  1.0 -0.0498056987
C  C62  1  0.56830000  0.61590000  0.70630000  1.0 -0.1461489962
C  C63  1  0.66520000  0.65540000  0.74600000  1.0 -0.0498056987
C  C64  1  0.75850000  0.75890000  0.72500000  1.0 -0.0498056987
C  C65  1  0.75450000  0.82330000  0.66400000  1.0 -0.0962296386
C  C66  1  0.64980000  0.85900000  0.57000000  1.0 0.5024044125
C  C67  1  0.12840000  0.56720000  0.16100000  1.0 0.6485645829
C  C68  1  0.34230000  0.83970000  0.40370000  1.0 0.617558202
C  C69  1  0.20580000  0.61320000  0.24200000  1.0 -0.0111474164
C  C70  1  0.23870000  0.70190000  0.28320000  1.0 -0.0887158244
C  C71  1  0.31220000  0.74840000  0.35490000  1.0 -0.0111474164
C  C72  1  0.35560000  0.70500000  0.38600000  1.0 -0.1724245751
C  C73  1  0.32850000  0.62090000  0.34620000  1.0 0.1741549878
C  C74  1  0.24960000  0.57200000  0.27340000  1.0 -0.1724245751
C  C75  1  0.31610000  0.49230000  0.44540000  1.0 0.4211574319
C  C76  1  0.36730000  0.45690000  0.49680000  1.0 -0.0315943973
C  C77  1  0.47400000  0.51340000  0.47710000  1.0 -0.0236877853
C  C78  1  0.53280000  0.60260000  0.41020000  1.0 -0.0887158244
C  C79  1  0.47720000  0.63280000  0.35890000  1.0 0.4211574319
C  C80  1  0.31820000  0.37760000  0.55710000  1.0 -0.0887158244
C  C81  1  0.64010000  0.66410000  0.39930000  1.0 -0.1099385025
C  C82  1  0.78710000  0.65650000  0.86840000  1.0 -0.1099385025
C  C83  1  0.68210000  0.56370000  0.85080000  1.0 -0.0498056987
C  C84  1  0.61590000  0.56830000  0.79370000  1.0 -0.1461489962
C  C85  1  0.65540000  0.66520000  0.75400000  1.0 -0.0498056987
C  C86  1  0.75890000  0.75850000  0.77500000  1.0 -0.0498056987
C  C87  1  0.82330000  0.75450000  0.83600000  1.0 -0.0962296386
C  C88  1  0.85900000  0.64980000  0.93000000  1.0 0.5024044125
N  N1  1  0.42300000  0.62700000  0.88390000  1.0 -0.2393959777
N  N2  1  0.35140000  0.14060000  0.43210000  1.0 0.5458079486
N  N3  1  0.62700000  0.42300000  0.61610000  1.0 -0.2393959777
N  N4  1  0.14060000  0.35140000  0.06790000  1.0 0.5458079486
N  N5  1  0.57700000  0.37300000  0.11610000  1.0 -0.2393959777
N  N6  1  0.64860000  0.85940000  0.56790000  1.0 0.5458079486
N  N7  1  0.37300000  0.57700000  0.38390000  1.0 -0.2393959777
N  N8  1  0.85940000  0.64860000  0.93210000  1.0 0.5458079486
O  O1  1  0.38070000  0.89650000  0.62890000  1.0 -0.6686225773
O  O2  1  0.51720000  0.90620000  0.63040000  1.0 -0.6319089027
O  O3  1  0.14250000  0.71690000  0.89670000  1.0 -0.5546196492
O  O4  1  0.10060000  0.56980000  0.94920000  1.0 -0.7216883094
O  O5  1  0.55490000  0.77810000  0.96230000  1.0 -0.4045717211
O  O6  1  0.29420000  0.47940000  0.80160000  1.0 -0.3937501998
O  O7  1  0.28880000  0.04120000  0.40500000  1.0 -0.50189344
O  O8  1  0.43560000  0.18520000  0.47980000  1.0 -0.208082255
O  O9  1  0.36000000  0.21600000  0.38500000  1.0 -0.1597489806
O  O10  1  0.41150000  0.16850000  0.50900000  1.0 -0.208082255
O  O11  1  0.28290000  0.04650000  0.41800000  1.0 -0.4276778639
O  O12  1  0.89650000  0.38070000  0.87110000  1.0 -0.6686225773
O  O13  1  0.90620000  0.51720000  0.86960000  1.0 -0.6319089027
O  O14  1  0.71690000  0.14250000  0.60330000  1.0 -0.5546196492
O  O15  1  0.56980000  0.10060000  0.55080000  1.0 -0.7216883094
O  O16  1  0.77810000  0.55490000  0.53770000  1.0 -0.4045717211
O  O17  1  0.47940000  0.29420000  0.69840000  1.0 -0.3937501998
O  O18  1  0.04120000  0.28880000  0.09500000  1.0 -0.50189344
O  O19  1  0.18520000  0.43560000  0.02020000  1.0 -0.208082255
O  O20  1  0.21600000  0.36000000  0.11500000  1.0 -0.1597489806
O  O21  1  0.16850000  0.41150000  0.99100000  1.0 -0.2048018517
O  O22  1  0.04650000  0.28290000  0.08200000  1.0 -0.4276778639
O  O23  1  0.61930000  0.10350000  0.37110000  1.0 -0.6686225773
O  O24  1  0.48280000  0.09380000  0.36960000  1.0 -0.6319089027
O  O25  1  0.85750000  0.28310000  0.10330000  1.0 -0.5546196492
O  O26  1  0.89940000  0.43020000  0.05080000  1.0 -0.7216883094
O  O27  1  0.44510000  0.22190000  0.03770000  1.0 -0.4045717211
O  O28  1  0.70580000  0.52060000  0.19840000  1.0 -0.3937501998
O  O29  1  0.71120000  0.95880000  0.59500000  1.0 -0.50189344
O  O30  1  0.56440000  0.81480000  0.52020000  1.0 -0.208082255
O  O31  1  0.64000000  0.78400000  0.61500000  1.0 -0.1597489806
O  O32  1  0.58850000  0.83150000  0.49100000  1.0 -0.208082255
O  O33  1  0.71710000  0.95350000  0.58200000  1.0 -0.4276778639
O  O34  1  0.10350000  0.61930000  0.12890000  1.0 -0.6686225773
O  O35  1  0.09380000  0.48280000  0.13040000  1.0 -0.6319089027
O  O36  1  0.28310000  0.85750000  0.39670000  1.0 -0.5546196492
O  O37  1  0.43020000  0.89940000  0.44920000  1.0 -0.7216883094
O  O38  1  0.22190000  0.44510000  0.46230000  1.0 -0.4045717211
O  O39  1  0.52060000  0.70580000  0.30160000  1.0 -0.3937501998
O  O40  1  0.95880000  0.71120000  0.90500000  1.0 -0.50189344
O  O41  1  0.81480000  0.56440000  0.97980000  1.0 -0.208082255
O  O42  1  0.78400000  0.64000000  0.88500000  1.0 -0.1597489806
O  O43  1  0.83150000  0.58850000  0.00900000  1.0 -0.208082255
O  O44  1  0.95350000  0.71710000  0.91800000  1.0 -0.4276778639
