# DDEC6 charges by PACMAN v1.1 (https://github.com/mtap-research/PACMAN-charge/)
data_MAZFEC07_ASR_pacman
_symmetry_space_group_name_H-M   'P 1'
_cell_length_a   17.10530000
_cell_length_b   17.10530000
_cell_length_c   14.43700000
_cell_angle_alpha   85.20350000
_cell_angle_beta   94.79650000
_cell_angle_gamma   133.07500000
_symmetry_Int_Tables_number   1
_chemical_formula_structural   NdH10C22N2O11
_chemical_formula_sum   'Nd4 H40 C88 N8 O44'
_cell_volume   3072.72140275
_cell_formula_units_Z   4
loop_
 _symmetry_equiv_pos_site_id
 _symmetry_equiv_pos_as_xyz
  1  'x, y, z'
loop_
 _atom_site_type_symbol
 _atom_site_label
 _atom_site_symmetry_multiplicity
 _atom_site_fract_x
 _atom_site_fract_y
 _atom_site_fract_z
 _atom_site_occupancy
 _atom_site_charge
Nd  Nd1  1  0.38437000  0.00399000  0.50967000  1.0 1.7897478562
Nd  Nd2  1  0.00399000  0.38437000  0.99033000  1.0 1.7833141705
Nd  Nd3  1  0.61563000  0.99601000  0.49033000  1.0 1.7897478562
Nd  Nd4  1  0.99601000  0.61563000  0.00967000  1.0 1.7897478562
H  H1  1  0.27091000  0.79221000  0.76242000  1.0 0.1360783487
H  H2  1  0.26708000  0.59840000  0.93871000  1.0 0.1175011455
H  H3  1  0.49026000  0.77456000  0.74840000  1.0 0.1175011455
H  H4  1  0.65157000  0.74799000  0.07571000  1.0 0.1360783487
H  H5  1  0.26476000  0.31380000  0.86636000  1.0 0.1175011455
H  H6  1  0.49500000  0.33586000  0.37816000  1.0 0.1077842622
H  H7  1  0.49733000  0.45309000  0.28186000  1.0 0.1175011455
H  H8  1  0.33953000  0.39327000  0.20875000  1.0 0.1077842622
H  H9  1  0.17702000  0.22958000  0.25571000  1.0 0.1034805293
H  H10  1  0.17519000  0.10845000  0.34408000  1.0 0.0810474272
H  H11  1  0.79221000  0.27091000  0.73758000  1.0 0.1360783487
H  H12  1  0.59840000  0.26708000  0.56129000  1.0 0.1175011455
H  H13  1  0.77456000  0.49026000  0.75160000  1.0 0.1175011455
H  H14  1  0.74799000  0.65157000  0.42429000  1.0 0.1360783487
H  H15  1  0.31380000  0.26476000  0.63364000  1.0 0.1175011455
H  H16  1  0.33586000  0.49500000  0.12184000  1.0 0.1077842622
H  H17  1  0.45309000  0.49733000  0.21814000  1.0 0.1175011455
H  H18  1  0.39327000  0.33953000  0.29125000  1.0 0.1077842622
H  H19  1  0.22958000  0.17702000  0.24429000  1.0 0.1034805293
H  H20  1  0.10845000  0.17519000  0.15592000  1.0 0.0810474272
H  H21  1  0.72909000  0.20779000  0.23758000  1.0 0.1360783487
H  H22  1  0.73292000  0.40160000  0.06129000  1.0 0.1175011455
H  H23  1  0.50974000  0.22544000  0.25160000  1.0 0.1175011455
H  H24  1  0.34843000  0.25201000  0.92429000  1.0 0.1360783487
H  H25  1  0.73524000  0.68620000  0.13364000  1.0 0.1175011455
H  H26  1  0.50500000  0.66414000  0.62184000  1.0 0.1077842622
H  H27  1  0.50267000  0.54691000  0.71814000  1.0 0.1175011455
H  H28  1  0.66047000  0.60673000  0.79125000  1.0 0.1077842622
H  H29  1  0.82298000  0.77042000  0.74429000  1.0 0.1034805293
H  H30  1  0.82481000  0.89155000  0.65592000  1.0 0.0810474272
H  H31  1  0.20779000  0.72909000  0.26242000  1.0 0.1360783487
H  H32  1  0.40160000  0.73292000  0.43871000  1.0 0.1175011455
H  H33  1  0.22544000  0.50974000  0.24840000  1.0 0.1175011455
H  H34  1  0.25201000  0.34843000  0.57571000  1.0 0.1360783487
H  H35  1  0.68620000  0.73524000  0.36636000  1.0 0.1175011455
H  H36  1  0.66414000  0.50500000  0.87816000  1.0 0.1077842622
H  H37  1  0.54691000  0.50267000  0.78186000  1.0 0.1175011455
H  H38  1  0.60673000  0.66047000  0.70875000  1.0 0.1077842622
H  H39  1  0.77042000  0.82298000  0.75571000  1.0 0.1034805293
H  H40  1  0.89155000  0.82481000  0.84408000  1.0 0.0810474272
C  C1  1  0.43440000  0.87260000  0.66070000  1.0 0.6384293458
C  C2  1  0.16020000  0.65780000  0.90460000  1.0 0.6075797698
C  C3  1  0.38760000  0.79460000  0.74250000  1.0 -0.0034102303
C  C4  1  0.29880000  0.76240000  0.78370000  1.0 -0.0888982124
C  C5  1  0.25190000  0.68770000  0.85480000  1.0 -0.0034102303
C  C6  1  0.29590000  0.64570000  0.88730000  1.0 -0.1768039556
C  C7  1  0.37840000  0.67140000  0.84660000  1.0 0.1727721191
C  C8  1  0.42910000  0.75150000  0.77410000  1.0 -0.1924486363
C  C9  1  0.50740000  0.68300000  0.94510000  1.0 0.4081708256
C  C10  1  0.54390000  0.63350000  0.99660000  1.0 -0.0480583401
C  C11  1  0.48680000  0.52620000  0.97660000  1.0 -0.0399417709
C  C12  1  0.39760000  0.46740000  0.90950000  1.0 -0.1235310023
C  C13  1  0.36620000  0.52260000  0.85730000  1.0 0.4081708256
C  C14  1  0.62250000  0.68130000  0.05830000  1.0 -0.1048155704
C  C15  1  0.33090000  0.35650000  0.89820000  1.0 -0.1531008089
C  C16  1  0.33520000  0.20980000  0.36820000  1.0 -0.0207362589
C  C17  1  0.43150000  0.31330000  0.35100000  1.0 -0.0888982124
C  C18  1  0.43300000  0.38340000  0.29300000  1.0 -0.1283993663
C  C19  1  0.33850000  0.34950000  0.25200000  1.0 -0.068401925
C  C20  1  0.24110000  0.24890000  0.27600000  1.0 -0.0399417709
C  C21  1  0.23980000  0.17760000  0.33200000  1.0 -0.1631104478
C  C22  1  0.33310000  0.13090000  0.43000000  1.0 0.4190581089
C  C23  1  0.87260000  0.43440000  0.83930000  1.0 0.6384293458
C  C24  1  0.65780000  0.16020000  0.59540000  1.0 0.6075797698
C  C25  1  0.79460000  0.38760000  0.75750000  1.0 -0.0034102303
C  C26  1  0.76240000  0.29880000  0.71630000  1.0 -0.0888982124
C  C27  1  0.68770000  0.25190000  0.64520000  1.0 -0.0034102303
C  C28  1  0.64570000  0.29590000  0.61270000  1.0 -0.1768039556
C  C29  1  0.67140000  0.37840000  0.65340000  1.0 0.1727721191
C  C30  1  0.75150000  0.42910000  0.72590000  1.0 -0.1924486363
C  C31  1  0.68300000  0.50740000  0.55490000  1.0 0.4081708256
C  C32  1  0.63350000  0.54390000  0.50340000  1.0 -0.0480583401
C  C33  1  0.52620000  0.48680000  0.52340000  1.0 -0.0399417709
C  C34  1  0.46740000  0.39760000  0.59050000  1.0 -0.1235310023
C  C35  1  0.52260000  0.36620000  0.64270000  1.0 0.4081708256
C  C36  1  0.68130000  0.62250000  0.44170000  1.0 -0.1048155704
C  C37  1  0.35650000  0.33090000  0.60180000  1.0 -0.1531008089
C  C38  1  0.20980000  0.33520000  0.13180000  1.0 -0.0207362589
C  C39  1  0.31330000  0.43150000  0.14900000  1.0 -0.0888982124
C  C40  1  0.38340000  0.43300000  0.20700000  1.0 -0.1283993663
C  C41  1  0.34950000  0.33850000  0.24800000  1.0 -0.068401925
C  C42  1  0.24890000  0.24110000  0.22400000  1.0 -0.0399417709
C  C43  1  0.17760000  0.23980000  0.16800000  1.0 -0.1631104478
C  C44  1  0.13090000  0.33310000  0.07000000  1.0 0.4190581089
C  C45  1  0.56560000  0.12740000  0.33930000  1.0 0.6384293458
C  C46  1  0.83980000  0.34220000  0.09540000  1.0 0.6075797698
C  C47  1  0.61240000  0.20540000  0.25750000  1.0 -0.0034102303
C  C48  1  0.70120000  0.23760000  0.21630000  1.0 -0.0888982124
C  C49  1  0.74810000  0.31230000  0.14520000  1.0 -0.0034102303
C  C50  1  0.70410000  0.35430000  0.11270000  1.0 -0.1768039556
C  C51  1  0.62160000  0.32860000  0.15340000  1.0 0.1727721191
C  C52  1  0.57090000  0.24850000  0.22590000  1.0 -0.1924486363
C  C53  1  0.49260000  0.31700000  0.05490000  1.0 0.4038323781
C  C54  1  0.45610000  0.36650000  0.00340000  1.0 -0.0480583401
C  C55  1  0.51320000  0.47380000  0.02340000  1.0 -0.0399417709
C  C56  1  0.60240000  0.53260000  0.09050000  1.0 -0.1235310023
C  C57  1  0.63380000  0.47740000  0.14270000  1.0 0.4081708256
C  C58  1  0.37750000  0.31870000  0.94170000  1.0 -0.1048155704
C  C59  1  0.66910000  0.64350000  0.10180000  1.0 -0.1531008089
C  C60  1  0.66480000  0.79020000  0.63180000  1.0 -0.0207362589
C  C61  1  0.56850000  0.68670000  0.64900000  1.0 -0.0888982124
C  C62  1  0.56700000  0.61660000  0.70700000  1.0 -0.1283993663
C  C63  1  0.66150000  0.65050000  0.74800000  1.0 -0.068401925
C  C64  1  0.75890000  0.75110000  0.72400000  1.0 -0.0399417709
C  C65  1  0.76020000  0.82240000  0.66800000  1.0 -0.1631104478
C  C66  1  0.66690000  0.86910000  0.57000000  1.0 0.4190581089
C  C67  1  0.12740000  0.56560000  0.16070000  1.0 0.6384293458
C  C68  1  0.34220000  0.83980000  0.40460000  1.0 0.6075797698
C  C69  1  0.20540000  0.61240000  0.24250000  1.0 -0.0034102303
C  C70  1  0.23760000  0.70120000  0.28370000  1.0 -0.0888982124
C  C71  1  0.31230000  0.74810000  0.35480000  1.0 -0.0034102303
C  C72  1  0.35430000  0.70410000  0.38730000  1.0 -0.1768039556
C  C73  1  0.32860000  0.62160000  0.34660000  1.0 0.1727721191
C  C74  1  0.24850000  0.57090000  0.27410000  1.0 -0.1924486363
C  C75  1  0.31700000  0.49260000  0.44510000  1.0 0.4081708256
C  C76  1  0.36650000  0.45610000  0.49660000  1.0 -0.0480583401
C  C77  1  0.47380000  0.51320000  0.47660000  1.0 -0.0399417709
C  C78  1  0.53260000  0.60240000  0.40950000  1.0 -0.1235310023
C  C79  1  0.47740000  0.63380000  0.35730000  1.0 0.4081708256
C  C80  1  0.31870000  0.37750000  0.55830000  1.0 -0.1052300015
C  C81  1  0.64350000  0.66910000  0.39820000  1.0 -0.1531008089
C  C82  1  0.79020000  0.66480000  0.86820000  1.0 -0.0207362589
C  C83  1  0.68670000  0.56850000  0.85100000  1.0 -0.0888982124
C  C84  1  0.61660000  0.56700000  0.79300000  1.0 -0.1283993663
C  C85  1  0.65050000  0.66150000  0.75200000  1.0 -0.068401925
C  C86  1  0.75110000  0.75890000  0.77600000  1.0 -0.0399417709
C  C87  1  0.82240000  0.76020000  0.83200000  1.0 -0.1631104478
C  C88  1  0.86910000  0.66690000  0.93000000  1.0 0.4190581089
N  N1  1  0.42280000  0.62700000  0.88440000  1.0 -0.2705674523
N  N2  1  0.36010000  0.14850000  0.42630000  1.0 0.4190581089
N  N3  1  0.62700000  0.42280000  0.61560000  1.0 -0.2705674523
N  N4  1  0.14850000  0.36010000  0.07370000  1.0 0.4190581089
N  N5  1  0.57720000  0.37300000  0.11560000  1.0 -0.2705674523
N  N6  1  0.63990000  0.85150000  0.57370000  1.0 0.4190581089
N  N7  1  0.37300000  0.57720000  0.38440000  1.0 -0.2705674523
N  N8  1  0.85150000  0.63990000  0.92630000  1.0 0.4190581089
O  O1  1  0.38140000  0.89740000  0.62970000  1.0 -0.6786905804
O  O2  1  0.51680000  0.90660000  0.63020000  1.0 -0.6300296316
O  O3  1  0.14340000  0.71780000  0.89790000  1.0 -0.5716051438
O  O4  1  0.10160000  0.57080000  0.94970000  1.0 -0.7024405876
O  O5  1  0.55480000  0.77780000  0.96160000  1.0 -0.4390168616
O  O6  1  0.29320000  0.47860000  0.80170000  1.0 -0.3985631743
O  O7  1  0.43800000  0.18420000  0.47980000  1.0 -0.1692182885
O  O8  1  0.36220000  0.21400000  0.37890000  1.0 -0.0480583401
O  O9  1  0.28620000  0.05040000  0.42150000  1.0 -0.1981670128
O  O10  1  0.40760000  0.17040000  0.49900000  1.0 -0.1692182885
O  O11  1  0.28030000  0.02970000  0.40100000  1.0 -0.2829659784
O  O12  1  0.89740000  0.38140000  0.87030000  1.0 -0.6786905804
O  O13  1  0.90660000  0.51680000  0.86980000  1.0 -0.6300296316
O  O14  1  0.71780000  0.14340000  0.60210000  1.0 -0.5716051438
O  O15  1  0.57080000  0.10160000  0.55030000  1.0 -0.7024405876
O  O16  1  0.77780000  0.55480000  0.53840000  1.0 -0.4390168616
O  O17  1  0.47860000  0.29320000  0.69830000  1.0 -0.3985631743
O  O18  1  0.18420000  0.43800000  0.02020000  1.0 -0.1692182885
O  O19  1  0.21400000  0.36220000  0.12110000  1.0 -0.0480583401
O  O20  1  0.05040000  0.28620000  0.07850000  1.0 -0.1981670128
O  O21  1  0.17040000  0.40760000  0.00100000  1.0 -0.1692182885
O  O22  1  0.02970000  0.28030000  0.09900000  1.0 -0.2829659784
O  O23  1  0.61860000  0.10260000  0.37030000  1.0 -0.6786905804
O  O24  1  0.48320000  0.09340000  0.36980000  1.0 -0.6300296316
O  O25  1  0.85660000  0.28220000  0.10210000  1.0 -0.5716051438
O  O26  1  0.89840000  0.42920000  0.05030000  1.0 -0.7024405876
O  O27  1  0.44520000  0.22220000  0.03840000  1.0 -0.4390168616
O  O28  1  0.70680000  0.52140000  0.19830000  1.0 -0.3985631743
O  O29  1  0.56200000  0.81580000  0.52020000  1.0 -0.1692182885
O  O30  1  0.63780000  0.78600000  0.62110000  1.0 -0.0480583401
O  O31  1  0.71380000  0.94960000  0.57850000  1.0 -0.1981670128
O  O32  1  0.59240000  0.82960000  0.50100000  1.0 -0.1692182885
O  O33  1  0.71970000  0.97030000  0.59900000  1.0 -0.2829659784
O  O34  1  0.10260000  0.61860000  0.12970000  1.0 -0.6786905804
O  O35  1  0.09340000  0.48320000  0.13020000  1.0 -0.6300296316
O  O36  1  0.28220000  0.85660000  0.39790000  1.0 -0.5716051438
O  O37  1  0.42920000  0.89840000  0.44970000  1.0 -0.7024405876
O  O38  1  0.22220000  0.44520000  0.46160000  1.0 -0.4390168616
O  O39  1  0.52140000  0.70680000  0.30170000  1.0 -0.3985631743
O  O40  1  0.81580000  0.56200000  0.97980000  1.0 -0.1692182885
O  O41  1  0.78600000  0.63780000  0.87890000  1.0 -0.0480583401
O  O42  1  0.94960000  0.71380000  0.92150000  1.0 -0.1981670128
O  O43  1  0.82960000  0.59240000  0.99900000  1.0 -0.1692182885
O  O44  1  0.97030000  0.71970000  0.90100000  1.0 -0.2829659784
