# DDEC6 charges by PACMAN v1.1 (https://github.com/mtap-research/PACMAN-charge/)
data_MAZFEC04_ASR_pacman
_symmetry_space_group_name_H-M   'P 1'
_cell_length_a   17.13830000
_cell_length_b   17.13830000
_cell_length_c   14.41400000
_cell_angle_alpha   85.52430000
_cell_angle_beta   94.47570000
_cell_angle_gamma   132.54300000
_symmetry_Int_Tables_number   1
_chemical_formula_structural   NdH10C22N2O11
_chemical_formula_sum   'Nd4 H40 C88 N8 O44'
_cell_volume   3107.90962930
_cell_formula_units_Z   4
loop_
 _symmetry_equiv_pos_site_id
 _symmetry_equiv_pos_as_xyz
  1  'x, y, z'
loop_
 _atom_site_type_symbol
 _atom_site_label
 _atom_site_symmetry_multiplicity
 _atom_site_fract_x
 _atom_site_fract_y
 _atom_site_fract_z
 _atom_site_occupancy
 _atom_site_charge
Nd  Nd1  1  0.38467000  0.00425000  0.50992000  1.0 1.9594313549
Nd  Nd2  1  0.00425000  0.38467000  0.99008000  1.0 1.9535149979
Nd  Nd3  1  0.61533000  0.99575000  0.49008000  1.0 1.9594313549
Nd  Nd4  1  0.99575000  0.61533000  0.00992000  1.0 1.9535149979
H  H1  1  0.26878000  0.78952000  0.76162000  1.0 0.1314945616
H  H2  1  0.26275000  0.59259000  0.93540000  1.0 0.1492392021
H  H3  1  0.48663000  0.76943000  0.74655000  1.0 0.1403835537
H  H4  1  0.65842000  0.75366000  0.06754000  1.0 0.1314945616
H  H5  1  0.28165000  0.32371000  0.85585000  1.0 0.1314945616
H  H6  1  0.50721000  0.34617000  0.38115000  1.0 0.1104178109
H  H7  1  0.50480000  0.45938000  0.28457000  1.0 0.1104178109
H  H8  1  0.34651000  0.39775000  0.21323000  1.0 0.1104178109
H  H9  1  0.19141000  0.22333000  0.23815000  1.0 0.1001488422
H  H10  1  0.19385000  0.11005000  0.33520000  1.0 0.1001488422
H  H11  1  0.78952000  0.26878000  0.73838000  1.0 0.1314945616
H  H12  1  0.59259000  0.26275000  0.56460000  1.0 0.1492392021
H  H13  1  0.76943000  0.48663000  0.75345000  1.0 0.1403835537
H  H14  1  0.75366000  0.65842000  0.43246000  1.0 0.1314945616
H  H15  1  0.32371000  0.28165000  0.64415000  1.0 0.1314945616
H  H16  1  0.34617000  0.50721000  0.11885000  1.0 0.1104178109
H  H17  1  0.45938000  0.50480000  0.21543000  1.0 0.1104178109
H  H18  1  0.39775000  0.34651000  0.28677000  1.0 0.1104178109
H  H19  1  0.22333000  0.19141000  0.26185000  1.0 0.0943250554
H  H20  1  0.11005000  0.19385000  0.16480000  1.0 0.1001488422
H  H21  1  0.73122000  0.21048000  0.23838000  1.0 0.1314945616
H  H22  1  0.73725000  0.40741000  0.06460000  1.0 0.1492392021
H  H23  1  0.51337000  0.23057000  0.25345000  1.0 0.1403835537
H  H24  1  0.34158000  0.24634000  0.93246000  1.0 0.1314945616
H  H25  1  0.71835000  0.67629000  0.14415000  1.0 0.1314945616
H  H26  1  0.49279000  0.65383000  0.61885000  1.0 0.1104178109
H  H27  1  0.49520000  0.54062000  0.71543000  1.0 0.1104178109
H  H28  1  0.65349000  0.60225000  0.78677000  1.0 0.1104178109
H  H29  1  0.80859000  0.77667000  0.76185000  1.0 0.1001488422
H  H30  1  0.80615000  0.88995000  0.66480000  1.0 0.1001488422
H  H31  1  0.21048000  0.73122000  0.26162000  1.0 0.1314945616
H  H32  1  0.40741000  0.73725000  0.43540000  1.0 0.1492392021
H  H33  1  0.23057000  0.51337000  0.24655000  1.0 0.1403835537
H  H34  1  0.24634000  0.34158000  0.56754000  1.0 0.1314945616
H  H35  1  0.67629000  0.71835000  0.35585000  1.0 0.1314945616
H  H36  1  0.65383000  0.49279000  0.88115000  1.0 0.1104178109
H  H37  1  0.54062000  0.49520000  0.78457000  1.0 0.1104178109
H  H38  1  0.60225000  0.65349000  0.71323000  1.0 0.1104178109
H  H39  1  0.77667000  0.80859000  0.73815000  1.0 0.1001488422
H  H40  1  0.88995000  0.80615000  0.83520000  1.0 0.1001488422
C  C1  1  0.43030000  0.86950000  0.66090000  1.0 0.6440216946
C  C2  1  0.15890000  0.65550000  0.90110000  1.0 0.6171886968
C  C3  1  0.38500000  0.79180000  0.74000000  1.0 -0.0202163892
C  C4  1  0.29690000  0.75990000  0.78270000  1.0 -0.0807454018
C  C5  1  0.25000000  0.68600000  0.85510000  1.0 -0.0202163892
C  C6  1  0.29330000  0.64250000  0.88630000  1.0 -0.1373422695
C  C7  1  0.37980000  0.67240000  0.84590000  1.0 0.1706677313
C  C8  1  0.42670000  0.74810000  0.77310000  1.0 -0.152563476
C  C9  1  0.50720000  0.68320000  0.94200000  1.0 0.4316273804
C  C10  1  0.54280000  0.63260000  0.99530000  1.0 -0.0452696187
C  C11  1  0.48580000  0.52660000  0.97680000  1.0 -0.0058830386
C  C12  1  0.39770000  0.46750000  0.90940000  1.0 -0.0722714262
C  C13  1  0.36660000  0.52240000  0.85920000  1.0 0.4316273804
C  C14  1  0.62340000  0.68380000  0.05600000  1.0 -0.0722714262
C  C15  1  0.34120000  0.36280000  0.89570000  1.0 -0.0807454018
C  C16  1  0.35330000  0.14350000  0.43100000  1.0 0.530893703
C  C17  1  0.35090000  0.21710000  0.36750000  1.0 -0.1591294696
C  C18  1  0.44390000  0.32150000  0.35250000  1.0 0.0144020571
C  C19  1  0.44240000  0.38940000  0.29470000  1.0 -0.152563476
C  C20  1  0.34760000  0.35240000  0.25190000  1.0 -0.0606618533
C  C21  1  0.25480000  0.24800000  0.26700000  1.0 -0.0416242858
C  C22  1  0.25620000  0.18000000  0.32500000  1.0 -0.0202163892
C  C23  1  0.86950000  0.43030000  0.83910000  1.0 0.6440216946
C  C24  1  0.65550000  0.15890000  0.59890000  1.0 0.6171886968
C  C25  1  0.79180000  0.38500000  0.76000000  1.0 -0.0202163892
C  C26  1  0.75990000  0.29690000  0.71730000  1.0 -0.0807454018
C  C27  1  0.68600000  0.25000000  0.64490000  1.0 -0.0202163892
C  C28  1  0.64250000  0.29330000  0.61370000  1.0 -0.1373422695
C  C29  1  0.67240000  0.37980000  0.65410000  1.0 0.1706677313
C  C30  1  0.74810000  0.42670000  0.72690000  1.0 -0.152563476
C  C31  1  0.68320000  0.50720000  0.55800000  1.0 0.4316273804
C  C32  1  0.63260000  0.54280000  0.50470000  1.0 -0.0416242858
C  C33  1  0.52660000  0.48580000  0.52320000  1.0 -0.0058830386
C  C34  1  0.46750000  0.39770000  0.59060000  1.0 -0.0722714262
C  C35  1  0.52240000  0.36660000  0.64080000  1.0 0.4316273804
C  C36  1  0.68380000  0.62340000  0.44400000  1.0 -0.0722714262
C  C37  1  0.36280000  0.34120000  0.60430000  1.0 -0.0807454018
C  C38  1  0.14350000  0.35330000  0.06900000  1.0 0.530893703
C  C39  1  0.21710000  0.35090000  0.13250000  1.0 -0.1591294696
C  C40  1  0.32150000  0.44390000  0.14750000  1.0 0.0144020571
C  C41  1  0.38940000  0.44240000  0.20530000  1.0 -0.152563476
C  C42  1  0.35240000  0.34760000  0.24810000  1.0 -0.0606618533
C  C43  1  0.24800000  0.25480000  0.23300000  1.0 -0.0416242858
C  C44  1  0.18000000  0.25620000  0.17500000  1.0 -0.0202163892
C  C45  1  0.56970000  0.13050000  0.33910000  1.0 0.6440216946
C  C46  1  0.84110000  0.34450000  0.09890000  1.0 0.6171886968
C  C47  1  0.61500000  0.20820000  0.26000000  1.0 -0.0202163892
C  C48  1  0.70310000  0.24010000  0.21730000  1.0 -0.0807454018
C  C49  1  0.75000000  0.31400000  0.14490000  1.0 -0.0202163892
C  C50  1  0.70670000  0.35750000  0.11370000  1.0 -0.1373422695
C  C51  1  0.62020000  0.32760000  0.15410000  1.0 0.1706677313
C  C52  1  0.57330000  0.25190000  0.22690000  1.0 -0.152563476
C  C53  1  0.49280000  0.31680000  0.05800000  1.0 0.4316273804
C  C54  1  0.45720000  0.36740000  0.00470000  1.0 -0.0452696187
C  C55  1  0.51420000  0.47340000  0.02320000  1.0 -0.0058830386
C  C56  1  0.60230000  0.53250000  0.09060000  1.0 -0.0722714262
C  C57  1  0.63340000  0.47760000  0.14080000  1.0 0.435363059
C  C58  1  0.37660000  0.31620000  0.94400000  1.0 -0.0722714262
C  C59  1  0.65880000  0.63720000  0.10430000  1.0 -0.0807454018
C  C60  1  0.64670000  0.85650000  0.56900000  1.0 0.530893703
C  C61  1  0.64910000  0.78290000  0.63250000  1.0 -0.1591294696
C  C62  1  0.55610000  0.67850000  0.64750000  1.0 0.0144020571
C  C63  1  0.55760000  0.61060000  0.70530000  1.0 -0.152563476
C  C64  1  0.65240000  0.64760000  0.74810000  1.0 -0.0606618533
C  C65  1  0.74520000  0.75200000  0.73300000  1.0 -0.0416242858
C  C66  1  0.74380000  0.82000000  0.67500000  1.0 -0.0202163892
C  C67  1  0.13050000  0.56970000  0.16090000  1.0 0.6440216946
C  C68  1  0.34450000  0.84110000  0.40110000  1.0 0.6171886968
C  C69  1  0.20820000  0.61500000  0.24000000  1.0 -0.0202163892
C  C70  1  0.24010000  0.70310000  0.28270000  1.0 -0.0807454018
C  C71  1  0.31400000  0.75000000  0.35510000  1.0 -0.0202163892
C  C72  1  0.35750000  0.70670000  0.38630000  1.0 -0.1373422695
C  C73  1  0.32760000  0.62020000  0.34590000  1.0 0.1706677313
C  C74  1  0.25190000  0.57330000  0.27310000  1.0 -0.152563476
C  C75  1  0.31680000  0.49280000  0.44200000  1.0 0.4316273804
C  C76  1  0.36740000  0.45720000  0.49530000  1.0 -0.0452696187
C  C77  1  0.47340000  0.51420000  0.47680000  1.0 -0.0058830386
C  C78  1  0.53250000  0.60230000  0.40940000  1.0 -0.0722714262
C  C79  1  0.47760000  0.63340000  0.35920000  1.0 0.4316273804
C  C80  1  0.31620000  0.37660000  0.55600000  1.0 -0.0722714262
C  C81  1  0.63720000  0.65880000  0.39570000  1.0 -0.0807454018
C  C82  1  0.85650000  0.64670000  0.93100000  1.0 0.530893703
C  C83  1  0.78290000  0.64910000  0.86750000  1.0 -0.1591294696
C  C84  1  0.67850000  0.55610000  0.85250000  1.0 0.0144020571
C  C85  1  0.61060000  0.55760000  0.79470000  1.0 -0.152563476
C  C86  1  0.64760000  0.65240000  0.75190000  1.0 -0.0606618533
C  C87  1  0.75200000  0.74520000  0.76700000  1.0 -0.0416242858
C  C88  1  0.82000000  0.74380000  0.82500000  1.0 -0.0202163892
N  N1  1  0.42207000  0.62593000  0.88310000  1.0 -0.2272847844
N  N2  1  0.35530000  0.14310000  0.42910000  1.0 0.595900421
N  N3  1  0.62593000  0.42207000  0.61690000  1.0 -0.2272847844
N  N4  1  0.14310000  0.35530000  0.07090000  1.0 0.595900421
N  N5  1  0.57793000  0.37407000  0.11690000  1.0 -0.2272847844
N  N6  1  0.64470000  0.85690000  0.57090000  1.0 0.595900421
N  N7  1  0.37407000  0.57793000  0.38310000  1.0 -0.2272847844
N  N8  1  0.85690000  0.64470000  0.92910000  1.0 0.595900421
O  O1  1  0.37869000  0.89431000  0.62780000  1.0 -0.6715981169
O  O2  1  0.51583000  0.90497000  0.63110000  1.0 -0.6277143312
O  O3  1  0.14211000  0.71629000  0.89720000  1.0 -0.5790128214
O  O4  1  0.10191000  0.56949000  0.94830000  1.0 -0.7184806419
O  O5  1  0.55410000  0.77690000  0.95770000  1.0 -0.3910761578
O  O6  1  0.29330000  0.47790000  0.80300000  1.0 -0.346697676
O  O7  1  0.35930000  0.21470000  0.38400000  1.0 -0.2100242925
O  O8  1  0.29010000  0.04590000  0.40100000  1.0 -0.4002081854
O  O9  1  0.43200000  0.18220000  0.48310000  1.0 -0.4473292855
O  O10  1  0.42240000  0.17560000  0.50000000  1.0 -0.5078700933
O  O11  1  0.28340000  0.04620000  0.42400000  1.0 -0.3660574583
O  O12  1  0.89431000  0.37869000  0.87220000  1.0 -0.6715981169
O  O13  1  0.90497000  0.51583000  0.86890000  1.0 -0.6277143312
O  O14  1  0.71629000  0.14211000  0.60280000  1.0 -0.5790128214
O  O15  1  0.56949000  0.10191000  0.55170000  1.0 -0.7184806419
O  O16  1  0.77690000  0.55410000  0.54230000  1.0 -0.3910761578
O  O17  1  0.47790000  0.29330000  0.69700000  1.0 -0.346697676
O  O18  1  0.21470000  0.35930000  0.11600000  1.0 -0.2030653062
O  O19  1  0.04590000  0.29010000  0.09900000  1.0 -0.4002081854
O  O20  1  0.18220000  0.43200000  0.01690000  1.0 -0.4473292855
O  O21  1  0.17560000  0.42240000  0.00000000  1.0 -0.5038468493
O  O22  1  0.04620000  0.28340000  0.07600000  1.0 -0.3660574583
O  O23  1  0.62131000  0.10569000  0.37220000  1.0 -0.6715981169
O  O24  1  0.48417000  0.09503000  0.36890000  1.0 -0.6277143312
O  O25  1  0.85789000  0.28371000  0.10280000  1.0 -0.5790128214
O  O26  1  0.89809000  0.43051000  0.05170000  1.0 -0.7184806419
O  O27  1  0.44590000  0.22310000  0.04230000  1.0 -0.3910761578
O  O28  1  0.70670000  0.52210000  0.19700000  1.0 -0.346697676
O  O29  1  0.64070000  0.78530000  0.61600000  1.0 -0.2030653062
O  O30  1  0.70990000  0.95410000  0.59900000  1.0 -0.4002081854
O  O31  1  0.56800000  0.81780000  0.51690000  1.0 -0.4473292855
O  O32  1  0.57760000  0.82440000  0.50000000  1.0 -0.5078700933
O  O33  1  0.71660000  0.95380000  0.57600000  1.0 -0.3660574583
O  O34  1  0.10569000  0.62131000  0.12780000  1.0 -0.6715981169
O  O35  1  0.09503000  0.48417000  0.13110000  1.0 -0.6277143312
O  O36  1  0.28371000  0.85789000  0.39720000  1.0 -0.5790128214
O  O37  1  0.43051000  0.89809000  0.44830000  1.0 -0.7184806419
O  O38  1  0.22310000  0.44590000  0.45770000  1.0 -0.3910761578
O  O39  1  0.52210000  0.70670000  0.30300000  1.0 -0.346697676
O  O40  1  0.78530000  0.64070000  0.88400000  1.0 -0.2030653062
O  O41  1  0.95410000  0.70990000  0.90100000  1.0 -0.4002081854
O  O42  1  0.81780000  0.56800000  0.98310000  1.0 -0.4473292855
O  O43  1  0.82440000  0.57760000  0.00000000  1.0 -0.5078700933
O  O44  1  0.95380000  0.71660000  0.92400000  1.0 -0.3660574583
