# DDEC6 charges by PACMAN v1.1 (https://github.com/mtap-research/PACMAN-charge/)
data_MAZSOX_FSR_pacman
_symmetry_space_group_name_H-M   'P 1'
_cell_length_a   11.22780000
_cell_length_b   11.22780000
_cell_length_c   9.20690000
_cell_angle_alpha   82.91360000
_cell_angle_beta   97.08640000
_cell_angle_gamma   81.51730000
_symmetry_Int_Tables_number   1
_chemical_formula_structural   Zn5H16C28(N3O4)2
_chemical_formula_sum   'Zn5 H16 C28 N6 O8'
_cell_volume   1127.27664102
_cell_formula_units_Z   1
loop_
 _symmetry_equiv_pos_site_id
 _symmetry_equiv_pos_as_xyz
  1  'x, y, z'
loop_
 _atom_site_type_symbol
 _atom_site_label
 _atom_site_symmetry_multiplicity
 _atom_site_fract_x
 _atom_site_fract_y
 _atom_site_fract_z
 _atom_site_occupancy
 _atom_site_charge
Zn  Zn1  1  0.00000000  0.00000000  0.00000000  1.0 0.8428429919
Zn  Zn2  1  0.90490000  0.08110000  0.33789000  1.0 0.7878897445
Zn  Zn3  1  0.08110000  0.90490000  0.66211000  1.0 0.7878897445
Zn  Zn4  1  0.09510000  0.91890000  0.66211000  1.0 0.7878897445
Zn  Zn5  1  0.91890000  0.09510000  0.33789000  1.0 0.7878897445
H  H1  1  0.93280000  0.66260000  0.10960000  1.0 0.1195198434
H  H2  1  0.66260000  0.93280000  0.89040000  1.0 0.1195198434
H  H3  1  0.06720000  0.33740000  0.89040000  1.0 0.1195198434
H  H4  1  0.33740000  0.06720000  0.10960000  1.0 0.1195198434
H  H5  1  0.07460000  0.52860000  0.78240000  1.0 0.1195198434
H  H6  1  0.52860000  0.07460000  0.21760000  1.0 0.1195198434
H  H7  1  0.92540000  0.47140000  0.21760000  1.0 0.1195198434
H  H8  1  0.47140000  0.92540000  0.78240000  1.0 0.1195198434
H  H9  1  0.24410000  0.75590000  0.08080000  1.0 0.1115979063
H  H10  1  0.75590000  0.24410000  0.91920000  1.0 0.1115979063
H  H11  1  0.38700000  0.61300000  0.21750000  1.0 0.100632261
H  H12  1  0.61300000  0.38700000  0.78250000  1.0 0.100632261
H  H13  1  0.29190000  0.70810000  0.60080000  1.0 0.1195198434
H  H14  1  0.70810000  0.29190000  0.39920000  1.0 0.1195198434
H  H15  1  0.41610000  0.58390000  0.47530000  1.0 0.0932353171
H  H16  1  0.58390000  0.41610000  0.52470000  1.0 0.0932353171
C  C1  1  0.02660000  0.74060000  0.87440000  1.0 0.5509512382
C  C2  1  0.74060000  0.02660000  0.12560000  1.0 0.5509512382
C  C3  1  0.97340000  0.25940000  0.12560000  1.0 0.5509512382
C  C4  1  0.25940000  0.97340000  0.87440000  1.0 0.5509512382
C  C5  1  0.01210000  0.61650000  0.93800000  1.0 -0.0312204571
C  C6  1  0.61650000  0.01210000  0.06200000  1.0 -0.0312204571
C  C7  1  0.98790000  0.38350000  0.06200000  1.0 -0.0312204571
C  C8  1  0.38350000  0.98790000  0.93800000  1.0 -0.0312204571
C  C9  1  0.96220000  0.59660000  0.06490000  1.0 -0.1225299706
C  C10  1  0.59660000  0.96220000  0.93510000  1.0 -0.1225299706
C  C11  1  0.03780000  0.40340000  0.93510000  1.0 -0.1225299706
C  C12  1  0.40340000  0.03780000  0.06490000  1.0 -0.1225299706
C  C13  1  0.17750000  0.82250000  0.26050000  1.0 0.1115979063
C  C14  1  0.82250000  0.17750000  0.73950000  1.0 0.1115979063
C  C15  1  0.04550000  0.51790000  0.87260000  1.0 -0.1225299706
C  C16  1  0.51790000  0.04550000  0.12740000  1.0 -0.1225299706
C  C17  1  0.95450000  0.48210000  0.12740000  1.0 -0.1225299706
C  C18  1  0.48210000  0.95450000  0.87260000  1.0 -0.1225299706
C  C19  1  0.19530000  0.80470000  0.41440000  1.0 0.0932353171
C  C20  1  0.80470000  0.19530000  0.58560000  1.0 0.0932353171
C  C21  1  0.25340000  0.74660000  0.18350000  1.0 -0.1673534406
C  C22  1  0.74660000  0.25340000  0.81650000  1.0 -0.1673534406
C  C23  1  0.33660000  0.66340000  0.26500000  1.0 -0.1118202848
C  C24  1  0.66340000  0.33660000  0.73500000  1.0 -0.1118202848
C  C25  1  0.28220000  0.71780000  0.49800000  1.0 -0.2241364388
C  C26  1  0.71780000  0.28220000  0.50200000  1.0 -0.2241364388
C  C27  1  0.35520000  0.64480000  0.42300000  1.0 -0.1225299706
C  C28  1  0.64480000  0.35520000  0.57700000  1.0 -0.1225299706
N  N1  1  0.04840000  0.95160000  0.33200000  1.0 -0.1945548994
N  N2  1  0.95160000  0.04840000  0.66800000  1.0 -0.1945548994
N  N3  1  0.08470000  0.91530000  0.21320000  1.0 -0.1999517424
N  N4  1  0.91530000  0.08470000  0.78680000  1.0 -0.1999517424
N  N5  1  0.11080000  0.88920000  0.45500000  1.0 -0.3682153268
N  N6  1  0.88920000  0.11080000  0.54500000  1.0 -0.3682153268
O  O1  1  0.06980000  0.75100000  0.75520000  1.0 -0.5714642597
O  O2  1  0.75100000  0.06980000  0.24480000  1.0 -0.5714642597
O  O3  1  0.93020000  0.24900000  0.24480000  1.0 -0.5714642597
O  O4  1  0.24900000  0.93020000  0.75520000  1.0 -0.5714642597
O  O5  1  0.99270000  0.82710000  0.93940000  1.0 -0.5614749832
O  O6  1  0.82710000  0.99270000  0.06060000  1.0 -0.5614749832
O  O7  1  0.00730000  0.17290000  0.06060000  1.0 -0.5614749832
O  O8  1  0.17290000  0.00730000  0.93940000  1.0 -0.5614749832
