# DDEC6 charges by PACMAN v1.1 (https://github.com/mtap-research/PACMAN-charge/)
data_MAZYER_ASR_pacman
_symmetry_space_group_name_H-M   'P 1'
_cell_length_a   8.61544000
_cell_length_b   8.61544000
_cell_length_c   15.75430000
_cell_angle_alpha   78.69650000
_cell_angle_beta   101.30300000
_cell_angle_gamma   98.11860000
_symmetry_Int_Tables_number   1
_chemical_formula_structural   KCd(CO2)4
_chemical_formula_sum   'K4 Cd4 C16 O32'
_cell_volume   1118.00712379
_cell_formula_units_Z   4
loop_
 _symmetry_equiv_pos_site_id
 _symmetry_equiv_pos_as_xyz
  1  'x, y, z'
loop_
 _atom_site_type_symbol
 _atom_site_label
 _atom_site_symmetry_multiplicity
 _atom_site_fract_x
 _atom_site_fract_y
 _atom_site_fract_z
 _atom_site_occupancy
 _atom_site_charge
K  K1  1  0.50000000  0.50000000  0.50000000  1.0 0.9262293742
K  K2  1  0.50000000  0.50000000  0.00000000  1.0 0.9262293742
K  K3  1  0.78803000  0.78803000  0.25000000  1.0 0.9179865585
K  K4  1  0.21197000  0.21197000  0.75000000  1.0 0.9179865585
Cd  Cd1  1  0.12498000  0.52078000  0.32564000  1.0 1.0797868238
Cd  Cd2  1  0.47922000  0.87502000  0.82564000  1.0 1.0797868238
Cd  Cd3  1  0.87502000  0.47922000  0.67436000  1.0 1.0797868238
Cd  Cd4  1  0.52078000  0.12498000  0.17436000  1.0 1.0797868238
C  C1  1  0.30880000  0.38840000  0.20330000  1.0 0.5104267762
C  C2  1  0.61160000  0.69120000  0.70330000  1.0 0.5104267762
C  C3  1  0.69120000  0.61160000  0.79670000  1.0 0.5104267762
C  C4  1  0.38840000  0.30880000  0.29670000  1.0 0.5104267762
C  C5  1  0.86810000  0.23930000  0.27030000  1.0 0.5198630856
C  C6  1  0.76070000  0.13190000  0.77030000  1.0 0.5198630856
C  C7  1  0.13190000  0.76070000  0.72970000  1.0 0.5198630856
C  C8  1  0.23930000  0.86810000  0.22970000  1.0 0.5198630856
C  C9  1  0.80700000  0.38880000  0.20440000  1.0 0.5297860593
C  C10  1  0.61120000  0.19300000  0.70440000  1.0 0.5297860593
C  C11  1  0.19300000  0.61120000  0.79560000  1.0 0.5297860593
C  C12  1  0.38880000  0.80700000  0.29560000  1.0 0.5297860593
C  C13  1  0.07210000  0.45470000  0.52580000  1.0 0.5297860593
C  C14  1  0.54530000  0.92790000  0.02580000  1.0 0.5297860593
C  C15  1  0.92790000  0.54530000  0.47420000  1.0 0.5297860593
C  C16  1  0.45470000  0.07210000  0.97420000  1.0 0.5297860593
O  O1  1  0.21170000  0.48610000  0.20040000  1.0 -0.4793905711
O  O2  1  0.51390000  0.78830000  0.70040000  1.0 -0.4793905711
O  O3  1  0.78830000  0.51390000  0.79960000  1.0 -0.4793905711
O  O4  1  0.48610000  0.21170000  0.29960000  1.0 -0.4793905711
O  O5  1  0.98360000  0.26520000  0.32940000  1.0 -0.4793905711
O  O6  1  0.73480000  0.01640000  0.82940000  1.0 -0.4793905711
O  O7  1  0.01640000  0.73480000  0.67060000  1.0 -0.4793905711
O  O8  1  0.26520000  0.98360000  0.17060000  1.0 -0.4793905711
O  O9  1  0.68990000  0.36330000  0.14610000  1.0 -0.5476296379
O  O10  1  0.63670000  0.31010000  0.64610000  1.0 -0.5476296379
O  O11  1  0.31010000  0.63670000  0.85390000  1.0 -0.5476296379
O  O12  1  0.36330000  0.68990000  0.35390000  1.0 -0.5476296379
O  O13  1  0.17860000  0.44440000  0.48360000  1.0 -0.5276611282
O  O14  1  0.55560000  0.82140000  0.98360000  1.0 -0.5276611282
O  O15  1  0.82140000  0.55560000  0.51640000  1.0 -0.5276611282
O  O16  1  0.44440000  0.17860000  0.01640000  1.0 -0.5276611282
O  O17  1  0.92920000  0.60080000  0.39530000  1.0 -0.5418014957
O  O18  1  0.39920000  0.07080000  0.89530000  1.0 -0.5418014957
O  O19  1  0.07080000  0.39920000  0.60470000  1.0 -0.5418014957
O  O20  1  0.60080000  0.92920000  0.10470000  1.0 -0.5418014957
O  O21  1  0.88120000  0.52100000  0.21410000  1.0 -0.5062385633
O  O22  1  0.47900000  0.11880000  0.71410000  1.0 -0.5062385633
O  O23  1  0.11880000  0.47900000  0.78590000  1.0 -0.5062385633
O  O24  1  0.52100000  0.88120000  0.28590000  1.0 -0.5062385633
O  O25  1  0.79710000  0.10610000  0.25840000  1.0 -0.50340624
O  O26  1  0.89390000  0.20290000  0.75840000  1.0 -0.50340624
O  O27  1  0.20290000  0.89390000  0.74160000  1.0 -0.50340624
O  O28  1  0.10610000  0.79710000  0.24160000  1.0 -0.50340624
O  O29  1  0.35180000  0.34880000  0.36160000  1.0 -0.5062385633
O  O30  1  0.65120000  0.64820000  0.86160000  1.0 -0.5062385633
O  O31  1  0.64820000  0.65120000  0.63840000  1.0 -0.5062385633
O  O32  1  0.34880000  0.35180000  0.13840000  1.0 -0.5062385633
