# DDEC6 charges by PACMAN v1.1 (https://github.com/mtap-research/PACMAN-charge/)
data_MECLEL_ASR_pacman
_symmetry_space_group_name_H-M   'P 1'
_cell_length_a   9.19126000
_cell_length_b   9.19126000
_cell_length_c   18.32490000
_cell_angle_alpha   89.74870000
_cell_angle_beta   90.25130000
_cell_angle_gamma   101.74800000
_symmetry_Int_Tables_number   1
_chemical_formula_structural   Al2P2O8F
_chemical_formula_sum   'Al12 P12 O48 F6'
_cell_volume   1515.62161853
_cell_formula_units_Z   6
loop_
 _symmetry_equiv_pos_site_id
 _symmetry_equiv_pos_as_xyz
  1  'x, y, z'
loop_
 _atom_site_type_symbol
 _atom_site_label
 _atom_site_symmetry_multiplicity
 _atom_site_fract_x
 _atom_site_fract_y
 _atom_site_fract_z
 _atom_site_occupancy
 _atom_site_charge
Al  Al1  1  0.40778000  0.86748000  0.46900000  1.0 1.7292304322
Al  Al2  1  0.86748000  0.40778000  0.03100000  1.0 1.7292304322
Al  Al3  1  0.59222000  0.13252000  0.53100000  1.0 1.7292304322
Al  Al4  1  0.13252000  0.59222000  0.96900000  1.0 1.7292304322
Al  Al5  1  0.15184000  0.40474000  0.43338000  1.0 1.7389287039
Al  Al6  1  0.40474000  0.15184000  0.06662000  1.0 1.7389287039
Al  Al7  1  0.84816000  0.59526000  0.56662000  1.0 1.7389287039
Al  Al8  1  0.59526000  0.84816000  0.93338000  1.0 1.7389287039
Al  Al9  1  0.37687000  0.54521000  0.18165000  1.0 1.7389287039
Al  Al10  1  0.54521000  0.37687000  0.31835000  1.0 1.7389287039
Al  Al11  1  0.62313000  0.45479000  0.81835000  1.0 1.7389287039
Al  Al12  1  0.45479000  0.62313000  0.68165000  1.0 1.7389287039
P  P1  1  0.19141000  0.62367000  0.55989000  1.0 1.5475781843
P  P2  1  0.62367000  0.19141000  0.94011000  1.0 1.5475781843
P  P3  1  0.80859000  0.37633000  0.44011000  1.0 1.5475781843
P  P4  1  0.37633000  0.80859000  0.05989000  1.0 1.5475781843
P  P5  1  0.64745000  0.83005000  0.57585000  1.0 1.5335337803
P  P6  1  0.83005000  0.64745000  0.92415000  1.0 1.5335337803
P  P7  1  0.35255000  0.16995000  0.42415000  1.0 1.5403985962
P  P8  1  0.16995000  0.35255000  0.07585000  1.0 1.5403985962
P  P9  1  0.38514000  0.62726000  0.34332000  1.0 1.5475781843
P  P10  1  0.62726000  0.38514000  0.15668000  1.0 1.5403985962
P  P11  1  0.61486000  0.37274000  0.65668000  1.0 1.5403985962
P  P12  1  0.37274000  0.61486000  0.84332000  1.0 1.5475781843
O  O1  1  0.23850000  0.74730000  0.50454000  1.0 -0.7692010268
O  O2  1  0.74730000  0.23850000  0.99546000  1.0 -0.7692010268
O  O3  1  0.76150000  0.25270000  0.49546000  1.0 -0.7692010268
O  O4  1  0.25270000  0.76150000  0.00454000  1.0 -0.7692010268
O  O5  1  0.23610000  0.53250000  0.36880000  1.0 -0.7963713721
O  O6  1  0.53250000  0.23610000  0.13120000  1.0 -0.7890533522
O  O7  1  0.76390000  0.46750000  0.63120000  1.0 -0.7890533522
O  O8  1  0.46750000  0.76390000  0.86880000  1.0 -0.7963713721
O  O9  1  0.41480000  0.77640000  0.38088000  1.0 -0.7184938744
O  O10  1  0.77640000  0.41480000  0.11912000  1.0 -0.7184938744
O  O11  1  0.58520000  0.22360000  0.61912000  1.0 -0.7184938744
O  O12  1  0.22360000  0.58520000  0.88088000  1.0 -0.7184938744
O  O13  1  0.17500000  0.47180000  0.52204000  1.0 -0.7890533522
O  O14  1  0.47180000  0.17500000  0.97796000  1.0 -0.7826577977
O  O15  1  0.82500000  0.52820000  0.47796000  1.0 -0.7890533522
O  O16  1  0.52820000  0.82500000  0.02204000  1.0 -0.7890533522
O  O17  1  0.37110000  0.65850000  0.26120000  1.0 -0.7297585153
O  O18  1  0.65850000  0.37110000  0.23880000  1.0 -0.7297585153
O  O19  1  0.62890000  0.34150000  0.73880000  1.0 -0.7297585153
O  O20  1  0.34150000  0.62890000  0.76120000  1.0 -0.7297585153
O  O21  1  0.03640000  0.63540000  0.58920000  1.0 -0.7624013141
O  O22  1  0.63540000  0.03640000  0.91080000  1.0 -0.7624013141
O  O23  1  0.96360000  0.36460000  0.41080000  1.0 -0.7624013141
O  O24  1  0.36460000  0.96360000  0.08920000  1.0 -0.7624013141
O  O25  1  0.54210000  0.76650000  0.51420000  1.0 -0.7297585153
O  O26  1  0.76650000  0.54210000  0.98580000  1.0 -0.7297585153
O  O27  1  0.45790000  0.23350000  0.48580000  1.0 -0.7184938744
O  O28  1  0.23350000  0.45790000  0.01420000  1.0 -0.7297585153
O  O29  1  0.78810000  0.76110000  0.57320000  1.0 -0.7511305601
O  O30  1  0.76110000  0.78810000  0.92680000  1.0 -0.7511305601
O  O31  1  0.21190000  0.23890000  0.42680000  1.0 -0.7511305601
O  O32  1  0.23890000  0.21190000  0.07320000  1.0 -0.7511305601
O  O33  1  0.29730000  0.00150000  0.42822000  1.0 -0.6915417776
O  O34  1  0.00150000  0.29730000  0.07178000  1.0 -0.6915417776
O  O35  1  0.70270000  0.99850000  0.57178000  1.0 -0.6915417776
O  O36  1  0.99850000  0.70270000  0.92822000  1.0 -0.6915417776
O  O37  1  0.57230000  0.79010000  0.65046000  1.0 -0.7511305601
O  O38  1  0.79010000  0.57230000  0.84954000  1.0 -0.7511305601
O  O39  1  0.42770000  0.20990000  0.34954000  1.0 -0.7511305601
O  O40  1  0.20990000  0.42770000  0.15046000  1.0 -0.7511305601
O  O41  1  0.29260000  0.63120000  0.62534000  1.0 -0.7364697174
O  O42  1  0.63120000  0.29260000  0.87466000  1.0 -0.7364697174
O  O43  1  0.70740000  0.36880000  0.37466000  1.0 -0.7364697174
O  O44  1  0.36880000  0.70740000  0.12534000  1.0 -0.7364697174
O  O45  1  0.51200000  0.54480000  0.35680000  1.0 -0.7826577977
O  O46  1  0.54480000  0.51200000  0.14320000  1.0 -0.7826577977
O  O47  1  0.48800000  0.45520000  0.64320000  1.0 -0.7826577977
O  O48  1  0.45520000  0.48800000  0.85680000  1.0 -0.7826577977
F  F1  1  0.39070000  0.39070000  0.25000000  1.0 -0.5694227234
F  F2  1  0.60930000  0.60930000  0.75000000  1.0 -0.5694227234
F  F3  1  0.57623000  0.01357000  0.44613000  1.0 -0.5560320929
F  F4  1  0.01357000  0.57623000  0.05387000  1.0 -0.5493425246
F  F5  1  0.42377000  0.98643000  0.55387000  1.0 -0.5493425246
F  F6  1  0.98643000  0.42377000  0.94613000  1.0 -0.5493425246
