# DDEC6 charges by PACMAN v1.1 (https://github.com/mtap-research/PACMAN-charge/)
data_MECVUM_FSR_pacman
_symmetry_space_group_name_H-M   'P 1'
_cell_length_a   14.67390000
_cell_length_b   14.67390000
_cell_length_c   14.67390000
_cell_angle_alpha   109.47100000
_cell_angle_beta   109.47100000
_cell_angle_gamma   109.47100000
_symmetry_Int_Tables_number   1
_chemical_formula_structural   Mn2Ga(PO4)4
_chemical_formula_sum   'Mn6 Ga3 P12 O48'
_cell_volume   2432.30662199
_cell_formula_units_Z   3
loop_
 _symmetry_equiv_pos_site_id
 _symmetry_equiv_pos_as_xyz
  1  'x, y, z'
loop_
 _atom_site_type_symbol
 _atom_site_label
 _atom_site_symmetry_multiplicity
 _atom_site_fract_x
 _atom_site_fract_y
 _atom_site_fract_z
 _atom_site_occupancy
 _atom_site_charge
Mn  Mn1  1  0.50000000  0.75000000  0.25000000  1.0 1.1198654529
Mn  Mn2  1  0.50000000  0.25000000  0.75000000  1.0 1.1198654529
Mn  Mn3  1  0.25000000  0.50000000  0.75000000  1.0 1.1198654529
Mn  Mn4  1  0.75000000  0.50000000  0.25000000  1.0 1.1198654529
Mn  Mn5  1  0.75000000  0.25000000  0.50000000  1.0 1.1198654529
Mn  Mn6  1  0.25000000  0.75000000  0.50000000  1.0 1.1198654529
Ga  Ga1  1  0.50000000  0.00000000  0.50000000  1.0 1.4280422088
Ga  Ga2  1  0.50000000  0.50000000  0.00000000  1.0 1.4280422088
Ga  Ga3  1  0.00000000  0.50000000  0.50000000  1.0 1.4280422088
P  P1  1  0.44188000  0.75202000  0.44188000  1.0 1.3075338218
P  P2  1  0.31014000  0.00000000  0.55812000  1.0 1.3075338218
P  P3  1  0.68986000  0.24798000  0.68986000  1.0 1.3032878594
P  P4  1  0.55812000  0.00000000  0.31014000  1.0 1.3032878594
P  P5  1  0.44188000  0.44188000  0.75202000  1.0 1.3032878594
P  P6  1  0.55812000  0.31014000  0.00000000  1.0 1.3075338218
P  P7  1  0.68986000  0.68986000  0.24798000  1.0 1.3032878594
P  P8  1  0.31014000  0.55812000  0.00000000  1.0 1.3075338218
P  P9  1  0.75202000  0.44188000  0.44188000  1.0 1.3032878594
P  P10  1  0.00000000  0.55812000  0.31014000  1.0 1.3075338218
P  P11  1  0.24798000  0.68986000  0.68986000  1.0 1.3075338218
P  P12  1  0.00000000  0.31014000  0.55812000  1.0 1.3075338218
O  O1  1  0.50304000  0.70900000  0.50304000  1.0 -0.4288441235
O  O2  1  0.20596000  0.00000000  0.49696000  1.0 -0.4288441235
O  O3  1  0.79404000  0.29100000  0.79404000  1.0 -0.4288441235
O  O4  1  0.49696000  0.00000000  0.20596000  1.0 -0.4288441235
O  O5  1  0.50304000  0.50304000  0.70900000  1.0 -0.4288441235
O  O6  1  0.49696000  0.20596000  0.00000000  1.0 -0.4288441235
O  O7  1  0.79404000  0.79404000  0.29100000  1.0 -0.4288441235
O  O8  1  0.20596000  0.49696000  0.00000000  1.0 -0.4288441235
O  O9  1  0.70900000  0.50304000  0.50304000  1.0 -0.4288441235
O  O10  1  0.00000000  0.49696000  0.20596000  1.0 -0.4288441235
O  O11  1  0.29100000  0.79404000  0.79404000  1.0 -0.4288441235
O  O12  1  0.00000000  0.20596000  0.49696000  1.0 -0.4288441235
O  O13  1  0.42305000  0.71093000  0.32298000  1.0 -0.5791831283
O  O14  1  0.38795000  0.10007000  0.67702000  1.0 -0.5791831283
O  O15  1  0.61205000  0.28907000  0.71212000  1.0 -0.5791831283
O  O16  1  0.57695000  0.89993000  0.28788000  1.0 -0.5791831283
O  O17  1  0.32298000  0.42305000  0.71093000  1.0 -0.5791831283
O  O18  1  0.67702000  0.38795000  0.10007000  1.0 -0.5791831283
O  O19  1  0.71212000  0.61205000  0.28907000  1.0 -0.5791831283
O  O20  1  0.28788000  0.57695000  0.89993000  1.0 -0.5791831283
O  O21  1  0.71093000  0.32298000  0.42305000  1.0 -0.5791831283
O  O22  1  0.10007000  0.67702000  0.38795000  1.0 -0.5791831283
O  O23  1  0.28907000  0.71212000  0.61205000  1.0 -0.5791831283
O  O24  1  0.89993000  0.28788000  0.57695000  1.0 -0.5791831283
O  O25  1  0.71093000  0.42305000  0.32298000  1.0 -0.5791831283
O  O26  1  0.10007000  0.38795000  0.67702000  1.0 -0.5791831283
O  O27  1  0.28907000  0.61205000  0.71212000  1.0 -0.5791831283
O  O28  1  0.89993000  0.57695000  0.28788000  1.0 -0.5791831283
O  O29  1  0.42305000  0.32298000  0.71093000  1.0 -0.5791831283
O  O30  1  0.38795000  0.67702000  0.10007000  1.0 -0.5791831283
O  O31  1  0.61205000  0.71212000  0.28907000  1.0 -0.5791831283
O  O32  1  0.57695000  0.28788000  0.89993000  1.0 -0.5791831283
O  O33  1  0.32298000  0.71093000  0.42305000  1.0 -0.5791831283
O  O34  1  0.67702000  0.10007000  0.38795000  1.0 -0.5791831283
O  O35  1  0.71212000  0.28907000  0.61205000  1.0 -0.5791831283
O  O36  1  0.28788000  0.89993000  0.57695000  1.0 -0.5791831283
O  O37  1  0.50878000  0.88030000  0.50878000  1.0 -0.6358613773
O  O38  1  0.37152000  0.00000000  0.49122000  1.0 -0.6358613773
O  O39  1  0.62848000  0.11970000  0.62848000  1.0 -0.6358613773
O  O40  1  0.49122000  0.00000000  0.37152000  1.0 -0.6358613773
O  O41  1  0.50878000  0.50878000  0.88030000  1.0 -0.6358613773
O  O42  1  0.49122000  0.37152000  0.00000000  1.0 -0.6358613773
O  O43  1  0.62848000  0.62848000  0.11970000  1.0 -0.6358613773
O  O44  1  0.37152000  0.49122000  0.00000000  1.0 -0.6336785301
O  O45  1  0.88030000  0.50878000  0.50878000  1.0 -0.6336785301
O  O46  1  0.00000000  0.49122000  0.37152000  1.0 -0.6358613773
O  O47  1  0.11970000  0.62848000  0.62848000  1.0 -0.6358613773
O  O48  1  0.00000000  0.37152000  0.49122000  1.0 -0.6358613773
