# DDEC6 charges by PACMAN v1.1 (https://github.com/mtap-research/PACMAN-charge/)
data_MECVIA_FSR_pacman
_symmetry_space_group_name_H-M   'P 1'
_cell_length_a   14.61910000
_cell_length_b   14.61910000
_cell_length_c   14.61910000
_cell_angle_alpha   109.47100000
_cell_angle_beta   109.47100000
_cell_angle_gamma   109.47100000
_symmetry_Int_Tables_number   1
_chemical_formula_structural   GaCo2(PO4)4
_chemical_formula_sum   'Ga3 Co6 P12 O48'
_cell_volume   2405.15775633
_cell_formula_units_Z   3
loop_
 _symmetry_equiv_pos_site_id
 _symmetry_equiv_pos_as_xyz
  1  'x, y, z'
loop_
 _atom_site_type_symbol
 _atom_site_label
 _atom_site_symmetry_multiplicity
 _atom_site_fract_x
 _atom_site_fract_y
 _atom_site_fract_z
 _atom_site_occupancy
 _atom_site_charge
Ga  Ga1  1  0.50000000  0.00000000  0.50000000  1.0 1.4485345457
Ga  Ga2  1  0.50000000  0.50000000  0.00000000  1.0 1.4485345457
Ga  Ga3  1  0.00000000  0.50000000  0.50000000  1.0 1.4485345457
Co  Co1  1  0.50000000  0.75000000  0.25000000  1.0 1.1584656809
Co  Co2  1  0.50000000  0.25000000  0.75000000  1.0 1.1763865922
Co  Co3  1  0.25000000  0.50000000  0.75000000  1.0 1.1740666006
Co  Co4  1  0.75000000  0.50000000  0.25000000  1.0 1.1584656809
Co  Co5  1  0.75000000  0.25000000  0.50000000  1.0 1.1584656809
Co  Co6  1  0.25000000  0.75000000  0.50000000  1.0 1.1763865922
P  P1  1  0.44028000  0.75234000  0.44028000  1.0 1.279516146
P  P2  1  0.31206000  0.00000000  0.55972000  1.0 1.279516146
P  P3  1  0.68794000  0.24766000  0.68794000  1.0 1.2748652075
P  P4  1  0.55972000  0.00000000  0.31206000  1.0 1.279516146
P  P5  1  0.44028000  0.44028000  0.75234000  1.0 1.2748652075
P  P6  1  0.55972000  0.31206000  0.00000000  1.0 1.279516146
P  P7  1  0.68794000  0.68794000  0.24766000  1.0 1.279516146
P  P8  1  0.31206000  0.55972000  0.00000000  1.0 1.279516146
P  P9  1  0.75234000  0.44028000  0.44028000  1.0 1.279516146
P  P10  1  0.00000000  0.55972000  0.31206000  1.0 1.279516146
P  P11  1  0.24766000  0.68794000  0.68794000  1.0 1.279516146
P  P12  1  0.00000000  0.31206000  0.55972000  1.0 1.279516146
O  O1  1  0.49938000  0.70550000  0.49938000  1.0 -0.4269574112
O  O2  1  0.20612000  0.00000000  0.50062000  1.0 -0.4228944208
O  O3  1  0.79388000  0.29450000  0.79388000  1.0 -0.4269574112
O  O4  1  0.50062000  0.00000000  0.20612000  1.0 -0.4269574112
O  O5  1  0.49938000  0.49938000  0.70550000  1.0 -0.4269574112
O  O6  1  0.50062000  0.20612000  0.00000000  1.0 -0.4269574112
O  O7  1  0.79388000  0.79388000  0.29450000  1.0 -0.4269574112
O  O8  1  0.20612000  0.50062000  0.00000000  1.0 -0.4269574112
O  O9  1  0.70550000  0.49938000  0.49938000  1.0 -0.4228944208
O  O10  1  0.00000000  0.50062000  0.20612000  1.0 -0.4269574112
O  O11  1  0.29450000  0.79388000  0.79388000  1.0 -0.4228944208
O  O12  1  0.00000000  0.20612000  0.50062000  1.0 -0.4269574112
O  O13  1  0.42090000  0.71207000  0.32025000  1.0 -0.5813588491
O  O14  1  0.39182000  0.10065000  0.67975000  1.0 -0.5813588491
O  O15  1  0.60818000  0.28793000  0.70883000  1.0 -0.5860669043
O  O16  1  0.57910000  0.89935000  0.29117000  1.0 -0.5813588491
O  O17  1  0.32025000  0.42090000  0.71207000  1.0 -0.5860669043
O  O18  1  0.67975000  0.39182000  0.10065000  1.0 -0.5813588491
O  O19  1  0.70883000  0.60818000  0.28793000  1.0 -0.5813588491
O  O20  1  0.29117000  0.57910000  0.89935000  1.0 -0.5813588491
O  O21  1  0.71207000  0.32025000  0.42090000  1.0 -0.5813588491
O  O22  1  0.10065000  0.67975000  0.39182000  1.0 -0.5813588491
O  O23  1  0.28793000  0.70883000  0.60818000  1.0 -0.5860669043
O  O24  1  0.89935000  0.29117000  0.57910000  1.0 -0.5813588491
O  O25  1  0.71207000  0.42090000  0.32025000  1.0 -0.5813588491
O  O26  1  0.10065000  0.39182000  0.67975000  1.0 -0.5860669043
O  O27  1  0.28793000  0.60818000  0.70883000  1.0 -0.5813588491
O  O28  1  0.89935000  0.57910000  0.29117000  1.0 -0.5860669043
O  O29  1  0.42090000  0.32025000  0.71207000  1.0 -0.5813588491
O  O30  1  0.39182000  0.67975000  0.10065000  1.0 -0.5860669043
O  O31  1  0.60818000  0.70883000  0.28793000  1.0 -0.5813588491
O  O32  1  0.57910000  0.29117000  0.89935000  1.0 -0.5813588491
O  O33  1  0.32025000  0.71207000  0.42090000  1.0 -0.5860669043
O  O34  1  0.67975000  0.10065000  0.39182000  1.0 -0.5813588491
O  O35  1  0.70883000  0.28793000  0.60818000  1.0 -0.5813588491
O  O36  1  0.29117000  0.89935000  0.57910000  1.0 -0.5813588491
O  O37  1  0.50918000  0.88114000  0.50918000  1.0 -0.6323733952
O  O38  1  0.37196000  0.00000000  0.49082000  1.0 -0.6323733952
O  O39  1  0.62804000  0.11886000  0.62804000  1.0 -0.6323733952
O  O40  1  0.49082000  0.00000000  0.37196000  1.0 -0.6323733952
O  O41  1  0.50918000  0.50918000  0.88114000  1.0 -0.6323733952
O  O42  1  0.49082000  0.37196000  0.00000000  1.0 -0.63606483
O  O43  1  0.62804000  0.62804000  0.11886000  1.0 -0.63606483
O  O44  1  0.37196000  0.49082000  0.00000000  1.0 -0.6323733952
O  O45  1  0.88114000  0.50918000  0.50918000  1.0 -0.6323733952
O  O46  1  0.00000000  0.49082000  0.37196000  1.0 -0.6323733952
O  O47  1  0.11886000  0.62804000  0.62804000  1.0 -0.6323733952
O  O48  1  0.00000000  0.37196000  0.49082000  1.0 -0.6323733952
