# DDEC6 charges by PACMAN v1.1 (https://github.com/mtap-research/PACMAN-charge/)
data_MECVOG_FSR_pacman
_symmetry_space_group_name_H-M   'P 1'
_cell_length_a   14.60990000
_cell_length_b   14.60990000
_cell_length_c   14.60990000
_cell_angle_alpha   109.47100000
_cell_angle_beta   109.47100000
_cell_angle_gamma   109.47100000
_symmetry_Int_Tables_number   1
_chemical_formula_structural   GaFe2(PO4)4
_chemical_formula_sum   'Ga3 Fe6 P12 O48'
_cell_volume   2400.61981709
_cell_formula_units_Z   3
loop_
 _symmetry_equiv_pos_site_id
 _symmetry_equiv_pos_as_xyz
  1  'x, y, z'
loop_
 _atom_site_type_symbol
 _atom_site_label
 _atom_site_symmetry_multiplicity
 _atom_site_fract_x
 _atom_site_fract_y
 _atom_site_fract_z
 _atom_site_occupancy
 _atom_site_charge
Ga  Ga1  1  0.00000000  0.50000000  0.50000000  1.0 1.4634057318
Ga  Ga2  1  0.50000000  0.00000000  0.50000000  1.0 1.4634057318
Ga  Ga3  1  0.50000000  0.50000000  0.00000000  1.0 1.4634057318
Fe  Fe1  1  0.75000000  0.25000000  0.50000000  1.0 1.2187668318
Fe  Fe2  1  0.25000000  0.75000000  0.50000000  1.0 1.2187668318
Fe  Fe3  1  0.50000000  0.75000000  0.25000000  1.0 1.2187668318
Fe  Fe4  1  0.50000000  0.25000000  0.75000000  1.0 1.2187668318
Fe  Fe5  1  0.25000000  0.50000000  0.75000000  1.0 1.2187668318
Fe  Fe6  1  0.75000000  0.50000000  0.25000000  1.0 1.2187668318
P  P1  1  0.00000000  0.44090000  0.68992000  1.0 1.2559028501
P  P2  1  0.75098000  0.31008000  0.31008000  1.0 1.252218389
P  P3  1  0.24902000  0.55910000  0.55910000  1.0 1.252218389
P  P4  1  0.00000000  0.68992000  0.44090000  1.0 1.2559028501
P  P5  1  0.68992000  0.00000000  0.44090000  1.0 1.252218389
P  P6  1  0.31008000  0.75098000  0.31008000  1.0 1.252218389
P  P7  1  0.55910000  0.24902000  0.55910000  1.0 1.252218389
P  P8  1  0.44090000  0.00000000  0.68992000  1.0 1.252218389
P  P9  1  0.44090000  0.68992000  0.00000000  1.0 1.252218389
P  P10  1  0.31008000  0.31008000  0.75098000  1.0 1.252218389
P  P11  1  0.55910000  0.55910000  0.24902000  1.0 1.252218389
P  P12  1  0.68992000  0.44090000  0.00000000  1.0 1.252218389
O  O1  1  0.00000000  0.50222000  0.79484000  1.0 -0.4194825654
O  O2  1  0.70738000  0.20516000  0.20516000  1.0 -0.4194825654
O  O3  1  0.29262000  0.49778000  0.49778000  1.0 -0.4194825654
O  O4  1  0.00000000  0.79484000  0.50222000  1.0 -0.4194825654
O  O5  1  0.79484000  0.00000000  0.50222000  1.0 -0.4194825654
O  O6  1  0.20516000  0.70738000  0.20516000  1.0 -0.4194825654
O  O7  1  0.49778000  0.29262000  0.49778000  1.0 -0.4194825654
O  O8  1  0.50222000  0.00000000  0.79484000  1.0 -0.4194825654
O  O9  1  0.50222000  0.79484000  0.00000000  1.0 -0.4194825654
O  O10  1  0.20516000  0.20516000  0.70738000  1.0 -0.4194825654
O  O11  1  0.49778000  0.49778000  0.29262000  1.0 -0.4194825654
O  O12  1  0.79484000  0.50222000  0.00000000  1.0 -0.4194825654
O  O13  1  0.89913000  0.32118000  0.61203000  1.0 -0.5887385736
O  O14  1  0.70915000  0.28710000  0.38797000  1.0 -0.5887385736
O  O15  1  0.29085000  0.67882000  0.57795000  1.0 -0.5887385736
O  O16  1  0.10087000  0.71290000  0.42205000  1.0 -0.5887385736
O  O17  1  0.61203000  0.89913000  0.32118000  1.0 -0.5887385736
O  O18  1  0.38797000  0.70915000  0.28710000  1.0 -0.5887385736
O  O19  1  0.57795000  0.29085000  0.67882000  1.0 -0.5887385736
O  O20  1  0.42205000  0.10087000  0.71290000  1.0 -0.5887385736
O  O21  1  0.32118000  0.61203000  0.89913000  1.0 -0.5887385736
O  O22  1  0.28710000  0.38797000  0.70915000  1.0 -0.5887385736
O  O23  1  0.67882000  0.57795000  0.29085000  1.0 -0.5887385736
O  O24  1  0.71290000  0.42205000  0.10087000  1.0 -0.5887385736
O  O25  1  0.32118000  0.89913000  0.61203000  1.0 -0.5887385736
O  O26  1  0.28710000  0.70915000  0.38797000  1.0 -0.5887385736
O  O27  1  0.67882000  0.29085000  0.57795000  1.0 -0.5887385736
O  O28  1  0.71290000  0.10087000  0.42205000  1.0 -0.5887385736
O  O29  1  0.89913000  0.61203000  0.32118000  1.0 -0.5847661262
O  O30  1  0.70915000  0.38797000  0.28710000  1.0 -0.5887385736
O  O31  1  0.29085000  0.57795000  0.67882000  1.0 -0.5887385736
O  O32  1  0.10087000  0.42205000  0.71290000  1.0 -0.5887385736
O  O33  1  0.61203000  0.32118000  0.89913000  1.0 -0.5887385736
O  O34  1  0.38797000  0.28710000  0.70915000  1.0 -0.5887385736
O  O35  1  0.57795000  0.67882000  0.29085000  1.0 -0.5887385736
O  O36  1  0.42205000  0.71290000  0.10087000  1.0 -0.5887385736
O  O37  1  0.00000000  0.50765000  0.62803000  1.0 -0.6314386393
O  O38  1  0.87962000  0.37197000  0.37197000  1.0 -0.6314386393
O  O39  1  0.12038000  0.49235000  0.49235000  1.0 -0.6314386393
O  O40  1  0.00000000  0.62803000  0.50765000  1.0 -0.6314386393
O  O41  1  0.62803000  0.00000000  0.50765000  1.0 -0.6314386393
O  O42  1  0.37197000  0.87962000  0.37197000  1.0 -0.6314386393
O  O43  1  0.49235000  0.12038000  0.49235000  1.0 -0.6314386393
O  O44  1  0.50765000  0.00000000  0.62803000  1.0 -0.6314386393
O  O45  1  0.50765000  0.62803000  0.00000000  1.0 -0.6314386393
O  O46  1  0.37197000  0.37197000  0.87962000  1.0 -0.6314386393
O  O47  1  0.49235000  0.49235000  0.12038000  1.0 -0.6314386393
O  O48  1  0.62803000  0.50765000  0.00000000  1.0 -0.6314386393
