# DDEC6 charges by PACMAN v1.1 (https://github.com/mtap-research/PACMAN-charge/)
data_MECWEX_FSR_pacman
_symmetry_space_group_name_H-M   'P 1'
_cell_length_a   14.73280000
_cell_length_b   14.73280000
_cell_length_c   14.73280000
_cell_angle_alpha   109.47100000
_cell_angle_beta   109.47100000
_cell_angle_gamma   109.47100000
_symmetry_Int_Tables_number   1
_chemical_formula_structural   ZnH16(C2N)4
_chemical_formula_sum   'Zn6 H96 C48 N24'
_cell_volume   2461.71366643
_cell_formula_units_Z   6
loop_
 _symmetry_equiv_pos_site_id
 _symmetry_equiv_pos_as_xyz
  1  'x, y, z'
loop_
 _atom_site_type_symbol
 _atom_site_label
 _atom_site_symmetry_multiplicity
 _atom_site_fract_x
 _atom_site_fract_y
 _atom_site_fract_z
 _atom_site_occupancy
 _atom_site_charge
Zn  Zn1  1  0.25000000  0.75000000  0.50000000  1.0 0.6463271211
Zn  Zn2  1  0.75000000  0.25000000  0.50000000  1.0 0.6463271211
Zn  Zn3  1  0.75000000  0.50000000  0.25000000  1.0 0.6463271211
Zn  Zn4  1  0.25000000  0.50000000  0.75000000  1.0 0.6463271211
Zn  Zn5  1  0.50000000  0.75000000  0.25000000  1.0 0.6463271211
Zn  Zn6  1  0.50000000  0.25000000  0.75000000  1.0 0.6463271211
H  H1  1  0.41970000  0.65490000  0.52140000  1.0 0.1255129203
H  H2  1  0.58030000  0.10170000  0.23520000  1.0 0.1255129203
H  H3  1  0.13350000  0.89830000  0.47860000  1.0 0.1255129203
H  H4  1  0.86650000  0.34510000  0.76480000  1.0 0.1255129203
H  H5  1  0.34510000  0.86650000  0.76480000  1.0 0.1255129203
H  H6  1  0.89830000  0.13350000  0.47860000  1.0 0.1255129203
H  H7  1  0.10170000  0.58030000  0.23520000  1.0 0.1255129203
H  H8  1  0.65490000  0.41970000  0.52140000  1.0 0.1255129203
H  H9  1  0.65490000  0.52140000  0.41970000  1.0 0.1255129203
H  H10  1  0.10170000  0.23520000  0.58030000  1.0 0.1255129203
H  H11  1  0.34510000  0.76480000  0.86650000  1.0 0.1255129203
H  H12  1  0.89830000  0.47860000  0.13350000  1.0 0.1255129203
H  H13  1  0.47860000  0.89830000  0.13350000  1.0 0.1255129203
H  H14  1  0.52140000  0.65490000  0.41970000  1.0 0.1255129203
H  H15  1  0.76480000  0.34510000  0.86650000  1.0 0.1255129203
H  H16  1  0.23520000  0.10170000  0.58030000  1.0 0.1255129203
H  H17  1  0.52140000  0.41970000  0.65490000  1.0 0.1255129203
H  H18  1  0.23520000  0.58030000  0.10170000  1.0 0.1255129203
H  H19  1  0.76480000  0.86650000  0.34510000  1.0 0.1255129203
H  H20  1  0.47860000  0.13350000  0.89830000  1.0 0.1255129203
H  H21  1  0.41970000  0.52140000  0.65490000  1.0 0.1255129203
H  H22  1  0.58030000  0.23520000  0.10170000  1.0 0.1255129203
H  H23  1  0.13350000  0.47860000  0.89830000  1.0 0.1255129203
H  H24  1  0.86650000  0.76480000  0.34510000  1.0 0.1255129203
H  H25  1  0.37800000  0.88240000  0.34180000  1.0 0.0703016788
H  H26  1  0.62200000  0.96380000  0.50440000  1.0 0.0703016788
H  H27  1  0.54060000  0.03620000  0.65820000  1.0 0.0703016788
H  H28  1  0.45940000  0.11760000  0.49560000  1.0 0.0703016788
H  H29  1  0.11760000  0.45940000  0.49560000  1.0 0.0703016788
H  H30  1  0.03620000  0.54060000  0.65820000  1.0 0.0703016788
H  H31  1  0.96380000  0.62200000  0.50440000  1.0 0.0703016788
H  H32  1  0.88240000  0.37800000  0.34180000  1.0 0.0703016788
H  H33  1  0.88240000  0.34180000  0.37800000  1.0 0.0703016788
H  H34  1  0.96380000  0.50440000  0.62200000  1.0 0.0703016788
H  H35  1  0.11760000  0.49560000  0.45940000  1.0 0.0703016788
H  H36  1  0.03620000  0.65820000  0.54060000  1.0 0.0703016788
H  H37  1  0.65820000  0.03620000  0.54060000  1.0 0.0703016788
H  H38  1  0.34180000  0.88240000  0.37800000  1.0 0.0703016788
H  H39  1  0.49560000  0.11760000  0.45940000  1.0 0.0703016788
H  H40  1  0.50440000  0.96380000  0.62200000  1.0 0.0703016788
H  H41  1  0.34180000  0.37800000  0.88240000  1.0 0.0703016788
H  H42  1  0.50440000  0.62200000  0.96380000  1.0 0.0703016788
H  H43  1  0.49560000  0.45940000  0.11760000  1.0 0.0703016788
H  H44  1  0.65820000  0.54060000  0.03620000  1.0 0.0703016788
H  H45  1  0.37800000  0.34180000  0.88240000  1.0 0.0703016788
H  H46  1  0.62200000  0.50440000  0.96380000  1.0 0.0703016788
H  H47  1  0.54060000  0.65820000  0.03620000  1.0 0.0703016788
H  H48  1  0.45940000  0.49560000  0.11760000  1.0 0.0703016788
H  H49  1  0.26780000  0.81980000  0.34460000  1.0 0.0647426212
H  H50  1  0.73220000  0.07680000  0.55200000  1.0 0.0647426212
H  H51  1  0.47520000  0.92320000  0.65540000  1.0 0.0647426212
H  H52  1  0.52480000  0.18020000  0.44800000  1.0 0.0647426212
H  H53  1  0.18020000  0.52480000  0.44800000  1.0 0.0647426212
H  H54  1  0.92320000  0.47520000  0.65540000  1.0 0.0647426212
H  H55  1  0.07680000  0.73220000  0.55200000  1.0 0.0647426212
H  H56  1  0.81980000  0.26780000  0.34460000  1.0 0.0703016788
H  H57  1  0.81980000  0.34460000  0.26780000  1.0 0.0703016788
H  H58  1  0.07680000  0.55200000  0.73220000  1.0 0.0647426212
H  H59  1  0.18020000  0.44800000  0.52480000  1.0 0.0647426212
H  H60  1  0.92320000  0.65540000  0.47520000  1.0 0.0647426212
H  H61  1  0.65540000  0.92320000  0.47520000  1.0 0.0647426212
H  H62  1  0.34460000  0.81980000  0.26780000  1.0 0.0647426212
H  H63  1  0.44800000  0.18020000  0.52480000  1.0 0.0647426212
H  H64  1  0.55200000  0.07680000  0.73220000  1.0 0.0647426212
H  H65  1  0.34460000  0.26780000  0.81980000  1.0 0.0647426212
H  H66  1  0.55200000  0.73220000  0.07680000  1.0 0.0647426212
H  H67  1  0.44800000  0.52480000  0.18020000  1.0 0.0647426212
H  H68  1  0.65540000  0.47520000  0.92320000  1.0 0.0647426212
H  H69  1  0.26780000  0.34460000  0.81980000  1.0 0.0647426212
H  H70  1  0.73220000  0.55200000  0.07680000  1.0 0.0647426212
H  H71  1  0.47520000  0.65540000  0.92320000  1.0 0.0647426212
H  H72  1  0.52480000  0.44800000  0.18020000  1.0 0.0647426212
H  H73  1  0.27830000  0.76370000  0.23780000  1.0 0.0647426212
H  H74  1  0.72170000  0.95950000  0.48540000  1.0 0.0647426212
H  H75  1  0.52590000  0.04050000  0.76220000  1.0 0.0647426212
H  H76  1  0.47410000  0.23630000  0.51460000  1.0 0.0647426212
H  H77  1  0.23630000  0.47410000  0.51460000  1.0 0.0647426212
H  H78  1  0.04050000  0.52590000  0.76220000  1.0 0.0647426212
H  H79  1  0.95950000  0.72170000  0.48540000  1.0 0.0647426212
H  H80  1  0.76370000  0.27830000  0.23780000  1.0 0.0647426212
H  H81  1  0.76370000  0.23780000  0.27830000  1.0 0.0647426212
H  H82  1  0.95950000  0.48540000  0.72170000  1.0 0.0703016788
H  H83  1  0.23630000  0.51460000  0.47410000  1.0 0.0647426212
H  H84  1  0.04050000  0.76220000  0.52590000  1.0 0.0647426212
H  H85  1  0.76220000  0.04050000  0.52590000  1.0 0.0647426212
H  H86  1  0.23780000  0.76370000  0.27830000  1.0 0.0647426212
H  H87  1  0.51460000  0.23630000  0.47410000  1.0 0.0647426212
H  H88  1  0.48540000  0.95950000  0.72170000  1.0 0.0647426212
H  H89  1  0.23780000  0.27830000  0.76370000  1.0 0.0647426212
H  H90  1  0.48540000  0.72170000  0.95950000  1.0 0.0647426212
H  H91  1  0.51460000  0.47410000  0.23630000  1.0 0.0647426212
H  H92  1  0.76220000  0.52590000  0.04050000  1.0 0.0647426212
H  H93  1  0.27830000  0.23780000  0.76370000  1.0 0.0647426212
H  H94  1  0.72170000  0.48540000  0.95950000  1.0 0.0647426212
H  H95  1  0.52590000  0.76220000  0.04050000  1.0 0.0647426212
H  H96  1  0.47410000  0.51460000  0.23630000  1.0 0.0647426212
C  C1  1  0.41500000  0.68180000  0.47060000  1.0 -0.0739654434
C  C2  1  0.58500000  0.05560000  0.26680000  1.0 -0.0739654434
C  C3  1  0.21120000  0.94440000  0.52940000  1.0 -0.0739654434
C  C4  1  0.78880000  0.31820000  0.73320000  1.0 -0.0739654434
C  C5  1  0.31820000  0.78880000  0.73320000  1.0 -0.0739654434
C  C6  1  0.94440000  0.21120000  0.52940000  1.0 -0.0739654434
C  C7  1  0.05560000  0.58500000  0.26680000  1.0 -0.0739654434
C  C8  1  0.68180000  0.41500000  0.47060000  1.0 -0.0739654434
C  C9  1  0.68180000  0.47060000  0.41500000  1.0 -0.0739654434
C  C10  1  0.05560000  0.26680000  0.58500000  1.0 -0.0739654434
C  C11  1  0.31820000  0.73320000  0.78880000  1.0 -0.0739654434
C  C12  1  0.94440000  0.52940000  0.21120000  1.0 -0.0739654434
C  C13  1  0.52940000  0.94440000  0.21120000  1.0 -0.0739654434
C  C14  1  0.47060000  0.68180000  0.41500000  1.0 -0.0739654434
C  C15  1  0.73320000  0.31820000  0.78880000  1.0 -0.0739654434
C  C16  1  0.26680000  0.05560000  0.58500000  1.0 -0.0739654434
C  C17  1  0.47060000  0.41500000  0.68180000  1.0 -0.0739654434
C  C18  1  0.26680000  0.58500000  0.05560000  1.0 -0.0739654434
C  C19  1  0.73320000  0.78880000  0.31820000  1.0 -0.0739654434
C  C20  1  0.52940000  0.21120000  0.94440000  1.0 -0.0739654434
C  C21  1  0.41500000  0.47060000  0.68180000  1.0 -0.0739654434
C  C22  1  0.58500000  0.26680000  0.05560000  1.0 -0.0739654434
C  C23  1  0.21120000  0.52940000  0.94440000  1.0 -0.0739654434
C  C24  1  0.78880000  0.73320000  0.31820000  1.0 -0.0739654434
C  C25  1  0.36875000  0.75410000  0.36875000  1.0 0.2775391669
C  C26  1  0.63125000  0.00000000  0.38535000  1.0 0.2737235656
C  C27  1  0.38535000  0.00000000  0.63125000  1.0 0.2737235656
C  C28  1  0.61465000  0.24590000  0.61465000  1.0 0.2775391669
C  C29  1  0.24590000  0.61465000  0.61465000  1.0 0.2775391669
C  C30  1  0.00000000  0.38535000  0.63125000  1.0 0.2775391669
C  C31  1  0.00000000  0.63125000  0.38535000  1.0 0.2775391669
C  C32  1  0.75410000  0.36875000  0.36875000  1.0 0.2737235656
C  C33  1  0.36875000  0.36875000  0.75410000  1.0 0.2775391669
C  C34  1  0.38535000  0.63125000  0.00000000  1.0 0.2775391669
C  C35  1  0.61465000  0.61465000  0.24590000  1.0 0.2775391669
C  C36  1  0.63125000  0.38535000  0.00000000  1.0 0.2775391669
C  C37  1  0.31900000  0.80960000  0.31900000  1.0 -0.4134563823
C  C38  1  0.68100000  0.00000000  0.49060000  1.0 -0.4134563823
C  C39  1  0.49060000  0.00000000  0.68100000  1.0 -0.4134563823
C  C40  1  0.50940000  0.19040000  0.50940000  1.0 -0.4134563823
C  C41  1  0.19040000  0.50940000  0.50940000  1.0 -0.4134563823
C  C42  1  0.00000000  0.49060000  0.68100000  1.0 -0.4134563823
C  C43  1  0.00000000  0.68100000  0.49060000  1.0 -0.4134563823
C  C44  1  0.80960000  0.31900000  0.31900000  1.0 -0.4134563823
C  C45  1  0.31900000  0.31900000  0.80960000  1.0 -0.4134563823
C  C46  1  0.49060000  0.68100000  0.00000000  1.0 -0.4134563823
C  C47  1  0.50940000  0.50940000  0.19040000  1.0 -0.4134563823
C  C48  1  0.68100000  0.49060000  0.00000000  1.0 -0.4134563823
N  N1  1  0.34890000  0.72757000  0.44173000  1.0 -0.3452106791
N  N2  1  0.65110000  0.09283000  0.37867000  1.0 -0.3452106791
N  N3  1  0.28584000  0.90717000  0.55827000  1.0 -0.3452106791
N  N4  1  0.71416000  0.27243000  0.62133000  1.0 -0.3452106791
N  N5  1  0.27243000  0.71416000  0.62133000  1.0 -0.3452106791
N  N6  1  0.90717000  0.28584000  0.55827000  1.0 -0.3452106791
N  N7  1  0.09283000  0.65110000  0.37867000  1.0 -0.3452106791
N  N8  1  0.72757000  0.34890000  0.44173000  1.0 -0.344366448
N  N9  1  0.72757000  0.44173000  0.34890000  1.0 -0.3452106791
N  N10  1  0.09283000  0.37867000  0.65110000  1.0 -0.3452106791
N  N11  1  0.27243000  0.62133000  0.71416000  1.0 -0.3452106791
N  N12  1  0.90717000  0.55827000  0.28584000  1.0 -0.3452106791
N  N13  1  0.55827000  0.90717000  0.28584000  1.0 -0.3452106791
N  N14  1  0.44173000  0.72757000  0.34890000  1.0 -0.3452106791
N  N15  1  0.62133000  0.27243000  0.71416000  1.0 -0.3452106791
N  N16  1  0.37867000  0.09283000  0.65110000  1.0 -0.3452106791
N  N17  1  0.44173000  0.34890000  0.72757000  1.0 -0.3452106791
N  N18  1  0.37867000  0.65110000  0.09283000  1.0 -0.3452106791
N  N19  1  0.62133000  0.71416000  0.27243000  1.0 -0.3452106791
N  N20  1  0.55827000  0.28584000  0.90717000  1.0 -0.3452106791
N  N21  1  0.34890000  0.44173000  0.72757000  1.0 -0.3452106791
N  N22  1  0.65110000  0.37867000  0.09283000  1.0 -0.3452106791
N  N23  1  0.28584000  0.55827000  0.90717000  1.0 -0.3452106791
N  N24  1  0.71416000  0.62133000  0.27243000  1.0 -0.3452106791
