# DDEC6 charges by PACMAN v1.1 (https://github.com/mtap-research/PACMAN-charge/)
data_MEFKIU_ASR_pacman
_symmetry_space_group_name_H-M   'P 1'
_cell_length_a   8.16430000
_cell_length_b   8.16430000
_cell_length_c   22.66710000
_cell_angle_alpha   90.00000000
_cell_angle_beta   90.00000000
_cell_angle_gamma   120.00000000
_symmetry_Int_Tables_number   1
_chemical_formula_structural   NaAlH6(CO2)6
_chemical_formula_sum   'Na3 Al3 H18 C18 O36'
_cell_volume   1308.47220475
_cell_formula_units_Z   3
loop_
 _symmetry_equiv_pos_site_id
 _symmetry_equiv_pos_as_xyz
  1  'x, y, z'
loop_
 _atom_site_type_symbol
 _atom_site_label
 _atom_site_symmetry_multiplicity
 _atom_site_fract_x
 _atom_site_fract_y
 _atom_site_fract_z
 _atom_site_occupancy
 _atom_site_charge
Na  Na1  1  0.32355000  0.66178000  0.00000000  1.0 0.8475021734
Na  Na2  1  0.33822000  0.66178000  0.66666667  1.0 0.8475021734
Na  Na3  1  0.33822000  0.67645000  0.33333333  1.0 0.8475021734
Al  Al1  1  0.00448000  0.99552000  0.16667000  1.0 1.4896532907
Al  Al2  1  0.00449000  0.00897000  0.83333000  1.0 1.4896532907
Al  Al3  1  0.99103000  0.99552000  0.50000000  1.0 1.4896532907
H  H1  1  0.67264000  0.75127000  0.08860000  1.0 0.1184384018
H  H2  1  0.09864000  0.32877000  0.08960000  1.0 0.1058382146
H  H3  1  0.11684000  0.77517000  0.24610000  1.0 0.1035997137
H  H4  1  0.24873000  0.92137000  0.75527000  1.0 0.1184384018
H  H5  1  0.67123000  0.76987000  0.75627000  1.0 0.1058382146
H  H6  1  0.22483000  0.34167000  0.91277000  1.0 0.1035997137
H  H7  1  0.07863000  0.32736000  0.42193000  1.0 0.1184384018
H  H8  1  0.23013000  0.90136000  0.42293000  1.0 0.1058382146
H  H9  1  0.65833000  0.88316000  0.57943000  1.0 0.1035997137
H  H10  1  0.24873000  0.32736000  0.24473000  1.0 0.1184384018
H  H11  1  0.67123000  0.90136000  0.24373000  1.0 0.1058382146
H  H12  1  0.22483000  0.88316000  0.08723000  1.0 0.1035997137
H  H13  1  0.07863000  0.75127000  0.57807000  1.0 0.1184384018
H  H14  1  0.23013000  0.32877000  0.57707000  1.0 0.1058382146
H  H15  1  0.65833000  0.77517000  0.42057000  1.0 0.1035997137
H  H16  1  0.67264000  0.92137000  0.91140000  1.0 0.1184384018
H  H17  1  0.09864000  0.76987000  0.91040000  1.0 0.1058382146
H  H18  1  0.11684000  0.34167000  0.75390000  1.0 0.1035997137
C  C1  1  0.67614000  0.86907000  0.09162000  1.0 0.5186395063
C  C2  1  0.20084000  0.30527000  0.08536000  1.0 0.5135400707
C  C3  1  0.22454000  0.89797000  0.24301000  1.0 0.5135400707
C  C4  1  0.13093000  0.80707000  0.75829000  1.0 0.5186395063
C  C5  1  0.69473000  0.89557000  0.75203000  1.0 0.5135400707
C  C6  1  0.10203000  0.32657000  0.90968000  1.0 0.5135400707
C  C7  1  0.19293000  0.32386000  0.42495000  1.0 0.5186395063
C  C8  1  0.10443000  0.79916000  0.41869000  1.0 0.5135400707
C  C9  1  0.67343000  0.77546000  0.57634000  1.0 0.5135400707
C  C10  1  0.13093000  0.32386000  0.24171000  1.0 0.5186395063
C  C11  1  0.69473000  0.79916000  0.24797000  1.0 0.5135400707
C  C12  1  0.10203000  0.77546000  0.09032000  1.0 0.5135400707
C  C13  1  0.19293000  0.86907000  0.57505000  1.0 0.5186395063
C  C14  1  0.10443000  0.30527000  0.58131000  1.0 0.5135400707
C  C15  1  0.67343000  0.89797000  0.42366000  1.0 0.5135400707
C  C16  1  0.67614000  0.80707000  0.90838000  1.0 0.5186395063
C  C17  1  0.20084000  0.89557000  0.91464000  1.0 0.5135400707
C  C18  1  0.22454000  0.32657000  0.75699000  1.0 0.5135400707
O  O1  1  0.80884000  0.99497000  0.12240000  1.0 -0.5378853756
O  O2  1  0.19034000  0.16797000  0.11383000  1.0 -0.5378853756
O  O3  1  0.21194000  0.01707000  0.21064000  1.0 -0.5378853756
O  O4  1  0.55404000  0.88147000  0.06581000  1.0 -0.4639196381
O  O5  1  0.32954000  0.41097000  0.05285000  1.0 -0.4830885317
O  O6  1  0.36674000  0.93057000  0.27064000  1.0 -0.4830885317
O  O7  1  0.00503000  0.81387000  0.78907000  1.0 -0.5343916402
O  O8  1  0.83203000  0.02237000  0.78050000  1.0 -0.5378853756
O  O9  1  0.98293000  0.19487000  0.87731000  1.0 -0.5378853756
O  O10  1  0.11853000  0.67257000  0.73248000  1.0 -0.4639196381
O  O11  1  0.58903000  0.91857000  0.71952000  1.0 -0.4830885317
O  O12  1  0.06943000  0.43617000  0.93731000  1.0 -0.4830885317
O  O13  1  0.18613000  0.19116000  0.45573000  1.0 -0.5343916402
O  O14  1  0.97763000  0.80966000  0.44716000  1.0 -0.5378853756
O  O15  1  0.80513000  0.78806000  0.54397000  1.0 -0.5378853756
O  O16  1  0.32743000  0.44596000  0.39914000  1.0 -0.4639196381
O  O17  1  0.08143000  0.67046000  0.38618000  1.0 -0.4857531871
O  O18  1  0.56383000  0.63326000  0.60397000  1.0 -0.4830885317
O  O19  1  0.00503000  0.19116000  0.21093000  1.0 -0.5343916402
O  O20  1  0.83203000  0.80966000  0.21950000  1.0 -0.5378853756
O  O21  1  0.98293000  0.78806000  0.12269000  1.0 -0.5378853756
O  O22  1  0.11853000  0.44596000  0.26752000  1.0 -0.4639196381
O  O23  1  0.58903000  0.67046000  0.28048000  1.0 -0.4830885317
O  O24  1  0.06943000  0.63326000  0.06269000  1.0 -0.4830885317
O  O25  1  0.18613000  0.99497000  0.54427000  1.0 -0.5343916402
O  O26  1  0.97763000  0.16797000  0.55284000  1.0 -0.5378853756
O  O27  1  0.80513000  0.01707000  0.45603000  1.0 -0.5378853756
O  O28  1  0.32743000  0.88147000  0.60086000  1.0 -0.4639196381
O  O29  1  0.08143000  0.41097000  0.61382000  1.0 -0.4857531871
O  O30  1  0.56383000  0.93057000  0.39603000  1.0 -0.4830885317
O  O31  1  0.80884000  0.81387000  0.87760000  1.0 -0.5343916402
O  O32  1  0.19034000  0.02237000  0.88617000  1.0 -0.5378853756
O  O33  1  0.21194000  0.19487000  0.78936000  1.0 -0.5378853756
O  O34  1  0.55404000  0.67257000  0.93419000  1.0 -0.4639196381
O  O35  1  0.32954000  0.91857000  0.94715000  1.0 -0.4857531871
O  O36  1  0.36674000  0.43617000  0.72936000  1.0 -0.4830885317
