# DDEC6 charges by PACMAN v1.1 (https://github.com/mtap-research/PACMAN-charge/)
data_MEFKIU01_ASR_pacman
_symmetry_space_group_name_H-M   'P 1'
_cell_length_a   8.18210000
_cell_length_b   8.18210000
_cell_length_c   22.65960000
_cell_angle_alpha   90.00000000
_cell_angle_beta   90.00000000
_cell_angle_gamma   120.00000000
_symmetry_Int_Tables_number   1
_chemical_formula_structural   NaAlH6(CO2)6
_chemical_formula_sum   'Na3 Al3 H18 C18 O36'
_cell_volume   1313.74911656
_cell_formula_units_Z   3
loop_
 _symmetry_equiv_pos_site_id
 _symmetry_equiv_pos_as_xyz
  1  'x, y, z'
loop_
 _atom_site_type_symbol
 _atom_site_label
 _atom_site_symmetry_multiplicity
 _atom_site_fract_x
 _atom_site_fract_y
 _atom_site_fract_z
 _atom_site_occupancy
 _atom_site_charge
Na  Na1  1  0.32478000  0.66239000  0.00000000  1.0 0.8403446914
Na  Na2  1  0.33761000  0.66239000  0.66666667  1.0 0.8403446914
Na  Na3  1  0.33761000  0.67522000  0.33333333  1.0 0.8403446914
Al  Al1  1  0.00427000  0.99573000  0.16667000  1.0 1.4862034362
Al  Al2  1  0.00427000  0.00854000  0.83333000  1.0 1.4862034362
Al  Al3  1  0.99146000  0.99573000  0.50000000  1.0 1.4862034362
H  H1  1  0.67403000  0.75697000  0.08810000  1.0 0.1254237882
H  H2  1  0.10123000  0.77407000  0.91110000  1.0 0.1089582137
H  H3  1  0.22153000  0.88087000  0.08730000  1.0 0.1044828399
H  H4  1  0.24303000  0.91706000  0.75477000  1.0 0.1254237882
H  H5  1  0.22593000  0.32716000  0.57777000  1.0 0.1089582137
H  H6  1  0.11913000  0.34066000  0.75397000  1.0 0.1044828399
H  H7  1  0.08294000  0.32597000  0.42143000  1.0 0.1254237882
H  H8  1  0.67284000  0.89877000  0.24443000  1.0 0.1089582137
H  H9  1  0.65934000  0.77847000  0.42063000  1.0 0.1044828399
H  H10  1  0.24303000  0.32597000  0.24523000  1.0 0.1254237882
H  H11  1  0.22593000  0.89877000  0.42223000  1.0 0.1089582137
H  H12  1  0.11913000  0.77847000  0.24603000  1.0 0.1044828399
H  H13  1  0.08294000  0.75697000  0.57857000  1.0 0.1254237882
H  H14  1  0.67284000  0.77407000  0.75557000  1.0 0.1089582137
H  H15  1  0.65934000  0.88087000  0.57937000  1.0 0.1044828399
H  H16  1  0.67403000  0.91706000  0.91190000  1.0 0.1254237882
H  H17  1  0.10123000  0.32716000  0.08890000  1.0 0.1089582137
H  H18  1  0.22153000  0.34066000  0.91270000  1.0 0.1044828399
C  C1  1  0.67773000  0.87207000  0.09129000  1.0 0.5174848081
C  C2  1  0.20173000  0.89677000  0.91464000  1.0 0.5174848081
C  C3  1  0.10133000  0.77577000  0.09027000  1.0 0.5132486464
C  C4  1  0.12793000  0.80566000  0.75796000  1.0 0.5174848081
C  C5  1  0.10323000  0.30496000  0.58131000  1.0 0.5174848081
C  C6  1  0.22423000  0.32556000  0.75694000  1.0 0.5132486464
C  C7  1  0.19434000  0.32227000  0.42462000  1.0 0.5174848081
C  C8  1  0.69504000  0.79827000  0.24797000  1.0 0.5174848081
C  C9  1  0.67444000  0.89867000  0.42360000  1.0 0.5132486464
C  C10  1  0.12793000  0.32227000  0.24204000  1.0 0.5174848081
C  C11  1  0.10323000  0.79827000  0.41869000  1.0 0.5174848081
C  C12  1  0.22423000  0.89867000  0.24306000  1.0 0.5132486464
C  C13  1  0.19434000  0.87207000  0.57538000  1.0 0.5174848081
C  C14  1  0.69504000  0.89677000  0.75203000  1.0 0.5174848081
C  C15  1  0.67444000  0.77577000  0.57640000  1.0 0.5132486464
C  C16  1  0.67773000  0.80566000  0.90871000  1.0 0.5174848081
C  C17  1  0.20173000  0.30496000  0.08536000  1.0 0.5174848081
C  C18  1  0.10133000  0.32556000  0.90973000  1.0 0.5132486464
O  O1  1  0.55663000  0.88367000  0.06543000  1.0 -0.4618427365
O  O2  1  0.80923000  0.99507000  0.12220000  1.0 -0.5379270175
O  O3  1  0.33003000  0.91917000  0.94665000  1.0 -0.4822258238
O  O4  1  0.19023000  0.02097000  0.88590000  1.0 -0.5379270175
O  O5  1  0.06993000  0.63527000  0.06268000  1.0 -0.4822258238
O  O6  1  0.98363000  0.78947000  0.12247000  1.0 -0.5482087492
O  O7  1  0.11633000  0.67296000  0.73210000  1.0 -0.4618427365
O  O8  1  0.00493000  0.81416000  0.78887000  1.0 -0.5379270175
O  O9  1  0.08083000  0.41086000  0.61332000  1.0 -0.4822258238
O  O10  1  0.97903000  0.16926000  0.55257000  1.0 -0.5379270175
O  O11  1  0.36473000  0.43466000  0.72935000  1.0 -0.4822258238
O  O12  1  0.21053000  0.19416000  0.78914000  1.0 -0.5482087492
O  O13  1  0.32704000  0.44337000  0.39876000  1.0 -0.4618427365
O  O14  1  0.18584000  0.19077000  0.45553000  1.0 -0.5379270175
O  O15  1  0.58914000  0.66997000  0.27998000  1.0 -0.4822258238
O  O16  1  0.83074000  0.80977000  0.21923000  1.0 -0.5379270175
O  O17  1  0.56534000  0.93007000  0.39601000  1.0 -0.4822258238
O  O18  1  0.80584000  0.01637000  0.45580000  1.0 -0.5482087492
O  O19  1  0.11633000  0.44337000  0.26790000  1.0 -0.4618427365
O  O20  1  0.00493000  0.19077000  0.21113000  1.0 -0.5379270175
O  O21  1  0.08083000  0.66997000  0.38668000  1.0 -0.4822258238
O  O22  1  0.97903000  0.80977000  0.44743000  1.0 -0.5379270175
O  O23  1  0.36473000  0.93007000  0.27065000  1.0 -0.4822258238
O  O24  1  0.21053000  0.01637000  0.21086000  1.0 -0.5482087492
O  O25  1  0.32704000  0.88367000  0.60124000  1.0 -0.4618427365
O  O26  1  0.18584000  0.99507000  0.54447000  1.0 -0.5379270175
O  O27  1  0.58914000  0.91917000  0.72002000  1.0 -0.4822258238
O  O28  1  0.83074000  0.02097000  0.78077000  1.0 -0.5379270175
O  O29  1  0.56534000  0.63527000  0.60399000  1.0 -0.4822258238
O  O30  1  0.80584000  0.78947000  0.54420000  1.0 -0.5482087492
O  O31  1  0.55663000  0.67296000  0.93457000  1.0 -0.4618427365
O  O32  1  0.80923000  0.81416000  0.87780000  1.0 -0.5379270175
O  O33  1  0.33003000  0.41086000  0.05335000  1.0 -0.4822258238
O  O34  1  0.19023000  0.16926000  0.11410000  1.0 -0.5379270175
O  O35  1  0.06993000  0.43466000  0.93732000  1.0 -0.4822258238
O  O36  1  0.98363000  0.19416000  0.87753000  1.0 -0.5482087492
