# DDEC6 charges by PACMAN v1.1 (https://github.com/mtap-research/PACMAN-charge/)
data_MEFKAM_FSR_pacman
_symmetry_space_group_name_H-M   'P 1'
_cell_length_a   8.14400000
_cell_length_b   8.14400000
_cell_length_c   7.63510000
_cell_angle_alpha   90.00000000
_cell_angle_beta   90.00000000
_cell_angle_gamma   120.00000000
_symmetry_Int_Tables_number   1
_chemical_formula_structural   NaAlH6(CO2)6
_chemical_formula_sum   'Na1 Al1 H6 C6 O12'
_cell_volume   438.55179330
_cell_formula_units_Z   1
loop_
 _symmetry_equiv_pos_site_id
 _symmetry_equiv_pos_as_xyz
  1  'x, y, z'
loop_
 _atom_site_type_symbol
 _atom_site_label
 _atom_site_symmetry_multiplicity
 _atom_site_fract_x
 _atom_site_fract_y
 _atom_site_fract_z
 _atom_site_occupancy
 _atom_site_charge
Na  Na1  1  0.00000000  0.00000000  0.00000000  1.0 0.995474638
Al  Al1  1  0.66666667  0.33333333  0.50000000  1.0 1.4596241131
H  H1  1  0.89620000  0.65730000  0.25880000  1.0 0.1106328171
H  H2  1  0.34270000  0.23890000  0.25880000  1.0 0.1106328171
H  H3  1  0.76110000  0.10380000  0.25880000  1.0 0.1106328171
H  H4  1  0.34270000  0.10380000  0.74120000  1.0 0.1106328171
H  H5  1  0.76110000  0.65730000  0.74120000  1.0 0.1106328171
H  H6  1  0.89620000  0.23890000  0.74120000  1.0 0.1106328171
C  C1  1  0.77530000  0.64770000  0.26570000  1.0 0.5146228685
C  C2  1  0.35230000  0.12760000  0.26570000  1.0 0.5146228685
C  C3  1  0.87240000  0.22470000  0.26570000  1.0 0.5146228685
C  C4  1  0.35230000  0.22470000  0.73430000  1.0 0.5146228685
C  C5  1  0.87240000  0.64770000  0.73430000  1.0 0.5146228685
C  C6  1  0.77530000  0.12760000  0.73430000  1.0 0.5146228685
O  O1  1  0.65600000  0.51950000  0.36000000  1.0 -0.535517711
O  O2  1  0.75450000  0.76350000  0.18050000  1.0 -0.4989210999
O  O3  1  0.48050000  0.13650000  0.36000000  1.0 -0.535517711
O  O4  1  0.23650000  0.99100000  0.18050000  1.0 -0.4989210999
O  O5  1  0.86350000  0.34400000  0.36000000  1.0 -0.535517711
O  O6  1  0.00900000  0.24550000  0.18050000  1.0 -0.4989210999
O  O7  1  0.48050000  0.34400000  0.64000000  1.0 -0.535517711
O  O8  1  0.23650000  0.24550000  0.81950000  1.0 -0.4989210999
O  O9  1  0.86350000  0.51950000  0.64000000  1.0 -0.535517711
O  O10  1  0.00900000  0.76350000  0.81950000  1.0 -0.4989210999
O  O11  1  0.65600000  0.13650000  0.64000000  1.0 -0.535517711
O  O12  1  0.75450000  0.99100000  0.81950000  1.0 -0.4989210999
