# DDEC6 charges by PACMAN v1.1 (https://github.com/mtap-research/PACMAN-charge/)
data_MEFSAU_ASR_pacman
_symmetry_space_group_name_H-M   'P 1'
_cell_length_a   9.89350000
_cell_length_b   5.73280000
_cell_length_c   20.45500000
_cell_angle_alpha   90.00000000
_cell_angle_beta   99.48900000
_cell_angle_gamma   90.00000000
_symmetry_Int_Tables_number   1
_chemical_formula_structural   CuH20C22(NO)4
_chemical_formula_sum   'Cu2 H40 C44 N8 O8'
_cell_volume   1144.28148356
_cell_formula_units_Z   2
loop_
 _symmetry_equiv_pos_site_id
 _symmetry_equiv_pos_as_xyz
  1  'x, y, z'
loop_
 _atom_site_type_symbol
 _atom_site_label
 _atom_site_symmetry_multiplicity
 _atom_site_fract_x
 _atom_site_fract_y
 _atom_site_fract_z
 _atom_site_occupancy
 _atom_site_charge
Cu  Cu1  1  0.50000000  0.46579000  0.75000000  1.0 0.7296163954
Cu  Cu2  1  0.50000000  0.53421000  0.25000000  1.0 0.7296163954
H  H1  1  0.38650000  0.20590000  0.62500000  1.0 0.119443386
H  H2  1  0.20490000  0.23250000  0.53860000  1.0 0.1323250748
H  H3  1  0.23960000  0.71210000  0.71760000  1.0 0.1323250748
H  H4  1  0.05600000  0.75420000  0.63380000  1.0 0.1595097102
H  H5  1  0.63650000  0.29040000  0.47120000  1.0 0.1136864715
H  H6  1  0.42650000  0.22770000  0.40900000  1.0 0.1323250748
H  H7  1  0.74880000  0.43110000  0.59350000  1.0 0.1136864715
H  H8  1  0.87450000  0.32550000  0.64100000  1.0 0.119443386
H  H9  1  0.79600000  0.94520000  0.60720000  1.0 0.1136864715
H  H10  1  0.83770000  0.09090000  0.54890000  1.0 0.0996488027
H  H11  1  0.61350000  0.20590000  0.87500000  1.0 0.119443386
H  H12  1  0.79510000  0.23250000  0.96140000  1.0 0.1323250748
H  H13  1  0.76040000  0.71210000  0.78240000  1.0 0.1323250748
H  H14  1  0.94400000  0.75420000  0.86620000  1.0 0.1595097102
H  H15  1  0.36350000  0.29040000  0.02880000  1.0 0.1136864715
H  H16  1  0.57350000  0.22770000  0.09100000  1.0 0.1323250748
H  H17  1  0.25120000  0.43110000  0.90650000  1.0 0.1136864715
H  H18  1  0.12550000  0.32550000  0.85900000  1.0 0.119443386
H  H19  1  0.20400000  0.94520000  0.89280000  1.0 0.1136864715
H  H20  1  0.16230000  0.09090000  0.95110000  1.0 0.0996488027
H  H21  1  0.61350000  0.79410000  0.37500000  1.0 0.119443386
H  H22  1  0.79510000  0.76750000  0.46140000  1.0 0.1323250748
H  H23  1  0.76040000  0.28790000  0.28240000  1.0 0.1323250748
H  H24  1  0.94400000  0.24580000  0.36620000  1.0 0.1595097102
H  H25  1  0.36350000  0.70960000  0.52880000  1.0 0.1136864715
H  H26  1  0.57350000  0.77230000  0.59100000  1.0 0.1323250748
H  H27  1  0.25120000  0.56890000  0.40650000  1.0 0.1136864715
H  H28  1  0.12550000  0.67450000  0.35900000  1.0 0.119443386
H  H29  1  0.20400000  0.05480000  0.39280000  1.0 0.1136864715
H  H30  1  0.16230000  0.90910000  0.45110000  1.0 0.0996488027
H  H31  1  0.38650000  0.79410000  0.12500000  1.0 0.119443386
H  H32  1  0.20490000  0.76750000  0.03860000  1.0 0.1323250748
H  H33  1  0.23960000  0.28790000  0.21760000  1.0 0.1323250748
H  H34  1  0.05600000  0.24580000  0.13380000  1.0 0.1595097102
H  H35  1  0.63650000  0.70960000  0.97120000  1.0 0.1136864715
H  H36  1  0.42650000  0.77230000  0.90900000  1.0 0.1323250748
H  H37  1  0.74880000  0.56890000  0.09350000  1.0 0.1136864715
H  H38  1  0.87450000  0.67450000  0.14100000  1.0 0.119443386
H  H39  1  0.79600000  0.05480000  0.10720000  1.0 0.1136864715
H  H40  1  0.83770000  0.90910000  0.04890000  1.0 0.0996488027
C  C1  1  0.69380000  0.27960000  0.67587000  1.0 0.61068087
C  C2  1  0.32000000  0.31950000  0.62642000  1.0 0.0925653495
C  C3  1  0.11410000  0.50390000  0.57617000  1.0 0.1595097102
C  C4  1  0.21160000  0.33490000  0.57427000  1.0 -0.1961432926
C  C5  1  0.23380000  0.61660000  0.68050000  1.0 0.0808334567
C  C6  1  0.12310000  0.64320000  0.63050000  1.0 -0.1758494757
C  C7  1  0.63120000  0.03750000  0.53830000  1.0 0.0996488027
C  C8  1  0.58190000  0.17120000  0.48330000  1.0 -0.1601390026
C  C9  1  0.45480000  0.13430000  0.44590000  1.0 -0.1532603584
C  C10  1  0.77970000  0.29830000  0.62140000  1.0 -0.3148099415
C  C11  1  0.77130000  0.07890000  0.57870000  1.0 -0.2146539621
C  C12  1  0.30620000  0.27960000  0.82413000  1.0 0.61068087
C  C13  1  0.68000000  0.31950000  0.87358000  1.0 0.0925653495
C  C14  1  0.88590000  0.50390000  0.92383000  1.0 0.1595097102
C  C15  1  0.78840000  0.33490000  0.92573000  1.0 -0.1961432926
C  C16  1  0.76620000  0.61660000  0.81950000  1.0 0.0808334567
C  C17  1  0.87690000  0.64320000  0.86950000  1.0 -0.1758494757
C  C18  1  0.36880000  0.03750000  0.96170000  1.0 0.0996488027
C  C19  1  0.41810000  0.17120000  0.01670000  1.0 -0.1601390026
C  C20  1  0.54520000  0.13430000  0.05410000  1.0 -0.1532603584
C  C21  1  0.22030000  0.29830000  0.87860000  1.0 -0.3148099415
C  C22  1  0.22870000  0.07890000  0.92130000  1.0 -0.2150685124
C  C23  1  0.30620000  0.72040000  0.32413000  1.0 0.61068087
C  C24  1  0.68000000  0.68050000  0.37358000  1.0 0.0925653495
C  C25  1  0.88590000  0.49610000  0.42383000  1.0 0.1595097102
C  C26  1  0.78840000  0.66510000  0.42573000  1.0 -0.1961432926
C  C27  1  0.76620000  0.38340000  0.31950000  1.0 0.0808334567
C  C28  1  0.87690000  0.35680000  0.36950000  1.0 -0.1758494757
C  C29  1  0.36880000  0.96250000  0.46170000  1.0 0.0996488027
C  C30  1  0.41810000  0.82880000  0.51670000  1.0 -0.1601390026
C  C31  1  0.54520000  0.86570000  0.55410000  1.0 -0.1532603584
C  C32  1  0.22030000  0.70170000  0.37860000  1.0 -0.3148099415
C  C33  1  0.22870000  0.92110000  0.42130000  1.0 -0.2150685124
C  C34  1  0.69380000  0.72040000  0.17587000  1.0 0.61068087
C  C35  1  0.32000000  0.68050000  0.12642000  1.0 0.0925653495
C  C36  1  0.11410000  0.49610000  0.07617000  1.0 0.1595097102
C  C37  1  0.21160000  0.66510000  0.07427000  1.0 -0.1961432926
C  C38  1  0.23380000  0.38340000  0.18050000  1.0 0.0808334567
C  C39  1  0.12310000  0.35680000  0.13050000  1.0 -0.1758494757
C  C40  1  0.63120000  0.96250000  0.03830000  1.0 0.0996488027
C  C41  1  0.58190000  0.82880000  0.98330000  1.0 -0.1601390026
C  C42  1  0.45480000  0.86570000  0.94590000  1.0 -0.1532603584
C  C43  1  0.77970000  0.70170000  0.12140000  1.0 -0.3148099415
C  C44  1  0.77130000  0.92110000  0.07870000  1.0 -0.2150685124
N  N1  1  0.33240000  0.46130000  0.67832000  1.0 -0.1911929928
N  N2  1  0.99830000  0.55450000  0.52417000  1.0 -0.0925500251
N  N3  1  0.66760000  0.46130000  0.82168000  1.0 -0.1911929928
N  N4  1  0.00170000  0.55450000  0.97583000  1.0 -0.0925500251
N  N5  1  0.66760000  0.53870000  0.32168000  1.0 -0.1911929928
N  N6  1  0.00170000  0.44550000  0.47583000  1.0 -0.0925500251
N  N7  1  0.33240000  0.53870000  0.17832000  1.0 -0.1911929928
N  N8  1  0.99830000  0.44550000  0.02417000  1.0 -0.0925500251
O  O1  1  0.61330000  0.44770000  0.68100000  1.0 -0.5578221015
O  O2  1  0.70940000  0.10750000  0.71315000  1.0 -0.5873942457
O  O3  1  0.38670000  0.44770000  0.81900000  1.0 -0.5578221015
O  O4  1  0.29060000  0.10750000  0.78685000  1.0 -0.5873942457
O  O5  1  0.38670000  0.55230000  0.31900000  1.0 -0.5578221015
O  O6  1  0.29060000  0.89250000  0.28685000  1.0 -0.5873942457
O  O7  1  0.61330000  0.55230000  0.18100000  1.0 -0.5578221015
O  O8  1  0.70940000  0.89250000  0.21315000  1.0 -0.5873942457
