# DDEC6 charges by PACMAN v1.1 (https://github.com/mtap-research/PACMAN-charge/)
data_MEGBAD_ASR_pacman
_symmetry_space_group_name_H-M   'P 1'
_cell_length_a   21.30980000
_cell_length_b   19.74400000
_cell_length_c   18.77720000
_cell_angle_alpha   67.11890000
_cell_angle_beta   58.60710000
_cell_angle_gamma   54.27400000
_symmetry_Int_Tables_number   1
_chemical_formula_structural   Mn5NiH20C52N4(ClO9)2
_chemical_formula_sum   'Mn10 Ni2 H40 C104 N8 Cl4 O36'
_cell_volume   5433.77051927
_cell_formula_units_Z   2
loop_
 _symmetry_equiv_pos_site_id
 _symmetry_equiv_pos_as_xyz
  1  'x, y, z'
loop_
 _atom_site_type_symbol
 _atom_site_label
 _atom_site_symmetry_multiplicity
 _atom_site_fract_x
 _atom_site_fract_y
 _atom_site_fract_z
 _atom_site_occupancy
 _atom_site_charge
Mn  Mn1  1  0.68473000  0.01281000  0.31527000  1.0 1.1281696717
Mn  Mn2  1  0.01281000  0.68473000  0.98719000  1.0 1.1281696717
Mn  Mn3  1  0.31527000  0.98719000  0.68473000  1.0 1.1281696717
Mn  Mn4  1  0.98719000  0.31527000  0.01281000  1.0 1.1281696717
Mn  Mn5  1  0.50000000  0.00000000  0.50000000  1.0 1.1789544383
Mn  Mn6  1  0.00000000  0.50000000  0.00000000  1.0 1.1789544383
Mn  Mn7  1  0.96971000  0.03029000  0.58589000  1.0 1.0059414069
Mn  Mn8  1  0.03029000  0.96971000  0.41411000  1.0 1.0059414069
Mn  Mn9  1  0.58589000  0.41411000  0.96971000  1.0 1.0059414069
Mn  Mn10  1  0.41411000  0.58589000  0.03029000  1.0 1.0059414069
Ni  Ni1  1  0.50000000  0.00000000  0.00000000  1.0 0.5054856698
Ni  Ni2  1  0.00000000  0.50000000  0.50000000  1.0 0.5028185407
H  H1  1  0.70590000  0.85270000  0.73810000  1.0 0.1319843671
H  H2  1  0.85270000  0.70590000  0.70330000  1.0 0.1319843671
H  H3  1  0.73810000  0.70330000  0.70590000  1.0 0.1319843671
H  H4  1  0.70330000  0.73810000  0.85270000  1.0 0.1319843671
H  H5  1  0.29410000  0.14730000  0.26190000  1.0 0.1319843671
H  H6  1  0.14730000  0.29410000  0.29670000  1.0 0.1319843671
H  H7  1  0.26190000  0.29670000  0.29410000  1.0 0.1319843671
H  H8  1  0.29670000  0.26190000  0.14730000  1.0 0.1319843671
H  H9  1  0.55330000  0.18130000  0.71910000  1.0 0.1383437388
H  H10  1  0.18130000  0.55330000  0.54630000  1.0 0.1383437388
H  H11  1  0.71910000  0.54630000  0.55330000  1.0 0.1383437388
H  H12  1  0.54630000  0.71910000  0.18130000  1.0 0.1383437388
H  H13  1  0.44670000  0.81870000  0.28090000  1.0 0.1383437388
H  H14  1  0.81870000  0.44670000  0.45370000  1.0 0.1383437388
H  H15  1  0.28090000  0.45370000  0.44670000  1.0 0.1383437388
H  H16  1  0.45370000  0.28090000  0.81870000  1.0 0.1383437388
H  H17  1  0.57360000  0.01660000  0.66340000  1.0 0.1383437388
H  H18  1  0.01660000  0.57360000  0.74640000  1.0 0.1383437388
H  H19  1  0.66340000  0.74640000  0.57360000  1.0 0.1383437388
H  H20  1  0.74640000  0.66340000  0.01660000  1.0 0.1383437388
H  H21  1  0.42640000  0.98340000  0.33660000  1.0 0.1383437388
H  H22  1  0.98340000  0.42640000  0.25360000  1.0 0.1383437388
H  H23  1  0.33660000  0.25360000  0.42640000  1.0 0.1383437388
H  H24  1  0.25360000  0.33660000  0.98340000  1.0 0.1383437388
H  H25  1  0.77410000  0.02110000  0.46470000  1.0 0.1383437388
H  H26  1  0.02110000  0.77410000  0.74010000  1.0 0.1383437388
H  H27  1  0.46470000  0.74010000  0.77410000  1.0 0.1383437388
H  H28  1  0.74010000  0.46470000  0.02110000  1.0 0.1383437388
H  H29  1  0.22590000  0.97890000  0.53530000  1.0 0.1383437388
H  H30  1  0.97890000  0.22590000  0.25990000  1.0 0.1383437388
H  H31  1  0.53530000  0.25990000  0.22590000  1.0 0.1383437388
H  H32  1  0.25990000  0.53530000  0.97890000  1.0 0.1383437388
H  H33  1  0.73980000  0.02840000  0.69040000  1.0 0.1319843671
H  H34  1  0.02840000  0.73980000  0.54140000  1.0 0.1319843671
H  H35  1  0.69040000  0.54140000  0.73980000  1.0 0.1319843671
H  H36  1  0.54140000  0.69040000  0.02840000  1.0 0.1319843671
H  H37  1  0.26020000  0.97160000  0.30960000  1.0 0.1319843671
H  H38  1  0.97160000  0.26020000  0.45860000  1.0 0.1319843671
H  H39  1  0.30960000  0.45860000  0.26020000  1.0 0.1319843671
H  H40  1  0.45860000  0.30960000  0.97160000  1.0 0.1319843671
C  C1  1  0.67410000  0.85790000  0.79510000  1.0 -0.1752462228
C  C2  1  0.85790000  0.67410000  0.67290000  1.0 -0.1752462228
C  C3  1  0.79510000  0.67290000  0.67410000  1.0 -0.1752462228
C  C4  1  0.67290000  0.79510000  0.85790000  1.0 -0.1752462228
C  C5  1  0.32590000  0.14210000  0.20490000  1.0 -0.1752462228
C  C6  1  0.14210000  0.32590000  0.32710000  1.0 -0.1752462228
C  C7  1  0.20490000  0.32710000  0.32590000  1.0 -0.1752462228
C  C8  1  0.32710000  0.20490000  0.14210000  1.0 -0.1752462228
C  C9  1  0.61740000  0.93420000  0.83240000  1.0 0.1771822134
C  C10  1  0.93420000  0.61740000  0.61600000  1.0 0.1771822134
C  C11  1  0.83240000  0.61600000  0.61740000  1.0 0.1771822134
C  C12  1  0.61600000  0.83240000  0.93420000  1.0 0.1771822134
C  C13  1  0.38260000  0.06580000  0.16760000  1.0 0.1771822134
C  C14  1  0.06580000  0.38260000  0.38400000  1.0 0.1771822134
C  C15  1  0.16760000  0.38400000  0.38260000  1.0 0.1771822134
C  C16  1  0.38400000  0.16760000  0.06580000  1.0 0.1771822134
C  C17  1  0.60247000  0.01347000  0.78633000  1.0 -0.0673701958
C  C18  1  0.01347000  0.60247000  0.59773000  1.0 -0.0673701958
C  C19  1  0.78633000  0.59773000  0.60247000  1.0 -0.0673701958
C  C20  1  0.59773000  0.78633000  0.01347000  1.0 -0.0673701958
C  C21  1  0.39753000  0.98653000  0.21367000  1.0 -0.0673701958
C  C22  1  0.98653000  0.39753000  0.40227000  1.0 -0.0673701958
C  C23  1  0.21367000  0.40227000  0.39753000  1.0 -0.0673701958
C  C24  1  0.40227000  0.21367000  0.98653000  1.0 -0.0673701958
C  C25  1  0.54860000  0.08420000  0.82360000  1.0 0.1858634959
C  C26  1  0.08420000  0.54860000  0.54360000  1.0 0.1858634959
C  C27  1  0.82360000  0.54360000  0.54860000  1.0 0.1858634959
C  C28  1  0.54360000  0.82360000  0.08420000  1.0 0.1858634959
C  C29  1  0.45140000  0.91580000  0.17640000  1.0 0.1858634959
C  C30  1  0.91580000  0.45140000  0.45640000  1.0 0.1858634959
C  C31  1  0.17640000  0.45640000  0.45140000  1.0 0.1858634959
C  C32  1  0.45640000  0.17640000  0.91580000  1.0 0.1858634959
C  C33  1  0.53030000  0.16870000  0.77710000  1.0 -0.1677226414
C  C34  1  0.16870000  0.53030000  0.52390000  1.0 -0.1677226414
C  C35  1  0.77710000  0.52390000  0.53030000  1.0 -0.1677226414
C  C36  1  0.52390000  0.77710000  0.16870000  1.0 -0.1677226414
C  C37  1  0.46970000  0.83130000  0.22290000  1.0 -0.1677226414
C  C38  1  0.83130000  0.46970000  0.47610000  1.0 -0.1677226414
C  C39  1  0.22290000  0.47610000  0.46970000  1.0 -0.1677226414
C  C40  1  0.47610000  0.22290000  0.83130000  1.0 -0.1677226414
C  C41  1  0.65100000  0.01700000  0.69280000  1.0 0.0718321624
C  C42  1  0.01700000  0.65100000  0.63920000  1.0 0.0718321624
C  C43  1  0.69280000  0.63920000  0.65100000  1.0 0.0718321624
C  C44  1  0.63920000  0.69280000  0.01700000  1.0 0.0718321624
C  C45  1  0.34900000  0.98300000  0.30720000  1.0 0.0718321624
C  C46  1  0.98300000  0.34900000  0.36080000  1.0 0.0718321624
C  C47  1  0.30720000  0.36080000  0.34900000  1.0 0.0718321624
C  C48  1  0.36080000  0.30720000  0.98300000  1.0 0.0718321624
C  C49  1  0.62390000  0.01710000  0.64090000  1.0 -0.1411026595
C  C50  1  0.01710000  0.62390000  0.71810000  1.0 -0.1411026595
C  C51  1  0.64090000  0.71810000  0.62390000  1.0 -0.1411026595
C  C52  1  0.71810000  0.64090000  0.01710000  1.0 -0.1411026595
C  C53  1  0.37610000  0.98290000  0.35910000  1.0 -0.1411026595
C  C54  1  0.98290000  0.37610000  0.28190000  1.0 -0.1411026595
C  C55  1  0.35910000  0.28190000  0.37610000  1.0 -0.1411026595
C  C56  1  0.28190000  0.35910000  0.98290000  1.0 -0.1411026595
C  C57  1  0.67100000  0.01780000  0.55400000  1.0 -0.0180271668
C  C58  1  0.01780000  0.67100000  0.75720000  1.0 -0.0180271668
C  C59  1  0.55400000  0.75720000  0.67100000  1.0 -0.0180271668
C  C60  1  0.75720000  0.55400000  0.01780000  1.0 -0.0180271668
C  C61  1  0.32900000  0.98220000  0.44600000  1.0 -0.0180271668
C  C62  1  0.98220000  0.32900000  0.24280000  1.0 -0.0180271668
C  C63  1  0.44600000  0.24280000  0.32900000  1.0 -0.0180271668
C  C64  1  0.24280000  0.44600000  0.98220000  1.0 -0.0180271668
C  C65  1  0.74260000  0.02080000  0.52240000  1.0 -0.1060301428
C  C66  1  0.02080000  0.74260000  0.71420000  1.0 -0.1060301428
C  C67  1  0.52240000  0.71420000  0.74260000  1.0 -0.1060301428
C  C68  1  0.71420000  0.52240000  0.02080000  1.0 -0.1060301428
C  C69  1  0.25740000  0.97920000  0.47760000  1.0 -0.1060301428
C  C70  1  0.97920000  0.25740000  0.28580000  1.0 -0.1060301428
C  C71  1  0.47760000  0.28580000  0.25740000  1.0 -0.1060301428
C  C72  1  0.28580000  0.47760000  0.97920000  1.0 -0.1060301428
C  C73  1  0.77080000  0.02300000  0.57220000  1.0 -0.0017057732
C  C74  1  0.02300000  0.77080000  0.63400000  1.0 -0.0017057732
C  C75  1  0.57220000  0.63400000  0.77080000  1.0 -0.0017057732
C  C76  1  0.63400000  0.57220000  0.02300000  1.0 -0.0017057732
C  C77  1  0.22920000  0.97700000  0.42780000  1.0 -0.0017057732
C  C78  1  0.97700000  0.22920000  0.36600000  1.0 -0.0017057732
C  C79  1  0.42780000  0.36600000  0.22920000  1.0 -0.0017057732
C  C80  1  0.36600000  0.42780000  0.97700000  1.0 -0.0017057732
C  C81  1  0.72326000  0.02346000  0.65634000  1.0 -0.1474442025
C  C82  1  0.02346000  0.72326000  0.59694000  1.0 -0.1474442025
C  C83  1  0.65634000  0.59694000  0.72326000  1.0 -0.1474442025
C  C84  1  0.59694000  0.65634000  0.02346000  1.0 -0.1474442025
C  C85  1  0.27674000  0.97654000  0.34366000  1.0 -0.1474442025
C  C86  1  0.97654000  0.27674000  0.40306000  1.0 -0.1474442025
C  C87  1  0.34366000  0.40306000  0.27674000  1.0 -0.1474442025
C  C88  1  0.40306000  0.34366000  0.97654000  1.0 -0.1474442025
C  C89  1  0.85370000  0.02250000  0.53530000  1.0 0.5906452525
C  C90  1  0.02250000  0.85370000  0.58850000  1.0 0.5906452525
C  C91  1  0.53530000  0.58850000  0.85370000  1.0 0.5906452525
C  C92  1  0.58850000  0.53530000  0.02250000  1.0 0.5906452525
C  C93  1  0.14630000  0.97750000  0.46470000  1.0 0.5906452525
C  C94  1  0.97750000  0.14630000  0.41150000  1.0 0.5906452525
C  C95  1  0.46470000  0.41150000  0.14630000  1.0 0.5906452525
C  C96  1  0.41150000  0.46470000  0.97750000  1.0 0.5906452525
C  C97  1  0.63880000  0.01840000  0.49920000  1.0 0.5906452525
C  C98  1  0.01840000  0.63880000  0.84360000  1.0 0.5906452525
C  C99  1  0.49920000  0.84360000  0.63880000  1.0 0.5906452525
C  C100  1  0.84360000  0.49920000  0.01840000  1.0 0.5906452525
C  C101  1  0.36120000  0.98160000  0.50080000  1.0 0.5960006873
C  C102  1  0.98160000  0.36120000  0.15640000  1.0 0.5906452525
C  C103  1  0.50080000  0.15640000  0.36120000  1.0 0.5906452525
C  C104  1  0.15640000  0.50080000  0.98160000  1.0 0.5960006873
N  N1  1  0.58100000  0.91900000  0.91900000  1.0 -0.3090440174
N  N2  1  0.91900000  0.58100000  0.58100000  1.0 -0.3039117297
N  N3  1  0.41900000  0.08100000  0.08100000  1.0 -0.3090440174
N  N4  1  0.08100000  0.41900000  0.41900000  1.0 -0.3090440174
N  N5  1  0.50160000  0.09380000  0.90620000  1.0 -0.2901654383
N  N6  1  0.09380000  0.50160000  0.49840000  1.0 -0.2901654383
N  N7  1  0.90620000  0.49840000  0.50160000  1.0 -0.2901654383
N  N8  1  0.49840000  0.90620000  0.09380000  1.0 -0.2901654383
Cl  Cl1  1  0.91143000  0.08857000  0.70677000  1.0 -0.4878953462
Cl  Cl2  1  0.08857000  0.91143000  0.29323000  1.0 -0.4878953462
Cl  Cl3  1  0.70677000  0.29323000  0.91143000  1.0 -0.4878953462
Cl  Cl4  1  0.29323000  0.70677000  0.08857000  1.0 -0.4878953462
O  O1  1  0.86697000  0.03797000  0.58323000  1.0 -0.5363151645
O  O2  1  0.03797000  0.86697000  0.51183000  1.0 -0.5363151645
O  O3  1  0.58323000  0.51183000  0.86697000  1.0 -0.5363151645
O  O4  1  0.51183000  0.58323000  0.03797000  1.0 -0.5363151645
O  O5  1  0.13303000  0.96203000  0.41677000  1.0 -0.5363151645
O  O6  1  0.96203000  0.13303000  0.48817000  1.0 -0.5363151645
O  O7  1  0.41677000  0.48817000  0.13303000  1.0 -0.5363151645
O  O8  1  0.48817000  0.41677000  0.96203000  1.0 -0.5363151645
O  O9  1  0.90346000  0.00326000  0.46334000  1.0 -0.5034564437
O  O10  1  0.00326000  0.90346000  0.62994000  1.0 -0.5034564437
O  O11  1  0.46334000  0.62994000  0.90346000  1.0 -0.5034564437
O  O12  1  0.62994000  0.46334000  0.00326000  1.0 -0.5034564437
O  O13  1  0.09654000  0.99674000  0.53666000  1.0 -0.5034564437
O  O14  1  0.99674000  0.09654000  0.37006000  1.0 -0.5034564437
O  O15  1  0.53666000  0.37006000  0.09654000  1.0 -0.5034564437
O  O16  1  0.37006000  0.53666000  0.99674000  1.0 -0.5034564437
O  O17  1  0.68270000  0.02070000  0.42390000  1.0 -0.5470068818
O  O18  1  0.02070000  0.68270000  0.87270000  1.0 -0.5470068818
O  O19  1  0.42390000  0.87270000  0.68270000  1.0 -0.5470068818
O  O20  1  0.87270000  0.42390000  0.02070000  1.0 -0.5470068818
O  O21  1  0.31730000  0.97930000  0.57610000  1.0 -0.5470068818
O  O22  1  0.97930000  0.31730000  0.12730000  1.0 -0.5470068818
O  O23  1  0.57610000  0.12730000  0.31730000  1.0 -0.5470068818
O  O24  1  0.12730000  0.57610000  0.97930000  1.0 -0.5470068818
O  O25  1  0.57286000  0.01478000  0.53342000  1.0 -0.5034564437
O  O26  1  0.01478000  0.57286000  0.87894000  1.0 -0.5058243116
O  O27  1  0.53342000  0.87894000  0.57286000  1.0 -0.5034564437
O  O28  1  0.87894000  0.53342000  0.01478000  1.0 -0.5034564437
O  O29  1  0.42714000  0.98522000  0.46658000  1.0 -0.5034564437
O  O30  1  0.98522000  0.42714000  0.12106000  1.0 -0.5058243116
O  O31  1  0.46658000  0.12106000  0.42714000  1.0 -0.5034564437
O  O32  1  0.12106000  0.46658000  0.98522000  1.0 -0.5058243116
O  O33  1  0.61730000  0.93530000  0.38270000  1.0 -0.6513132145
O  O34  1  0.93530000  0.61730000  0.06470000  1.0 -0.6513132145
O  O35  1  0.38270000  0.06470000  0.61730000  1.0 -0.6513132145
O  O36  1  0.06470000  0.38270000  0.93530000  1.0 -0.6513132145
