# DDEC6 charges by PACMAN v1.1 (https://github.com/mtap-research/PACMAN-charge/)
data_MEGHEP_ASR_pacman
_symmetry_space_group_name_H-M   'P 1'
_cell_length_a   5.07110000
_cell_length_b   10.76970000
_cell_length_c   14.65110000
_cell_angle_alpha   95.91500000
_cell_angle_beta   99.67500000
_cell_angle_gamma   90.47700000
_symmetry_Int_Tables_number   1
_chemical_formula_structural   YbC12N2Cl2(O3F)2
_chemical_formula_sum   'Yb2 C24 N4 Cl4 O12 F4'
_cell_volume   784.30981684
_cell_formula_units_Z   2
loop_
 _symmetry_equiv_pos_site_id
 _symmetry_equiv_pos_as_xyz
  1  'x, y, z'
loop_
 _atom_site_type_symbol
 _atom_site_label
 _atom_site_symmetry_multiplicity
 _atom_site_fract_x
 _atom_site_fract_y
 _atom_site_fract_z
 _atom_site_occupancy
 _atom_site_charge
Yb  Yb1  1  0.42892000  0.24476000  0.74893000  1.0 1.941207751
Yb  Yb2  1  0.57108000  0.75524000  0.25107000  1.0 1.941207751
C  C1  1  0.36200000  0.39060000  0.94660000  1.0 0.1922801279
C  C2  1  0.56800000  0.46860000  0.90980000  1.0 0.1763061874
C  C3  1  0.69200000  0.57360000  0.96460000  1.0 -0.2493131018
C  C4  1  0.59800000  0.03360000  0.59870000  1.0 0.1922801279
C  C5  1  0.33700000  0.08820000  0.55080000  1.0 0.2237049185
C  C6  1  0.27200000  0.05900000  0.44850000  1.0 -0.2277694798
C  C7  1  0.86300000  0.36900000  0.65090000  1.0 0.6911652529
C  C8  1  0.93400000  0.43950000  0.57490000  1.0 -0.2608578286
C  C9  1  0.79200000  0.41420000  0.48440000  1.0 0.1123420589
C  C10  1  0.13800000  0.52680000  0.58780000  1.0 0.0944918983
C  C11  1  0.90300000  0.67400000  0.93200000  1.0 0.2763058238
C  C12  1  0.98200000  0.12900000  0.40300000  1.0 0.2130646699
C  C13  1  0.63800000  0.60940000  0.05340000  1.0 0.1922801279
C  C14  1  0.43200000  0.53140000  0.09020000  1.0 0.1763061874
C  C15  1  0.30800000  0.42640000  0.03540000  1.0 -0.2493131018
C  C16  1  0.40200000  0.96640000  0.40130000  1.0 0.1922801279
C  C17  1  0.66300000  0.91180000  0.44920000  1.0 0.2258490168
C  C18  1  0.72800000  0.94100000  0.55150000  1.0 -0.2277694798
C  C19  1  0.13700000  0.63100000  0.34910000  1.0 0.6911652529
C  C20  1  0.06600000  0.56050000  0.42510000  1.0 -0.2608578286
C  C21  1  0.20800000  0.58580000  0.51560000  1.0 0.1123420589
C  C22  1  0.86200000  0.47320000  0.41220000  1.0 0.0944918983
C  C23  1  0.09700000  0.32600000  0.06800000  1.0 0.2763058238
C  C24  1  0.01800000  0.87100000  0.59700000  1.0 0.2130646699
N  N1  1  0.03400000  0.70400000  0.90000000  1.0 -0.1079752191
N  N2  1  0.86800000  0.16800000  0.35800000  1.0 -0.0939728066
N  N3  1  0.96600000  0.29600000  0.10000000  1.0 -0.1079752191
N  N4  1  0.13200000  0.83200000  0.64200000  1.0 -0.0957471735
Cl  Cl1  1  0.92700000  0.65210000  0.92190000  1.0 0.398616358
Cl  Cl2  1  0.01900000  0.13820000  0.38960000  1.0 0.3745526516
Cl  Cl3  1  0.07300000  0.34790000  0.07810000  1.0 0.398616358
Cl  Cl4  1  0.98100000  0.86180000  0.61040000  1.0 0.3841861629
O  O1  1  0.26200000  0.29840000  0.89260000  1.0 -0.5634437955
O  O2  1  0.60800000  0.43430000  0.82870000  1.0 -0.5526050485
O  O3  1  0.66500000  0.07620000  0.68280000  1.0 -0.6087987579
O  O4  1  0.22700000  0.16370000  0.59570000  1.0 -0.4827158756
O  O5  1  0.62000000  0.34410000  0.64870000  1.0 -0.6900401271
O  O6  1  0.04600000  0.34000000  0.71340000  1.0 -0.7323873497
O  O7  1  0.73800000  0.70160000  0.10740000  1.0 -0.5634437955
O  O8  1  0.39200000  0.56570000  0.17130000  1.0 -0.5526050485
O  O9  1  0.33500000  0.92380000  0.31720000  1.0 -0.6087987579
O  O10  1  0.77300000  0.83630000  0.40430000  1.0 -0.4827158756
O  O11  1  0.38000000  0.65590000  0.35130000  1.0 -0.6900401271
O  O12  1  0.95400000  0.66000000  0.28660000  1.0 -0.7323873497
F  F1  1  0.59070000  0.33050000  0.46330000  1.0 -0.1726675189
F  F2  1  0.27660000  0.55930000  0.67440000  1.0 -0.1487725384
F  F3  1  0.40930000  0.66950000  0.53670000  1.0 -0.1726675189
F  F4  1  0.72340000  0.44070000  0.32560000  1.0 -0.1487725384
