# DDEC6 charges by PACMAN v1.1 (https://github.com/mtap-research/PACMAN-charge/)
data_MEKDUC_FSR_pacman
_symmetry_space_group_name_H-M   'P 1'
_cell_length_a   10.98250000
_cell_length_b   16.85780000
_cell_length_c   11.60120000
_cell_angle_alpha   90.00000000
_cell_angle_beta   94.75800000
_cell_angle_gamma   90.00000000
_symmetry_Int_Tables_number   1
_chemical_formula_structural   CdH8C14S2(N3O)2
_chemical_formula_sum   'Cd4 H32 C56 S8 N24 O8'
_cell_volume   2140.45365702
_cell_formula_units_Z   4
loop_
 _symmetry_equiv_pos_site_id
 _symmetry_equiv_pos_as_xyz
  1  'x, y, z'
loop_
 _atom_site_type_symbol
 _atom_site_label
 _atom_site_symmetry_multiplicity
 _atom_site_fract_x
 _atom_site_fract_y
 _atom_site_fract_z
 _atom_site_occupancy
 _atom_site_charge
Cd  Cd1  1  0.83751000  0.74592000  0.75514000  1.0 0.6331150405
Cd  Cd2  1  0.66249000  0.24592000  0.24486000  1.0 0.6331150405
Cd  Cd3  1  0.16249000  0.25408000  0.24486000  1.0 0.6331150405
Cd  Cd4  1  0.33751000  0.75408000  0.75514000  1.0 0.6331150405
H  H1  1  0.24840000  0.15630000  0.03780000  1.0 0.1035804882
H  H2  1  0.25160000  0.65630000  0.96220000  1.0 0.1035804882
H  H3  1  0.75160000  0.84370000  0.96220000  1.0 0.1035804882
H  H4  1  0.74840000  0.34370000  0.03780000  1.0 0.1035804882
H  H5  1  0.26050000  0.03570000  0.94850000  1.0 0.1427558142
H  H6  1  0.23950000  0.53570000  0.05150000  1.0 0.1427558142
H  H7  1  0.73950000  0.96430000  0.05150000  1.0 0.1427558142
H  H8  1  0.76050000  0.46430000  0.94850000  1.0 0.1427558142
H  H9  1  0.04910000  0.94550000  0.18100000  1.0 0.1427558142
H  H10  1  0.45090000  0.44550000  0.81900000  1.0 0.1427558142
H  H11  1  0.95090000  0.05450000  0.81900000  1.0 0.1427558142
H  H12  1  0.54910000  0.55450000  0.18100000  1.0 0.1427558142
H  H13  1  0.05240000  0.06730000  0.26910000  1.0 0.1035804882
H  H14  1  0.44760000  0.56730000  0.73090000  1.0 0.1035804882
H  H15  1  0.94760000  0.93270000  0.73090000  1.0 0.1035804882
H  H16  1  0.55240000  0.43270000  0.26910000  1.0 0.1035804882
H  H17  1  0.01190000  0.42630000  0.23370000  1.0 0.1035804882
H  H18  1  0.48810000  0.92630000  0.76630000  1.0 0.1035804882
H  H19  1  0.98810000  0.57370000  0.76630000  1.0 0.1035804882
H  H20  1  0.51190000  0.07370000  0.23370000  1.0 0.1035804882
H  H21  1  0.99720000  0.54500000  0.32910000  1.0 0.1427558142
H  H22  1  0.50280000  0.04500000  0.67090000  1.0 0.1427558142
H  H23  1  0.00280000  0.45500000  0.67090000  1.0 0.1427558142
H  H24  1  0.49720000  0.95500000  0.32910000  1.0 0.1427558142
H  H25  1  0.29730000  0.48530000  0.52820000  1.0 0.1427558142
H  H26  1  0.20270000  0.98530000  0.47180000  1.0 0.1427558142
H  H27  1  0.70270000  0.51470000  0.47180000  1.0 0.1427558142
H  H28  1  0.79730000  0.01470000  0.52820000  1.0 0.1427558142
H  H29  1  0.30200000  0.36870000  0.42840000  1.0 0.1035804882
H  H30  1  0.19800000  0.86870000  0.57160000  1.0 0.1035804882
H  H31  1  0.69800000  0.63130000  0.57160000  1.0 0.1035804882
H  H32  1  0.80200000  0.13130000  0.42840000  1.0 0.1035804882
C  C1  1  0.21010000  0.11280000  0.06840000  1.0 0.0772173427
C  C2  1  0.28990000  0.61280000  0.93160000  1.0 0.0772173427
C  C3  1  0.78990000  0.88720000  0.93160000  1.0 0.0772173427
C  C4  1  0.71010000  0.38720000  0.06840000  1.0 0.0772173427
C  C5  1  0.21610000  0.04094000  0.01290000  1.0 -0.1809548565
C  C6  1  0.28390000  0.54094000  0.98710000  1.0 -0.1809548565
C  C7  1  0.78390000  0.95906000  0.98710000  1.0 -0.1809548565
C  C8  1  0.71610000  0.45906000  0.01290000  1.0 -0.1809548565
C  C9  1  0.15530000  0.97677000  0.05440000  1.0 0.0476424781
C  C10  1  0.34470000  0.47677000  0.94560000  1.0 0.0476424781
C  C11  1  0.84470000  0.02323000  0.94560000  1.0 0.0476424781
C  C12  1  0.65530000  0.52323000  0.05440000  1.0 0.0476424781
C  C13  1  0.09210000  0.98728000  0.15130000  1.0 -0.1915890627
C  C14  1  0.40790000  0.48728000  0.84870000  1.0 -0.1915890627
C  C15  1  0.90790000  0.01272000  0.84870000  1.0 -0.1915890627
C  C16  1  0.59210000  0.51272000  0.15130000  1.0 -0.1915890627
C  C17  1  0.09400000  0.06088000  0.20310000  1.0 0.0772173427
C  C18  1  0.40600000  0.56088000  0.79690000  1.0 0.0772173427
C  C19  1  0.90600000  0.93912000  0.79690000  1.0 0.0772173427
C  C20  1  0.59400000  0.43912000  0.20310000  1.0 0.0772173427
C  C21  1  0.15670000  0.90168000  0.99150000  1.0 0.2873888633
C  C22  1  0.34330000  0.40168000  0.00850000  1.0 0.2873888633
C  C23  1  0.84330000  0.09832000  0.00850000  1.0 0.2873888633
C  C24  1  0.65670000  0.59832000  0.99150000  1.0 0.2873888633
C  C25  1  0.09700000  0.78651000  0.92980000  1.0 0.3414179108
C  C26  1  0.40300000  0.28651000  0.07020000  1.0 0.3414179108
C  C27  1  0.90300000  0.21349000  0.07020000  1.0 0.3414179108
C  C28  1  0.59700000  0.71349000  0.92980000  1.0 0.3414179108
C  C29  1  0.06980000  0.43830000  0.29440000  1.0 0.0772173427
C  C30  1  0.43020000  0.93830000  0.70560000  1.0 0.0772173427
C  C31  1  0.93020000  0.56170000  0.70560000  1.0 0.0772173427
C  C32  1  0.56980000  0.06170000  0.29440000  1.0 0.0772173427
C  C33  1  0.06000000  0.50984000  0.35140000  1.0 -0.1809548565
C  C34  1  0.44000000  0.00984000  0.64860000  1.0 -0.1809548565
C  C35  1  0.94000000  0.49016000  0.64860000  1.0 -0.1809548565
C  C36  1  0.56000000  0.99016000  0.35140000  1.0 -0.1809548565
C  C37  1  0.14460000  0.52818000  0.44150000  1.0 0.0439876154
C  C38  1  0.35540000  0.02818000  0.55850000  1.0 0.0439876154
C  C39  1  0.85540000  0.47182000  0.55850000  1.0 0.0439876154
C  C40  1  0.64460000  0.97182000  0.44150000  1.0 0.0439876154
C  C41  1  0.23720000  0.47440000  0.46910000  1.0 -0.1809548565
C  C42  1  0.26280000  0.97440000  0.53090000  1.0 -0.1809548565
C  C43  1  0.76280000  0.52560000  0.53090000  1.0 -0.1809548565
C  C44  1  0.73720000  0.02560000  0.46910000  1.0 -0.1809548565
C  C45  1  0.23960000  0.40460000  0.40810000  1.0 0.0772173427
C  C46  1  0.26040000  0.90460000  0.59190000  1.0 0.0772173427
C  C47  1  0.76040000  0.59540000  0.59190000  1.0 0.0772173427
C  C48  1  0.73960000  0.09540000  0.40810000  1.0 0.0772173427
C  C49  1  0.14080000  0.60131000  0.50880000  1.0 0.2873888633
C  C50  1  0.35920000  0.10131000  0.49120000  1.0 0.2873888633
C  C51  1  0.85920000  0.39869000  0.49120000  1.0 0.2873888633
C  C52  1  0.64080000  0.89869000  0.50880000  1.0 0.2873888633
C  C53  1  0.07180000  0.71098000  0.57250000  1.0 0.3459124139
C  C54  1  0.42820000  0.21098000  0.42750000  1.0 0.3459124139
C  C55  1  0.92820000  0.28902000  0.42750000  1.0 0.3459124139
C  C56  1  0.57180000  0.78902000  0.57250000  1.0 0.3459124139
S  S1  1  0.00862000  0.70375000  0.91892000  1.0 -0.4012018905
S  S2  1  0.49138000  0.20375000  0.08108000  1.0 -0.4012018905
S  S3  1  0.99138000  0.29625000  0.08108000  1.0 -0.4012018905
S  S4  1  0.50862000  0.79625000  0.91892000  1.0 -0.4012018905
S  S5  1  0.97381000  0.78834000  0.58048000  1.0 -0.4012018905
S  S6  1  0.52619000  0.28834000  0.41952000  1.0 -0.4012018905
S  S7  1  0.02619000  0.21166000  0.41952000  1.0 -0.4012018905
S  S8  1  0.47381000  0.71166000  0.58048000  1.0 -0.4012018905
N  N1  1  0.15220000  0.12331000  0.16370000  1.0 -0.210822554
N  N2  1  0.34780000  0.62331000  0.83630000  1.0 -0.210822554
N  N3  1  0.84780000  0.87669000  0.83630000  1.0 -0.210822554
N  N4  1  0.65220000  0.37669000  0.16370000  1.0 -0.210822554
N  N5  1  0.22970000  0.88245000  0.91510000  1.0 -0.2374826834
N  N6  1  0.27030000  0.38245000  0.08490000  1.0 -0.2374826834
N  N7  1  0.77030000  0.11755000  0.08490000  1.0 -0.2374826834
N  N8  1  0.72970000  0.61755000  0.91510000  1.0 -0.2374826834
N  N9  1  0.19170000  0.80722000  0.87530000  1.0 -0.2632456613
N  N10  1  0.30830000  0.30722000  0.12470000  1.0 -0.2632456613
N  N11  1  0.80830000  0.19278000  0.12470000  1.0 -0.2632456613
N  N12  1  0.69170000  0.69278000  0.87530000  1.0 -0.2656383493
N  N13  1  0.15800000  0.38564000  0.32210000  1.0 -0.2041010686
N  N14  1  0.34200000  0.88564000  0.67790000  1.0 -0.2041010686
N  N15  1  0.84200000  0.61436000  0.67790000  1.0 -0.2041010686
N  N16  1  0.65800000  0.11436000  0.32210000  1.0 -0.2041010686
N  N17  1  0.22220000  0.62531000  0.58610000  1.0 -0.2374826834
N  N18  1  0.27780000  0.12531000  0.41390000  1.0 -0.2374826834
N  N19  1  0.77780000  0.37469000  0.41390000  1.0 -0.2374826834
N  N20  1  0.72220000  0.87469000  0.58610000  1.0 -0.2374826834
N  N21  1  0.17870000  0.69701000  0.62740000  1.0 -0.2632456613
N  N22  1  0.32130000  0.19701000  0.37260000  1.0 -0.2632456613
N  N23  1  0.82130000  0.30299000  0.37260000  1.0 -0.2632456613
N  N24  1  0.67870000  0.80299000  0.62740000  1.0 -0.2632456613
O  O1  1  0.07173000  0.84508000  0.00787000  1.0 -0.1659093291
O  O2  1  0.42827000  0.34508000  0.99213000  1.0 -0.1659093291
O  O3  1  0.92827000  0.15492000  0.99213000  1.0 -0.1659093291
O  O4  1  0.57173000  0.65492000  0.00787000  1.0 -0.1659093291
O  O5  1  0.04341000  0.65078000  0.49406000  1.0 -0.1613225394
O  O6  1  0.45659000  0.15078000  0.50594000  1.0 -0.1613225394
O  O7  1  0.95659000  0.34922000  0.50594000  1.0 -0.1613225394
O  O8  1  0.54341000  0.84922000  0.49406000  1.0 -0.1613225394
