# DDEC6 charges by PACMAN v1.1 (https://github.com/mtap-research/PACMAN-charge/)
data_MEMYAF_ASR_pacman
_symmetry_space_group_name_H-M   'P 1'
_cell_length_a   8.66050000
_cell_length_b   17.16200000
_cell_length_c   14.68800000
_cell_angle_alpha   90.00000000
_cell_angle_beta   124.07000000
_cell_angle_gamma   90.00000000
_symmetry_Int_Tables_number   1
_chemical_formula_structural   MnHgH2C4S4N4O
_chemical_formula_sum   'Mn4 Hg4 H8 C16 S16 N16 O4'
_cell_volume   1808.37869225
_cell_formula_units_Z   4
loop_
 _symmetry_equiv_pos_site_id
 _symmetry_equiv_pos_as_xyz
  1  'x, y, z'
loop_
 _atom_site_type_symbol
 _atom_site_label
 _atom_site_symmetry_multiplicity
 _atom_site_fract_x
 _atom_site_fract_y
 _atom_site_fract_z
 _atom_site_occupancy
 _atom_site_charge
Mn  Mn1  1  0.51800000  0.10850000  0.50318000  1.0 0.9842611047
Mn  Mn2  1  0.48200000  0.60850000  0.99682000  1.0 0.9842611047
Mn  Mn3  1  0.48200000  0.89150000  0.49682000  1.0 0.9842611047
Mn  Mn4  1  0.51800000  0.39150000  0.00318000  1.0 0.9842611047
Hg  Hg1  1  0.99915000  0.33953000  0.49406000  1.0 0.3319655972
Hg  Hg2  1  0.00085000  0.83953000  0.00594000  1.0 0.3319655972
Hg  Hg3  1  0.00085000  0.66047000  0.50594000  1.0 0.3319655972
Hg  Hg4  1  0.99915000  0.16047000  0.99406000  1.0 0.3319655972
H  H1  1  0.30600000  0.01600000  0.53000000  1.0 0.2605860195
H  H2  1  0.69400000  0.51600000  0.97000000  1.0 0.2605860195
H  H3  1  0.69400000  0.98400000  0.47000000  1.0 0.2605860195
H  H4  1  0.30600000  0.48400000  0.03000000  1.0 0.2605860195
H  H5  1  0.22400000  0.00300000  0.44100000  1.0 0.2605860195
H  H6  1  0.77600000  0.50300000  0.05900000  1.0 0.2605860195
H  H7  1  0.77600000  0.99700000  0.55900000  1.0 0.2605860195
H  H8  1  0.22400000  0.49700000  0.94100000  1.0 0.2605860195
C  C1  1  0.24980000  0.26420000  0.42390000  1.0 0.2700871619
C  C2  1  0.75020000  0.76420000  0.07610000  1.0 0.2700871619
C  C3  1  0.75020000  0.73580000  0.57610000  1.0 0.2700871619
C  C4  1  0.24980000  0.23580000  0.92390000  1.0 0.2700871619
C  C5  1  0.91870000  0.18790000  0.57680000  1.0 0.2605860195
C  C6  1  0.08130000  0.68790000  0.92320000  1.0 0.2605860195
C  C7  1  0.08130000  0.81210000  0.42320000  1.0 0.2605860195
C  C8  1  0.91870000  0.31210000  0.07680000  1.0 0.2605860195
C  C9  1  0.26770000  0.07310000  0.23850000  1.0 0.2700871619
C  C10  1  0.73230000  0.57310000  0.26150000  1.0 0.2700871619
C  C11  1  0.73230000  0.92690000  0.76150000  1.0 0.2700871619
C  C12  1  0.26770000  0.42690000  0.73850000  1.0 0.2700871619
C  C13  1  0.62270000  0.13450000  0.75400000  1.0 0.2605860195
C  C14  1  0.37730000  0.63450000  0.74600000  1.0 0.2605860195
C  C15  1  0.37730000  0.86550000  0.24600000  1.0 0.2605860195
C  C16  1  0.62270000  0.36550000  0.25400000  1.0 0.2605860195
S  S1  1  0.11322000  0.34179000  0.36792000  1.0 -0.1847107318
S  S2  1  0.88678000  0.84179000  0.13208000  1.0 -0.186202815
S  S3  1  0.88678000  0.65821000  0.63208000  1.0 -0.186202815
S  S4  1  0.11322000  0.15821000  0.86792000  1.0 -0.1847107318
S  S5  1  0.12614000  0.22395000  0.62374000  1.0 -0.1514879299
S  S6  1  0.87386000  0.72395000  0.87626000  1.0 -0.1514879299
S  S7  1  0.87386000  0.77605000  0.37626000  1.0 -0.1514879299
S  S8  1  0.12614000  0.27605000  0.12374000  1.0 -0.1514879299
S  S9  1  0.10619000  0.03929000  0.11469000  1.0 -0.1984910799
S  S10  1  0.89381000  0.53929000  0.38531000  1.0 -0.1984910799
S  S11  1  0.89381000  0.96071000  0.88531000  1.0 -0.1984910799
S  S12  1  0.10619000  0.46071000  0.61469000  1.0 -0.1984910799
S  S13  1  0.64433000  0.16636000  0.86733000  1.0 -0.136310598
S  S14  1  0.35567000  0.66636000  0.63267000  1.0 -0.136310598
S  S15  1  0.35567000  0.83364000  0.13267000  1.0 -0.136310598
S  S16  1  0.64433000  0.33364000  0.36733000  1.0 -0.136310598
N  N1  1  0.34340000  0.21050000  0.45900000  1.0 -0.4110232574
N  N2  1  0.65660000  0.71050000  0.04100000  1.0 -0.4110232574
N  N3  1  0.65660000  0.78950000  0.54100000  1.0 -0.4110232574
N  N4  1  0.34340000  0.28950000  0.95900000  1.0 -0.4110232574
N  N5  1  0.77260000  0.16320000  0.54360000  1.0 -0.4204901179
N  N6  1  0.22740000  0.66320000  0.95640000  1.0 -0.4204901179
N  N7  1  0.22740000  0.83680000  0.45640000  1.0 -0.4204901179
N  N8  1  0.77260000  0.33680000  0.04360000  1.0 -0.4204901179
N  N9  1  0.38040000  0.09050000  0.32640000  1.0 -0.4110232574
N  N10  1  0.61960000  0.59050000  0.17360000  1.0 -0.4110232574
N  N11  1  0.61960000  0.90950000  0.67360000  1.0 -0.4110232574
N  N12  1  0.38040000  0.40950000  0.82640000  1.0 -0.4110232574
N  N13  1  0.60110000  0.11400000  0.67390000  1.0 -0.4204901179
N  N14  1  0.39890000  0.61400000  0.82610000  1.0 -0.4204901179
N  N15  1  0.39890000  0.88600000  0.32610000  1.0 -0.4204901179
N  N16  1  0.60110000  0.38600000  0.17390000  1.0 -0.4204901179
O  O1  1  0.33030000  0.00980000  0.48860000  1.0 -0.5639719722
O  O2  1  0.66970000  0.50980000  0.01140000  1.0 -0.5639719722
O  O3  1  0.66970000  0.99020000  0.51140000  1.0 -0.5639719722
O  O4  1  0.33030000  0.49020000  0.98860000  1.0 -0.5639719722
