# DDEC6 charges by PACMAN v1.1 (https://github.com/mtap-research/PACMAN-charge/)
data_MEQQEH_ASR_pacman
_symmetry_space_group_name_H-M   'P 1'
_cell_length_a   18.00630000
_cell_length_b   18.00630000
_cell_length_c   26.57140000
_cell_angle_alpha   90.00000000
_cell_angle_beta   90.00000000
_cell_angle_gamma   90.00000000
_symmetry_Int_Tables_number   1
_chemical_formula_structural   Zn3H24C48N6O13
_chemical_formula_sum   'Zn12 H96 C192 N24 O52'
_cell_volume   8615.16104814
_cell_formula_units_Z   4
loop_
 _symmetry_equiv_pos_site_id
 _symmetry_equiv_pos_as_xyz
  1  'x, y, z'
loop_
 _atom_site_type_symbol
 _atom_site_label
 _atom_site_symmetry_multiplicity
 _atom_site_fract_x
 _atom_site_fract_y
 _atom_site_fract_z
 _atom_site_occupancy
 _atom_site_charge
Zn  Zn1  1  0.00002000  0.75496000  0.80160000  1.0 1.0499049884
Zn  Zn2  1  0.16398000  0.75511000  0.87835000  1.0 0.9927865428
Zn  Zn3  1  0.83617000  0.75517000  0.72486000  1.0 0.9975905281
Zn  Zn4  1  0.99998000  0.24504000  0.30160000  1.0 1.0499049884
Zn  Zn5  1  0.83602000  0.24489000  0.37835000  1.0 0.9927865428
Zn  Zn6  1  0.16383000  0.24483000  0.22486000  1.0 0.9975905281
Zn  Zn7  1  0.24504000  0.00002000  0.05160000  1.0 1.0499049884
Zn  Zn8  1  0.24489000  0.16398000  0.12835000  1.0 0.9927865428
Zn  Zn9  1  0.24483000  0.83617000  0.97486000  1.0 0.9975905281
Zn  Zn10  1  0.75496000  0.99998000  0.55160000  1.0 1.0499049884
Zn  Zn11  1  0.75511000  0.83602000  0.62835000  1.0 0.9927865428
Zn  Zn12  1  0.75517000  0.16383000  0.47486000  1.0 0.9975905281
H  H1  1  0.12505000  0.75144000  0.67364000  1.0 0.1366375896
H  H2  1  0.06344000  0.93018000  0.73534000  1.0 0.1306786562
H  H3  1  0.04982000  0.07889000  0.55214000  1.0 0.1207642871
H  H4  1  0.09505000  0.00193000  0.66761000  1.0 0.1207642871
H  H5  1  0.96432000  0.12458000  0.49726000  1.0 0.1306786562
H  H6  1  0.12424000  0.24666000  0.42801000  1.0 0.1366375896
H  H7  1  0.56522000  0.05987000  0.60737000  1.0 0.1306786562
H  H8  1  0.96151000  0.87629000  0.60682000  1.0 0.1306786562
H  H9  1  0.06387000  0.07107000  0.36718000  1.0 0.1306786562
H  H10  1  0.09549000  0.99721000  0.43550000  1.0 0.1207642871
H  H11  1  0.05146000  0.92054000  0.54996000  1.0 0.1207642871
H  H12  1  0.20768000  0.79726000  0.61494000  1.0 0.1207642871
H  H13  1  0.50862000  0.84145000  0.62654000  1.0 0.1306786562
H  H14  1  0.31300000  0.05038000  0.41644000  1.0 0.1207642871
H  H15  1  0.56407000  0.94515000  0.49754000  1.0 0.1366375896
H  H16  1  0.28052000  0.12607000  0.34767000  1.0 0.1306786562
H  H17  1  0.20846000  0.20596000  0.48709000  1.0 0.1207642871
H  H18  1  0.43909000  0.04889000  0.63109000  1.0 0.1207642871
H  H19  1  0.31372000  0.95017000  0.68642000  1.0 0.1207642871
H  H20  1  0.27965000  0.87284000  0.75588000  1.0 0.1306786562
H  H21  1  0.43964000  0.95010000  0.47312000  1.0 0.1207642871
H  H22  1  0.50854000  0.15919000  0.47642000  1.0 0.1306786562
H  H23  1  0.38189000  0.15514000  0.50045000  1.0 0.1207642871
H  H24  1  0.38060000  0.84427000  0.60133000  1.0 0.1207642871
H  H25  1  0.87495000  0.24856000  0.17364000  1.0 0.1366375896
H  H26  1  0.93656000  0.06982000  0.23534000  1.0 0.1306786562
H  H27  1  0.95018000  0.92111000  0.05214000  1.0 0.1207642871
H  H28  1  0.90495000  0.99807000  0.16761000  1.0 0.1207642871
H  H29  1  0.03568000  0.87542000  0.99726000  1.0 0.1306786562
H  H30  1  0.87576000  0.75334000  0.92801000  1.0 0.1366375896
H  H31  1  0.43478000  0.94013000  0.10737000  1.0 0.1306786562
H  H32  1  0.03849000  0.12371000  0.10682000  1.0 0.1306786562
H  H33  1  0.93613000  0.92893000  0.86718000  1.0 0.1306786562
H  H34  1  0.90451000  0.00279000  0.93550000  1.0 0.1207642871
H  H35  1  0.94854000  0.07946000  0.04996000  1.0 0.1207642871
H  H36  1  0.79232000  0.20274000  0.11494000  1.0 0.1207642871
H  H37  1  0.49138000  0.15855000  0.12654000  1.0 0.1306786562
H  H38  1  0.68700000  0.94962000  0.91644000  1.0 0.1207642871
H  H39  1  0.43593000  0.05485000  0.99754000  1.0 0.1366375896
H  H40  1  0.71948000  0.87393000  0.84767000  1.0 0.1306786562
H  H41  1  0.79154000  0.79404000  0.98709000  1.0 0.1207642871
H  H42  1  0.56091000  0.95111000  0.13109000  1.0 0.1207642871
H  H43  1  0.68628000  0.04983000  0.18642000  1.0 0.1207642871
H  H44  1  0.72035000  0.12716000  0.25588000  1.0 0.1306786562
H  H45  1  0.56036000  0.04990000  0.97312000  1.0 0.1207642871
H  H46  1  0.49146000  0.84081000  0.97642000  1.0 0.1306786562
H  H47  1  0.61811000  0.84486000  0.00045000  1.0 0.1207642871
H  H48  1  0.61940000  0.15573000  0.10133000  1.0 0.1207642871
H  H49  1  0.24856000  0.12505000  0.92364000  1.0 0.1366375896
H  H50  1  0.06982000  0.06344000  0.98534000  1.0 0.1306786562
H  H51  1  0.92111000  0.04982000  0.80214000  1.0 0.1207642871
H  H52  1  0.99807000  0.09505000  0.91761000  1.0 0.1207642871
H  H53  1  0.87542000  0.96432000  0.74726000  1.0 0.1306786562
H  H54  1  0.75334000  0.12424000  0.67801000  1.0 0.1366375896
H  H55  1  0.94013000  0.56522000  0.85737000  1.0 0.1306786562
H  H56  1  0.12371000  0.96151000  0.85682000  1.0 0.1306786562
H  H57  1  0.92893000  0.06387000  0.61718000  1.0 0.1306786562
H  H58  1  0.00279000  0.09549000  0.68550000  1.0 0.1207642871
H  H59  1  0.07946000  0.05146000  0.79996000  1.0 0.1207642871
H  H60  1  0.20274000  0.20768000  0.86494000  1.0 0.1207642871
H  H61  1  0.15855000  0.50862000  0.87654000  1.0 0.1306786562
H  H62  1  0.94962000  0.31300000  0.66644000  1.0 0.1207642871
H  H63  1  0.05485000  0.56407000  0.74754000  1.0 0.1366375896
H  H64  1  0.87393000  0.28052000  0.59767000  1.0 0.1306786562
H  H65  1  0.79404000  0.20846000  0.73709000  1.0 0.1207642871
H  H66  1  0.95111000  0.43909000  0.88109000  1.0 0.1207642871
H  H67  1  0.04983000  0.31372000  0.93642000  1.0 0.1207642871
H  H68  1  0.12716000  0.27965000  0.00588000  1.0 0.1306786562
H  H69  1  0.04990000  0.43964000  0.72312000  1.0 0.1207642871
H  H70  1  0.84081000  0.50854000  0.72642000  1.0 0.1306786562
H  H71  1  0.84486000  0.38189000  0.75045000  1.0 0.1207642871
H  H72  1  0.15573000  0.38060000  0.85133000  1.0 0.1207642871
H  H73  1  0.75144000  0.87495000  0.42364000  1.0 0.1366375896
H  H74  1  0.93018000  0.93656000  0.48534000  1.0 0.1306786562
H  H75  1  0.07889000  0.95018000  0.30214000  1.0 0.1207642871
H  H76  1  0.00193000  0.90495000  0.41761000  1.0 0.1207642871
H  H77  1  0.12458000  0.03568000  0.24726000  1.0 0.1306786562
H  H78  1  0.24666000  0.87576000  0.17801000  1.0 0.1366375896
H  H79  1  0.05987000  0.43478000  0.35737000  1.0 0.1306786562
H  H80  1  0.87629000  0.03849000  0.35682000  1.0 0.1306786562
H  H81  1  0.07107000  0.93613000  0.11718000  1.0 0.1306786562
H  H82  1  0.99721000  0.90451000  0.18550000  1.0 0.1207642871
H  H83  1  0.92054000  0.94854000  0.29996000  1.0 0.1207642871
H  H84  1  0.79726000  0.79232000  0.36494000  1.0 0.1207642871
H  H85  1  0.84145000  0.49138000  0.37654000  1.0 0.1306786562
H  H86  1  0.05038000  0.68700000  0.16644000  1.0 0.1207642871
H  H87  1  0.94515000  0.43593000  0.24754000  1.0 0.1366375896
H  H88  1  0.12607000  0.71948000  0.09767000  1.0 0.1306786562
H  H89  1  0.20596000  0.79154000  0.23709000  1.0 0.1207642871
H  H90  1  0.04889000  0.56091000  0.38109000  1.0 0.1207642871
H  H91  1  0.95017000  0.68628000  0.43642000  1.0 0.1207642871
H  H92  1  0.87284000  0.72035000  0.50588000  1.0 0.1306786562
H  H93  1  0.95010000  0.56036000  0.22312000  1.0 0.1207642871
H  H94  1  0.15919000  0.49146000  0.22642000  1.0 0.1306786562
H  H95  1  0.15514000  0.61811000  0.25045000  1.0 0.1207642871
H  H96  1  0.84427000  0.61940000  0.35133000  1.0 0.1207642871
C  C1  1  0.10870000  0.78600000  0.64900000  1.0 -0.1000862348
C  C2  1  0.98080000  0.78340000  0.68760000  1.0 0.5888936502
C  C3  1  0.11390000  0.93430000  0.72530000  1.0 -0.1069556947
C  C4  1  0.97960000  0.21600000  0.41590000  1.0 0.5888936502
C  C5  1  0.06490000  0.11380000  0.52740000  1.0 -0.1069556947
C  C6  1  0.03490000  0.19070000  0.45590000  1.0 0.0103440519
C  C7  1  0.13840000  0.13660000  0.52580000  1.0 0.0229192438
C  C8  1  0.14620000  0.15510000  0.30760000  1.0 0.5888936502
C  C9  1  0.63120000  0.11690000  0.52810000  1.0 0.5827686947
C  C10  1  0.13830000  0.86310000  0.57800000  1.0 0.0103440519
C  C11  1  0.13320000  0.97720000  0.68580000  1.0 -0.1069556947
C  C12  1  0.54790000  0.11180000  0.54050000  1.0 -0.0022517373
C  C13  1  0.03480000  0.80920000  0.64800000  1.0 0.0035875262
C  C14  1  0.01460000  0.14010000  0.49450000  1.0 -0.1000862348
C  C15  1  0.10870000  0.21340000  0.45370000  1.0 -0.1000862348
C  C16  1  0.22840000  0.03390000  0.62740000  1.0 0.3571938736
C  C17  1  0.52760000  0.07810000  0.58560000  1.0 -0.1000862348
C  C18  1  0.01170000  0.86050000  0.60930000  1.0 -0.1000862348
C  C19  1  0.20790000  0.98700000  0.67010000  1.0 0.0103440519
C  C20  1  0.11430000  0.06630000  0.37720000  1.0 -0.1000862348
C  C21  1  0.16940000  0.89630000  0.75130000  1.0 0.0035875262
C  C22  1  0.13340000  0.02220000  0.41730000  1.0 -0.1069556947
C  C23  1  0.54740000  0.88780000  0.56210000  1.0 -0.0022517373
C  C24  1  0.06560000  0.88620000  0.57540000  1.0 -0.1000862348
C  C25  1  0.63080000  0.88330000  0.57520000  1.0 0.5888936502
C  C26  1  0.31880000  0.08860000  0.57860000  1.0 0.3571938736
C  C27  1  0.20910000  0.01310000  0.43200000  1.0 0.0229192438
C  C28  1  0.15760000  0.81380000  0.61390000  1.0 -0.0876165934
C  C29  1  0.22850000  0.96630000  0.47650000  1.0 0.3692073685
C  C30  1  0.19640000  0.10420000  0.56070000  1.0 0.3692073685
C  C31  1  0.49460000  0.86200000  0.59500000  1.0 -0.1000862348
C  C32  1  0.17040000  0.10420000  0.35150000  1.0 0.0035875262
C  C33  1  0.26250000  0.05360000  0.40630000  1.0 -0.1000862348
C  C34  1  0.52690000  0.92380000  0.51840000  1.0 -0.0876165934
C  C35  1  0.14610000  0.84480000  0.79590000  1.0 0.5888936502
C  C36  1  0.24340000  0.09920000  0.36540000  1.0 -0.1000862348
C  C37  1  0.15880000  0.18830000  0.48830000  1.0 -0.1000862348
C  C38  1  0.19610000  0.89520000  0.54450000  1.0 0.3874221605
C  C39  1  0.45250000  0.07030000  0.59970000  1.0 -0.1000862348
C  C40  1  0.31860000  0.91350000  0.52290000  1.0 0.3692073685
C  C41  1  0.26320000  0.94650000  0.69640000  1.0 -0.1000862348
C  C42  1  0.24310000  0.90020000  0.73800000  1.0 -0.1069556947
C  C43  1  0.45320000  0.92910000  0.50460000  1.0 -0.1000862348
C  C44  1  0.49450000  0.13800000  0.50770000  1.0 -0.1000862348
C  C45  1  0.39690000  0.09590000  0.56500000  1.0 0.0103440519
C  C46  1  0.41850000  0.13300000  0.52140000  1.0 -0.1000862348
C  C47  1  0.39860000  0.90290000  0.53800000  1.0 0.0229192438
C  C48  1  0.41770000  0.86650000  0.58090000  1.0 -0.1000862348
C  C49  1  0.89130000  0.21400000  0.14900000  1.0 -0.1000862348
C  C50  1  0.01920000  0.21660000  0.18760000  1.0 0.5888936502
C  C51  1  0.88610000  0.06570000  0.22530000  1.0 -0.1069556947
C  C52  1  0.02040000  0.78400000  0.91590000  1.0 0.5888936502
C  C53  1  0.93510000  0.88620000  0.02740000  1.0 -0.1069556947
C  C54  1  0.96510000  0.80930000  0.95590000  1.0 0.0103440519
C  C55  1  0.86160000  0.86340000  0.02580000  1.0 0.0229192438
C  C56  1  0.85380000  0.84490000  0.80760000  1.0 0.5888936502
C  C57  1  0.36880000  0.88310000  0.02810000  1.0 0.5827686947
C  C58  1  0.86170000  0.13690000  0.07800000  1.0 0.0103440519
C  C59  1  0.86680000  0.02280000  0.18580000  1.0 -0.1069556947
C  C60  1  0.45210000  0.88820000  0.04050000  1.0 -0.0022517373
C  C61  1  0.96520000  0.19080000  0.14800000  1.0 0.0035875262
C  C62  1  0.98540000  0.85990000  0.99450000  1.0 -0.1000862348
C  C63  1  0.89130000  0.78660000  0.95370000  1.0 -0.1000862348
C  C64  1  0.77160000  0.96610000  0.12740000  1.0 0.3571938736
C  C65  1  0.47240000  0.92190000  0.08560000  1.0 -0.1000862348
C  C66  1  0.98830000  0.13950000  0.10930000  1.0 -0.1000862348
C  C67  1  0.79210000  0.01300000  0.17010000  1.0 0.0103440519
C  C68  1  0.88570000  0.93370000  0.87720000  1.0 -0.1000862348
C  C69  1  0.83060000  0.10370000  0.25130000  1.0 0.0035875262
C  C70  1  0.86660000  0.97780000  0.91730000  1.0 -0.1069556947
C  C71  1  0.45260000  0.11220000  0.06210000  1.0 -0.0022517373
C  C72  1  0.93440000  0.11380000  0.07540000  1.0 -0.1000862348
C  C73  1  0.36920000  0.11670000  0.07520000  1.0 0.5888936502
C  C74  1  0.68120000  0.91140000  0.07860000  1.0 0.3571938736
C  C75  1  0.79090000  0.98690000  0.93200000  1.0 0.0229192438
C  C76  1  0.84240000  0.18620000  0.11390000  1.0 -0.0876165934
C  C77  1  0.77150000  0.03370000  0.97650000  1.0 0.3692073685
C  C78  1  0.80360000  0.89580000  0.06070000  1.0 0.3692073685
C  C79  1  0.50540000  0.13800000  0.09500000  1.0 -0.1000862348
C  C80  1  0.82960000  0.89580000  0.85150000  1.0 0.0035875262
C  C81  1  0.73750000  0.94640000  0.90630000  1.0 -0.1000862348
C  C82  1  0.47310000  0.07620000  0.01840000  1.0 -0.0876165934
C  C83  1  0.85390000  0.15520000  0.29590000  1.0 0.5888936502
C  C84  1  0.75660000  0.90080000  0.86540000  1.0 -0.1000862348
C  C85  1  0.84120000  0.81170000  0.98830000  1.0 -0.1000862348
C  C86  1  0.80390000  0.10480000  0.04450000  1.0 0.3874221605
C  C87  1  0.54750000  0.92970000  0.09970000  1.0 -0.1000862348
C  C88  1  0.68140000  0.08650000  0.02290000  1.0 0.3692073685
C  C89  1  0.73680000  0.05350000  0.19640000  1.0 -0.1000862348
C  C90  1  0.75690000  0.09980000  0.23800000  1.0 -0.1069556947
C  C91  1  0.54680000  0.07090000  0.00460000  1.0 -0.1000862348
C  C92  1  0.50550000  0.86200000  0.00770000  1.0 -0.1000862348
C  C93  1  0.60310000  0.90410000  0.06500000  1.0 0.0103440519
C  C94  1  0.58150000  0.86700000  0.02140000  1.0 -0.1000862348
C  C95  1  0.60140000  0.09710000  0.03800000  1.0 0.0229192438
C  C96  1  0.58230000  0.13350000  0.08090000  1.0 -0.1000862348
C  C97  1  0.21400000  0.10870000  0.89900000  1.0 -0.1000862348
C  C98  1  0.21660000  0.98080000  0.93760000  1.0 0.5888936502
C  C99  1  0.06570000  0.11390000  0.97530000  1.0 -0.1069556947
C  C100  1  0.78400000  0.97960000  0.66590000  1.0 0.5888936502
C  C101  1  0.88620000  0.06490000  0.77740000  1.0 -0.1069556947
C  C102  1  0.80930000  0.03490000  0.70590000  1.0 0.0103440519
C  C103  1  0.86340000  0.13840000  0.77580000  1.0 0.0229192438
C  C104  1  0.84490000  0.14620000  0.55760000  1.0 0.5888936502
C  C105  1  0.88310000  0.63120000  0.77810000  1.0 0.5827686947
C  C106  1  0.13690000  0.13830000  0.82800000  1.0 0.0103440519
C  C107  1  0.02280000  0.13320000  0.93580000  1.0 -0.1069556947
C  C108  1  0.88820000  0.54790000  0.79050000  1.0 -0.0022517373
C  C109  1  0.19080000  0.03480000  0.89800000  1.0 0.0035875262
C  C110  1  0.85990000  0.01460000  0.74450000  1.0 -0.1000862348
C  C111  1  0.78660000  0.10870000  0.70370000  1.0 -0.1000862348
C  C112  1  0.96610000  0.22840000  0.87740000  1.0 0.3571938736
C  C113  1  0.92190000  0.52760000  0.83560000  1.0 -0.1000862348
C  C114  1  0.13950000  0.01170000  0.85930000  1.0 -0.1000862348
C  C115  1  0.01300000  0.20790000  0.92010000  1.0 0.0103440519
C  C116  1  0.93370000  0.11430000  0.62720000  1.0 -0.1000862348
C  C117  1  0.10370000  0.16940000  0.00130000  1.0 0.0035875262
C  C118  1  0.97780000  0.13340000  0.66730000  1.0 -0.1069556947
C  C119  1  0.11220000  0.54740000  0.81210000  1.0 -0.0022517373
C  C120  1  0.11380000  0.06560000  0.82540000  1.0 -0.1000862348
C  C121  1  0.11670000  0.63080000  0.82520000  1.0 0.5888936502
C  C122  1  0.91140000  0.31880000  0.82860000  1.0 0.3571938736
C  C123  1  0.98690000  0.20910000  0.68200000  1.0 0.0229192438
C  C124  1  0.18620000  0.15760000  0.86390000  1.0 -0.0876165934
C  C125  1  0.03370000  0.22850000  0.72650000  1.0 0.3692073685
C  C126  1  0.89580000  0.19640000  0.81070000  1.0 0.3692073685
C  C127  1  0.13800000  0.49460000  0.84500000  1.0 -0.1000862348
C  C128  1  0.89580000  0.17040000  0.60150000  1.0 0.0035875262
C  C129  1  0.94640000  0.26250000  0.65630000  1.0 -0.1000862348
C  C130  1  0.07620000  0.52690000  0.76840000  1.0 -0.0876165934
C  C131  1  0.15520000  0.14610000  0.04590000  1.0 0.5888936502
C  C132  1  0.90080000  0.24340000  0.61540000  1.0 -0.1000862348
C  C133  1  0.81170000  0.15880000  0.73830000  1.0 -0.1000862348
C  C134  1  0.10480000  0.19610000  0.79450000  1.0 0.3874221605
C  C135  1  0.92970000  0.45250000  0.84970000  1.0 -0.1000862348
C  C136  1  0.08650000  0.31860000  0.77290000  1.0 0.3692073685
C  C137  1  0.05350000  0.26320000  0.94640000  1.0 -0.1000862348
C  C138  1  0.09980000  0.24310000  0.98800000  1.0 -0.1069556947
C  C139  1  0.07090000  0.45320000  0.75460000  1.0 -0.1000862348
C  C140  1  0.86200000  0.49450000  0.75770000  1.0 -0.1000862348
C  C141  1  0.90410000  0.39690000  0.81500000  1.0 0.0103440519
C  C142  1  0.86700000  0.41850000  0.77140000  1.0 -0.1000862348
C  C143  1  0.09710000  0.39860000  0.78800000  1.0 0.0229192438
C  C144  1  0.13350000  0.41770000  0.83090000  1.0 -0.1000862348
C  C145  1  0.78600000  0.89130000  0.39900000  1.0 -0.1000862348
C  C146  1  0.78340000  0.01920000  0.43760000  1.0 0.5888936502
C  C147  1  0.93430000  0.88610000  0.47530000  1.0 -0.1069556947
C  C148  1  0.21600000  0.02040000  0.16590000  1.0 0.5888936502
C  C149  1  0.11380000  0.93510000  0.27740000  1.0 -0.1069556947
C  C150  1  0.19070000  0.96510000  0.20590000  1.0 0.0103440519
C  C151  1  0.13660000  0.86160000  0.27580000  1.0 0.0229192438
C  C152  1  0.15510000  0.85380000  0.05760000  1.0 0.5888936502
C  C153  1  0.11690000  0.36880000  0.27810000  1.0 0.5827686947
C  C154  1  0.86310000  0.86170000  0.32800000  1.0 0.0103440519
C  C155  1  0.97720000  0.86680000  0.43580000  1.0 -0.1069556947
C  C156  1  0.11180000  0.45210000  0.29050000  1.0 -0.0022517373
C  C157  1  0.80920000  0.96520000  0.39800000  1.0 0.0035875262
C  C158  1  0.14010000  0.98540000  0.24450000  1.0 -0.1000862348
C  C159  1  0.21340000  0.89130000  0.20370000  1.0 -0.1000862348
C  C160  1  0.03390000  0.77160000  0.37740000  1.0 0.3571938736
C  C161  1  0.07810000  0.47240000  0.33560000  1.0 -0.1000862348
C  C162  1  0.86050000  0.98830000  0.35930000  1.0 -0.1000862348
C  C163  1  0.98700000  0.79210000  0.42010000  1.0 0.0103440519
C  C164  1  0.06630000  0.88570000  0.12720000  1.0 -0.1000862348
C  C165  1  0.89630000  0.83060000  0.50130000  1.0 0.0035875262
C  C166  1  0.02220000  0.86660000  0.16730000  1.0 -0.1069556947
C  C167  1  0.88780000  0.45260000  0.31210000  1.0 -0.0022517373
C  C168  1  0.88620000  0.93440000  0.32540000  1.0 -0.1000862348
C  C169  1  0.88330000  0.36920000  0.32520000  1.0 0.5888936502
C  C170  1  0.08860000  0.68120000  0.32860000  1.0 0.3571938736
C  C171  1  0.01310000  0.79090000  0.18200000  1.0 0.0229192438
C  C172  1  0.81380000  0.84240000  0.36390000  1.0 -0.0876165934
C  C173  1  0.96630000  0.77150000  0.22650000  1.0 0.3692073685
C  C174  1  0.10420000  0.80360000  0.31070000  1.0 0.3692073685
C  C175  1  0.86200000  0.50540000  0.34500000  1.0 -0.1000862348
C  C176  1  0.10420000  0.82960000  0.10150000  1.0 0.0035875262
C  C177  1  0.05360000  0.73750000  0.15630000  1.0 -0.1000862348
C  C178  1  0.92380000  0.47310000  0.26840000  1.0 -0.0876165934
C  C179  1  0.84480000  0.85390000  0.54590000  1.0 0.5888936502
C  C180  1  0.09920000  0.75660000  0.11540000  1.0 -0.1000862348
C  C181  1  0.18830000  0.84120000  0.23830000  1.0 -0.1000862348
C  C182  1  0.89520000  0.80390000  0.29450000  1.0 0.3874221605
C  C183  1  0.07030000  0.54750000  0.34970000  1.0 -0.1000862348
C  C184  1  0.91350000  0.68140000  0.27290000  1.0 0.3692073685
C  C185  1  0.94650000  0.73680000  0.44640000  1.0 -0.1000862348
C  C186  1  0.90020000  0.75690000  0.48800000  1.0 -0.1069556947
C  C187  1  0.92910000  0.54680000  0.25460000  1.0 -0.1000862348
C  C188  1  0.13800000  0.50550000  0.25770000  1.0 -0.1000862348
C  C189  1  0.09590000  0.60310000  0.31500000  1.0 0.0103440519
C  C190  1  0.13300000  0.58150000  0.27140000  1.0 -0.1000862348
C  C191  1  0.90290000  0.60140000  0.28800000  1.0 0.0229192438
C  C192  1  0.86650000  0.58230000  0.33090000  1.0 -0.1000862348
N  N1  1  0.17270000  0.93650000  0.50470000  1.0 -0.4162540126
N  N2  1  0.26660000  0.88050000  0.55620000  1.0 -0.4162540126
N  N3  1  0.30110000  0.04430000  0.61950000  1.0 -0.4079136488
N  N4  1  0.17320000  0.06390000  0.59940000  1.0 -0.4079136488
N  N5  1  0.26750000  0.11720000  0.54660000  1.0 -0.4079136488
N  N6  1  0.30060000  0.95540000  0.48370000  1.0 -0.3918723601
N  N7  1  0.82730000  0.06350000  0.00470000  1.0 -0.4162540126
N  N8  1  0.73340000  0.11950000  0.05620000  1.0 -0.4162540126
N  N9  1  0.69890000  0.95570000  0.11950000  1.0 -0.4079136488
N  N10  1  0.82680000  0.93610000  0.09940000  1.0 -0.4079136488
N  N11  1  0.73250000  0.88280000  0.04660000  1.0 -0.4079136488
N  N12  1  0.69940000  0.04460000  0.98370000  1.0 -0.3918723601
N  N13  1  0.06350000  0.17270000  0.75470000  1.0 -0.4162540126
N  N14  1  0.11950000  0.26660000  0.80620000  1.0 -0.4162540126
N  N15  1  0.95570000  0.30110000  0.86950000  1.0 -0.4079136488
N  N16  1  0.93610000  0.17320000  0.84940000  1.0 -0.4079136488
N  N17  1  0.88280000  0.26750000  0.79660000  1.0 -0.4079136488
N  N18  1  0.04460000  0.30060000  0.73370000  1.0 -0.3918723601
N  N19  1  0.93650000  0.82730000  0.25470000  1.0 -0.4162540126
N  N20  1  0.88050000  0.73340000  0.30620000  1.0 -0.4162540126
N  N21  1  0.04430000  0.69890000  0.36950000  1.0 -0.4079136488
N  N22  1  0.06390000  0.82680000  0.34940000  1.0 -0.4079136488
N  N23  1  0.11720000  0.73250000  0.29660000  1.0 -0.4079136488
N  N24  1  0.95540000  0.69940000  0.23370000  1.0 -0.3918723601
O  O1  1  0.00640000  0.74710000  0.72360000  1.0 -0.5395740184
O  O2  1  0.91240000  0.79370000  0.67860000  1.0 -0.5262831587
O  O3  1  0.00570000  0.25260000  0.37980000  1.0 -0.5395740184
O  O4  1  0.07780000  0.83950000  0.80760000  1.0 -0.5888533133
O  O5  1  0.19870000  0.18860000  0.28370000  1.0 -0.5109404463
O  O6  1  0.67430000  0.91610000  0.54780000  1.0 -0.5262831587
O  O7  1  0.67360000  0.08480000  0.55630000  1.0 -0.521598539
O  O8  1  0.19760000  0.81170000  0.81940000  1.0 -0.5109404463
O  O9  1  0.91200000  0.20610000  0.42520000  1.0 -0.521598539
O  O10  1  0.75290000  0.75250000  0.67710000  1.0 -0.7122695583
O  O11  1  0.07870000  0.15970000  0.29690000  1.0 -0.5651574868
O  O12  1  0.64740000  0.15270000  0.48870000  1.0 -0.5029633704
O  O13  1  0.64730000  0.84870000  0.61500000  1.0 -0.5029633704
O  O14  1  0.99360000  0.25290000  0.22360000  1.0 -0.5395740184
O  O15  1  0.08760000  0.20630000  0.17860000  1.0 -0.5262831587
O  O16  1  0.99430000  0.74740000  0.87980000  1.0 -0.5395740184
O  O17  1  0.92220000  0.16050000  0.30760000  1.0 -0.5888533133
O  O18  1  0.80130000  0.81140000  0.78370000  1.0 -0.5109404463
O  O19  1  0.32570000  0.08390000  0.04780000  1.0 -0.5262831587
O  O20  1  0.32640000  0.91520000  0.05630000  1.0 -0.521598539
O  O21  1  0.80240000  0.18830000  0.31940000  1.0 -0.5109404463
O  O22  1  0.08800000  0.79390000  0.92520000  1.0 -0.521598539
O  O23  1  0.24710000  0.24750000  0.17710000  1.0 -0.7122695583
O  O24  1  0.92130000  0.84030000  0.79690000  1.0 -0.5649085778
O  O25  1  0.35260000  0.84730000  0.98870000  1.0 -0.5029633704
O  O26  1  0.35270000  0.15130000  0.11500000  1.0 -0.5029633704
O  O27  1  0.25290000  0.00640000  0.97360000  1.0 -0.5395740184
O  O28  1  0.20630000  0.91240000  0.92860000  1.0 -0.5262831587
O  O29  1  0.74740000  0.00570000  0.62980000  1.0 -0.5395740184
O  O30  1  0.16050000  0.07780000  0.05760000  1.0 -0.5888533133
O  O31  1  0.81140000  0.19870000  0.53370000  1.0 -0.5109404463
O  O32  1  0.08390000  0.67430000  0.79780000  1.0 -0.5262831587
O  O33  1  0.91520000  0.67360000  0.80630000  1.0 -0.521598539
O  O34  1  0.18830000  0.19760000  0.06940000  1.0 -0.5109404463
O  O35  1  0.79390000  0.91200000  0.67520000  1.0 -0.521598539
O  O36  1  0.24750000  0.75290000  0.92710000  1.0 -0.7122695583
O  O37  1  0.84030000  0.07870000  0.54690000  1.0 -0.5651574868
O  O38  1  0.84730000  0.64740000  0.73870000  1.0 -0.5029633704
O  O39  1  0.15130000  0.64730000  0.86500000  1.0 -0.5029633704
O  O40  1  0.74710000  0.99360000  0.47360000  1.0 -0.5395740184
O  O41  1  0.79370000  0.08760000  0.42860000  1.0 -0.5262831587
O  O42  1  0.25260000  0.99430000  0.12980000  1.0 -0.5395740184
O  O43  1  0.83950000  0.92220000  0.55760000  1.0 -0.5888533133
O  O44  1  0.18860000  0.80130000  0.03370000  1.0 -0.5109404463
O  O45  1  0.91610000  0.32570000  0.29780000  1.0 -0.5262831587
O  O46  1  0.08480000  0.32640000  0.30630000  1.0 -0.521598539
O  O47  1  0.81170000  0.80240000  0.56940000  1.0 -0.5109404463
O  O48  1  0.20610000  0.08800000  0.17520000  1.0 -0.521598539
O  O49  1  0.75250000  0.24710000  0.42710000  1.0 -0.7122695583
O  O50  1  0.15970000  0.92130000  0.04690000  1.0 -0.5651574868
O  O51  1  0.15270000  0.35260000  0.23870000  1.0 -0.5029633704
O  O52  1  0.84870000  0.35270000  0.36500000  1.0 -0.5029633704
