# DDEC6 charges by PACMAN v1.1 (https://github.com/mtap-research/PACMAN-charge/)
data_MEQWUD_ASR_pacman
_symmetry_space_group_name_H-M   'P 1'
_cell_length_a   16.27710000
_cell_length_b   17.11650000
_cell_length_c   24.79620000
_cell_angle_alpha   95.98170000
_cell_angle_beta   103.17400000
_cell_angle_gamma   89.33420000
_symmetry_Int_Tables_number   1
_chemical_formula_structural   Zn2CdNiH68C94(N4O5)2
_chemical_formula_sum   'Zn4 Cd2 Ni2 H136 C188 N16 O20'
_cell_volume   6689.43267788
_cell_formula_units_Z   2
loop_
 _symmetry_equiv_pos_site_id
 _symmetry_equiv_pos_as_xyz
  1  'x, y, z'
loop_
 _atom_site_type_symbol
 _atom_site_label
 _atom_site_symmetry_multiplicity
 _atom_site_fract_x
 _atom_site_fract_y
 _atom_site_fract_z
 _atom_site_occupancy
 _atom_site_charge
Zn  Zn1  1  0.89121000  0.66944000  0.37278000  1.0 0.637966006
Zn  Zn2  1  0.36916000  0.17282000  0.33957000  1.0 0.8485750248
Zn  Zn3  1  0.62968000  0.82732000  0.66005000  1.0 0.8267586519
Zn  Zn4  1  0.11123000  0.33136000  0.63048000  1.0 0.6526314904
Cd  Cd1  1  0.42600000  0.18054000  0.46643000  1.0 0.9074470093
Cd  Cd2  1  0.57372000  0.81905000  0.53352000  1.0 0.896605282
Ni  Ni1  1  0.87910000  0.16549000  0.91444000  1.0 0.5017397095
Ni  Ni2  1  0.04182000  0.76828000  0.10911000  1.0 0.5125121762
H  H1  1  0.18581000  0.99165000  0.31593000  1.0 0.1198955801
H  H2  1  0.71261000  0.46060000  0.46456000  1.0 0.1198955801
H  H3  1  0.69365000  0.88601000  0.44681000  1.0 0.1290078224
H  H4  1  0.22925000  0.00166000  0.47748000  1.0 0.1198955801
H  H5  1  0.52992000  0.97627000  0.28855000  1.0 0.1198955801
H  H6  1  0.61849000  0.36322000  0.46483000  1.0 0.1198955801
H  H7  1  0.60125000  0.98565000  0.45433000  1.0 0.1198955801
H  H8  1  0.57774000  0.59996000  0.36670000  1.0 0.1290078224
H  H9  1  0.58409000  0.74383000  0.36498000  1.0 0.1290078224
H  H10  1  0.53524000  0.35569000  0.30165000  1.0 0.1290078224
H  H11  1  0.80702000  0.95887000  0.36310000  1.0 0.1379363204
H  H12  1  0.62661000  0.87749000  0.28212000  1.0 0.1198955801
H  H13  1  0.97748000  0.38991000  0.41376000  1.0 0.1290078224
H  H14  1  0.61836000  0.46314000  0.30086000  1.0 0.1198955801
H  H15  1  0.95872000  0.96276000  0.37117000  1.0 0.1290078224
H  H16  1  0.82427000  0.38748000  0.39462000  1.0 0.1290078224
H  H17  1  0.14207000  0.89210000  0.47246000  1.0 0.1290078224
H  H18  1  0.08826000  0.88768000  0.30519000  1.0 0.1198955801
H  H19  1  0.93045000  0.42584000  0.74871000  1.0 0.1290078224
H  H20  1  0.83404000  0.40486000  0.72892000  1.0 0.1114231248
H  H21  1  0.89984000  0.35570000  0.70276000  1.0 0.1198955801
H  H22  1  0.90385000  0.13667000  0.06101000  1.0 0.1114231248
H  H23  1  0.20476000  0.74954000  0.40207000  1.0 0.1198955801
H  H24  1  0.20891000  0.60845000  0.41698000  1.0 0.1290078224
H  H25  1  0.53643000  0.30091000  0.55385000  1.0 0.1198955801
H  H26  1  0.64014000  0.31168000  0.63494000  1.0 0.1379363204
H  H27  1  0.99153000  0.27025000  0.75410000  1.0 0.1290078224
H  H28  1  0.98734000  0.25412000  0.81450000  1.0 0.1379363204
H  H29  1  0.02459000  0.33394000  0.80439000  1.0 0.1290078224
H  H30  1  0.77346000  0.29757000  0.69265000  1.0 0.1114231248
H  H31  1  0.38339000  0.20502000  0.22512000  1.0 0.1290078224
H  H32  1  0.22727000  0.36122000  0.34523000  1.0 0.1198955801
H  H33  1  0.30143000  0.22195000  0.13990000  1.0 0.1379363204
H  H34  1  0.12552000  0.46478000  0.33458000  1.0 0.1198955801
H  H35  1  0.22865000  0.36970000  0.50643000  1.0 0.1198955801
H  H36  1  0.12678000  0.46511000  0.49728000  1.0 0.1198955801
H  H37  1  0.54314000  0.07193000  0.54657000  1.0 0.1114231248
H  H38  1  0.62719000  0.07850000  0.63634000  1.0 0.1379363204
H  H39  1  0.21953000  0.25604000  0.06731000  1.0 0.1114231248
H  H40  1  0.18683000  0.17382000  0.28618000  1.0 0.1290078224
H  H41  1  0.66428000  0.10383000  0.72715000  1.0 0.1198955801
H  H42  1  0.09857000  0.18891000  0.20310000  1.0 0.1290078224
H  H43  1  0.70617000  0.06531000  0.81510000  1.0 0.1114231248
H  H44  1  0.03099000  0.16357000  0.11907000  1.0 0.1114231248
H  H45  1  0.79457000  0.00476000  0.91878000  1.0 0.1114231248
H  H46  1  0.74053000  0.13923000  0.97701000  1.0 0.1027146444
H  H47  1  0.93639000  0.41543000  0.84325000  1.0 0.1198955801
H  H48  1  0.89628000  0.34367000  0.86283000  1.0 0.1290078224
H  H49  1  0.83827000  0.40261000  0.82761000  1.0 0.1114231248
H  H50  1  0.61449000  0.13205000  0.90579000  1.0 0.1290078224
H  H51  1  0.86269000  0.96457000  0.00791000  1.0 0.1290078224
H  H52  1  0.24617000  0.33763000  0.01972000  1.0 0.0907403976
H  H53  1  0.26037000  0.33907000  0.95939000  1.0 0.1198955801
H  H54  1  0.28503000  0.26472000  0.99124000  1.0 0.1114231248
H  H55  1  0.17005000  0.15772000  0.92826000  1.0 0.1198955801
H  H56  1  0.18471000  0.21981000  0.88907000  1.0 0.1198955801
H  H57  1  0.09268000  0.19732000  0.89162000  1.0 0.1379363204
H  H58  1  0.84907000  0.88986000  0.07781000  1.0 0.1198955801
H  H59  1  0.68840000  0.11228000  0.04986000  1.0 0.1290078224
H  H60  1  0.47489000  0.08912000  0.87998000  1.0 0.1290078224
H  H61  1  0.44574000  0.95929000  0.84433000  1.0 0.1290078224
H  H62  1  0.67862000  0.03904000  0.12077000  1.0 0.1198955801
H  H63  1  0.69112000  0.91025000  0.88925000  1.0 0.1114231248
H  H64  1  0.75404000  0.92458000  0.13217000  1.0 0.1114231248
H  H65  1  0.55250000  0.86769000  0.85938000  1.0 0.1198955801
H  H66  1  0.03874000  0.33390000  0.92905000  1.0 0.146238624
H  H67  1  0.11600000  0.36707000  0.91031000  1.0 0.1290078224
H  H68  1  0.10597000  0.38792000  0.97154000  1.0 0.1198955801
H  H69  1  0.46278000  0.69929000  0.44002000  1.0 0.1198955801
H  H70  1  0.77674000  0.63505000  0.49786000  1.0 0.1198955801
H  H71  1  0.36388000  0.92773000  0.37023000  1.0 0.1290078224
H  H72  1  0.46614000  0.93164000  0.45100000  1.0 0.1198955801
H  H73  1  0.36697000  0.69268000  0.35690000  1.0 0.1379363204
H  H74  1  0.79334000  0.39051000  0.57433000  1.0 0.1290078224
H  H75  1  0.79740000  0.25330000  0.58475000  1.0 0.1290078224
H  H76  1  0.87554000  0.53501000  0.50326000  1.0 0.1198955801
H  H77  1  0.35382000  0.89885000  0.27571000  1.0 0.1198955801
H  H78  1  0.78442000  0.63697000  0.65881000  1.0 0.1198955801
H  H79  1  0.64719000  0.73977000  0.76165000  1.0 0.1198955801
H  H80  1  0.87647000  0.53677000  0.66370000  1.0 0.1290078224
H  H81  1  0.22300000  0.72376000  0.30395000  1.0 0.1198955801
H  H82  1  0.73199000  0.73394000  0.84554000  1.0 0.1290078224
H  H83  1  0.80766000  0.74260000  0.93012000  1.0 0.1114231248
H  H84  1  0.84280000  0.69826000  0.01829000  1.0 0.1114231248
H  H85  1  0.10940000  0.66705000  0.23288000  1.0 0.1198955801
H  H86  1  0.87243000  0.63083000  0.09472000  1.0 0.1027146444
H  H87  1  0.96956000  0.63166000  0.18860000  1.0 0.1198955801
H  H88  1  0.95151000  0.90218000  0.88602000  1.0 0.1114231248
H  H89  1  0.38150000  0.64295000  0.53398000  1.0 0.1198955801
H  H90  1  0.48688000  0.62541000  0.69628000  1.0 0.1198955801
H  H91  1  0.27902000  0.55172000  0.54102000  1.0 0.1198955801
H  H92  1  0.38399000  0.53515000  0.69967000  1.0 0.1198955801
H  H93  1  0.86404000  0.10666000  0.52779000  1.0 0.1198955801
H  H94  1  0.41445000  0.39525000  0.62684000  1.0 0.1290078224
H  H95  1  0.90477000  0.11723000  0.69015000  1.0 0.1290078224
H  H96  1  0.17988000  0.61559000  0.60265000  1.0 0.1290078224
H  H97  1  0.76643000  0.00597000  0.51726000  1.0 0.1198955801
H  H98  1  0.42352000  0.25597000  0.63966000  1.0 0.1290078224
H  H99  1  0.80996000  0.01717000  0.68406000  1.0 0.1114231248
H  H100  1  0.02593000  0.61399000  0.59297000  1.0 0.1290078224
H  H101  1  0.30103000  0.11014000  0.55350000  1.0 0.1198955801
H  H102  1  0.36978000  0.11890000  0.71914000  1.0 0.1198955801
H  H103  1  0.45954000  0.01234000  0.70960000  1.0 0.1114231248
H  H104  1  0.18870000  0.03887000  0.64300000  1.0 0.1290078224
H  H105  1  0.03485000  0.04248000  0.63020000  1.0 0.1290078224
H  H106  1  0.32910000  0.85124000  0.12393000  1.0 0.1198955801
H  H107  1  0.31414000  0.93267000  0.09986000  1.0 0.1290078224
H  H108  1  0.23778000  0.87530000  0.09487000  1.0 0.1290078224
H  H109  1  0.34052000  0.02019000  0.23153000  1.0 0.1290078224
H  H110  1  0.37248000  0.00985000  0.17619000  1.0 0.1290078224
H  H111  1  0.39868000  0.94957000  0.22035000  1.0 0.1198955801
H  H112  1  0.74267000  0.93691000  0.74640000  1.0 0.1198955801
H  H113  1  0.84294000  0.93207000  0.82471000  1.0 0.1379363204
H  H114  1  0.02417000  0.01028000  0.02330000  1.0 0.1198955801
H  H115  1  0.12101000  0.02433000  0.02943000  1.0 0.1290078224
H  H116  1  0.08988000  0.95576000  0.05737000  1.0 0.1379363204
H  H117  1  0.15357000  0.84581000  0.00809000  1.0 0.1290078224
H  H118  1  0.20281000  0.91495000  0.99230000  1.0 0.1290078224
H  H119  1  0.15520000  0.85175000  0.94567000  1.0 0.1114231248
H  H120  1  0.07437000  0.94516000  0.89177000  1.0 0.1198955801
H  H121  1  0.13219000  0.00744000  0.93392000  1.0 0.1379363204
H  H122  1  0.03387000  0.01638000  0.92092000  1.0 0.1198955801
H  H123  1  0.39049000  0.00463000  0.54526000  1.0 0.1198955801
H  H124  1  0.15142000  0.96080000  0.14727000  1.0 0.1379363204
H  H125  1  0.21275000  0.02695000  0.14016000  1.0 0.1290078224
H  H126  1  0.19641000  0.01755000  0.19907000  1.0 0.1198955801
H  H127  1  0.83330000  0.83507000  0.25313000  1.0 0.1198955801
H  H128  1  0.93017000  0.76594000  0.21246000  1.0 0.1290078224
H  H129  1  0.74336000  0.67893000  0.08663000  1.0 0.1198955801
H  H130  1  0.69198000  0.83194000  0.20794000  1.0 0.1198955801
H  H131  1  0.64561000  0.74499000  0.12824000  1.0 0.1198955801
H  H132  1  0.10223000  0.60952000  0.10109000  1.0 0.1198955801
H  H133  1  0.07650000  0.37643000  0.07106000  1.0 0.1114231248
H  H134  1  0.14733000  0.49054000  0.06670000  1.0 0.1290078224
H  H135  1  0.91064000  0.50143000  0.14019000  1.0 0.1114231248
H  H136  1  0.96190000  0.38120000  0.11158000  1.0 0.1290078224
C  C1  1  0.10550000  0.87870000  0.38850000  1.0 0.0907403976
C  C2  1  0.81790000  0.83230000  0.36340000  1.0 0.2065873285
C  C3  1  0.83080000  0.50670000  0.38740000  1.0 0.1694007692
C  C4  1  0.71470000  0.60430000  0.37190000  1.0 0.1795449619
C  C5  1  0.71020000  0.73350000  0.36400000  1.0 0.1909207096
C  C6  1  0.96760000  0.51190000  0.40290000  1.0 0.1795449619
C  C7  1  0.55790000  0.99550000  0.37220000  1.0 -0.0614516721
C  C8  1  0.56340000  0.34990000  0.38300000  1.0 -0.0279825582
C  C9  1  0.17650000  0.97130000  0.34740000  1.0 -0.0985825926
C  C10  1  0.68110000  0.46560000  0.38040000  1.0 0.0907403976
C  C11  1  0.67720000  0.43940000  0.43150000  1.0 -0.1492025366
C  C12  1  0.66200000  0.90460000  0.41460000  1.0 -0.1345158975
C  C13  1  0.95540000  0.83680000  0.37570000  1.0 0.1613460024
C  C14  1  0.74340000  0.53050000  0.37910000  1.0 -0.0519828853
C  C15  1  0.20330000  0.97630000  0.44290000  1.0 -0.0912164013
C  C16  1  0.67120000  0.87230000  0.36520000  1.0 0.0907403976
C  C17  1  0.56410000  0.96000000  0.32070000  1.0 -0.0912164013
C  C18  1  0.62000000  0.38210000  0.43120000  1.0 -0.0912164013
C  C19  1  0.73690000  0.81050000  0.36290000  1.0 -0.0985825926
C  C20  1  0.60650000  0.96480000  0.41910000  1.0 -0.0985825926
C  C21  1  0.62500000  0.63050000  0.36760000  1.0 -0.1593240838
C  C22  1  0.62930000  0.71000000  0.36540000  1.0 -0.1999663236
C  C23  1  0.56890000  0.37840000  0.33500000  1.0 -0.0985825926
C  C24  1  0.84290000  0.91610000  0.36530000  1.0 -0.1999663236
C  C25  1  0.62130000  0.89980000  0.31700000  1.0 -0.1672311605
C  C26  1  0.94210000  0.43230000  0.40600000  1.0 -0.1815927903
C  C27  1  0.62240000  0.43970000  0.33350000  1.0 -0.1492025366
C  C28  1  0.92570000  0.91860000  0.37070000  1.0 -0.1593240838
C  C29  1  0.85830000  0.43120000  0.39590000  1.0 -0.1892898063
C  C30  1  0.14870000  0.91180000  0.44010000  1.0 -0.1492025366
C  C31  1  0.11760000  0.90840000  0.34040000  1.0 -0.1593240838
C  C32  1  0.88990000  0.38370000  0.73620000  1.0 -0.4402892153
C  C33  1  0.92100000  0.14990000  0.02980000  1.0 0.0270495796
C  C34  1  0.77680000  0.04590000  0.02130000  1.0 0.0605763149
C  C35  1  0.50150000  0.28600000  0.38560000  1.0 0.5956544568
C  C36  1  0.15920000  0.71720000  0.40190000  1.0 -0.1999663236
C  C37  1  0.16110000  0.63940000  0.40970000  1.0 -0.210618456
C  C38  1  0.55670000  0.25610000  0.57040000  1.0 0.0383003724
C  C39  1  0.61820000  0.26230000  0.61970000  1.0 -0.1892898063
C  C40  1  0.07160000  0.73860000  0.39340000  1.0 0.1694007692
C  C41  1  0.89850000  0.32800000  0.78110000  1.0 0.2595576485
C  C42  1  0.04010000  0.81560000  0.38320000  1.0 -0.0692109983
C  C43  1  0.98280000  0.29360000  0.78920000  1.0 -0.4623675356
C  C44  1  0.77200000  0.26040000  0.71730000  1.0 -0.1892898063
C  C45  1  0.32520000  0.20090000  0.22030000  1.0 0.0907403976
C  C46  1  0.20650000  0.38300000  0.37530000  1.0 -0.0985825926
C  C47  1  0.27600000  0.21130000  0.16840000  1.0 -0.1999663236
C  C48  1  0.07440000  0.61390000  0.40440000  1.0 0.1909207096
C  C49  1  0.14520000  0.44530000  0.36870000  1.0 -0.1593240838
C  C50  1  0.23340000  0.35690000  0.42660000  1.0 -0.0211373913
C  C51  1  0.29670000  0.29150000  0.43200000  1.0 0.5909849097
C  C52  1  0.82940000  0.26660000  0.76550000  1.0 -0.0211373913
C  C53  1  0.64840000  0.19640000  0.64740000  1.0 0.1198955801
C  C54  1  0.70800000  0.19990000  0.70100000  1.0 0.0483041557
C  C55  1  0.20680000  0.38750000  0.47190000  1.0 -0.0912164013
C  C56  1  0.11700000  0.47450000  0.41540000  1.0 0.0907403976
C  C57  1  0.14720000  0.44530000  0.46650000  1.0 -0.1492025366
C  C58  1  0.49770000  0.05770000  0.37940000  1.0 0.5799050023
C  C59  1  0.04760000  0.53570000  0.40750000  1.0 -0.0692109983
C  C60  1  0.55730000  0.12070000  0.56670000  1.0 0.1379363204
C  C61  1  0.61330000  0.12450000  0.61960000  1.0 -0.210618456
C  C62  1  0.16340000  0.23980000  0.06010000  1.0 -0.210618456
C  C63  1  0.82720000  0.21090000  0.80390000  1.0 0.2312368144
C  C64  1  0.18990000  0.20610000  0.15880000  1.0 0.1198955801
C  C65  1  0.20990000  0.18250000  0.25630000  1.0 0.0728642372
C  C66  1  0.70320000  0.14510000  0.73710000  1.0 -0.210618456
C  C67  1  0.11420000  0.24400000  0.00580000  1.0 -0.0410382702
C  C68  1  0.15660000  0.19180000  0.20660000  1.0 -0.1999663236
C  C69  1  0.13450000  0.21320000  0.10380000  1.0 0.0383003724
C  C70  1  0.76210000  0.15450000  0.79200000  1.0 -0.0692109983
C  C71  1  0.28270000  0.06570000  0.40130000  1.0 0.5799050023
C  C72  1  0.74730000  0.10410000  0.82910000  1.0 0.0605763149
C  C73  1  0.05130000  0.18410000  0.09130000  1.0 -0.1892898063
C  C74  1  0.99830000  0.18490000  0.03900000  1.0 -0.0519828853
C  C75  1  0.21860000  0.00180000  0.39700000  1.0 -0.0279825582
C  C76  1  0.75930000  0.05160000  0.91850000  1.0 -0.0091565782
C  C77  1  0.78100000  0.09660000  0.97590000  1.0 -0.0030345737
C  C78  1  0.15210000  0.27020000  0.95950000  1.0 0.2894900282
C  C79  1  0.02800000  0.21440000  0.99560000  1.0 0.245342954
C  C80  1  0.66690000  0.02540000  0.90040000  1.0 0.0605763149
C  C81  1  0.89180000  0.37680000  0.83340000  1.0 -0.4304767261
C  C82  1  0.60200000  0.07880000  0.89660000  1.0 -0.1593240838
C  C83  1  0.82490000  0.97920000  0.03010000  1.0 -0.1416945356
C  C84  1  0.24530000  0.30660000  0.98500000  1.0 -0.4623675356
C  C85  1  0.14970000  0.20540000  0.91290000  1.0 -0.492064785
C  C86  1  0.81660000  0.93460000  0.07190000  1.0 -0.0985825926
C  C87  1  0.72110000  0.06760000  0.05550000  1.0 -0.1593240838
C  C88  1  0.51840000  0.05360000  0.87930000  1.0 -0.0912164013
C  C89  1  0.50080000  0.97550000  0.86100000  1.0 -0.1072188825
C  C90  1  0.71440000  0.02340000  0.09740000  1.0 -0.0985825926
C  C91  1  0.64780000  0.94660000  0.88620000  1.0 -0.1672311605
C  C92  1  0.76060000  0.95580000  0.10490000  1.0 -0.0985825926
C  C93  1  0.56500000  0.92110000  0.86750000  1.0 -0.0912164013
C  C94  1  0.09760000  0.34780000  0.94060000  1.0 -0.492064785
C  C95  1  0.70070000  0.71150000  0.57330000  1.0 0.5715039958
C  C96  1  0.44380000  0.74610000  0.42590000  1.0 0.1027146444
C  C97  1  0.49850000  0.93440000  0.62000000  1.0 0.5799050023
C  C98  1  0.50260000  0.71060000  0.61420000  1.0 0.5909849097
C  C99  1  0.79670000  0.61520000  0.53190000  1.0 -0.1072188825
C  C100  1  0.76550000  0.64640000  0.57690000  1.0 -0.0091565782
C  C101  1  0.77750000  0.99950000  0.59980000  1.0 -0.0211373913
C  C102  1  0.38580000  0.88120000  0.38360000  1.0 -0.1672311605
C  C103  1  0.71340000  0.93310000  0.59500000  1.0 0.5715039958
C  C104  1  0.44480000  0.88350000  0.43250000  1.0 0.0383003724
C  C105  1  0.92780000  0.38900000  0.59590000  1.0 0.1613460024
C  C106  1  0.38640000  0.74130000  0.37560000  1.0 -0.1999663236
C  C107  1  0.84160000  0.36080000  0.58420000  1.0 -0.1815927903
C  C108  1  0.93050000  0.26190000  0.60560000  1.0 0.1795449619
C  C109  1  0.95920000  0.18850000  0.61460000  1.0 -0.0692109983
C  C110  1  0.88790000  0.52650000  0.58540000  1.0 0.0797480558
C  C111  1  0.35820000  0.80940000  0.35350000  1.0 0.1290078224
C  C112  1  0.95280000  0.46470000  0.59340000  1.0 -0.0519828853
C  C113  1  0.84430000  0.28610000  0.58990000  1.0 -0.1815927903
C  C114  1  0.85710000  0.55500000  0.53470000  1.0 -0.1593240838
C  C115  1  0.29920000  0.80890000  0.29680000  1.0 0.0483041557
C  C116  1  0.30900000  0.86340000  0.26290000  1.0 -0.1672311605
C  C117  1  0.80040000  0.61620000  0.62660000  1.0 -0.0985825926
C  C118  1  0.25900000  0.87090000  0.21180000  1.0 -0.0279825582
C  C119  1  0.69150000  0.77600000  0.77310000  1.0 0.0907403976
C  C120  1  0.85750000  0.55710000  0.62980000  1.0 -0.1416945356
C  C121  1  0.98410000  0.82710000  0.00310000  1.0 0.2389052798
C  C122  1  0.23320000  0.75890000  0.28000000  1.0 -0.1999663236
C  C123  1  0.74200000  0.77230000  0.82380000  1.0 -0.210618456
C  C124  1  0.80900000  0.82490000  0.84430000  1.0 0.1198955801
C  C125  1  0.85490000  0.77550000  0.93810000  1.0 -0.2173170756
C  C126  1  0.18880000  0.81490000  0.19070000  1.0 0.2595576485
C  C127  1  0.86720000  0.82270000  0.89750000  1.0 0.0220752497
C  C128  1  0.99720000  0.87470000  0.96230000  1.0 -0.0410382702
C  C129  1  0.17840000  0.75860000  0.22600000  1.0 -0.0614516721
C  C130  1  0.89290000  0.72730000  0.02910000  1.0 0.0483041557
C  C131  1  0.27700000  0.93280000  0.17550000  1.0 0.2894900282
C  C132  1  0.11040000  0.70640000  0.20980000  1.0 0.0098962438
C  C133  1  0.90480000  0.67540000  0.11730000  1.0 -0.0091565782
C  C134  1  0.91150000  0.77590000  0.99090000  1.0 -0.0614516721
C  C135  1  0.98320000  0.64060000  0.15320000  1.0 -0.0091565782
C  C136  1  0.94100000  0.87100000  0.91230000  1.0 -0.1892898063
C  C137  1  0.44020000  0.64530000  0.61610000  1.0 -0.0211373913
C  C138  1  0.38200000  0.62230000  0.56730000  1.0 -0.0985825926
C  C139  1  0.44440000  0.61090000  0.66480000  1.0 -0.0985825926
C  C140  1  0.32270000  0.56450000  0.57210000  1.0 -0.1593240838
C  C141  1  0.38450000  0.55470000  0.66610000  1.0 -0.1492025366
C  C142  1  0.32350000  0.52610000  0.61720000  1.0 0.0797480558
C  C143  1  0.89590000  0.12220000  0.61160000  1.0 0.0797480558
C  C144  1  0.85290000  0.08810000  0.55940000  1.0 -0.1672311605
C  C145  1  0.36950000  0.36370000  0.62920000  1.0 -0.1999663236
C  C146  1  0.26000000  0.46700000  0.61840000  1.0 -0.0692109983
C  C147  1  0.87750000  0.09470000  0.65490000  1.0 -0.1416945356
C  C148  1  0.28790000  0.39050000  0.62630000  1.0 0.1694007692
C  C149  1  0.14650000  0.57190000  0.60280000  1.0 -0.1999663236
C  C150  1  0.79410000  0.02740000  0.55270000  1.0 -0.0985825926
C  C151  1  0.37580000  0.28720000  0.63570000  1.0 -0.1815927903
C  C152  1  0.17640000  0.49130000  0.60960000  1.0 0.1909207096
C  C153  1  0.82000000  0.03430000  0.65170000  1.0 -0.1072188825
C  C154  1  0.06160000  0.57110000  0.59660000  1.0 -0.1815927903
C  C155  1  0.28930000  0.26450000  0.63490000  1.0 0.1795449619
C  C156  1  0.03800000  0.49160000  0.59700000  1.0 0.1694007692
C  C157  1  0.26480000  0.18710000  0.63870000  1.0 -0.0519828853
C  C158  1  0.33310000  0.09050000  0.58510000  1.0 -0.1416945356
C  C159  1  0.32710000  0.12300000  0.63850000  1.0 0.0728642372
C  C160  1  0.37340000  0.09640000  0.68400000  1.0 -0.1593240838
C  C161  1  0.43720000  0.00100000  0.62510000  1.0 -0.0279825582
C  C162  1  0.42860000  0.03300000  0.67800000  1.0 -0.1072188825
C  C163  1  0.18120000  0.16060000  0.63610000  1.0 0.1613460024
C  C164  1  0.07480000  0.93070000  0.97370000  1.0 0.2813059081
C  C165  1  0.15480000  0.08290000  0.63820000  1.0 -0.1672311605
C  C166  1  0.04220000  0.16220000  0.62760000  1.0 0.1909207096
C  C167  1  0.06970000  0.08570000  0.63170000  1.0 -0.1999663236
C  C168  1  0.29090000  0.89430000  0.11790000  1.0 -0.4623675356
C  C169  1  0.35420000  0.98270000  0.20350000  1.0 -0.4686875354
C  C170  1  0.74910000  0.89100000  0.76390000  1.0 0.0383003724
C  C171  1  0.80540000  0.89000000  0.81190000  1.0 -0.1999663236
C  C172  1  0.07770000  0.98520000  0.02560000  1.0 -0.5215799123
C  C173  1  0.15390000  0.88130000  0.98060000  1.0 -0.4402892153
C  C174  1  0.07920000  0.97950000  0.92550000  1.0 -0.4623675356
C  C175  1  0.00690000  0.56700000  0.12910000  1.0 0.0383003724
C  C176  1  0.38810000  0.02790000  0.58050000  1.0 -0.0985825926
C  C177  1  0.20230000  0.98990000  0.16450000  1.0 -0.492064785
C  C178  1  0.84660000  0.71980000  0.14380000  1.0 0.0605763149
C  C179  1  0.81530000  0.80490000  0.21910000  1.0 -0.0815170641
C  C180  1  0.87330000  0.76390000  0.19470000  1.0 -0.1492025366
C  C181  1  0.76140000  0.71150000  0.11960000  1.0 -0.1593240838
C  C182  1  0.73050000  0.80120000  0.19300000  1.0 -0.1072188825
C  C183  1  0.70300000  0.75140000  0.14420000  1.0 -0.0912164013
C  C184  1  0.07440000  0.56350000  0.10390000  1.0 -0.1345158975
C  C185  1  0.05850000  0.42440000  0.08520000  1.0 -0.1072188825
C  C186  1  0.10080000  0.49250000  0.08270000  1.0 -0.0815170641
C  C187  1  0.96070000  0.49890000  0.12800000  1.0 -0.1672311605
C  C188  1  0.98930000  0.42740000  0.10870000  1.0 -0.0912164013
N  N1  1  0.76270000  0.66920000  0.36930000  1.0 -0.371971787
N  N2  1  0.88580000  0.78780000  0.36960000  1.0 -0.3475061367
N  N3  1  0.89730000  0.55660000  0.39360000  1.0 -0.357130901
N  N4  1  0.52570000  0.18220000  0.54590000  1.0 -0.2393077697
N  N5  1  0.01800000  0.67490000  0.39240000  1.0 -0.3869636367
N  N6  1  0.29590000  0.18540000  0.26440000  1.0 -0.2393077697
N  N7  1  0.78460000  0.10540000  0.88120000  1.0 -0.210618456
N  N8  1  0.86780000  0.13270000  0.98120000  1.0 -0.210618456
N  N9  1  0.47410000  0.81230000  0.45570000  1.0 -0.2595637749
N  N10  1  0.97860000  0.32550000  0.60570000  1.0 -0.343649746
N  N11  1  0.69990000  0.82630000  0.73910000  1.0 -0.210618456
N  N12  1  0.04620000  0.70560000  0.16510000  1.0 -0.2531380366
N  N13  1  0.93930000  0.71970000  0.07760000  1.0 -0.1999663236
N  N14  1  0.23860000  0.32740000  0.62910000  1.0 -0.357130901
N  N15  1  0.10830000  0.44400000  0.60710000  1.0 -0.371971787
N  N16  1  0.10920000  0.21120000  0.63100000  1.0 -0.3828017424
O  O1  1  0.45360000  0.25850000  0.34060000  1.0 -0.5263249586
O  O2  1  0.50240000  0.26710000  0.43270000  1.0 -0.5593258599
O  O3  1  0.33900000  0.27850000  0.47760000  1.0 -0.4988254319
O  O4  1  0.30920000  0.25160000  0.38550000  1.0 -0.601382942
O  O5  1  0.45860000  0.09100000  0.33470000  1.0 -0.5593258599
O  O6  1  0.48960000  0.08140000  0.42690000  1.0 -0.5470369766
O  O7  1  0.88200000  0.21140000  0.85190000  1.0 -0.4212866882
O  O8  1  0.29600000  0.08870000  0.35890000  1.0 -0.5215799123
O  O9  1  0.32010000  0.09480000  0.45110000  1.0 -0.5593258599
O  O10  1  0.98120000  0.21580000  0.94470000  1.0 -0.4137031446
O  O11  1  0.69950000  0.91650000  0.63960000  1.0 -0.5412652205
O  O12  1  0.49730000  0.73810000  0.56900000  1.0 -0.5593258599
O  O13  1  0.55080000  0.73570000  0.66010000  1.0 -0.5412652205
O  O14  1  0.69730000  0.74590000  0.61680000  1.0 -0.4988254319
O  O15  1  0.68140000  0.90390000  0.54730000  1.0 -0.5215799123
O  O16  1  0.53520000  0.90570000  0.66210000  1.0 -0.5117367814
O  O17  1  0.66300000  0.72280000  0.52360000  1.0 -0.5412652205
O  O18  1  0.50820000  0.92100000  0.56940000  1.0 -0.5820651363
O  O19  1  0.03840000  0.82650000  0.05150000  1.0 -0.4212866882
O  O20  1  0.13950000  0.82080000  0.14210000  1.0 -0.4042030583
