# DDEC6 charges by PACMAN v1.1 (https://github.com/mtap-research/PACMAN-charge/)
data_MERLED_ASR_pacman
_symmetry_space_group_name_H-M   'P 1'
_cell_length_a   31.13420000
_cell_length_b   31.13410000
_cell_length_c   16.90890000
_cell_angle_alpha   90.00000000
_cell_angle_beta   90.00000000
_cell_angle_gamma   120.00000000
_symmetry_Int_Tables_number   1
_chemical_formula_structural   Fe6Co3H72C144(N6O13)2
_chemical_formula_sum   'Fe6 Co3 H72 C144 N12 O26'
_cell_volume   14194.49722719
_cell_formula_units_Z   1
loop_
 _symmetry_equiv_pos_site_id
 _symmetry_equiv_pos_as_xyz
  1  'x, y, z'
loop_
 _atom_site_type_symbol
 _atom_site_label
 _atom_site_symmetry_multiplicity
 _atom_site_fract_x
 _atom_site_fract_y
 _atom_site_fract_z
 _atom_site_occupancy
 _atom_site_charge
Fe  Fe1  1  0.29779000  0.70220000  0.50000000  1.0 1.1536089635
Fe  Fe2  1  0.70221000  0.40441000  0.50000000  1.0 1.1536089635
Fe  Fe3  1  0.70221000  0.29779000  0.50000000  1.0 1.1417453027
Fe  Fe4  1  0.40441000  0.70220000  0.50000000  1.0 1.1536089635
Fe  Fe5  1  0.29779000  0.59559000  0.50000000  1.0 1.1536089635
Fe  Fe6  1  0.59559000  0.29779000  0.50000000  1.0 1.1536089635
Co  Co1  1  0.00000000  0.50000000  0.00000000  1.0 0.6419663366
Co  Co2  1  0.50000000  0.00000000  0.00000000  1.0 0.6419663366
Co  Co3  1  0.50000000  0.50000000  0.00000000  1.0 0.6419663366
H  H1  1  0.19640000  0.52785000  0.31843000  1.0 0.1148520017
H  H2  1  0.80360000  0.33145000  0.68157000  1.0 0.1148520017
H  H3  1  0.80360000  0.47215000  0.31843000  1.0 0.1148520017
H  H4  1  0.33145000  0.80360000  0.31843000  1.0 0.1148520017
H  H5  1  0.33145000  0.52785000  0.68157000  1.0 0.1148520017
H  H6  1  0.47215000  0.80360000  0.68157000  1.0 0.1148520017
H  H7  1  0.47215000  0.66855000  0.31843000  1.0 0.1148520017
H  H8  1  0.52785000  0.33145000  0.31843000  1.0 0.1148520017
H  H9  1  0.52785000  0.19640000  0.68157000  1.0 0.1148520017
H  H10  1  0.66855000  0.47215000  0.68157000  1.0 0.1148520017
H  H11  1  0.66855000  0.19640000  0.31843000  1.0 0.1148520017
H  H12  1  0.19640000  0.66855000  0.68157000  1.0 0.1148520017
H  H13  1  0.80360000  0.47215000  0.68157000  1.0 0.1148520017
H  H14  1  0.19640000  0.66855000  0.31843000  1.0 0.1148520017
H  H15  1  0.19640000  0.52785000  0.68157000  1.0 0.1148520017
H  H16  1  0.66855000  0.19640000  0.68157000  1.0 0.1148520017
H  H17  1  0.66855000  0.47215000  0.31843000  1.0 0.1148520017
H  H18  1  0.52785000  0.19640000  0.31843000  1.0 0.1148520017
H  H19  1  0.52785000  0.33145000  0.68157000  1.0 0.1148520017
H  H20  1  0.47215000  0.66855000  0.68157000  1.0 0.1148520017
H  H21  1  0.47215000  0.80360000  0.31843000  1.0 0.1148520017
H  H22  1  0.33145000  0.52785000  0.31843000  1.0 0.1148520017
H  H23  1  0.33145000  0.80360000  0.68157000  1.0 0.1148520017
H  H24  1  0.80360000  0.33145000  0.31843000  1.0 0.1148520017
H  H25  1  0.13370000  0.49685000  0.21204000  1.0 0.1035483224
H  H26  1  0.86630000  0.36315000  0.78796000  1.0 0.1035483224
H  H27  1  0.86630000  0.50315000  0.21204000  1.0 0.1035483224
H  H28  1  0.36315000  0.86630000  0.21204000  1.0 0.1035483224
H  H29  1  0.36315000  0.49685000  0.78796000  1.0 0.1035483224
H  H30  1  0.50315000  0.86630000  0.78796000  1.0 0.1035483224
H  H31  1  0.50315000  0.63685000  0.21204000  1.0 0.1035483224
H  H32  1  0.49685000  0.36315000  0.21204000  1.0 0.1035483224
H  H33  1  0.49685000  0.13370000  0.78796000  1.0 0.1035483224
H  H34  1  0.63685000  0.50315000  0.78796000  1.0 0.1035483224
H  H35  1  0.63685000  0.13370000  0.21204000  1.0 0.1035483224
H  H36  1  0.13370000  0.63685000  0.78796000  1.0 0.1035483224
H  H37  1  0.86630000  0.50315000  0.78796000  1.0 0.1035483224
H  H38  1  0.13370000  0.63685000  0.21204000  1.0 0.1035483224
H  H39  1  0.13370000  0.49685000  0.78796000  1.0 0.1035483224
H  H40  1  0.63685000  0.13370000  0.78796000  1.0 0.1035483224
H  H41  1  0.63685000  0.50315000  0.21204000  1.0 0.1035483224
H  H42  1  0.49685000  0.13370000  0.21204000  1.0 0.1035483224
H  H43  1  0.49685000  0.36315000  0.78796000  1.0 0.1035483224
H  H44  1  0.50315000  0.63685000  0.78796000  1.0 0.1035483224
H  H45  1  0.50315000  0.86630000  0.21204000  1.0 0.1035483224
H  H46  1  0.36315000  0.49685000  0.21204000  1.0 0.1035483224
H  H47  1  0.36315000  0.86630000  0.78796000  1.0 0.1035483224
H  H48  1  0.86630000  0.36315000  0.21204000  1.0 0.1035483224
H  H49  1  0.18710000  0.59355000  0.07744000  1.0 0.1222537745
H  H50  1  0.81290000  0.40645000  0.92256000  1.0 0.1222537745
H  H51  1  0.81290000  0.40645000  0.07744000  1.0 0.1222537745
H  H52  1  0.40645000  0.81290000  0.07744000  1.0 0.1222537745
H  H53  1  0.40645000  0.59355000  0.92256000  1.0 0.1222537745
H  H54  1  0.40645000  0.81290000  0.92256000  1.0 0.1222537745
H  H55  1  0.40645000  0.59355000  0.07744000  1.0 0.1222537745
H  H56  1  0.59355000  0.40645000  0.07744000  1.0 0.1222537745
H  H57  1  0.59355000  0.18710000  0.92256000  1.0 0.1222537745
H  H58  1  0.59355000  0.40645000  0.92256000  1.0 0.1222537745
H  H59  1  0.59355000  0.18710000  0.07744000  1.0 0.1222537745
H  H60  1  0.18710000  0.59355000  0.92256000  1.0 0.1222537745
H  H61  1  0.04890000  0.52445000  0.29553000  1.0 0.125040803
H  H62  1  0.95110000  0.47555000  0.70447000  1.0 0.125040803
H  H63  1  0.95110000  0.47555000  0.29553000  1.0 0.1222537745
H  H64  1  0.47555000  0.95110000  0.29553000  1.0 0.125040803
H  H65  1  0.47555000  0.52445000  0.70447000  1.0 0.1222537745
H  H66  1  0.47555000  0.95110000  0.70447000  1.0 0.125040803
H  H67  1  0.47555000  0.52445000  0.29553000  1.0 0.1222537745
H  H68  1  0.52445000  0.47555000  0.29553000  1.0 0.1222537745
H  H69  1  0.52445000  0.04890000  0.70447000  1.0 0.125040803
H  H70  1  0.52445000  0.47555000  0.70447000  1.0 0.125040803
H  H71  1  0.52445000  0.04890000  0.29553000  1.0 0.125040803
H  H72  1  0.04890000  0.52445000  0.70447000  1.0 0.125040803
C  C1  1  0.23830000  0.61915000  0.39314000  1.0 0.5898618038
C  C2  1  0.76170000  0.38085000  0.60686000  1.0 0.5898618038
C  C3  1  0.76170000  0.38085000  0.39314000  1.0 0.5898618038
C  C4  1  0.38085000  0.76170000  0.39314000  1.0 0.5898618038
C  C5  1  0.38085000  0.61915000  0.60686000  1.0 0.5898618038
C  C6  1  0.38085000  0.76170000  0.60686000  1.0 0.5898618038
C  C7  1  0.38085000  0.61915000  0.39314000  1.0 0.5898618038
C  C8  1  0.61915000  0.38085000  0.39314000  1.0 0.5898618038
C  C9  1  0.61915000  0.23830000  0.60686000  1.0 0.5898618038
C  C10  1  0.61915000  0.38085000  0.60686000  1.0 0.5898618038
C  C11  1  0.61915000  0.23830000  0.39314000  1.0 0.5898618038
C  C12  1  0.23830000  0.61915000  0.60686000  1.0 0.5898618038
C  C13  1  0.20150000  0.60075000  0.32723000  1.0 -0.0531080324
C  C14  1  0.79850000  0.39925000  0.67277000  1.0 -0.0531080324
C  C15  1  0.79850000  0.39925000  0.32723000  1.0 -0.0531080324
C  C16  1  0.39925000  0.79850000  0.32723000  1.0 -0.0531080324
C  C17  1  0.39925000  0.60075000  0.67277000  1.0 -0.0531080324
C  C18  1  0.39925000  0.79850000  0.67277000  1.0 -0.0531080324
C  C19  1  0.39925000  0.60075000  0.32723000  1.0 -0.0531080324
C  C20  1  0.60075000  0.39925000  0.32723000  1.0 -0.0531080324
C  C21  1  0.60075000  0.20150000  0.67277000  1.0 -0.0531080324
C  C22  1  0.60075000  0.39925000  0.67277000  1.0 -0.0531080324
C  C23  1  0.60075000  0.20150000  0.32723000  1.0 -0.0531080324
C  C24  1  0.20150000  0.60075000  0.67277000  1.0 -0.0531080324
C  C25  1  0.18330000  0.55225000  0.29574000  1.0 -0.086017006
C  C26  1  0.81670000  0.36895000  0.70426000  1.0 -0.086017006
C  C27  1  0.81670000  0.44775000  0.29574000  1.0 -0.086017006
C  C28  1  0.36895000  0.81670000  0.29574000  1.0 -0.086017006
C  C29  1  0.36895000  0.55225000  0.70426000  1.0 -0.0845986271
C  C30  1  0.44775000  0.81670000  0.70426000  1.0 -0.086017006
C  C31  1  0.44775000  0.63105000  0.29574000  1.0 -0.0845986271
C  C32  1  0.55225000  0.36895000  0.29574000  1.0 -0.086017006
C  C33  1  0.55225000  0.18330000  0.70426000  1.0 -0.086017006
C  C34  1  0.63105000  0.44775000  0.70426000  1.0 -0.086017006
C  C35  1  0.63105000  0.18330000  0.29574000  1.0 -0.086017006
C  C36  1  0.18330000  0.63105000  0.70426000  1.0 -0.086017006
C  C37  1  0.81670000  0.44775000  0.70426000  1.0 -0.086017006
C  C38  1  0.18330000  0.63105000  0.29574000  1.0 -0.086017006
C  C39  1  0.18330000  0.55225000  0.70426000  1.0 -0.086017006
C  C40  1  0.63105000  0.18330000  0.70426000  1.0 -0.086017006
C  C41  1  0.63105000  0.44775000  0.29574000  1.0 -0.086017006
C  C42  1  0.55225000  0.18330000  0.29574000  1.0 -0.086017006
C  C43  1  0.55225000  0.36895000  0.70426000  1.0 -0.086017006
C  C44  1  0.44775000  0.63105000  0.70426000  1.0 -0.0845986271
C  C45  1  0.44775000  0.81670000  0.29574000  1.0 -0.086017006
C  C46  1  0.36895000  0.55225000  0.29574000  1.0 -0.0845986271
C  C47  1  0.36895000  0.81670000  0.70426000  1.0 -0.086017006
C  C48  1  0.81670000  0.36895000  0.29574000  1.0 -0.086017006
C  C49  1  0.14750000  0.53435000  0.23503000  1.0 -0.1514264819
C  C50  1  0.85250000  0.38685000  0.76497000  1.0 -0.1514264819
C  C51  1  0.85250000  0.46565000  0.23503000  1.0 -0.1514264819
C  C52  1  0.38685000  0.85250000  0.23503000  1.0 -0.1514264819
C  C53  1  0.38685000  0.53435000  0.76497000  1.0 -0.1514264819
C  C54  1  0.46565000  0.85250000  0.76497000  1.0 -0.1514264819
C  C55  1  0.46565000  0.61315000  0.23503000  1.0 -0.1514264819
C  C56  1  0.53435000  0.38685000  0.23503000  1.0 -0.1514264819
C  C57  1  0.53435000  0.14750000  0.76497000  1.0 -0.1514264819
C  C58  1  0.61315000  0.46565000  0.76497000  1.0 -0.1514264819
C  C59  1  0.61315000  0.14750000  0.23503000  1.0 -0.1514264819
C  C60  1  0.14750000  0.61315000  0.76497000  1.0 -0.1514264819
C  C61  1  0.85250000  0.46565000  0.76497000  1.0 -0.1514264819
C  C62  1  0.14750000  0.61315000  0.23503000  1.0 -0.1514264819
C  C63  1  0.14750000  0.53435000  0.76497000  1.0 -0.1514264819
C  C64  1  0.61315000  0.14750000  0.76497000  1.0 -0.1514264819
C  C65  1  0.61315000  0.46565000  0.23503000  1.0 -0.1514264819
C  C66  1  0.53435000  0.14750000  0.23503000  1.0 -0.1514264819
C  C67  1  0.53435000  0.38685000  0.76497000  1.0 -0.1514264819
C  C68  1  0.46565000  0.61315000  0.76497000  1.0 -0.1514264819
C  C69  1  0.46565000  0.85250000  0.23503000  1.0 -0.1514264819
C  C70  1  0.38685000  0.53435000  0.23503000  1.0 -0.1514264819
C  C71  1  0.38685000  0.85250000  0.76497000  1.0 -0.1514264819
C  C72  1  0.85250000  0.38685000  0.23503000  1.0 -0.1514264819
C  C73  1  0.12930000  0.56465000  0.20474000  1.0 0.0929704009
C  C74  1  0.87070000  0.43535000  0.79526000  1.0 0.0929704009
C  C75  1  0.87070000  0.43535000  0.20474000  1.0 0.0929704009
C  C76  1  0.43535000  0.87070000  0.20474000  1.0 0.0929704009
C  C77  1  0.43535000  0.56465000  0.79526000  1.0 0.0929704009
C  C78  1  0.43535000  0.87070000  0.79526000  1.0 0.0929704009
C  C79  1  0.43535000  0.56465000  0.20474000  1.0 0.0929704009
C  C80  1  0.56465000  0.43535000  0.20474000  1.0 0.0929704009
C  C81  1  0.56465000  0.12930000  0.79526000  1.0 0.0929704009
C  C82  1  0.56465000  0.43535000  0.79526000  1.0 0.0929704009
C  C83  1  0.56465000  0.12930000  0.20474000  1.0 0.0929704009
C  C84  1  0.12930000  0.56465000  0.79526000  1.0 0.0929704009
C  C85  1  0.08990000  0.54495000  0.14224000  1.0 -0.0551754275
C  C86  1  0.91010000  0.45505000  0.85776000  1.0 -0.0531080324
C  C87  1  0.91010000  0.45505000  0.14224000  1.0 -0.0531080324
C  C88  1  0.45505000  0.91010000  0.14224000  1.0 -0.0551754275
C  C89  1  0.45505000  0.54495000  0.85776000  1.0 -0.0531080324
C  C90  1  0.45505000  0.91010000  0.85776000  1.0 -0.0531080324
C  C91  1  0.45505000  0.54495000  0.14224000  1.0 -0.0531080324
C  C92  1  0.54495000  0.45505000  0.14224000  1.0 -0.0531080324
C  C93  1  0.54495000  0.08990000  0.85776000  1.0 -0.0531080324
C  C94  1  0.54495000  0.45505000  0.85776000  1.0 -0.0531080324
C  C95  1  0.54495000  0.08990000  0.14224000  1.0 -0.0531080324
C  C96  1  0.08990000  0.54495000  0.85776000  1.0 -0.0531080324
C  C97  1  0.10390000  0.55195000  0.06344000  1.0 0.1675599415
C  C98  1  0.89610000  0.44805000  0.93656000  1.0 0.1675599415
C  C99  1  0.89610000  0.44805000  0.06344000  1.0 0.1675599415
C  C100  1  0.44805000  0.89610000  0.06344000  1.0 0.1675599415
C  C101  1  0.44805000  0.55195000  0.93656000  1.0 0.1675599415
C  C102  1  0.44805000  0.89610000  0.93656000  1.0 0.1675599415
C  C103  1  0.44805000  0.55195000  0.06344000  1.0 0.1675599415
C  C104  1  0.55195000  0.44805000  0.06344000  1.0 0.1675599415
C  C105  1  0.55195000  0.10390000  0.93656000  1.0 0.1675599415
C  C106  1  0.55195000  0.44805000  0.93656000  1.0 0.1675599415
C  C107  1  0.55195000  0.10390000  0.06344000  1.0 0.1675599415
C  C108  1  0.10390000  0.55195000  0.93656000  1.0 0.1675599415
C  C109  1  0.15390000  0.57695000  0.04023000  1.0 -0.1686993205
C  C110  1  0.84610000  0.42305000  0.95977000  1.0 -0.1686993205
C  C111  1  0.84610000  0.42305000  0.04023000  1.0 -0.1686993205
C  C112  1  0.42305000  0.84610000  0.04023000  1.0 -0.1686993205
C  C113  1  0.42305000  0.57695000  0.95977000  1.0 -0.1686993205
C  C114  1  0.42305000  0.84610000  0.95977000  1.0 -0.1686993205
C  C115  1  0.42305000  0.57695000  0.04023000  1.0 -0.1686993205
C  C116  1  0.57695000  0.42305000  0.04023000  1.0 -0.1686993205
C  C117  1  0.57695000  0.15390000  0.95977000  1.0 -0.1686993205
C  C118  1  0.57695000  0.42305000  0.95977000  1.0 -0.1686993205
C  C119  1  0.57695000  0.15390000  0.04023000  1.0 -0.1686993205
C  C120  1  0.15390000  0.57695000  0.95977000  1.0 -0.1686993205
C  C121  1  0.04010000  0.52005000  0.16423000  1.0 0.1675599415
C  C122  1  0.95990000  0.47995000  0.83577000  1.0 0.1675599415
C  C123  1  0.95990000  0.47995000  0.16423000  1.0 0.1675599415
C  C124  1  0.47995000  0.95990000  0.16423000  1.0 0.1675599415
C  C125  1  0.47995000  0.52005000  0.83577000  1.0 0.1675599415
C  C126  1  0.47995000  0.95990000  0.83577000  1.0 0.1675599415
C  C127  1  0.47995000  0.52005000  0.16423000  1.0 0.1675599415
C  C128  1  0.52005000  0.47995000  0.16423000  1.0 0.1675599415
C  C129  1  0.52005000  0.04010000  0.83577000  1.0 0.1675599415
C  C130  1  0.52005000  0.47995000  0.83577000  1.0 0.1675599415
C  C131  1  0.52005000  0.04010000  0.16423000  1.0 0.1675599415
C  C132  1  0.04010000  0.52005000  0.83577000  1.0 0.1675599415
C  C133  1  0.02550000  0.51275000  0.24303000  1.0 -0.1793566795
C  C134  1  0.97450000  0.48725000  0.75697000  1.0 -0.1793566795
C  C135  1  0.97450000  0.48725000  0.24303000  1.0 -0.1793566795
C  C136  1  0.48725000  0.97450000  0.24303000  1.0 -0.1793566795
C  C137  1  0.48725000  0.51275000  0.75697000  1.0 -0.1793566795
C  C138  1  0.48725000  0.97450000  0.75697000  1.0 -0.1793566795
C  C139  1  0.48725000  0.51275000  0.24303000  1.0 -0.1793566795
C  C140  1  0.51275000  0.48725000  0.24303000  1.0 -0.1793566795
C  C141  1  0.51275000  0.02550000  0.75697000  1.0 -0.1793566795
C  C142  1  0.51275000  0.48725000  0.75697000  1.0 -0.1793566795
C  C143  1  0.51275000  0.02550000  0.24303000  1.0 -0.1793566795
C  C144  1  0.02550000  0.51275000  0.75697000  1.0 -0.1793566795
N  N1  1  0.07210000  0.53605000  0.00000000  1.0 -0.3293896394
N  N2  1  0.92790000  0.46395000  0.00000000  1.0 -0.3293896394
N  N3  1  0.46395000  0.92790000  0.00000000  1.0 -0.3293896394
N  N4  1  0.46395000  0.53605000  0.00000000  1.0 -0.3293896394
N  N5  1  0.53605000  0.46395000  0.00000000  1.0 -0.3293896394
N  N6  1  0.53605000  0.07210000  0.00000000  1.0 -0.3293896394
N  N7  1  0.00000000  0.50000000  0.11393000  1.0 -0.3365522289
N  N8  1  0.00000000  0.50000000  0.88607000  1.0 -0.3365522289
N  N9  1  0.50000000  0.00000000  0.11393000  1.0 -0.3365522289
N  N10  1  0.50000000  0.50000000  0.88607000  1.0 -0.3293896394
N  N11  1  0.50000000  0.00000000  0.88607000  1.0 -0.3365522289
N  N12  1  0.50000000  0.50000000  0.11393000  1.0 -0.3293896394
O  O1  1  0.33333333  0.66666667  0.50000000  1.0 -0.8197266424
O  O2  1  0.66666667  0.33333333  0.50000000  1.0 -0.8197266424
O  O3  1  0.25310000  0.66285000  0.42024000  1.0 -0.5199983208
O  O4  1  0.74690000  0.40975000  0.57976000  1.0 -0.5199983208
O  O5  1  0.74690000  0.33715000  0.42024000  1.0 -0.5199983208
O  O6  1  0.40975000  0.74690000  0.42024000  1.0 -0.5199983208
O  O7  1  0.40975000  0.66285000  0.57976000  1.0 -0.5199983208
O  O8  1  0.33715000  0.74690000  0.57976000  1.0 -0.5199983208
O  O9  1  0.33715000  0.59025000  0.42024000  1.0 -0.5199983208
O  O10  1  0.66285000  0.40975000  0.42024000  1.0 -0.5199983208
O  O11  1  0.66285000  0.25310000  0.57976000  1.0 -0.5199983208
O  O12  1  0.59025000  0.33715000  0.57976000  1.0 -0.5199983208
O  O13  1  0.59025000  0.25310000  0.42024000  1.0 -0.5199983208
O  O14  1  0.25310000  0.59025000  0.57976000  1.0 -0.5199983208
O  O15  1  0.74690000  0.33715000  0.57976000  1.0 -0.5199983208
O  O16  1  0.25310000  0.59025000  0.42024000  1.0 -0.5199983208
O  O17  1  0.25310000  0.66285000  0.57976000  1.0 -0.5199983208
O  O18  1  0.59025000  0.25310000  0.57976000  1.0 -0.5199983208
O  O19  1  0.59025000  0.33715000  0.42024000  1.0 -0.5199983208
O  O20  1  0.66285000  0.25310000  0.42024000  1.0 -0.5199983208
O  O21  1  0.66285000  0.40975000  0.57976000  1.0 -0.5199983208
O  O22  1  0.33715000  0.59025000  0.57976000  1.0 -0.5199983208
O  O23  1  0.33715000  0.74690000  0.42024000  1.0 -0.5199983208
O  O24  1  0.40975000  0.66285000  0.42024000  1.0 -0.5199983208
O  O25  1  0.40975000  0.74690000  0.57976000  1.0 -0.5199983208
O  O26  1  0.74690000  0.40975000  0.42024000  1.0 -0.5199983208
