# DDEC6 charges by PACMAN v1.1 (https://github.com/mtap-research/PACMAN-charge/)
data_METPAF_ASR_pacman
_symmetry_space_group_name_H-M   'P 1'
_cell_length_a   20.93070000
_cell_length_b   20.93070000
_cell_length_c   20.93070000
_cell_angle_alpha   95.74630000
_cell_angle_beta   95.74630000
_cell_angle_gamma   95.74630000
_symmetry_Int_Tables_number   1
_chemical_formula_structural   Ba4H24C50N3O16
_chemical_formula_sum   'Ba12 H72 C150 N9 O48'
_cell_volume   9021.33050558
_cell_formula_units_Z   3
loop_
 _symmetry_equiv_pos_site_id
 _symmetry_equiv_pos_as_xyz
  1  'x, y, z'
loop_
 _atom_site_type_symbol
 _atom_site_label
 _atom_site_symmetry_multiplicity
 _atom_site_fract_x
 _atom_site_fract_y
 _atom_site_fract_z
 _atom_site_occupancy
 _atom_site_charge
Ba  Ba1  1  0.51553000  0.65854000  0.46997000  1.0 1.2320083438
Ba  Ba2  1  0.32728000  0.72244000  0.43997000  1.0 1.4412842451
Ba  Ba3  1  0.65854000  0.46997000  0.51553000  1.0 1.2320083438
Ba  Ba4  1  0.72244000  0.43997000  0.32728000  1.0 1.4412842451
Ba  Ba5  1  0.46997000  0.51553000  0.65854000  1.0 1.2320083438
Ba  Ba6  1  0.43997000  0.32728000  0.72244000  1.0 1.4412842451
Ba  Ba7  1  0.48447000  0.34146000  0.53003000  1.0 1.2320083438
Ba  Ba8  1  0.67272000  0.27756000  0.56003000  1.0 1.4412842451
Ba  Ba9  1  0.34146000  0.53003000  0.48447000  1.0 1.2320083438
Ba  Ba10  1  0.27756000  0.56003000  0.67272000  1.0 1.4412842451
Ba  Ba11  1  0.53003000  0.48447000  0.34146000  1.0 1.2320083438
Ba  Ba12  1  0.56003000  0.67272000  0.27756000  1.0 1.4412842451
H  H1  1  0.43290000  0.66690000  0.72130000  1.0 0.1043458615
H  H2  1  0.44140000  0.15250000  0.67780000  1.0 0.1113068979
H  H3  1  0.43490000  0.77770000  0.57640000  1.0 0.1177701288
H  H4  1  0.53450000  0.90070000  0.76210000  1.0 0.2952397425
H  H5  1  0.52030000  0.86930000  0.81790000  1.0 0.3059064308
H  H6  1  0.43370000  0.04540000  0.69450000  1.0 0.1177701288
H  H7  1  0.54920000  0.01000000  0.55740000  1.0 0.1113068979
H  H8  1  0.56070000  0.12090000  0.54450000  1.0 0.1177701288
H  H9  1  0.44200000  0.65160000  0.93570000  1.0 0.1113068979
H  H10  1  0.45490000  0.63930000  0.04100000  1.0 0.1113068979
H  H11  1  0.54200000  0.82230000  0.97190000  1.0 0.1113068979
H  H12  1  0.56730000  0.80010000  0.07980000  1.0 0.1254276443
H  H13  1  0.66690000  0.72130000  0.43290000  1.0 0.1043458615
H  H14  1  0.15250000  0.67780000  0.44140000  1.0 0.1113068979
H  H15  1  0.77770000  0.57640000  0.43490000  1.0 0.1177701288
H  H16  1  0.90070000  0.76210000  0.53450000  1.0 0.292810585
H  H17  1  0.86930000  0.81790000  0.52030000  1.0 0.3059064308
H  H18  1  0.04540000  0.69450000  0.43370000  1.0 0.1177701288
H  H19  1  0.01000000  0.55740000  0.54920000  1.0 0.1113068979
H  H20  1  0.12090000  0.54450000  0.56070000  1.0 0.1177701288
H  H21  1  0.65160000  0.93570000  0.44200000  1.0 0.1113068979
H  H22  1  0.63930000  0.04100000  0.45490000  1.0 0.1113068979
H  H23  1  0.82230000  0.97190000  0.54200000  1.0 0.1113068979
H  H24  1  0.80010000  0.07980000  0.56730000  1.0 0.1254276443
H  H25  1  0.72130000  0.43290000  0.66690000  1.0 0.1043458615
H  H26  1  0.67780000  0.44140000  0.15250000  1.0 0.1113068979
H  H27  1  0.57640000  0.43490000  0.77770000  1.0 0.1177701288
H  H28  1  0.76210000  0.53450000  0.90070000  1.0 0.292810585
H  H29  1  0.81790000  0.52030000  0.86930000  1.0 0.3059064308
H  H30  1  0.69450000  0.43370000  0.04540000  1.0 0.1177701288
H  H31  1  0.55740000  0.54920000  0.01000000  1.0 0.1113068979
H  H32  1  0.54450000  0.56070000  0.12090000  1.0 0.1177701288
H  H33  1  0.93570000  0.44200000  0.65160000  1.0 0.1113068979
H  H34  1  0.04100000  0.45490000  0.63930000  1.0 0.1113068979
H  H35  1  0.97190000  0.54200000  0.82230000  1.0 0.1113068979
H  H36  1  0.07980000  0.56730000  0.80010000  1.0 0.1254276443
H  H37  1  0.56710000  0.33310000  0.27870000  1.0 0.1043458615
H  H38  1  0.55860000  0.84750000  0.32220000  1.0 0.1113068979
H  H39  1  0.56510000  0.22230000  0.42360000  1.0 0.1177701288
H  H40  1  0.46550000  0.09930000  0.23790000  1.0 0.292810585
H  H41  1  0.47970000  0.13070000  0.18210000  1.0 0.3059064308
H  H42  1  0.56630000  0.95460000  0.30550000  1.0 0.1177701288
H  H43  1  0.45080000  0.99000000  0.44260000  1.0 0.1113068979
H  H44  1  0.43930000  0.87910000  0.45550000  1.0 0.1177701288
H  H45  1  0.55800000  0.34840000  0.06430000  1.0 0.1113068979
H  H46  1  0.54510000  0.36070000  0.95900000  1.0 0.1113068979
H  H47  1  0.45800000  0.17770000  0.02810000  1.0 0.1113068979
H  H48  1  0.43270000  0.19990000  0.92020000  1.0 0.1254276443
H  H49  1  0.33310000  0.27870000  0.56710000  1.0 0.1043458615
H  H50  1  0.84750000  0.32220000  0.55860000  1.0 0.1113068979
H  H51  1  0.22230000  0.42360000  0.56510000  1.0 0.1177701288
H  H52  1  0.09930000  0.23790000  0.46550000  1.0 0.292810585
H  H53  1  0.13070000  0.18210000  0.47970000  1.0 0.3059064308
H  H54  1  0.95460000  0.30550000  0.56630000  1.0 0.1177701288
H  H55  1  0.99000000  0.44260000  0.45080000  1.0 0.1113068979
H  H56  1  0.87910000  0.45550000  0.43930000  1.0 0.1177701288
H  H57  1  0.34840000  0.06430000  0.55800000  1.0 0.1113068979
H  H58  1  0.36070000  0.95900000  0.54510000  1.0 0.1113068979
H  H59  1  0.17770000  0.02810000  0.45800000  1.0 0.1113068979
H  H60  1  0.19990000  0.92020000  0.43270000  1.0 0.1254276443
H  H61  1  0.27870000  0.56710000  0.33310000  1.0 0.1043458615
H  H62  1  0.32220000  0.55860000  0.84750000  1.0 0.1113068979
H  H63  1  0.42360000  0.56510000  0.22230000  1.0 0.1177701288
H  H64  1  0.23790000  0.46550000  0.09930000  1.0 0.292810585
H  H65  1  0.18210000  0.47970000  0.13070000  1.0 0.3059064308
H  H66  1  0.30550000  0.56630000  0.95460000  1.0 0.1177701288
H  H67  1  0.44260000  0.45080000  0.99000000  1.0 0.1113068979
H  H68  1  0.45550000  0.43930000  0.87910000  1.0 0.1177701288
H  H69  1  0.06430000  0.55800000  0.34840000  1.0 0.1113068979
H  H70  1  0.95900000  0.54510000  0.36070000  1.0 0.1113068979
H  H71  1  0.02810000  0.45800000  0.17770000  1.0 0.1113068979
H  H72  1  0.92020000  0.43270000  0.19990000  1.0 0.1254276443
C  C1  1  0.40550000  0.65830000  0.59260000  1.0 0.5823838968
C  C2  1  0.50490000  0.21600000  0.59730000  1.0 0.5972194929
C  C3  1  0.49780000  0.14420000  0.60480000  1.0 -0.0279588684
C  C4  1  0.47840000  0.75150000  0.81770000  1.0 -0.1171784864
C  C5  1  0.43150000  0.71450000  0.64000000  1.0 -0.0613189207
C  C6  1  0.44260000  0.70710000  0.70710000  1.0 -0.1605271962
C  C7  1  0.46200000  0.12340000  0.65270000  1.0 -0.0998469833
C  C8  1  0.44250000  0.77310000  0.62020000  1.0 -0.1391269705
C  C9  1  0.45770000  0.05960000  0.66260000  1.0 -0.1605271962
C  C10  1  0.47720000  0.82120000  0.73030000  1.0 0.1618985493
C  C11  1  0.46620000  0.83030000  0.66620000  1.0 0.0240198234
C  C12  1  0.52700000  0.03860000  0.58130000  1.0 -0.1695354125
C  C13  1  0.47610000  0.89360000  0.64700000  1.0 -0.0998469833
C  C14  1  0.48740000  0.01650000  0.62680000  1.0 0.1254276443
C  C15  1  0.48310000  0.94680000  0.63750000  1.0 -0.0998469833
C  C16  1  0.48600000  0.74660000  0.87260000  1.0 -0.0998469833
C  C17  1  0.53290000  0.10480000  0.57250000  1.0 -0.0998469833
C  C18  1  0.46680000  0.68360000  0.96440000  1.0 -0.1695354125
C  C19  1  0.46740000  0.75840000  0.75040000  1.0 0.0407838706
C  C20  1  0.51360000  0.71860000  0.06950000  1.0 0.0060702726
C  C21  1  0.47570000  0.67570000  0.02670000  1.0 -0.108968344
C  C22  1  0.49320000  0.73760000  0.94190000  1.0 0.1113068979
C  C23  1  0.52690000  0.78280000  0.98480000  1.0 -0.1605271962
C  C24  1  0.54040000  0.77060000  0.05040000  1.0 -0.0867546764
C  C25  1  0.52090000  0.70640000  0.14400000  1.0 0.5531499047
C  C26  1  0.65830000  0.59260000  0.40550000  1.0 0.5823838968
C  C27  1  0.21600000  0.59730000  0.50490000  1.0 0.5972194929
C  C28  1  0.14420000  0.60480000  0.49780000  1.0 -0.0279588684
C  C29  1  0.75150000  0.81770000  0.47840000  1.0 -0.1171784864
C  C30  1  0.71450000  0.64000000  0.43150000  1.0 -0.0613189207
C  C31  1  0.70710000  0.70710000  0.44260000  1.0 -0.1605271962
C  C32  1  0.12340000  0.65270000  0.46200000  1.0 -0.0998469833
C  C33  1  0.77310000  0.62020000  0.44250000  1.0 -0.1391269705
C  C34  1  0.05960000  0.66260000  0.45770000  1.0 -0.1605271962
C  C35  1  0.82120000  0.73030000  0.47720000  1.0 0.1618985493
C  C36  1  0.83030000  0.66620000  0.46620000  1.0 0.0240198234
C  C37  1  0.03860000  0.58130000  0.52700000  1.0 -0.1695354125
C  C38  1  0.89360000  0.64700000  0.47610000  1.0 -0.0998469833
C  C39  1  0.01650000  0.62680000  0.48740000  1.0 0.1254276443
C  C40  1  0.94680000  0.63750000  0.48310000  1.0 -0.0998469833
C  C41  1  0.74660000  0.87260000  0.48600000  1.0 -0.0998469833
C  C42  1  0.10480000  0.57250000  0.53290000  1.0 -0.0998469833
C  C43  1  0.68360000  0.96440000  0.46680000  1.0 -0.1695354125
C  C44  1  0.75840000  0.75040000  0.46740000  1.0 0.0407838706
C  C45  1  0.71860000  0.06950000  0.51360000  1.0 0.0060702726
C  C46  1  0.67570000  0.02670000  0.47570000  1.0 -0.108968344
C  C47  1  0.73760000  0.94190000  0.49320000  1.0 0.1113068979
C  C48  1  0.78280000  0.98480000  0.52690000  1.0 -0.1605271962
C  C49  1  0.77060000  0.05040000  0.54040000  1.0 -0.0867546764
C  C50  1  0.70640000  0.14400000  0.52090000  1.0 0.5531499047
C  C51  1  0.59260000  0.40550000  0.65830000  1.0 0.5823838968
C  C52  1  0.59730000  0.50490000  0.21600000  1.0 0.5972194929
C  C53  1  0.60480000  0.49780000  0.14420000  1.0 -0.0279588684
C  C54  1  0.81770000  0.47840000  0.75150000  1.0 -0.1171784864
C  C55  1  0.64000000  0.43150000  0.71450000  1.0 -0.0613189207
C  C56  1  0.70710000  0.44260000  0.70710000  1.0 -0.1605271962
C  C57  1  0.65270000  0.46200000  0.12340000  1.0 -0.0998469833
C  C58  1  0.62020000  0.44250000  0.77310000  1.0 -0.1391269705
C  C59  1  0.66260000  0.45770000  0.05960000  1.0 -0.1605271962
C  C60  1  0.73030000  0.47720000  0.82120000  1.0 0.1618985493
C  C61  1  0.66620000  0.46620000  0.83030000  1.0 0.0240198234
C  C62  1  0.58130000  0.52700000  0.03860000  1.0 -0.1695354125
C  C63  1  0.64700000  0.47610000  0.89360000  1.0 -0.0998469833
C  C64  1  0.62680000  0.48740000  0.01650000  1.0 0.1254276443
C  C65  1  0.63750000  0.48310000  0.94680000  1.0 -0.0998469833
C  C66  1  0.87260000  0.48600000  0.74660000  1.0 -0.0998469833
C  C67  1  0.57250000  0.53290000  0.10480000  1.0 -0.0998469833
C  C68  1  0.96440000  0.46680000  0.68360000  1.0 -0.1695354125
C  C69  1  0.75040000  0.46740000  0.75840000  1.0 0.0407838706
C  C70  1  0.06950000  0.51360000  0.71860000  1.0 0.0060702726
C  C71  1  0.02670000  0.47570000  0.67570000  1.0 -0.108968344
C  C72  1  0.94190000  0.49320000  0.73760000  1.0 0.1113068979
C  C73  1  0.98480000  0.52690000  0.78280000  1.0 -0.1605271962
C  C74  1  0.05040000  0.54040000  0.77060000  1.0 -0.0867546764
C  C75  1  0.14400000  0.52090000  0.70640000  1.0 0.5531499047
C  C76  1  0.59450000  0.34170000  0.40740000  1.0 0.5823838968
C  C77  1  0.49510000  0.78400000  0.40270000  1.0 0.5972194929
C  C78  1  0.50220000  0.85580000  0.39520000  1.0 -0.0279588684
C  C79  1  0.52160000  0.24850000  0.18230000  1.0 -0.1171784864
C  C80  1  0.56850000  0.28550000  0.36000000  1.0 -0.0613189207
C  C81  1  0.55740000  0.29290000  0.29290000  1.0 -0.1605271962
C  C82  1  0.53800000  0.87660000  0.34730000  1.0 -0.0998469833
C  C83  1  0.55750000  0.22690000  0.37980000  1.0 -0.1391269705
C  C84  1  0.54230000  0.94040000  0.33740000  1.0 -0.1605271962
C  C85  1  0.52280000  0.17880000  0.26970000  1.0 0.1618985493
C  C86  1  0.53380000  0.16970000  0.33380000  1.0 0.0240198234
C  C87  1  0.47300000  0.96140000  0.41870000  1.0 -0.1695354125
C  C88  1  0.52390000  0.10640000  0.35300000  1.0 -0.0998469833
C  C89  1  0.51260000  0.98350000  0.37320000  1.0 0.1254276443
C  C90  1  0.51690000  0.05320000  0.36250000  1.0 -0.0998469833
C  C91  1  0.51400000  0.25340000  0.12740000  1.0 -0.0998469833
C  C92  1  0.46710000  0.89520000  0.42750000  1.0 -0.0998469833
C  C93  1  0.53320000  0.31640000  0.03560000  1.0 -0.1695354125
C  C94  1  0.53260000  0.24160000  0.24960000  1.0 0.0407838706
C  C95  1  0.48640000  0.28140000  0.93050000  1.0 0.0060702726
C  C96  1  0.52430000  0.32430000  0.97330000  1.0 -0.108968344
C  C97  1  0.50680000  0.26240000  0.05810000  1.0 0.1113068979
C  C98  1  0.47310000  0.21720000  0.01520000  1.0 -0.1605271962
C  C99  1  0.45960000  0.22940000  0.94960000  1.0 -0.0867546764
C  C100  1  0.47910000  0.29360000  0.85600000  1.0 0.5531499047
C  C101  1  0.34170000  0.40740000  0.59450000  1.0 0.5823838968
C  C102  1  0.78400000  0.40270000  0.49510000  1.0 0.5972194929
C  C103  1  0.85580000  0.39520000  0.50220000  1.0 -0.0279588684
C  C104  1  0.24850000  0.18230000  0.52160000  1.0 -0.1171784864
C  C105  1  0.28550000  0.36000000  0.56850000  1.0 -0.0613189207
C  C106  1  0.29290000  0.29290000  0.55740000  1.0 -0.1605271962
C  C107  1  0.87660000  0.34730000  0.53800000  1.0 -0.0998469833
C  C108  1  0.22690000  0.37980000  0.55750000  1.0 -0.1391269705
C  C109  1  0.94040000  0.33740000  0.54230000  1.0 -0.1605271962
C  C110  1  0.17880000  0.26970000  0.52280000  1.0 0.1618985493
C  C111  1  0.16970000  0.33380000  0.53380000  1.0 0.0240198234
C  C112  1  0.96140000  0.41870000  0.47300000  1.0 -0.1695354125
C  C113  1  0.10640000  0.35300000  0.52390000  1.0 -0.0998469833
C  C114  1  0.98350000  0.37320000  0.51260000  1.0 0.1254276443
C  C115  1  0.05320000  0.36250000  0.51690000  1.0 -0.0998469833
C  C116  1  0.25340000  0.12740000  0.51400000  1.0 -0.0998469833
C  C117  1  0.89520000  0.42750000  0.46710000  1.0 -0.0998469833
C  C118  1  0.31640000  0.03560000  0.53320000  1.0 -0.1695354125
C  C119  1  0.24160000  0.24960000  0.53260000  1.0 0.0407838706
C  C120  1  0.28140000  0.93050000  0.48640000  1.0 0.0060702726
C  C121  1  0.32430000  0.97330000  0.52430000  1.0 -0.108968344
C  C122  1  0.26240000  0.05810000  0.50680000  1.0 0.1113068979
C  C123  1  0.21720000  0.01520000  0.47310000  1.0 -0.1605271962
C  C124  1  0.22940000  0.94960000  0.45960000  1.0 -0.0867546764
C  C125  1  0.29360000  0.85600000  0.47910000  1.0 0.5531499047
C  C126  1  0.40740000  0.59450000  0.34170000  1.0 0.5823838968
C  C127  1  0.40270000  0.49510000  0.78400000  1.0 0.5972194929
C  C128  1  0.39520000  0.50220000  0.85580000  1.0 -0.0279588684
C  C129  1  0.18230000  0.52160000  0.24850000  1.0 -0.1171784864
C  C130  1  0.36000000  0.56850000  0.28550000  1.0 -0.0613189207
C  C131  1  0.29290000  0.55740000  0.29290000  1.0 -0.1605271962
C  C132  1  0.34730000  0.53800000  0.87660000  1.0 -0.0998469833
C  C133  1  0.37980000  0.55750000  0.22690000  1.0 -0.1391269705
C  C134  1  0.33740000  0.54230000  0.94040000  1.0 -0.1605271962
C  C135  1  0.26970000  0.52280000  0.17880000  1.0 0.1618985493
C  C136  1  0.33380000  0.53380000  0.16970000  1.0 0.0240198234
C  C137  1  0.41870000  0.47300000  0.96140000  1.0 -0.1695354125
C  C138  1  0.35300000  0.52390000  0.10640000  1.0 -0.0998469833
C  C139  1  0.37320000  0.51260000  0.98350000  1.0 0.1254276443
C  C140  1  0.36250000  0.51690000  0.05320000  1.0 -0.0998469833
C  C141  1  0.12740000  0.51400000  0.25340000  1.0 -0.0998469833
C  C142  1  0.42750000  0.46710000  0.89520000  1.0 -0.0998469833
C  C143  1  0.03560000  0.53320000  0.31640000  1.0 -0.1695354125
C  C144  1  0.24960000  0.53260000  0.24160000  1.0 0.0407838706
C  C145  1  0.93050000  0.48640000  0.28140000  1.0 0.0060702726
C  C146  1  0.97330000  0.52430000  0.32430000  1.0 -0.108968344
C  C147  1  0.05810000  0.50680000  0.26240000  1.0 0.1113068979
C  C148  1  0.01520000  0.47310000  0.21720000  1.0 -0.1605271962
C  C149  1  0.94960000  0.45960000  0.22940000  1.0 -0.0867546764
C  C150  1  0.85600000  0.47910000  0.29360000  1.0 0.5531499047
N  N1  1  0.50120000  0.87580000  0.77590000  1.0 -0.568901076
N  N2  1  0.87580000  0.77590000  0.50120000  1.0 -0.568901076
N  N3  1  0.77590000  0.50120000  0.87580000  1.0 -0.568901076
N  N4  1  0.49880000  0.12420000  0.22410000  1.0 -0.568901076
N  N5  1  0.12420000  0.22410000  0.49880000  1.0 -0.568901076
N  N6  1  0.22410000  0.49880000  0.12420000  1.0 -0.568901076
N  N7  1  0.59003000  0.59003000  0.59003000  1.0 0.6441676873
N  N8  1  0.40997000  0.40997000  0.40997000  1.0 0.6441676873
N  N9  1  0.50000000  0.50000000  0.50000000  1.0 0.4116999764
O  O1  1  0.40252000  0.66410000  0.53338000  1.0 -0.6504405348
O  O2  1  0.54770000  0.23690000  0.56390000  1.0 -0.6504405348
O  O3  1  0.49040000  0.65940000  0.16000000  1.0 -0.5902120413
O  O4  1  0.55610000  0.74960000  0.17990000  1.0 -0.6352282505
O  O5  1  0.46650000  0.25090000  0.62120000  1.0 -0.6504405348
O  O6  1  0.62300000  0.60480000  0.54530000  1.0 -0.479551677
O  O7  1  0.38830000  0.60390000  0.61320000  1.0 -0.6862085205
O  O8  1  0.53890000  0.46080000  0.47790000  1.0 -0.1253138896
O  O9  1  0.66410000  0.53338000  0.40252000  1.0 -0.6504405348
O  O10  1  0.23690000  0.56390000  0.54770000  1.0 -0.6504405348
O  O11  1  0.65940000  0.16000000  0.49040000  1.0 -0.5902120413
O  O12  1  0.74960000  0.17990000  0.55610000  1.0 -0.6346317869
O  O13  1  0.25090000  0.62120000  0.46650000  1.0 -0.6504405348
O  O14  1  0.60480000  0.54530000  0.62300000  1.0 -0.479551677
O  O15  1  0.60390000  0.61320000  0.38830000  1.0 -0.6862085205
O  O16  1  0.46080000  0.47790000  0.53890000  1.0 -0.1253138896
O  O17  1  0.53338000  0.40252000  0.66410000  1.0 -0.6504405348
O  O18  1  0.56390000  0.54770000  0.23690000  1.0 -0.6504405348
O  O19  1  0.16000000  0.49040000  0.65940000  1.0 -0.5902120413
O  O20  1  0.17990000  0.55610000  0.74960000  1.0 -0.6346317869
O  O21  1  0.62120000  0.46650000  0.25090000  1.0 -0.6504405348
O  O22  1  0.54530000  0.62300000  0.60480000  1.0 -0.479551677
O  O23  1  0.61320000  0.38830000  0.60390000  1.0 -0.6862085205
O  O24  1  0.47790000  0.53890000  0.46080000  1.0 -0.1253138896
O  O25  1  0.59748000  0.33590000  0.46662000  1.0 -0.6504405348
O  O26  1  0.45230000  0.76310000  0.43610000  1.0 -0.6504405348
O  O27  1  0.50960000  0.34060000  0.84000000  1.0 -0.5902120413
O  O28  1  0.44390000  0.25040000  0.82010000  1.0 -0.6352282505
O  O29  1  0.53350000  0.74910000  0.37880000  1.0 -0.6504405348
O  O30  1  0.37700000  0.39520000  0.45470000  1.0 -0.479551677
O  O31  1  0.61170000  0.39610000  0.38680000  1.0 -0.6862085205
O  O32  1  0.46110000  0.53920000  0.52210000  1.0 -0.1253138896
O  O33  1  0.33590000  0.46662000  0.59748000  1.0 -0.6504405348
O  O34  1  0.76310000  0.43610000  0.45230000  1.0 -0.6504405348
O  O35  1  0.34060000  0.84000000  0.50960000  1.0 -0.5902120413
O  O36  1  0.25040000  0.82010000  0.44390000  1.0 -0.6346317869
O  O37  1  0.74910000  0.37880000  0.53350000  1.0 -0.6504405348
O  O38  1  0.39520000  0.45470000  0.37700000  1.0 -0.479551677
O  O39  1  0.39610000  0.38680000  0.61170000  1.0 -0.6862085205
O  O40  1  0.53920000  0.52210000  0.46110000  1.0 -0.1253138896
O  O41  1  0.46662000  0.59748000  0.33590000  1.0 -0.6504405348
O  O42  1  0.43610000  0.45230000  0.76310000  1.0 -0.6504405348
O  O43  1  0.84000000  0.50960000  0.34060000  1.0 -0.5902120413
O  O44  1  0.82010000  0.44390000  0.25040000  1.0 -0.6352282505
O  O45  1  0.37880000  0.53350000  0.74910000  1.0 -0.6504405348
O  O46  1  0.45470000  0.37700000  0.39520000  1.0 -0.479551677
O  O47  1  0.38680000  0.61170000  0.39610000  1.0 -0.6862085205
O  O48  1  0.52210000  0.46110000  0.53920000  1.0 -0.1253138896
