# DDEC6 charges by PACMAN v1.1 (https://github.com/mtap-research/PACMAN-charge/)
data_MEWZAT_ASR_pacman
_symmetry_space_group_name_H-M   'P 1'
_cell_length_a   22.08120000
_cell_length_b   22.08120000
_cell_length_c   25.27840000
_cell_angle_alpha   90.00000000
_cell_angle_beta   90.00000000
_cell_angle_gamma   120.00000000
_symmetry_Int_Tables_number   1
_chemical_formula_structural   Eu9C51O22
_chemical_formula_sum   'Eu36 C204 O88'
_cell_volume   10673.95963670
_cell_formula_units_Z   4
loop_
 _symmetry_equiv_pos_site_id
 _symmetry_equiv_pos_as_xyz
  1  'x, y, z'
loop_
 _atom_site_type_symbol
 _atom_site_label
 _atom_site_symmetry_multiplicity
 _atom_site_fract_x
 _atom_site_fract_y
 _atom_site_fract_z
 _atom_site_occupancy
 _atom_site_charge
Eu  Eu1  1  0.10603000  0.89397000  0.25000000  1.0 1.2594042688
Eu  Eu2  1  0.10603000  0.21206000  0.25000000  1.0 1.2525307406
Eu  Eu3  1  0.78794000  0.89397000  0.25000000  1.0 1.2594042688
Eu  Eu4  1  0.89397000  0.10603000  0.75000000  1.0 1.2662104834
Eu  Eu5  1  0.89397000  0.78794000  0.75000000  1.0 1.2594042688
Eu  Eu6  1  0.21206000  0.10603000  0.75000000  1.0 1.2662104834
Eu  Eu7  1  0.11823000  0.05911000  0.32809000  1.0 0.813251542
Eu  Eu8  1  0.94088000  0.05911000  0.32809000  1.0 0.8200520743
Eu  Eu9  1  0.94088000  0.88177000  0.32809000  1.0 0.82895373
Eu  Eu10  1  0.88177000  0.94088000  0.82809000  1.0 0.82895373
Eu  Eu11  1  0.05911000  0.94088000  0.82809000  1.0 0.8200520743
Eu  Eu12  1  0.05911000  0.11823000  0.82809000  1.0 0.82895373
Eu  Eu13  1  0.05911000  0.11823000  0.67191000  1.0 0.82895373
Eu  Eu14  1  0.05911000  0.94088000  0.67191000  1.0 0.8200520743
Eu  Eu15  1  0.88177000  0.94088000  0.67191000  1.0 0.82895373
Eu  Eu16  1  0.94088000  0.88177000  0.17191000  1.0 0.82895373
Eu  Eu17  1  0.94088000  0.05911000  0.17191000  1.0 0.8200520743
Eu  Eu18  1  0.11823000  0.05911000  0.17191000  1.0 0.813251542
Eu  Eu19  1  0.21190000  0.10595000  0.25000000  1.0 1.0612803766
Eu  Eu20  1  0.89405000  0.10595000  0.25000000  1.0 1.0662548412
Eu  Eu21  1  0.89405000  0.78810000  0.25000000  1.0 1.0487753619
Eu  Eu22  1  0.78810000  0.89405000  0.75000000  1.0 1.0662548412
Eu  Eu23  1  0.10595000  0.89405000  0.75000000  1.0 1.0612803766
Eu  Eu24  1  0.10595000  0.21190000  0.75000000  1.0 1.0612803766
Eu  Eu25  1  0.06510000  0.93490000  0.32430000  1.0 0.0930397504
Eu  Eu26  1  0.06510000  0.13020000  0.32430000  1.0 0.0976062834
Eu  Eu27  1  0.86980000  0.93490000  0.32430000  1.0 0.0930397504
Eu  Eu28  1  0.93490000  0.06510000  0.82430000  1.0 0.0976062834
Eu  Eu29  1  0.93490000  0.86980000  0.82430000  1.0 0.0976062834
Eu  Eu30  1  0.13020000  0.06510000  0.82430000  1.0 0.0930397504
Eu  Eu31  1  0.93490000  0.06510000  0.67570000  1.0 0.0976062834
Eu  Eu32  1  0.13020000  0.06510000  0.67570000  1.0 0.0930397504
Eu  Eu33  1  0.93490000  0.86980000  0.67570000  1.0 0.0976062834
Eu  Eu34  1  0.06510000  0.93490000  0.17570000  1.0 0.0930397504
Eu  Eu35  1  0.86980000  0.93490000  0.17570000  1.0 0.0930397504
Eu  Eu36  1  0.06510000  0.13020000  0.17570000  1.0 0.0976062834
C  C1  1  0.43970000  0.99410000  0.47210000  1.0 0.0298466209
C  C2  1  0.00590000  0.44560000  0.47210000  1.0 0.0298466209
C  C3  1  0.55440000  0.56030000  0.47210000  1.0 0.0298466209
C  C4  1  0.56030000  0.00590000  0.97210000  1.0 0.0298466209
C  C5  1  0.99410000  0.55440000  0.97210000  1.0 0.0298466209
C  C6  1  0.44560000  0.43970000  0.97210000  1.0 0.0298466209
C  C7  1  0.99410000  0.43970000  0.52790000  1.0 0.0298466209
C  C8  1  0.44560000  0.00590000  0.52790000  1.0 0.0298466209
C  C9  1  0.56030000  0.55440000  0.52790000  1.0 0.0298466209
C  C10  1  0.00590000  0.56030000  0.02790000  1.0 0.0298466209
C  C11  1  0.55440000  0.99410000  0.02790000  1.0 0.0298466209
C  C12  1  0.43970000  0.44560000  0.02790000  1.0 0.0298466209
C  C13  1  0.56030000  0.00590000  0.52790000  1.0 0.0298466209
C  C14  1  0.99410000  0.55440000  0.52790000  1.0 0.0298466209
C  C15  1  0.44560000  0.43970000  0.52790000  1.0 0.0298466209
C  C16  1  0.43970000  0.99410000  0.02790000  1.0 0.0298466209
C  C17  1  0.00590000  0.44560000  0.02790000  1.0 0.0298466209
C  C18  1  0.55440000  0.56030000  0.02790000  1.0 0.0298466209
C  C19  1  0.00590000  0.56030000  0.47210000  1.0 0.0298466209
C  C20  1  0.55440000  0.99410000  0.47210000  1.0 0.0298466209
C  C21  1  0.43970000  0.44560000  0.47210000  1.0 0.0298466209
C  C22  1  0.99410000  0.43970000  0.97210000  1.0 0.0298466209
C  C23  1  0.44560000  0.00590000  0.97210000  1.0 0.0298466209
C  C24  1  0.56030000  0.55440000  0.97210000  1.0 0.0298466209
C  C25  1  0.49350000  0.98700000  0.44690000  1.0 -0.0786744263
C  C26  1  0.01300000  0.50650000  0.44690000  1.0 -0.0696978282
C  C27  1  0.49350000  0.50650000  0.44690000  1.0 -0.0696978282
C  C28  1  0.50650000  0.01300000  0.94690000  1.0 -0.0696978282
C  C29  1  0.98700000  0.49350000  0.94690000  1.0 -0.0786744263
C  C30  1  0.50650000  0.49350000  0.94690000  1.0 -0.0696978282
C  C31  1  0.98700000  0.49350000  0.55310000  1.0 -0.0786744263
C  C32  1  0.50650000  0.01300000  0.55310000  1.0 -0.0696978282
C  C33  1  0.50650000  0.49350000  0.55310000  1.0 -0.0696978282
C  C34  1  0.01300000  0.50650000  0.05310000  1.0 -0.0696978282
C  C35  1  0.49350000  0.98700000  0.05310000  1.0 -0.0786744263
C  C36  1  0.49350000  0.50650000  0.05310000  1.0 -0.0696978282
C  C37  1  0.38570000  0.99510000  0.43990000  1.0 0.0669237894
C  C38  1  0.00490000  0.39060000  0.43990000  1.0 0.0669237894
C  C39  1  0.60940000  0.61430000  0.43990000  1.0 0.0572066553
C  C40  1  0.61430000  0.00490000  0.93990000  1.0 0.0669237894
C  C41  1  0.99510000  0.60940000  0.93990000  1.0 0.0669237894
C  C42  1  0.39060000  0.38570000  0.93990000  1.0 0.0669237894
C  C43  1  0.99510000  0.38570000  0.56010000  1.0 0.0669237894
C  C44  1  0.39060000  0.00490000  0.56010000  1.0 0.0669237894
C  C45  1  0.61430000  0.60940000  0.56010000  1.0 0.0669237894
C  C46  1  0.00490000  0.61430000  0.06010000  1.0 0.0669237894
C  C47  1  0.60940000  0.99510000  0.06010000  1.0 0.0669237894
C  C48  1  0.38570000  0.39060000  0.06010000  1.0 0.0669237894
C  C49  1  0.61430000  0.00490000  0.56010000  1.0 0.0669237894
C  C50  1  0.99510000  0.60940000  0.56010000  1.0 0.0669237894
C  C51  1  0.39060000  0.38570000  0.56010000  1.0 0.0669237894
C  C52  1  0.38570000  0.99510000  0.06010000  1.0 0.0669237894
C  C53  1  0.00490000  0.39060000  0.06010000  1.0 0.0669237894
C  C54  1  0.60940000  0.61430000  0.06010000  1.0 0.0572066553
C  C55  1  0.00490000  0.61430000  0.43990000  1.0 0.0669237894
C  C56  1  0.60940000  0.99510000  0.43990000  1.0 0.0669237894
C  C57  1  0.38570000  0.39060000  0.43990000  1.0 0.0669237894
C  C58  1  0.99510000  0.38570000  0.93990000  1.0 0.0669237894
C  C59  1  0.39060000  0.00490000  0.93990000  1.0 0.0669237894
C  C60  1  0.61430000  0.60940000  0.93990000  1.0 0.0669237894
C  C61  1  0.37180000  0.04990000  0.44300000  1.0 -0.0696978282
C  C62  1  0.95010000  0.32190000  0.44300000  1.0 -0.0696978282
C  C63  1  0.67810000  0.62820000  0.44300000  1.0 -0.0696978282
C  C64  1  0.62820000  0.95010000  0.94300000  1.0 -0.0696978282
C  C65  1  0.04990000  0.67810000  0.94300000  1.0 -0.0696978282
C  C66  1  0.32190000  0.37180000  0.94300000  1.0 -0.0696978282
C  C67  1  0.04990000  0.37180000  0.55700000  1.0 -0.0696978282
C  C68  1  0.32190000  0.95010000  0.55700000  1.0 -0.0696978282
C  C69  1  0.62820000  0.67810000  0.55700000  1.0 -0.0696978282
C  C70  1  0.95010000  0.62820000  0.05700000  1.0 -0.0696978282
C  C71  1  0.67810000  0.04990000  0.05700000  1.0 -0.0696978282
C  C72  1  0.37180000  0.32190000  0.05700000  1.0 -0.0696978282
C  C73  1  0.62820000  0.95010000  0.55700000  1.0 -0.0696978282
C  C74  1  0.04990000  0.67810000  0.55700000  1.0 -0.0696978282
C  C75  1  0.32190000  0.37180000  0.55700000  1.0 -0.0696978282
C  C76  1  0.37180000  0.04990000  0.05700000  1.0 -0.0696978282
C  C77  1  0.95010000  0.32190000  0.05700000  1.0 -0.0696978282
C  C78  1  0.67810000  0.62820000  0.05700000  1.0 -0.0696978282
C  C79  1  0.95010000  0.62820000  0.44300000  1.0 -0.0696978282
C  C80  1  0.67810000  0.04990000  0.44300000  1.0 -0.0696978282
C  C81  1  0.37180000  0.32190000  0.44300000  1.0 -0.0696978282
C  C82  1  0.04990000  0.37180000  0.94300000  1.0 -0.0696978282
C  C83  1  0.32190000  0.95010000  0.94300000  1.0 -0.0696978282
C  C84  1  0.62820000  0.67810000  0.94300000  1.0 -0.0696978282
C  C85  1  0.31900000  0.04870000  0.41230000  1.0 0.0443282357
C  C86  1  0.95130000  0.27030000  0.41230000  1.0 0.0491633955
C  C87  1  0.72970000  0.68100000  0.41230000  1.0 0.0443282357
C  C88  1  0.68100000  0.95130000  0.91230000  1.0 0.0491633955
C  C89  1  0.04870000  0.72970000  0.91230000  1.0 0.0443282357
C  C90  1  0.27030000  0.31900000  0.91230000  1.0 0.0491633955
C  C91  1  0.04870000  0.31900000  0.58770000  1.0 0.0443282357
C  C92  1  0.27030000  0.95130000  0.58770000  1.0 0.0491633955
C  C93  1  0.68100000  0.72970000  0.58770000  1.0 0.0443282357
C  C94  1  0.95130000  0.68100000  0.08770000  1.0 0.0491633955
C  C95  1  0.72970000  0.04870000  0.08770000  1.0 0.0443282357
C  C96  1  0.31900000  0.27030000  0.08770000  1.0 0.0491633955
C  C97  1  0.68100000  0.95130000  0.58770000  1.0 0.0491633955
C  C98  1  0.04870000  0.72970000  0.58770000  1.0 0.0443282357
C  C99  1  0.27030000  0.31900000  0.58770000  1.0 0.0491633955
C  C100  1  0.31900000  0.04870000  0.08770000  1.0 0.0443282357
C  C101  1  0.95130000  0.27030000  0.08770000  1.0 0.0491633955
C  C102  1  0.72970000  0.68100000  0.08770000  1.0 0.0443282357
C  C103  1  0.95130000  0.68100000  0.41230000  1.0 0.0491633955
C  C104  1  0.72970000  0.04870000  0.41230000  1.0 0.0443282357
C  C105  1  0.31900000  0.27030000  0.41230000  1.0 0.0491633955
C  C106  1  0.04870000  0.31900000  0.91230000  1.0 0.0443282357
C  C107  1  0.27030000  0.95130000  0.91230000  1.0 0.0491633955
C  C108  1  0.68100000  0.72970000  0.91230000  1.0 0.0443282357
C  C109  1  0.28010000  0.99280000  0.37850000  1.0 -0.1330233694
C  C110  1  0.00720000  0.28730000  0.37850000  1.0 -0.1330233694
C  C111  1  0.71270000  0.71990000  0.37850000  1.0 -0.1371436684
C  C112  1  0.71990000  0.00720000  0.87850000  1.0 -0.1371436684
C  C113  1  0.99280000  0.71270000  0.87850000  1.0 -0.1330233694
C  C114  1  0.28730000  0.28010000  0.87850000  1.0 -0.1371436684
C  C115  1  0.99280000  0.28010000  0.62150000  1.0 -0.1330233694
C  C116  1  0.28730000  0.00720000  0.62150000  1.0 -0.1371436684
C  C117  1  0.71990000  0.71270000  0.62150000  1.0 -0.1330233694
C  C118  1  0.00720000  0.71990000  0.12150000  1.0 -0.1371436684
C  C119  1  0.71270000  0.99280000  0.12150000  1.0 -0.1330233694
C  C120  1  0.28010000  0.28730000  0.12150000  1.0 -0.1371436684
C  C121  1  0.71990000  0.00720000  0.62150000  1.0 -0.1371436684
C  C122  1  0.99280000  0.71270000  0.62150000  1.0 -0.1330233694
C  C123  1  0.28730000  0.28010000  0.62150000  1.0 -0.1371436684
C  C124  1  0.28010000  0.99280000  0.12150000  1.0 -0.1330233694
C  C125  1  0.00720000  0.28730000  0.12150000  1.0 -0.1330233694
C  C126  1  0.71270000  0.71990000  0.12150000  1.0 -0.1371436684
C  C127  1  0.00720000  0.71990000  0.37850000  1.0 -0.1371436684
C  C128  1  0.71270000  0.99280000  0.37850000  1.0 -0.1330233694
C  C129  1  0.28010000  0.28730000  0.37850000  1.0 -0.1371436684
C  C130  1  0.99280000  0.28010000  0.87850000  1.0 -0.1330233694
C  C131  1  0.28730000  0.00720000  0.87850000  1.0 -0.1371436684
C  C132  1  0.71990000  0.71270000  0.87850000  1.0 -0.1330233694
C  C133  1  0.29400000  0.93810000  0.37540000  1.0 0.0491633955
C  C134  1  0.06190000  0.35590000  0.37540000  1.0 0.0572066553
C  C135  1  0.64410000  0.70600000  0.37540000  1.0 0.0572066553
C  C136  1  0.70600000  0.06190000  0.87540000  1.0 0.0572066553
C  C137  1  0.93810000  0.64410000  0.87540000  1.0 0.0491633955
C  C138  1  0.35590000  0.29400000  0.87540000  1.0 0.0572066553
C  C139  1  0.93810000  0.29400000  0.62460000  1.0 0.0572066553
C  C140  1  0.35590000  0.06190000  0.62460000  1.0 0.0572066553
C  C141  1  0.70600000  0.64410000  0.62460000  1.0 0.0572066553
C  C142  1  0.06190000  0.70600000  0.12460000  1.0 0.0572066553
C  C143  1  0.64410000  0.93810000  0.12460000  1.0 0.0491633955
C  C144  1  0.29400000  0.35590000  0.12460000  1.0 0.0572066553
C  C145  1  0.70600000  0.06190000  0.62460000  1.0 0.0572066553
C  C146  1  0.93810000  0.64410000  0.62460000  1.0 0.0491633955
C  C147  1  0.35590000  0.29400000  0.62460000  1.0 0.0572066553
C  C148  1  0.29400000  0.93810000  0.12460000  1.0 0.0491633955
C  C149  1  0.06190000  0.35590000  0.12460000  1.0 0.0572066553
C  C150  1  0.64410000  0.70600000  0.12460000  1.0 0.0572066553
C  C151  1  0.06190000  0.70600000  0.37540000  1.0 0.0572066553
C  C152  1  0.64410000  0.93810000  0.37540000  1.0 0.0491633955
C  C153  1  0.29400000  0.35590000  0.37540000  1.0 0.0572066553
C  C154  1  0.93810000  0.29400000  0.87540000  1.0 0.0572066553
C  C155  1  0.35590000  0.06190000  0.87540000  1.0 0.0572066553
C  C156  1  0.70600000  0.64410000  0.87540000  1.0 0.0572066553
C  C157  1  0.34680000  0.93920000  0.40610000  1.0 -0.029044481
C  C158  1  0.06080000  0.40760000  0.40610000  1.0 -0.029044481
C  C159  1  0.59240000  0.65320000  0.40610000  1.0 -0.029044481
C  C160  1  0.65320000  0.06080000  0.90610000  1.0 -0.029044481
C  C161  1  0.93920000  0.59240000  0.90610000  1.0 -0.029044481
C  C162  1  0.40760000  0.34680000  0.90610000  1.0 -0.029044481
C  C163  1  0.93920000  0.34680000  0.59390000  1.0 -0.029044481
C  C164  1  0.40760000  0.06080000  0.59390000  1.0 -0.029044481
C  C165  1  0.65320000  0.59240000  0.59390000  1.0 -0.029044481
C  C166  1  0.06080000  0.65320000  0.09390000  1.0 -0.029044481
C  C167  1  0.59240000  0.93920000  0.09390000  1.0 -0.029044481
C  C168  1  0.34680000  0.40760000  0.09390000  1.0 -0.029044481
C  C169  1  0.65320000  0.06080000  0.59390000  1.0 -0.029044481
C  C170  1  0.93920000  0.59240000  0.59390000  1.0 -0.029044481
C  C171  1  0.40760000  0.34680000  0.59390000  1.0 -0.029044481
C  C172  1  0.34680000  0.93920000  0.09390000  1.0 -0.029044481
C  C173  1  0.06080000  0.40760000  0.09390000  1.0 -0.029044481
C  C174  1  0.59240000  0.65320000  0.09390000  1.0 -0.029044481
C  C175  1  0.06080000  0.65320000  0.40610000  1.0 -0.029044481
C  C176  1  0.59240000  0.93920000  0.40610000  1.0 -0.029044481
C  C177  1  0.34680000  0.40760000  0.40610000  1.0 -0.029044481
C  C178  1  0.93920000  0.34680000  0.90610000  1.0 -0.029044481
C  C179  1  0.40760000  0.06080000  0.90610000  1.0 -0.029044481
C  C180  1  0.65320000  0.59240000  0.90610000  1.0 -0.029044481
C  C181  1  0.22510000  0.99150000  0.34570000  1.0 0.6923179645
C  C182  1  0.00850000  0.23360000  0.34570000  1.0 0.6923179645
C  C183  1  0.76640000  0.77490000  0.34570000  1.0 0.6923179645
C  C184  1  0.77490000  0.00850000  0.84570000  1.0 0.6923179645
C  C185  1  0.99150000  0.76640000  0.84570000  1.0 0.6923179645
C  C186  1  0.23360000  0.22510000  0.84570000  1.0 0.6923179645
C  C187  1  0.99150000  0.22510000  0.65430000  1.0 0.6923179645
C  C188  1  0.23360000  0.00850000  0.65430000  1.0 0.6923179645
C  C189  1  0.77490000  0.76640000  0.65430000  1.0 0.6923179645
C  C190  1  0.00850000  0.77490000  0.15430000  1.0 0.6923179645
C  C191  1  0.76640000  0.99150000  0.15430000  1.0 0.6923179645
C  C192  1  0.22510000  0.23360000  0.15430000  1.0 0.6923179645
C  C193  1  0.77490000  0.00850000  0.65430000  1.0 0.6923179645
C  C194  1  0.99150000  0.76640000  0.65430000  1.0 0.6923179645
C  C195  1  0.23360000  0.22510000  0.65430000  1.0 0.6923179645
C  C196  1  0.22510000  0.99150000  0.15430000  1.0 0.6923179645
C  C197  1  0.00850000  0.23360000  0.15430000  1.0 0.6923179645
C  C198  1  0.76640000  0.77490000  0.15430000  1.0 0.6923179645
C  C199  1  0.00850000  0.77490000  0.34570000  1.0 0.6923179645
C  C200  1  0.76640000  0.99150000  0.34570000  1.0 0.6923179645
C  C201  1  0.22510000  0.23360000  0.34570000  1.0 0.6923179645
C  C202  1  0.99150000  0.22510000  0.84570000  1.0 0.6923179645
C  C203  1  0.23360000  0.00850000  0.84570000  1.0 0.6923179645
C  C204  1  0.77490000  0.76640000  0.84570000  1.0 0.6923179645
O  O1  1  0.05990000  0.94010000  0.33680000  1.0 -0.6188529843
O  O2  1  0.05990000  0.11980000  0.33680000  1.0 -0.6188529843
O  O3  1  0.88020000  0.94010000  0.33680000  1.0 -0.6188529843
O  O4  1  0.94010000  0.05990000  0.83680000  1.0 -0.6188529843
O  O5  1  0.94010000  0.88020000  0.83680000  1.0 -0.6188529843
O  O6  1  0.11980000  0.05990000  0.83680000  1.0 -0.6188529843
O  O7  1  0.94010000  0.05990000  0.66320000  1.0 -0.6188529843
O  O8  1  0.11980000  0.05990000  0.66320000  1.0 -0.6188529843
O  O9  1  0.94010000  0.88020000  0.66320000  1.0 -0.6188529843
O  O10  1  0.05990000  0.94010000  0.16320000  1.0 -0.6188529843
O  O11  1  0.88020000  0.94010000  0.16320000  1.0 -0.6188529843
O  O12  1  0.05990000  0.11980000  0.16320000  1.0 -0.6188529843
O  O13  1  0.00000000  0.00000000  0.30570000  1.0 -0.5470107626
O  O14  1  0.00000000  0.00000000  0.80570000  1.0 -0.5470107626
O  O15  1  0.00000000  0.00000000  0.69430000  1.0 -0.5470107626
O  O16  1  0.00000000  0.00000000  0.19430000  1.0 -0.5470107626
O  O17  1  0.13120000  0.00910000  0.25000000  1.0 -0.9899158608
O  O18  1  0.99090000  0.12210000  0.25000000  1.0 -0.9899158608
O  O19  1  0.87790000  0.86880000  0.25000000  1.0 -0.9899158608
O  O20  1  0.86880000  0.99090000  0.75000000  1.0 -0.9899158608
O  O21  1  0.00910000  0.87790000  0.75000000  1.0 -0.9899158608
O  O22  1  0.12210000  0.13120000  0.75000000  1.0 -0.9899158608
O  O23  1  0.00910000  0.13120000  0.75000000  1.0 -0.9899158608
O  O24  1  0.12210000  0.99090000  0.75000000  1.0 -0.9899158608
O  O25  1  0.86880000  0.87790000  0.75000000  1.0 -0.9899158608
O  O26  1  0.99090000  0.86880000  0.25000000  1.0 -0.9899158608
O  O27  1  0.87790000  0.00910000  0.25000000  1.0 -0.9899158608
O  O28  1  0.13120000  0.12210000  0.25000000  1.0 -0.9899158608
O  O29  1  0.21030000  0.04080000  0.35540000  1.0 -0.6188529843
O  O30  1  0.95920000  0.16950000  0.35540000  1.0 -0.6188529843
O  O31  1  0.83050000  0.78970000  0.35540000  1.0 -0.6188529843
O  O32  1  0.78970000  0.95920000  0.85540000  1.0 -0.6188529843
O  O33  1  0.04080000  0.83050000  0.85540000  1.0 -0.6188529843
O  O34  1  0.16950000  0.21030000  0.85540000  1.0 -0.6188529843
O  O35  1  0.04080000  0.21030000  0.64460000  1.0 -0.6188529843
O  O36  1  0.16950000  0.95920000  0.64460000  1.0 -0.6188529843
O  O37  1  0.78970000  0.83050000  0.64460000  1.0 -0.6188529843
O  O38  1  0.95920000  0.78970000  0.14460000  1.0 -0.6188529843
O  O39  1  0.83050000  0.04080000  0.14460000  1.0 -0.6188529843
O  O40  1  0.21030000  0.16950000  0.14460000  1.0 -0.6188529843
O  O41  1  0.78970000  0.95920000  0.64460000  1.0 -0.6188529843
O  O42  1  0.04080000  0.83050000  0.64460000  1.0 -0.6188529843
O  O43  1  0.16950000  0.21030000  0.64460000  1.0 -0.6188529843
O  O44  1  0.21030000  0.04080000  0.14460000  1.0 -0.6188529843
O  O45  1  0.95920000  0.16950000  0.14460000  1.0 -0.6188529843
O  O46  1  0.83050000  0.78970000  0.14460000  1.0 -0.6188529843
O  O47  1  0.95920000  0.78970000  0.35540000  1.0 -0.6188529843
O  O48  1  0.83050000  0.04080000  0.35540000  1.0 -0.6188529843
O  O49  1  0.21030000  0.16950000  0.35540000  1.0 -0.6188529843
O  O50  1  0.04080000  0.21030000  0.85540000  1.0 -0.6188529843
O  O51  1  0.16950000  0.95920000  0.85540000  1.0 -0.6188529843
O  O52  1  0.78970000  0.83050000  0.85540000  1.0 -0.6188529843
O  O53  1  0.19840000  0.94550000  0.31090000  1.0 -0.5736841094
O  O54  1  0.05450000  0.25290000  0.31090000  1.0 -0.5764772805
O  O55  1  0.74710000  0.80160000  0.31090000  1.0 -0.5764772805
O  O56  1  0.80160000  0.05450000  0.81090000  1.0 -0.5764772805
O  O57  1  0.94550000  0.74710000  0.81090000  1.0 -0.5764772805
O  O58  1  0.25290000  0.19840000  0.81090000  1.0 -0.5764772805
O  O59  1  0.94550000  0.19840000  0.68910000  1.0 -0.5764772805
O  O60  1  0.25290000  0.05450000  0.68910000  1.0 -0.5764772805
O  O61  1  0.80160000  0.74710000  0.68910000  1.0 -0.5764772805
O  O62  1  0.05450000  0.80160000  0.18910000  1.0 -0.5764772805
O  O63  1  0.74710000  0.94550000  0.18910000  1.0 -0.5764772805
O  O64  1  0.19840000  0.25290000  0.18910000  1.0 -0.5764772805
O  O65  1  0.80160000  0.05450000  0.68910000  1.0 -0.5764772805
O  O66  1  0.94550000  0.74710000  0.68910000  1.0 -0.5764772805
O  O67  1  0.25290000  0.19840000  0.68910000  1.0 -0.5764772805
O  O68  1  0.19840000  0.94550000  0.18910000  1.0 -0.5736841094
O  O69  1  0.05450000  0.25290000  0.18910000  1.0 -0.5764772805
O  O70  1  0.74710000  0.80160000  0.18910000  1.0 -0.5764772805
O  O71  1  0.05450000  0.80160000  0.31090000  1.0 -0.5764772805
O  O72  1  0.74710000  0.94550000  0.31090000  1.0 -0.5764772805
O  O73  1  0.19840000  0.25290000  0.31090000  1.0 -0.5764772805
O  O74  1  0.94550000  0.19840000  0.81090000  1.0 -0.5764772805
O  O75  1  0.25290000  0.05450000  0.81090000  1.0 -0.5764772805
O  O76  1  0.80160000  0.74710000  0.81090000  1.0 -0.5764772805
O  O77  1  0.10800000  0.05400000  0.33000000  1.0 0.8614415226
O  O78  1  0.94600000  0.05400000  0.33000000  1.0 0.8614415226
O  O79  1  0.94600000  0.89200000  0.33000000  1.0 0.8704455961
O  O80  1  0.89200000  0.94600000  0.83000000  1.0 0.8614415226
O  O81  1  0.05400000  0.94600000  0.83000000  1.0 0.8614415226
O  O82  1  0.05400000  0.10800000  0.83000000  1.0 0.8501974214
O  O83  1  0.05400000  0.10800000  0.67000000  1.0 0.8501974214
O  O84  1  0.05400000  0.94600000  0.67000000  1.0 0.8614415226
O  O85  1  0.89200000  0.94600000  0.67000000  1.0 0.8704455961
O  O86  1  0.94600000  0.89200000  0.17000000  1.0 0.8704455961
O  O87  1  0.94600000  0.05400000  0.17000000  1.0 0.8614415226
O  O88  1  0.10800000  0.05400000  0.17000000  1.0 0.8614415226
