# DDEC6 charges by PACMAN v1.1 (https://github.com/mtap-research/PACMAN-charge/)
data_MEXDAU01_ASR_pacman
_symmetry_space_group_name_H-M   'P 1'
_cell_length_a   8.45570000
_cell_length_b   9.28440000
_cell_length_c   13.85990000
_cell_angle_alpha   81.11400000
_cell_angle_beta   83.64200000
_cell_angle_gamma   72.62600000
_symmetry_Int_Tables_number   1
_chemical_formula_structural   Zn3P4H3O16
_chemical_formula_sum   'Zn6 P8 H6 O32'
_cell_volume   1023.56823676
_cell_formula_units_Z   2
loop_
 _symmetry_equiv_pos_site_id
 _symmetry_equiv_pos_as_xyz
  1  'x, y, z'
loop_
 _atom_site_type_symbol
 _atom_site_label
 _atom_site_symmetry_multiplicity
 _atom_site_fract_x
 _atom_site_fract_y
 _atom_site_fract_z
 _atom_site_occupancy
 _atom_site_charge
Zn  Zn1  1  0.29367000  0.91830000  0.51946000  1.0 1.1683081194
Zn  Zn2  1  0.70633000  0.08170000  0.48054000  1.0 1.1683081194
Zn  Zn3  1  0.74556000  0.49370000  0.97301000  1.0 1.1973121965
Zn  Zn4  1  0.25444000  0.50630000  0.02699000  1.0 1.1973121965
Zn  Zn5  1  0.63779000  0.88788000  0.12587000  1.0 1.1924121781
Zn  Zn6  1  0.36221000  0.11212000  0.87413000  1.0 1.1973121965
P  P1  1  0.58114000  0.21710000  0.01996000  1.0 1.4643594428
P  P2  1  0.41886000  0.78290000  0.98004000  1.0 1.4677216216
P  P3  1  0.58470000  0.86461000  0.36397000  1.0 1.5524647041
P  P4  1  0.41530000  0.13539000  0.63603000  1.0 1.5524647041
P  P5  1  0.90460000  0.56629000  0.14874000  1.0 1.5317954226
P  P6  1  0.09540000  0.43371000  0.85126000  1.0 1.5383181973
P  P7  1  0.01690000  0.20793000  0.42267000  1.0 1.5208059951
P  P8  1  0.98310000  0.79207000  0.57733000  1.0 1.5208059951
H  H1  1  0.76900000  0.66940000  0.35800000  1.0 0.4408356949
H  H2  1  0.23100000  0.33060000  0.64200000  1.0 0.4408356949
H  H3  1  0.88470000  0.45330000  0.28290000  1.0 0.4408356949
H  H4  1  0.11530000  0.54670000  0.71710000  1.0 0.4408356949
H  H5  1  0.05620000  0.28120000  0.54380000  1.0 0.4341023966
H  H6  1  0.94380000  0.71880000  0.45620000  1.0 0.4341023966
O  O1  1  0.16680000  0.07030000  0.42380000  1.0 -0.7307243244
O  O2  1  0.83320000  0.92970000  0.57620000  1.0 -0.7307243244
O  O3  1  0.47180000  0.79920000  0.43960000  1.0 -0.7188788251
O  O4  1  0.52820000  0.20080000  0.56040000  1.0 -0.7188788251
O  O5  1  0.59670000  0.01800000  0.38370000  1.0 -0.7307243244
O  O6  1  0.40330000  0.98200000  0.61630000  1.0 -0.7307243244
O  O7  1  0.85970000  0.17900000  0.39680000  1.0 -0.7145464019
O  O8  1  0.14030000  0.82100000  0.60320000  1.0 -0.7145464019
O  O9  1  0.81410000  0.47670000  0.10350000  1.0 -0.7425930099
O  O10  1  0.18590000  0.52330000  0.89650000  1.0 -0.7425930099
O  O11  1  0.09110000  0.49800000  0.13490000  1.0 -0.6845135884
O  O12  1  0.90890000  0.50200000  0.86510000  1.0 -0.6845135884
O  O13  1  0.70980000  0.29650000  0.97000000  1.0 -0.6966429548
O  O14  1  0.29020000  0.70350000  0.03000000  1.0 -0.6966429548
O  O15  1  0.43520000  0.32860000  0.06970000  1.0 -0.7500412659
O  O16  1  0.56480000  0.67140000  0.93030000  1.0 -0.7425930099
O  O17  1  0.66420000  0.09180000  0.10180000  1.0 -0.6938774185
O  O18  1  0.33580000  0.90820000  0.89820000  1.0 -0.6938774185
O  O19  1  0.85000000  0.73620000  0.11260000  1.0 -0.7500412659
O  O20  1  0.15000000  0.26380000  0.88740000  1.0 -0.761360625
O  O21  1  0.53110000  0.14430000  0.94190000  1.0 -0.761360625
O  O22  1  0.46890000  0.85570000  0.05810000  1.0 -0.761360625
O  O23  1  0.53060000  0.87570000  0.26140000  1.0 -0.6938774185
O  O24  1  0.46940000  0.12430000  0.73860000  1.0 -0.6966429548
O  O25  1  0.76780000  0.75380000  0.36950000  1.0 -0.5392643557
O  O26  1  0.23220000  0.24620000  0.63050000  1.0 -0.5392643557
O  O27  1  0.85760000  0.54430000  0.26220000  1.0 -0.5392643557
O  O28  1  0.14240000  0.45570000  0.73780000  1.0 -0.5392643557
O  O29  1  0.05790000  0.33360000  0.34930000  1.0 -0.6351528959
O  O30  1  0.94210000  0.66640000  0.65070000  1.0 -0.6303698615
O  O31  1  0.97650000  0.25970000  0.52760000  1.0 -0.5681944982
O  O32  1  0.02350000  0.74030000  0.47240000  1.0 -0.5681944982
