# DDEC6 charges by PACMAN v1.1 (https://github.com/mtap-research/PACMAN-charge/)
data_MEXDEY_FSR_pacman
_symmetry_space_group_name_H-M   'P 1'
_cell_length_a   5.16010000
_cell_length_b   25.07500000
_cell_length_c   15.62580000
_cell_angle_alpha   90.00000000
_cell_angle_beta   106.65200000
_cell_angle_gamma   90.00000000
_symmetry_Int_Tables_number   1
_chemical_formula_structural   Zn3P2O9
_chemical_formula_sum   'Zn24 P16 O72'
_cell_volume   1937.02552116
_cell_formula_units_Z   8
loop_
 _symmetry_equiv_pos_site_id
 _symmetry_equiv_pos_as_xyz
  1  'x, y, z'
loop_
 _atom_site_type_symbol
 _atom_site_label
 _atom_site_symmetry_multiplicity
 _atom_site_fract_x
 _atom_site_fract_y
 _atom_site_fract_z
 _atom_site_occupancy
 _atom_site_charge
Zn  Zn1  1  0.65234000  0.21944000  0.30110000  1.0 0.9998140048
Zn  Zn2  1  0.65234000  0.28056000  0.80110000  1.0 0.9998140048
Zn  Zn3  1  0.34766000  0.78056000  0.69890000  1.0 0.9998140048
Zn  Zn4  1  0.34766000  0.71944000  0.19890000  1.0 0.9998140048
Zn  Zn5  1  0.87422000  0.20978000  0.12274000  1.0 1.052412362
Zn  Zn6  1  0.87422000  0.29022000  0.62274000  1.0 1.052412362
Zn  Zn7  1  0.12578000  0.79022000  0.87726000  1.0 1.052412362
Zn  Zn8  1  0.12578000  0.70978000  0.37726000  1.0 1.052412362
Zn  Zn9  1  0.27035000  0.25596000  0.42690000  1.0 1.0309318017
Zn  Zn10  1  0.27035000  0.24404000  0.92690000  1.0 1.0309318017
Zn  Zn11  1  0.72965000  0.74404000  0.57310000  1.0 1.0309318017
Zn  Zn12  1  0.72965000  0.75596000  0.07310000  1.0 1.0309318017
Zn  Zn13  1  0.22342000  0.04202000  0.41432000  1.0 1.0786430548
Zn  Zn14  1  0.22342000  0.45798000  0.91432000  1.0 1.0786430548
Zn  Zn15  1  0.77658000  0.95798000  0.58568000  1.0 1.0786430548
Zn  Zn16  1  0.77658000  0.54202000  0.08568000  1.0 1.0786430548
Zn  Zn17  1  0.40720000  0.38402000  0.24858000  1.0 0.6118561785
Zn  Zn18  1  0.40720000  0.11598000  0.74858000  1.0 0.6118561785
Zn  Zn19  1  0.59280000  0.61598000  0.75142000  1.0 0.6118561785
Zn  Zn20  1  0.59280000  0.88402000  0.25142000  1.0 0.6118561785
Zn  Zn21  1  0.65790000  0.38427000  0.24370000  1.0 0.5977197151
Zn  Zn22  1  0.65790000  0.11573000  0.74370000  1.0 0.5977197151
Zn  Zn23  1  0.34210000  0.61573000  0.75630000  1.0 0.5977197151
Zn  Zn24  1  0.34210000  0.88427000  0.25630000  1.0 0.5977197151
P  P1  1  0.74518000  0.32527000  0.42098000  1.0 1.5192526802
P  P2  1  0.74518000  0.17473000  0.92098000  1.0 1.5192526802
P  P3  1  0.25482000  0.67473000  0.57902000  1.0 1.5192526802
P  P4  1  0.25482000  0.82527000  0.07902000  1.0 1.5192526802
P  P5  1  0.15813000  0.15391000  0.30553000  1.0 1.5192526802
P  P6  1  0.15813000  0.34609000  0.80553000  1.0 1.5252132128
P  P7  1  0.84187000  0.84609000  0.69447000  1.0 1.5192526802
P  P8  1  0.84187000  0.65391000  0.19447000  1.0 1.5192526802
P  P9  1  0.39306000  0.27980000  0.12466000  1.0 1.5033771704
P  P10  1  0.39306000  0.22020000  0.62466000  1.0 1.5033771704
P  P11  1  0.60694000  0.72020000  0.87534000  1.0 1.5033771704
P  P12  1  0.60694000  0.77980000  0.37534000  1.0 1.5033771704
P  P13  1  0.69422000  0.97525000  0.38422000  1.0 1.4805358957
P  P14  1  0.69422000  0.52475000  0.88422000  1.0 1.4805358957
P  P15  1  0.30578000  0.02475000  0.61578000  1.0 1.4805358957
P  P16  1  0.30578000  0.47525000  0.11578000  1.0 1.4805358957
O  O1  1  0.46570000  0.16014000  0.33400000  1.0 -0.7718526015
O  O2  1  0.46570000  0.33986000  0.83400000  1.0 -0.7718526015
O  O3  1  0.53430000  0.83986000  0.66600000  1.0 -0.7718526015
O  O4  1  0.53430000  0.66014000  0.16600000  1.0 -0.7718526015
O  O5  1  0.04030000  0.20523000  0.33970000  1.0 -0.8310653259
O  O6  1  0.04030000  0.29477000  0.83970000  1.0 -0.8310653259
O  O7  1  0.95970000  0.79477000  0.66030000  1.0 -0.8310653259
O  O8  1  0.95970000  0.70523000  0.16030000  1.0 -0.8310653259
O  O9  1  0.57060000  0.23136000  0.17260000  1.0 -0.8136228461
O  O10  1  0.57060000  0.26864000  0.67260000  1.0 -0.8136228461
O  O11  1  0.42940000  0.76864000  0.82740000  1.0 -0.8136228461
O  O12  1  0.42940000  0.73136000  0.32740000  1.0 -0.8136228461
O  O13  1  0.56880000  0.27648000  0.37570000  1.0 -0.8136228461
O  O14  1  0.56880000  0.22352000  0.87570000  1.0 -0.8136228461
O  O15  1  0.43120000  0.72352000  0.62430000  1.0 -0.8136228461
O  O16  1  0.43120000  0.77648000  0.12430000  1.0 -0.8136228461
O  O17  1  0.09850000  0.27056000  0.11960000  1.0 -0.7892134527
O  O18  1  0.09850000  0.22944000  0.61960000  1.0 -0.7892134527
O  O19  1  0.90150000  0.72944000  0.88040000  1.0 -0.7892134527
O  O20  1  0.90150000  0.77056000  0.38040000  1.0 -0.7892134527
O  O21  1  0.71250000  0.33018000  0.51430000  1.0 -0.7584897397
O  O22  1  0.71250000  0.16982000  0.01430000  1.0 -0.7584897397
O  O23  1  0.28750000  0.66982000  0.48570000  1.0 -0.7584897397
O  O24  1  0.28750000  0.83018000  0.98570000  1.0 -0.7584897397
O  O25  1  0.04330000  0.15308000  0.20400000  1.0 -0.7892134527
O  O26  1  0.04330000  0.34692000  0.70400000  1.0 -0.7892134527
O  O27  1  0.95670000  0.84692000  0.79600000  1.0 -0.7892134527
O  O28  1  0.95670000  0.65308000  0.29600000  1.0 -0.7892134527
O  O29  1  0.43890000  0.28296000  0.03290000  1.0 -0.7718526015
O  O30  1  0.43890000  0.21704000  0.53290000  1.0 -0.7718526015
O  O31  1  0.56110000  0.71704000  0.96710000  1.0 -0.7718526015
O  O32  1  0.56110000  0.78296000  0.46710000  1.0 -0.7718526015
O  O33  1  0.03700000  0.31531000  0.42270000  1.0 -0.7892134527
O  O34  1  0.03700000  0.18469000  0.92270000  1.0 -0.7892134527
O  O35  1  0.96300000  0.68469000  0.57730000  1.0 -0.7892134527
O  O36  1  0.96300000  0.81531000  0.07730000  1.0 -0.7892134527
O  O37  1  0.98080000  0.98265000  0.37480000  1.0 -0.7470608403
O  O38  1  0.98080000  0.51735000  0.87480000  1.0 -0.7470608403
O  O39  1  0.01920000  0.01735000  0.62520000  1.0 -0.7470608403
O  O40  1  0.01920000  0.48265000  0.12520000  1.0 -0.7470608403
O  O41  1  0.58070000  0.02901000  0.40310000  1.0 -0.7718526015
O  O42  1  0.58070000  0.47099000  0.90310000  1.0 -0.7718526015
O  O43  1  0.41930000  0.97099000  0.59690000  1.0 -0.7718526015
O  O44  1  0.41930000  0.52901000  0.09690000  1.0 -0.7718526015
O  O45  1  0.07020000  0.10522000  0.34600000  1.0 -0.7333472062
O  O46  1  0.07020000  0.39478000  0.84600000  1.0 -0.7333472062
O  O47  1  0.92980000  0.89478000  0.65400000  1.0 -0.7333472062
O  O48  1  0.92980000  0.60522000  0.15400000  1.0 -0.7333472062
O  O49  1  0.71150000  0.93562000  0.46070000  1.0 -0.7584897397
O  O50  1  0.71150000  0.56438000  0.96070000  1.0 -0.7470608403
O  O51  1  0.28850000  0.06438000  0.53930000  1.0 -0.7584897397
O  O52  1  0.28850000  0.43562000  0.03930000  1.0 -0.7584897397
O  O53  1  0.50420000  0.32947000  0.17720000  1.0 -0.634021907
O  O54  1  0.50420000  0.17053000  0.67720000  1.0 -0.634021907
O  O55  1  0.49580000  0.67053000  0.82280000  1.0 -0.634021907
O  O56  1  0.49580000  0.82947000  0.32280000  1.0 -0.634021907
O  O57  1  0.63900000  0.37565000  0.36880000  1.0 -0.642581432
O  O58  1  0.63900000  0.12435000  0.86880000  1.0 -0.642581432
O  O59  1  0.36100000  0.62435000  0.63120000  1.0 -0.642581432
O  O60  1  0.36100000  0.87565000  0.13120000  1.0 -0.642581432
O  O61  1  0.51220000  0.95177000  0.29660000  1.0 -0.6771262575
O  O62  1  0.51220000  0.54823000  0.79660000  1.0 -0.6771262575
O  O63  1  0.48780000  0.04823000  0.70340000  1.0 -0.6771262575
O  O64  1  0.48780000  0.45177000  0.20340000  1.0 -0.6771262575
O  O65  1  0.01830000  0.38650000  0.24090000  1.0 -0.6062394966
O  O66  1  0.01830000  0.11350000  0.74090000  1.0 -0.6062394966
O  O67  1  0.98170000  0.61350000  0.75910000  1.0 -0.6062394966
O  O68  1  0.98170000  0.88650000  0.25910000  1.0 -0.6062394966
O  O69  1  0.90940000  0.45750000  0.23840000  1.0 1.3007228981
O  O70  1  0.90940000  0.04250000  0.73840000  1.0 1.3007228981
O  O71  1  0.09060000  0.54250000  0.76160000  1.0 1.3007228981
O  O72  1  0.09060000  0.95750000  0.26160000  1.0 1.3007228981
