# DDEC6 charges by PACMAN v1.1 (https://github.com/mtap-research/PACMAN-charge/)
data_MEXDAU_FSR_pacman
_symmetry_space_group_name_H-M   'P 1'
_cell_length_a   8.44080000
_cell_length_b   9.26300000
_cell_length_c   13.84300000
_cell_angle_alpha   81.11900000
_cell_angle_beta   83.64300000
_cell_angle_gamma   72.64700000
_symmetry_Int_Tables_number   1
_chemical_formula_structural   Zn3P4H3O16
_chemical_formula_sum   'Zn6 P8 H6 O32'
_cell_volume   1018.29301867
_cell_formula_units_Z   2
loop_
 _symmetry_equiv_pos_site_id
 _symmetry_equiv_pos_as_xyz
  1  'x, y, z'
loop_
 _atom_site_type_symbol
 _atom_site_label
 _atom_site_symmetry_multiplicity
 _atom_site_fract_x
 _atom_site_fract_y
 _atom_site_fract_z
 _atom_site_occupancy
 _atom_site_charge
Zn  Zn1  1  0.74556000  0.49370000  0.47314000  1.0 1.1958620084
Zn  Zn2  1  0.25444000  0.50630000  0.52686000  1.0 1.1958620084
Zn  Zn3  1  0.70629000  0.08149000  0.98055000  1.0 1.160898639
Zn  Zn4  1  0.29371000  0.91851000  0.01945000  1.0 1.154905392
Zn  Zn5  1  0.36247000  0.11199000  0.37406000  1.0 1.1811044944
Zn  Zn6  1  0.63753000  0.88801000  0.62594000  1.0 1.1851138604
P  P1  1  0.90455000  0.56646000  0.64875000  1.0 1.5313076509
P  P2  1  0.09545000  0.43354000  0.35125000  1.0 1.5313076509
P  P3  1  0.41496000  0.13549000  0.13603000  1.0 1.5531005991
P  P4  1  0.58504000  0.86451000  0.86397000  1.0 1.5531005991
P  P5  1  0.98318000  0.79185000  0.07714000  1.0 1.519074334
P  P6  1  0.01682000  0.20815000  0.92286000  1.0 1.519074334
P  P7  1  0.58102000  0.21723000  0.52006000  1.0 1.4530854953
P  P8  1  0.41898000  0.78277000  0.47994000  1.0 1.4530854953
H  H1  1  0.92810000  0.47170000  0.78850000  1.0 0.4387153966
H  H2  1  0.07190000  0.52830000  0.21150000  1.0 0.4387153966
H  H3  1  0.21710000  0.31060000  0.16770000  1.0 0.4387153966
H  H4  1  0.78290000  0.68940000  0.83230000  1.0 0.4387153966
H  H5  1  0.93610000  0.74870000  0.94750000  1.0 0.4333724362
H  H6  1  0.06390000  0.25130000  0.05250000  1.0 0.4333724362
O  O1  1  0.81340000  0.47670000  0.60320000  1.0 -0.7319399086
O  O2  1  0.18660000  0.52330000  0.39680000  1.0 -0.7319399086
O  O3  1  0.09210000  0.49790000  0.63540000  1.0 -0.6905408146
O  O4  1  0.90790000  0.50210000  0.36460000  1.0 -0.6905408146
O  O5  1  0.71030000  0.29650000  0.47005000  1.0 -0.6905408146
O  O6  1  0.28970000  0.70350000  0.52995000  1.0 -0.6905408146
O  O7  1  0.43480000  0.33000000  0.56970000  1.0 -0.740978943
O  O8  1  0.56520000  0.67000000  0.43030000  1.0 -0.740978943
O  O9  1  0.52780000  0.20160000  0.06043000  1.0 -0.7073162514
O  O10  1  0.47220000  0.79840000  0.93957000  1.0 -0.7073162514
O  O11  1  0.83300000  0.93020000  0.07650000  1.0 -0.7319399086
O  O12  1  0.16700000  0.06980000  0.92350000  1.0 -0.7319399086
O  O13  1  0.40270000  0.98180000  0.11617000  1.0 -0.7319399086
O  O14  1  0.59730000  0.01820000  0.88383000  1.0 -0.7319399086
O  O15  1  0.13990000  0.82110000  0.10273000  1.0 -0.7073162514
O  O16  1  0.86010000  0.17890000  0.89727000  1.0 -0.7073162514
O  O17  1  0.53060000  0.14380000  0.44218000  1.0 -0.7588812577
O  O18  1  0.46940000  0.85620000  0.55782000  1.0 -0.7588812577
O  O19  1  0.84930000  0.73620000  0.61290000  1.0 -0.754555093
O  O20  1  0.15070000  0.26380000  0.38710000  1.0 -0.7588812577
O  O21  1  0.66510000  0.09150000  0.60147000  1.0 -0.6905408146
O  O22  1  0.33490000  0.90850000  0.39853000  1.0 -0.6905408146
O  O23  1  0.46990000  0.12420000  0.23929000  1.0 -0.6905408146
O  O24  1  0.53010000  0.87580000  0.76071000  1.0 -0.6905408146
O  O25  1  0.85700000  0.54360000  0.76211000  1.0 -0.538605498
O  O26  1  0.14300000  0.45640000  0.23789000  1.0 -0.538605498
O  O27  1  0.23170000  0.24690000  0.13010000  1.0 -0.5479388701
O  O28  1  0.76830000  0.75310000  0.86990000  1.0 -0.5479388701
O  O29  1  0.94130000  0.66690000  0.15120000  1.0 -0.6232228147
O  O30  1  0.05870000  0.33310000  0.84880000  1.0 -0.6232228147
O  O31  1  0.02330000  0.73960000  0.97200000  1.0 -0.5652834641
O  O32  1  0.97670000  0.26040000  0.02800000  1.0 -0.5652834641
