# DDEC6 charges by PACMAN v1.1 (https://github.com/mtap-research/PACMAN-charge/)
data_MICDEJ_ASR_pacman
_symmetry_space_group_name_H-M   'P 1'
_cell_length_a   17.45710000
_cell_length_b   17.45710000
_cell_length_c   9.37960000
_cell_angle_alpha   77.17490000
_cell_angle_beta   102.82500000
_cell_angle_gamma   103.55900000
_symmetry_Int_Tables_number   1
_chemical_formula_structural   Mn3H22(C21O8)2
_chemical_formula_sum   'Mn6 H44 C84 O32'
_cell_volume   2665.54796646
_cell_formula_units_Z   2
loop_
 _symmetry_equiv_pos_site_id
 _symmetry_equiv_pos_as_xyz
  1  'x, y, z'
loop_
 _atom_site_type_symbol
 _atom_site_label
 _atom_site_symmetry_multiplicity
 _atom_site_fract_x
 _atom_site_fract_y
 _atom_site_fract_z
 _atom_site_occupancy
 _atom_site_charge
Mn  Mn1  1  0.31366000  0.81952000  0.56100000  1.0 1.0411362603
Mn  Mn2  1  0.81952000  0.31366000  0.93900000  1.0 1.0411362603
Mn  Mn3  1  0.68634000  0.18048000  0.43900000  1.0 1.0411362603
Mn  Mn4  1  0.18048000  0.68634000  0.06100000  1.0 1.0411362603
Mn  Mn5  1  0.50000000  0.00000000  0.50000000  1.0 1.0587990238
Mn  Mn6  1  0.00000000  0.50000000  0.00000000  1.0 1.0587990238
H  H1  1  0.37310000  0.16170000  0.57380000  1.0 0.1397951709
H  H2  1  0.16170000  0.37310000  0.92620000  1.0 0.1397951709
H  H3  1  0.62690000  0.83830000  0.42620000  1.0 0.1397951709
H  H4  1  0.83830000  0.62690000  0.07380000  1.0 0.1397951709
H  H5  1  0.15930000  0.20850000  0.57330000  1.0 0.1470702841
H  H6  1  0.20850000  0.15930000  0.92670000  1.0 0.1470702841
H  H7  1  0.84070000  0.79150000  0.42670000  1.0 0.1470702841
H  H8  1  0.79150000  0.84070000  0.07330000  1.0 0.1470702841
H  H9  1  0.18110000  0.98350000  0.58250000  1.0 0.1397951709
H  H10  1  0.98350000  0.18110000  0.91750000  1.0 0.1397951709
H  H11  1  0.81890000  0.01650000  0.41750000  1.0 0.1397951709
H  H12  1  0.01650000  0.81890000  0.08250000  1.0 0.1397951709
H  H13  1  0.06480000  0.15060000  0.31610000  1.0 0.1289613251
H  H14  1  0.15060000  0.06480000  0.18390000  1.0 0.1289613251
H  H15  1  0.93520000  0.84940000  0.68390000  1.0 0.1289613251
H  H16  1  0.84940000  0.93520000  0.81610000  1.0 0.1289613251
H  H17  1  0.96820000  0.22440000  0.19900000  1.0 0.1131765164
H  H18  1  0.22440000  0.96820000  0.30100000  1.0 0.1131765164
H  H19  1  0.03180000  0.77560000  0.80100000  1.0 0.1131765164
H  H20  1  0.77560000  0.03180000  0.69900000  1.0 0.1131765164
H  H21  1  0.86570000  0.15810000  0.56010000  1.0 0.1131765164
H  H22  1  0.15810000  0.86570000  0.93990000  1.0 0.1131765164
H  H23  1  0.13430000  0.84190000  0.43990000  1.0 0.1131765164
H  H24  1  0.84190000  0.13430000  0.06010000  1.0 0.1131765164
H  H25  1  0.96450000  0.08590000  0.67940000  1.0 0.1289613251
H  H26  1  0.08590000  0.96450000  0.82060000  1.0 0.1289613251
H  H27  1  0.03550000  0.91410000  0.32060000  1.0 0.1289613251
H  H28  1  0.91410000  0.03550000  0.17940000  1.0 0.1289613251
H  H29  1  0.20610000  0.28190000  0.31560000  1.0 0.1221147134
H  H30  1  0.28190000  0.20610000  0.18440000  1.0 0.1221147134
H  H31  1  0.79390000  0.71810000  0.68440000  1.0 0.1221147134
H  H32  1  0.71810000  0.79390000  0.81560000  1.0 0.1221147134
H  H33  1  0.15510000  0.39150000  0.17580000  1.0 0.1131765164
H  H34  1  0.39150000  0.15510000  0.32420000  1.0 0.1131765164
H  H35  1  0.84490000  0.60850000  0.82420000  1.0 0.1131765164
H  H36  1  0.60850000  0.84490000  0.67580000  1.0 0.1131765164
H  H37  1  0.27170000  0.52090000  0.48490000  1.0 0.1289613251
H  H38  1  0.52090000  0.27170000  0.01510000  1.0 0.1289613251
H  H39  1  0.72830000  0.47910000  0.51510000  1.0 0.1289613251
H  H40  1  0.47910000  0.72830000  0.98490000  1.0 0.1289613251
H  H41  1  0.31920000  0.41040000  0.63040000  1.0 0.1397951709
H  H42  1  0.41040000  0.31920000  0.86960000  1.0 0.1397951709
H  H43  1  0.68080000  0.58960000  0.36960000  1.0 0.1397951709
H  H44  1  0.58960000  0.68080000  0.13040000  1.0 0.1397951709
C  C1  1  0.33549000  0.00415000  0.57970000  1.0 0.5868891134
C  C2  1  0.00415000  0.33549000  0.92030000  1.0 0.5868891134
C  C3  1  0.66451000  0.99585000  0.42030000  1.0 0.5868891134
C  C4  1  0.99585000  0.66451000  0.07970000  1.0 0.5868891134
C  C5  1  0.28472000  0.06360000  0.58010000  1.0 0.0110107517
C  C6  1  0.06360000  0.28472000  0.91990000  1.0 0.0110107517
C  C7  1  0.71528000  0.93640000  0.41990000  1.0 0.0110107517
C  C8  1  0.93640000  0.71528000  0.08010000  1.0 0.0110107517
C  C9  1  0.31866000  0.14386000  0.57470000  1.0 -0.2201697194
C  C10  1  0.14386000  0.31866000  0.92530000  1.0 -0.2201697194
C  C11  1  0.68134000  0.85614000  0.42530000  1.0 -0.2201697194
C  C12  1  0.85614000  0.68134000  0.07470000  1.0 -0.2201697194
C  C13  1  0.27061000  0.19713000  0.57060000  1.0 0.2631870761
C  C14  1  0.19713000  0.27061000  0.92940000  1.0 0.2631870761
C  C15  1  0.72939000  0.80287000  0.42940000  1.0 0.2631870761
C  C16  1  0.80287000  0.72939000  0.07060000  1.0 0.2631870761
C  C17  1  0.19070000  0.17234000  0.57300000  1.0 -0.3306321547
C  C18  1  0.17234000  0.19070000  0.92700000  1.0 -0.3306321547
C  C19  1  0.80930000  0.82766000  0.42700000  1.0 -0.3306321547
C  C20  1  0.82766000  0.80930000  0.07300000  1.0 -0.3306321547
C  C21  1  0.15750000  0.09214000  0.57490000  1.0 0.2631870761
C  C22  1  0.09214000  0.15750000  0.92510000  1.0 0.2631870761
C  C23  1  0.84250000  0.90786000  0.42510000  1.0 0.2631870761
C  C24  1  0.90786000  0.84250000  0.07490000  1.0 0.2631870761
C  C25  1  0.20401000  0.03741000  0.57970000  1.0 -0.2201697194
C  C26  1  0.03741000  0.20401000  0.92030000  1.0 -0.2201697194
C  C27  1  0.79599000  0.96259000  0.42030000  1.0 -0.2201697194
C  C28  1  0.96259000  0.79599000  0.07970000  1.0 -0.2201697194
C  C29  1  0.02307000  0.11131000  0.50740000  1.0 0.2388733282
C  C30  1  0.11131000  0.02307000  0.99260000  1.0 0.2388733282
C  C31  1  0.97693000  0.88869000  0.49260000  1.0 0.2388733282
C  C32  1  0.88869000  0.97693000  0.00740000  1.0 0.2388733282
C  C33  1  0.02456000  0.15238000  0.36500000  1.0 -0.2201697194
C  C34  1  0.15238000  0.02456000  0.13500000  1.0 -0.2201697194
C  C35  1  0.97544000  0.84762000  0.63500000  1.0 -0.2201697194
C  C36  1  0.84762000  0.97544000  0.86500000  1.0 -0.2112086357
C  C37  1  0.96689000  0.19601000  0.29520000  1.0 -0.08002668
C  C38  1  0.19601000  0.96689000  0.20480000  1.0 -0.08002668
C  C39  1  0.03311000  0.80399000  0.70480000  1.0 -0.08002668
C  C40  1  0.80399000  0.03311000  0.79520000  1.0 -0.08002668
C  C41  1  0.90654000  0.19794000  0.36760000  1.0 -0.041427356
C  C42  1  0.19794000  0.90654000  0.13240000  1.0 -0.041427356
C  C43  1  0.09346000  0.80206000  0.63240000  1.0 -0.041427356
C  C44  1  0.80206000  0.09346000  0.86760000  1.0 -0.041427356
C  C45  1  0.90599000  0.15667000  0.51090000  1.0 -0.08002668
C  C46  1  0.15667000  0.90599000  0.98910000  1.0 -0.08002668
C  C47  1  0.09401000  0.84333000  0.48910000  1.0 -0.08002668
C  C48  1  0.84333000  0.09401000  0.01090000  1.0 -0.08002668
C  C49  1  0.96465000  0.11331000  0.58230000  1.0 -0.1978565537
C  C50  1  0.11331000  0.96465000  0.91770000  1.0 -0.1978565537
C  C51  1  0.03535000  0.88669000  0.41770000  1.0 -0.1978565537
C  C52  1  0.88669000  0.03535000  0.08230000  1.0 -0.1978565537
C  C53  1  0.84230000  0.24334000  0.28760000  1.0 0.6071016445
C  C54  1  0.24334000  0.84230000  0.21240000  1.0 0.6071016445
C  C55  1  0.15770000  0.75666000  0.71240000  1.0 0.6071016445
C  C56  1  0.75666000  0.15770000  0.78760000  1.0 0.6071016445
C  C57  1  0.26913000  0.33673000  0.48390000  1.0 0.2388733282
C  C58  1  0.33673000  0.26913000  0.01610000  1.0 0.2388733282
C  C59  1  0.73087000  0.66327000  0.51610000  1.0 0.2388733282
C  C60  1  0.66327000  0.73087000  0.98390000  1.0 0.2388733282
C  C61  1  0.21955000  0.33019000  0.34980000  1.0 -0.2112086357
C  C62  1  0.33019000  0.21955000  0.15020000  1.0 -0.2112086357
C  C63  1  0.78045000  0.66981000  0.65020000  1.0 -0.2112086357
C  C64  1  0.66981000  0.78045000  0.84980000  1.0 -0.2112086357
C  C65  1  0.18970000  0.39612000  0.26580000  1.0 -0.08002668
C  C66  1  0.39612000  0.18970000  0.23420000  1.0 -0.08002668
C  C67  1  0.81030000  0.60388000  0.73420000  1.0 -0.08002668
C  C68  1  0.60388000  0.81030000  0.76580000  1.0 -0.08002668
C  C69  1  0.21051000  0.46833000  0.31380000  1.0 -0.0305821182
C  C70  1  0.46833000  0.21051000  0.18620000  1.0 -0.0305821182
C  C71  1  0.78949000  0.53167000  0.68620000  1.0 -0.0305821182
C  C72  1  0.53167000  0.78949000  0.81380000  1.0 -0.0305821182
C  C73  1  0.25844000  0.47268000  0.45010000  1.0 -0.08002668
C  C74  1  0.47268000  0.25844000  0.04990000  1.0 -0.08002668
C  C75  1  0.74156000  0.52732000  0.54990000  1.0 -0.08002668
C  C76  1  0.52732000  0.74156000  0.95010000  1.0 -0.08002668
C  C77  1  0.28761000  0.40683000  0.53720000  1.0 -0.1978565537
C  C78  1  0.40683000  0.28761000  0.96280000  1.0 -0.1978565537
C  C79  1  0.71239000  0.59317000  0.46280000  1.0 -0.1978565537
C  C80  1  0.59317000  0.71239000  0.03720000  1.0 -0.1978565537
C  C81  1  0.18547000  0.54241000  0.21890000  1.0 0.5681737318
C  C82  1  0.54241000  0.18547000  0.28110000  1.0 0.5681737318
C  C83  1  0.81453000  0.45759000  0.78110000  1.0 0.5681737318
C  C84  1  0.45759000  0.81453000  0.71890000  1.0 0.5681737318
O  O1  1  0.40646000  0.03170000  0.56890000  1.0 -0.5494892493
O  O2  1  0.03170000  0.40646000  0.93110000  1.0 -0.5494892493
O  O3  1  0.59354000  0.96830000  0.43110000  1.0 -0.5494892493
O  O4  1  0.96830000  0.59354000  0.06890000  1.0 -0.5494892493
O  O5  1  0.30131000  0.93237000  0.59130000  1.0 -0.5603218124
O  O6  1  0.93237000  0.30131000  0.90870000  1.0 -0.5603218124
O  O7  1  0.69869000  0.06763000  0.40870000  1.0 -0.5603218124
O  O8  1  0.06763000  0.69869000  0.09130000  1.0 -0.5603218124
O  O9  1  0.07752000  0.06236000  0.57940000  1.0 -0.2112086357
O  O10  1  0.06236000  0.07752000  0.92060000  1.0 -0.2112086357
O  O11  1  0.92248000  0.93764000  0.42060000  1.0 -0.2112086357
O  O12  1  0.93764000  0.92248000  0.07940000  1.0 -0.2112086357
O  O13  1  0.85002000  0.28244000  0.16170000  1.0 -0.5717712537
O  O14  1  0.28244000  0.85002000  0.33830000  1.0 -0.5717712537
O  O15  1  0.14998000  0.71756000  0.83830000  1.0 -0.5717712537
O  O16  1  0.71756000  0.14998000  0.66170000  1.0 -0.5717712537
O  O17  1  0.78654000  0.24248000  0.34990000  1.0 -0.5494892493
O  O18  1  0.24248000  0.78654000  0.15010000  1.0 -0.5494892493
O  O19  1  0.21346000  0.75752000  0.65010000  1.0 -0.5494892493
O  O20  1  0.75752000  0.21346000  0.84990000  1.0 -0.5494892493
O  O21  1  0.30742000  0.27654000  0.57070000  1.0 -0.2112086357
O  O22  1  0.27654000  0.30742000  0.92930000  1.0 -0.2112086357
O  O23  1  0.69258000  0.72346000  0.42930000  1.0 -0.2112086357
O  O24  1  0.72346000  0.69258000  0.07070000  1.0 -0.2112086357
O  O25  1  0.13933000  0.54019000  0.09440000  1.0 -0.6037744627
O  O26  1  0.54019000  0.13933000  0.40560000  1.0 -0.6037744627
O  O27  1  0.86067000  0.45981000  0.90560000  1.0 -0.6037744627
O  O28  1  0.45981000  0.86067000  0.59440000  1.0 -0.6037744627
O  O29  1  0.21517000  0.60767000  0.26370000  1.0 -0.5176135794
O  O30  1  0.60767000  0.21517000  0.23630000  1.0 -0.5176135794
O  O31  1  0.78483000  0.39233000  0.73630000  1.0 -0.5176135794
O  O32  1  0.39233000  0.78483000  0.76370000  1.0 -0.5176135794
