# DDEC6 charges by PACMAN v1.1 (https://github.com/mtap-research/PACMAN-charge/)
data_MICDAG_FSR_pacman
_symmetry_space_group_name_H-M   'P 1'
_cell_length_a   8.16910000
_cell_length_b   17.27880000
_cell_length_c   20.80030000
_cell_angle_alpha   90.00000000
_cell_angle_beta   95.59800000
_cell_angle_gamma   90.00000000
_symmetry_Int_Tables_number   1
_chemical_formula_structural   Zn2H19C26(NO2)5
_chemical_formula_sum   'Zn8 H76 C104 N20 O40'
_cell_volume   2922.00664563
_cell_formula_units_Z   4
loop_
 _symmetry_equiv_pos_site_id
 _symmetry_equiv_pos_as_xyz
  1  'x, y, z'
loop_
 _atom_site_type_symbol
 _atom_site_label
 _atom_site_symmetry_multiplicity
 _atom_site_fract_x
 _atom_site_fract_y
 _atom_site_fract_z
 _atom_site_occupancy
 _atom_site_charge
Zn  Zn1  1  0.43649000  0.83013000  0.49447000  1.0 0.8631564182
Zn  Zn2  1  0.11917000  0.81956000  0.01431000  1.0 0.8631564182
Zn  Zn3  1  0.56351000  0.33013000  0.00553000  1.0 0.8631564182
Zn  Zn4  1  0.88083000  0.31956000  0.48569000  1.0 0.8631564182
Zn  Zn5  1  0.56351000  0.16987000  0.50553000  1.0 0.8631564182
Zn  Zn6  1  0.88083000  0.18044000  0.98569000  1.0 0.8631564182
Zn  Zn7  1  0.43649000  0.66987000  0.99447000  1.0 0.8631564182
Zn  Zn8  1  0.11917000  0.68044000  0.51431000  1.0 0.8631564182
H  H1  1  0.72120000  0.85000000  0.45850000  1.0 0.3423571986
H  H2  1  0.62860000  0.85090000  0.40280000  1.0 0.3238161308
H  H3  1  0.91010000  0.85790000  0.10000000  1.0 0.3423571986
H  H4  1  0.82170000  0.85610000  0.04100000  1.0 0.3631375459
H  H5  1  0.78770000  0.99220000  0.75480000  1.0 0.2978459996
H  H6  1  0.63980000  0.53970000  0.47420000  1.0 0.1214022305
H  H7  1  0.46240000  0.45110000  0.30320000  1.0 0.1214022305
H  H8  1  0.34040000  0.66710000  0.35210000  1.0 0.1401320881
H  H9  1  0.03750000  0.41860000  0.17470000  1.0 0.1214022305
H  H10  1  0.85060000  0.54490000  0.02360000  1.0 0.1214022305
H  H11  1  0.20580000  0.63370000  0.14840000  1.0 0.130921061
H  H12  1  0.66200000  0.76340000  0.60530000  1.0 0.1214022305
H  H13  1  0.80250000  0.80290000  0.69980000  1.0 0.1401320881
H  H14  1  0.57730000  0.00860000  0.67490000  1.0 0.1514167837
H  H15  1  0.45190000  0.96480000  0.57950000  1.0 0.1214022305
H  H16  1  0.93500000  0.75300000  0.89160000  1.0 0.1214022305
H  H17  1  0.80640000  0.79570000  0.79630000  1.0 0.1401320881
H  H18  1  0.95570000  0.00980000  0.84630000  1.0 0.1401320881
H  H19  1  0.07730000  0.96130000  0.94050000  1.0 0.1214022305
H  H20  1  0.27880000  0.35000000  0.04150000  1.0 0.3423571986
H  H21  1  0.37140000  0.35090000  0.09720000  1.0 0.3238161308
H  H22  1  0.08990000  0.35790000  0.40000000  1.0 0.3423571986
H  H23  1  0.17830000  0.35610000  0.45900000  1.0 0.3631375459
H  H24  1  0.21230000  0.49220000  0.74520000  1.0 0.2978459996
H  H25  1  0.36020000  0.03970000  0.02580000  1.0 0.1214022305
H  H26  1  0.53760000  0.95110000  0.19680000  1.0 0.1214022305
H  H27  1  0.65960000  0.16710000  0.14790000  1.0 0.1401320881
H  H28  1  0.96250000  0.91860000  0.32530000  1.0 0.1214022305
H  H29  1  0.14940000  0.04490000  0.47640000  1.0 0.1214022305
H  H30  1  0.79420000  0.13370000  0.35160000  1.0 0.130921061
H  H31  1  0.33800000  0.26340000  0.89470000  1.0 0.1214022305
H  H32  1  0.19750000  0.30290000  0.80020000  1.0 0.1401320881
H  H33  1  0.42270000  0.50860000  0.82510000  1.0 0.1514167837
H  H34  1  0.54810000  0.46480000  0.92050000  1.0 0.1214022305
H  H35  1  0.06500000  0.25300000  0.60840000  1.0 0.1214022305
H  H36  1  0.19360000  0.29570000  0.70370000  1.0 0.1401320881
H  H37  1  0.04430000  0.50980000  0.65370000  1.0 0.1401320881
H  H38  1  0.92270000  0.46130000  0.55950000  1.0 0.1214022305
H  H39  1  0.27880000  0.15000000  0.54150000  1.0 0.3423571986
H  H40  1  0.37140000  0.14910000  0.59720000  1.0 0.3238161308
H  H41  1  0.08990000  0.14210000  0.90000000  1.0 0.3423571986
H  H42  1  0.17830000  0.14390000  0.95900000  1.0 0.3631375459
H  H43  1  0.21230000  0.00780000  0.24520000  1.0 0.2978459996
H  H44  1  0.36020000  0.46030000  0.52580000  1.0 0.1214022305
H  H45  1  0.53760000  0.54890000  0.69680000  1.0 0.1214022305
H  H46  1  0.65960000  0.33290000  0.64790000  1.0 0.1401320881
H  H47  1  0.96250000  0.58140000  0.82530000  1.0 0.1214022305
H  H48  1  0.14940000  0.45510000  0.97640000  1.0 0.1214022305
H  H49  1  0.79420000  0.36630000  0.85160000  1.0 0.130921061
H  H50  1  0.33800000  0.23660000  0.39470000  1.0 0.1214022305
H  H51  1  0.19750000  0.19710000  0.30020000  1.0 0.1401320881
H  H52  1  0.42270000  0.99140000  0.32510000  1.0 0.1514167837
H  H53  1  0.54810000  0.03520000  0.42050000  1.0 0.1214022305
H  H54  1  0.06500000  0.24700000  0.10840000  1.0 0.1214022305
H  H55  1  0.19360000  0.20430000  0.20370000  1.0 0.1401320881
H  H56  1  0.04430000  0.99020000  0.15370000  1.0 0.1401320881
H  H57  1  0.92270000  0.03870000  0.05950000  1.0 0.1214022305
H  H58  1  0.72120000  0.65000000  0.95850000  1.0 0.3423571986
H  H59  1  0.62860000  0.64910000  0.90280000  1.0 0.3238161308
H  H60  1  0.91010000  0.64210000  0.60000000  1.0 0.3423571986
H  H61  1  0.82170000  0.64390000  0.54100000  1.0 0.3631375459
H  H62  1  0.78770000  0.50780000  0.25480000  1.0 0.2978459996
H  H63  1  0.63980000  0.96030000  0.97420000  1.0 0.1214022305
H  H64  1  0.46240000  0.04890000  0.80320000  1.0 0.1214022305
H  H65  1  0.34040000  0.83290000  0.85210000  1.0 0.1401320881
H  H66  1  0.03750000  0.08140000  0.67470000  1.0 0.1214022305
H  H67  1  0.85060000  0.95510000  0.52360000  1.0 0.1214022305
H  H68  1  0.20580000  0.86630000  0.64840000  1.0 0.130921061
H  H69  1  0.66200000  0.73660000  0.10530000  1.0 0.1214022305
H  H70  1  0.80250000  0.69710000  0.19980000  1.0 0.1401320881
H  H71  1  0.57730000  0.49140000  0.17490000  1.0 0.1514167837
H  H72  1  0.45190000  0.53520000  0.07950000  1.0 0.1214022305
H  H73  1  0.93500000  0.74700000  0.39160000  1.0 0.1214022305
H  H74  1  0.80640000  0.70430000  0.29630000  1.0 0.1401320881
H  H75  1  0.95570000  0.49020000  0.34630000  1.0 0.1401320881
H  H76  1  0.07730000  0.53870000  0.44050000  1.0 0.1214022305
C  C1  1  0.48940000  0.61321000  0.42129000  1.0 -0.0108605668
C  C2  1  0.57490000  0.54471000  0.43515000  1.0 -0.1200017221
C  C3  1  0.56480000  0.48361000  0.39146000  1.0 -0.0156882658
C  C4  1  0.46990000  0.49165000  0.33278000  1.0 -0.1796011432
C  C5  1  0.38590000  0.56063000  0.31835000  1.0 0.1514167837
C  C6  1  0.39620000  0.62112000  0.36224000  1.0 -0.1644677065
C  C7  1  0.13570000  0.52567000  0.17211000  1.0 0.1514167837
C  C8  1  0.03260000  0.46468000  0.15156000  1.0 -0.1796011432
C  C9  1  0.92280000  0.47216000  0.09691000  1.0 -0.0108605668
C  C10  1  0.92320000  0.53971000  0.06065000  1.0 -0.1200017221
C  C11  1  0.03080000  0.59928000  0.07921000  1.0 -0.0108605668
C  C12  1  0.13570000  0.59311000  0.13528000  1.0 -0.1644677065
C  C13  1  0.50160000  0.67832000  0.46872000  1.0 0.5744490278
C  C14  1  0.65950000  0.41036000  0.40606000  1.0 0.5593372312
C  C15  1  0.79870000  0.40989000  0.08063000  1.0 0.5593372312
C  C16  1  0.03300000  0.67142000  0.03901000  1.0 0.5744490278
C  C17  1  0.64610000  0.81367000  0.61943000  1.0 0.1071951826
C  C18  1  0.73020000  0.83660000  0.67662000  1.0 -0.2334611513
C  C19  1  0.70580000  0.91047000  0.69926000  1.0 0.2680446756
C  C20  1  0.59740000  0.95852000  0.66135000  1.0 -0.2334611513
C  C21  1  0.52150000  0.93164000  0.60447000  1.0 0.0966361639
C  C22  1  0.93880000  0.80550000  0.88229000  1.0 0.1071951826
C  C23  1  0.86120000  0.83080000  0.82471000  1.0 -0.2334611513
C  C24  1  0.86470000  0.90863000  0.80887000  1.0 0.2680446756
C  C25  1  0.94930000  0.95698000  0.85448000  1.0 -0.2388272371
C  C26  1  0.02250000  0.92745000  0.91093000  1.0 0.0927386981
C  C27  1  0.51060000  0.11321000  0.07871000  1.0 -0.0108605668
C  C28  1  0.42510000  0.04471000  0.06485000  1.0 -0.1200017221
C  C29  1  0.43520000  0.98361000  0.10854000  1.0 -0.0156882658
C  C30  1  0.53010000  0.99165000  0.16722000  1.0 -0.1796011432
C  C31  1  0.61410000  0.06063000  0.18165000  1.0 0.1514167837
C  C32  1  0.60380000  0.12112000  0.13776000  1.0 -0.1644677065
C  C33  1  0.86430000  0.02567000  0.32789000  1.0 0.1514167837
C  C34  1  0.96740000  0.96468000  0.34844000  1.0 -0.1796011432
C  C35  1  0.07720000  0.97216000  0.40309000  1.0 -0.0108605668
C  C36  1  0.07680000  0.03971000  0.43935000  1.0 -0.1200017221
C  C37  1  0.96920000  0.09928000  0.42079000  1.0 -0.0108605668
C  C38  1  0.86430000  0.09311000  0.36472000  1.0 -0.1644677065
C  C39  1  0.49840000  0.17832000  0.03128000  1.0 0.5744490278
C  C40  1  0.34050000  0.91036000  0.09394000  1.0 0.5593372312
C  C41  1  0.20130000  0.90989000  0.41937000  1.0 0.5593372312
C  C42  1  0.96700000  0.17142000  0.46099000  1.0 0.5744490278
C  C43  1  0.35390000  0.31367000  0.88057000  1.0 0.1071951826
C  C44  1  0.26980000  0.33660000  0.82338000  1.0 -0.2334611513
C  C45  1  0.29420000  0.41047000  0.80074000  1.0 0.2680446756
C  C46  1  0.40260000  0.45852000  0.83865000  1.0 -0.2334611513
C  C47  1  0.47850000  0.43164000  0.89553000  1.0 0.0966361639
C  C48  1  0.06120000  0.30550000  0.61771000  1.0 0.1071951826
C  C49  1  0.13880000  0.33080000  0.67529000  1.0 -0.2334611513
C  C50  1  0.13530000  0.40863000  0.69113000  1.0 0.2680446756
C  C51  1  0.05070000  0.45698000  0.64552000  1.0 -0.2388272371
C  C52  1  0.97750000  0.42745000  0.58907000  1.0 0.0927386981
C  C53  1  0.51060000  0.38679000  0.57871000  1.0 -0.0108605668
C  C54  1  0.42510000  0.45529000  0.56485000  1.0 -0.1200017221
C  C55  1  0.43520000  0.51639000  0.60854000  1.0 -0.0156882658
C  C56  1  0.53010000  0.50835000  0.66722000  1.0 -0.1796011432
C  C57  1  0.61410000  0.43937000  0.68165000  1.0 0.1514167837
C  C58  1  0.60380000  0.37888000  0.63776000  1.0 -0.1644677065
C  C59  1  0.86430000  0.47433000  0.82789000  1.0 0.1514167837
C  C60  1  0.96740000  0.53532000  0.84844000  1.0 -0.1796011432
C  C61  1  0.07720000  0.52784000  0.90309000  1.0 -0.0108605668
C  C62  1  0.07680000  0.46029000  0.93935000  1.0 -0.1200017221
C  C63  1  0.96920000  0.40072000  0.92079000  1.0 -0.0108605668
C  C64  1  0.86430000  0.40689000  0.86472000  1.0 -0.1644677065
C  C65  1  0.49840000  0.32168000  0.53128000  1.0 0.5744490278
C  C66  1  0.34050000  0.58964000  0.59394000  1.0 0.5593372312
C  C67  1  0.20130000  0.59011000  0.91937000  1.0 0.5593372312
C  C68  1  0.96700000  0.32858000  0.96099000  1.0 0.5744490278
C  C69  1  0.35390000  0.18633000  0.38057000  1.0 0.1071951826
C  C70  1  0.26980000  0.16340000  0.32338000  1.0 -0.2334611513
C  C71  1  0.29420000  0.08953000  0.30074000  1.0 0.2680446756
C  C72  1  0.40260000  0.04148000  0.33865000  1.0 -0.2334611513
C  C73  1  0.47850000  0.06836000  0.39553000  1.0 0.0966361639
C  C74  1  0.06120000  0.19450000  0.11771000  1.0 0.1071951826
C  C75  1  0.13880000  0.16920000  0.17529000  1.0 -0.2334611513
C  C76  1  0.13530000  0.09137000  0.19113000  1.0 0.2680446756
C  C77  1  0.05070000  0.04302000  0.14552000  1.0 -0.2388272371
C  C78  1  0.97750000  0.07255000  0.08907000  1.0 0.0927386981
C  C79  1  0.48940000  0.88679000  0.92129000  1.0 -0.0108605668
C  C80  1  0.57490000  0.95529000  0.93515000  1.0 -0.1264695036
C  C81  1  0.56480000  0.01639000  0.89146000  1.0 -0.0156882658
C  C82  1  0.46990000  0.00835000  0.83278000  1.0 -0.1796011432
C  C83  1  0.38590000  0.93937000  0.81835000  1.0 0.1514167837
C  C84  1  0.39620000  0.87888000  0.86224000  1.0 -0.1644677065
C  C85  1  0.13570000  0.97433000  0.67211000  1.0 0.1514167837
C  C86  1  0.03260000  0.03532000  0.65156000  1.0 -0.1796011432
C  C87  1  0.92280000  0.02784000  0.59691000  1.0 -0.0108605668
C  C88  1  0.92320000  0.96029000  0.56065000  1.0 -0.1200017221
C  C89  1  0.03080000  0.90072000  0.57921000  1.0 -0.0108605668
C  C90  1  0.13570000  0.90689000  0.63528000  1.0 -0.1644677065
C  C91  1  0.50160000  0.82168000  0.96872000  1.0 0.5744490278
C  C92  1  0.65950000  0.08964000  0.90606000  1.0 0.5593372312
C  C93  1  0.79870000  0.09011000  0.58063000  1.0 0.5593372312
C  C94  1  0.03300000  0.82858000  0.53901000  1.0 0.5744490278
C  C95  1  0.64610000  0.68633000  0.11943000  1.0 0.1071951826
C  C96  1  0.73020000  0.66340000  0.17662000  1.0 -0.2334611513
C  C97  1  0.70580000  0.58953000  0.19926000  1.0 0.2680446756
C  C98  1  0.59740000  0.54148000  0.16135000  1.0 -0.2334611513
C  C99  1  0.52150000  0.56836000  0.10447000  1.0 0.0966361639
C  C100  1  0.93880000  0.69450000  0.38229000  1.0 0.1071951826
C  C101  1  0.86120000  0.66920000  0.32471000  1.0 -0.2334611513
C  C102  1  0.86470000  0.59137000  0.30887000  1.0 0.2680446756
C  C103  1  0.94930000  0.54302000  0.35448000  1.0 -0.2388272371
C  C104  1  0.02250000  0.57255000  0.41093000  1.0 0.0927386981
N  N1  1  0.28960000  0.57407000  0.25863000  1.0 -0.1264695036
N  N2  1  0.23250000  0.51385000  0.23181000  1.0 -0.1384439963
N  N3  1  0.54280000  0.85919000  0.58277000  1.0 -0.2559754449
N  N4  1  0.78630000  0.94248000  0.75441000  1.0 -0.3038469824
N  N5  1  0.01950000  0.85200000  0.92588000  1.0 -0.2559754449
N  N6  1  0.71040000  0.07407000  0.24137000  1.0 -0.1264695036
N  N7  1  0.76750000  0.01385000  0.26819000  1.0 -0.1384439963
N  N8  1  0.45720000  0.35919000  0.91723000  1.0 -0.2559754449
N  N9  1  0.21370000  0.44248000  0.74559000  1.0 -0.3038469824
N  N10  1  0.98050000  0.35200000  0.57412000  1.0 -0.2559754449
N  N11  1  0.71040000  0.42593000  0.74137000  1.0 -0.1264695036
N  N12  1  0.76750000  0.48615000  0.76819000  1.0 -0.1384439963
N  N13  1  0.45720000  0.14081000  0.41723000  1.0 -0.2559754449
N  N14  1  0.21370000  0.05752000  0.24559000  1.0 -0.3038469824
N  N15  1  0.98050000  0.14800000  0.07412000  1.0 -0.2559754449
N  N16  1  0.28960000  0.92593000  0.75863000  1.0 -0.1264695036
N  N17  1  0.23250000  0.98615000  0.73181000  1.0 -0.1384439963
N  N18  1  0.54280000  0.64081000  0.08277000  1.0 -0.2559754449
N  N19  1  0.78630000  0.55752000  0.25441000  1.0 -0.3038469824
N  N20  1  0.01950000  0.64800000  0.42588000  1.0 -0.2559754449
O  O1  1  0.38260000  0.72715000  0.46253000  1.0 -0.569527326
O  O2  1  0.61990000  0.68414000  0.50913000  1.0 -0.5283402401
O  O3  1  0.73870000  0.40703000  0.46153000  1.0 -0.569527326
O  O4  1  0.66010000  0.35920000  0.36451000  1.0 -0.5403146742
O  O5  1  0.77610000  0.35930000  0.12087000  1.0 -0.5403146742
O  O6  1  0.71880000  0.41395000  0.02513000  1.0 -0.5533575612
O  O7  1  0.92570000  0.68276000  0.99415000  1.0 -0.5403146742
O  O8  1  0.14980000  0.71891000  0.05488000  1.0 -0.569527326
O  O9  1  0.62540000  0.86270000  0.44237000  1.0 -0.6513018209
O  O10  1  0.91830000  0.86138000  0.05972000  1.0 -0.6609769213
O  O11  1  0.61740000  0.22715000  0.03747000  1.0 -0.569527326
O  O12  1  0.38010000  0.18414000  0.99087000  1.0 -0.5283402401
O  O13  1  0.26130000  0.90703000  0.03847000  1.0 -0.5644031364
O  O14  1  0.33990000  0.85920000  0.13549000  1.0 -0.5403146742
O  O15  1  0.22390000  0.85930000  0.37913000  1.0 -0.5403146742
O  O16  1  0.28120000  0.91395000  0.47487000  1.0 -0.5533575612
O  O17  1  0.07430000  0.18276000  0.50585000  1.0 -0.5403146742
O  O18  1  0.85020000  0.21891000  0.44512000  1.0 -0.569527326
O  O19  1  0.37460000  0.36270000  0.05763000  1.0 -0.6513018209
O  O20  1  0.08170000  0.36138000  0.44028000  1.0 -0.6609769213
O  O21  1  0.61740000  0.27285000  0.53747000  1.0 -0.569527326
O  O22  1  0.38010000  0.31586000  0.49087000  1.0 -0.5283402401
O  O23  1  0.26130000  0.59297000  0.53847000  1.0 -0.569527326
O  O24  1  0.33990000  0.64080000  0.63549000  1.0 -0.5403146742
O  O25  1  0.22390000  0.64070000  0.87913000  1.0 -0.5403146742
O  O26  1  0.28120000  0.58605000  0.97487000  1.0 -0.5533575612
O  O27  1  0.07430000  0.31724000  0.00585000  1.0 -0.5403146742
O  O28  1  0.85020000  0.28109000  0.94512000  1.0 -0.569527326
O  O29  1  0.37460000  0.13730000  0.55763000  1.0 -0.6513018209
O  O30  1  0.08170000  0.13862000  0.94028000  1.0 -0.6609769213
O  O31  1  0.38260000  0.77285000  0.96253000  1.0 -0.569527326
O  O32  1  0.61990000  0.81586000  0.00913000  1.0 -0.5283402401
O  O33  1  0.73870000  0.09297000  0.96153000  1.0 -0.569527326
O  O34  1  0.66010000  0.14080000  0.86451000  1.0 -0.5403146742
O  O35  1  0.77610000  0.14070000  0.62087000  1.0 -0.5403146742
O  O36  1  0.71880000  0.08605000  0.52513000  1.0 -0.5533575612
O  O37  1  0.92570000  0.81724000  0.49415000  1.0 -0.5403146742
O  O38  1  0.14980000  0.78109000  0.55488000  1.0 -0.569527326
O  O39  1  0.62540000  0.63730000  0.94237000  1.0 -0.6513018209
O  O40  1  0.91830000  0.63862000  0.55972000  1.0 -0.6609769213
