# DDEC6 charges by PACMAN v1.1 (https://github.com/mtap-research/PACMAN-charge/)
data_MICNUI_FSR_pacman
_symmetry_space_group_name_H-M   'P 1'
_cell_length_a   13.03660000
_cell_length_b   13.03660000
_cell_length_c   16.24000000
_cell_angle_alpha   70.46070000
_cell_angle_beta   109.53900000
_cell_angle_gamma   84.52520000
_symmetry_Int_Tables_number   1
_chemical_formula_structural   CdH32C44N6(O3F4)2
_chemical_formula_sum   'Cd2 H64 C88 N12 O12 F16'
_cell_volume   2383.62024698
_cell_formula_units_Z   2
loop_
 _symmetry_equiv_pos_site_id
 _symmetry_equiv_pos_as_xyz
  1  'x, y, z'
loop_
 _atom_site_type_symbol
 _atom_site_label
 _atom_site_symmetry_multiplicity
 _atom_site_fract_x
 _atom_site_fract_y
 _atom_site_fract_z
 _atom_site_occupancy
 _atom_site_charge
Cd  Cd1  1  0.37885000  0.37885000  0.25000000  1.0 0.6682439512
Cd  Cd2  1  0.62115000  0.62115000  0.75000000  1.0 0.6682439512
H  H1  1  0.44440000  0.56860000  0.32790000  1.0 0.0513853006
H  H2  1  0.56860000  0.44440000  0.17210000  1.0 0.0513853006
H  H3  1  0.55560000  0.43140000  0.67210000  1.0 0.0513853006
H  H4  1  0.43140000  0.55560000  0.82790000  1.0 0.0513853006
H  H5  1  0.63210000  0.26990000  0.41660000  1.0 0.0719969972
H  H6  1  0.26990000  0.63210000  0.08340000  1.0 0.0719969972
H  H7  1  0.36790000  0.73010000  0.58340000  1.0 0.0719969972
H  H8  1  0.73010000  0.36790000  0.91660000  1.0 0.0719969972
H  H9  1  0.58760000  0.62060000  0.42340000  1.0 0.0772923427
H  H10  1  0.62060000  0.58760000  0.07660000  1.0 0.0772923427
H  H11  1  0.41240000  0.37940000  0.57660000  1.0 0.0772923427
H  H12  1  0.37940000  0.41240000  0.92340000  1.0 0.0772923427
H  H13  1  0.78200000  0.31560000  0.51230000  1.0 0.0999864412
H  H14  1  0.31560000  0.78200000  0.98770000  1.0 0.0999864412
H  H15  1  0.21800000  0.68440000  0.48770000  1.0 0.0999864412
H  H16  1  0.68440000  0.21800000  0.01230000  1.0 0.0999864412
H  H17  1  0.21730000  0.45550000  0.02900000  1.0 0.0999864412
H  H18  1  0.45550000  0.21730000  0.47100000  1.0 0.0999864412
H  H19  1  0.78270000  0.54450000  0.97100000  1.0 0.0999864412
H  H20  1  0.54450000  0.78270000  0.52900000  1.0 0.0999864412
H  H21  1  0.31280000  0.15700000  0.22280000  1.0 0.1102279168
H  H22  1  0.15700000  0.31280000  0.27720000  1.0 0.1102279168
H  H23  1  0.68720000  0.84300000  0.77720000  1.0 0.1102279168
H  H24  1  0.84300000  0.68720000  0.72280000  1.0 0.1102279168
H  H25  1  0.12400000  0.38740000  0.92000000  1.0 0.1395950979
H  H26  1  0.38740000  0.12400000  0.58000000  1.0 0.1395950979
H  H27  1  0.87600000  0.61260000  0.08000000  1.0 0.1395950979
H  H28  1  0.61260000  0.87600000  0.42000000  1.0 0.1395950979
H  H29  1  0.22260000  0.08140000  0.12200000  1.0 0.1395950979
H  H30  1  0.08140000  0.22260000  0.37800000  1.0 0.1395950979
H  H31  1  0.77740000  0.91860000  0.87800000  1.0 0.1395950979
H  H32  1  0.91860000  0.77740000  0.62200000  1.0 0.1395950979
H  H33  1  0.04250000  0.24450000  0.87780000  1.0 0.1395950979
H  H34  1  0.24450000  0.04250000  0.62220000  1.0 0.1395950979
H  H35  1  0.95750000  0.75550000  0.12220000  1.0 0.1395950979
H  H36  1  0.75550000  0.95750000  0.37780000  1.0 0.1395950979
H  H37  1  0.15430000  0.15890000  0.90850000  1.0 0.1345844782
H  H38  1  0.15890000  0.15430000  0.59150000  1.0 0.1345844782
H  H39  1  0.84570000  0.84110000  0.09150000  1.0 0.1345844782
H  H40  1  0.84110000  0.84570000  0.40850000  1.0 0.1345844782
H  H41  1  0.76840000  0.58460000  0.53430000  1.0 0.1102279168
H  H42  1  0.58460000  0.76840000  0.96570000  1.0 0.1102279168
H  H43  1  0.23160000  0.41540000  0.46570000  1.0 0.1102279168
H  H44  1  0.41540000  0.23160000  0.03430000  1.0 0.1102279168
H  H45  1  0.81590000  0.45590000  0.60900000  1.0 0.1219631779
H  H46  1  0.45590000  0.81590000  0.89100000  1.0 0.1219631779
H  H47  1  0.18410000  0.54410000  0.39100000  1.0 0.1219631779
H  H48  1  0.54410000  0.18410000  0.10900000  1.0 0.1219631779
H  H49  1  0.43550000  0.51430000  0.39460000  1.0 0.0513853006
H  H50  1  0.51430000  0.43550000  0.10540000  1.0 0.0513853006
H  H51  1  0.56450000  0.48570000  0.60540000  1.0 0.0513853006
H  H52  1  0.48570000  0.56450000  0.89460000  1.0 0.0513853006
H  H53  1  0.64500000  0.31360000  0.36300000  1.0 0.0772923427
H  H54  1  0.31360000  0.64500000  0.13700000  1.0 0.0772923427
H  H55  1  0.35500000  0.68640000  0.63700000  1.0 0.0772923427
H  H56  1  0.68640000  0.35500000  0.86300000  1.0 0.0772923427
H  H57  1  0.57690000  0.57110000  0.48240000  1.0 0.0772923427
H  H58  1  0.57110000  0.57690000  0.01760000  1.0 0.0772923427
H  H59  1  0.42310000  0.42890000  0.51760000  1.0 0.0772923427
H  H60  1  0.42890000  0.42310000  0.98240000  1.0 0.0772923427
H  H61  1  0.79310000  0.36350000  0.45050000  1.0 0.0999864412
H  H62  1  0.36350000  0.79310000  0.04950000  1.0 0.0999864412
H  H63  1  0.20690000  0.63650000  0.54950000  1.0 0.0999864412
H  H64  1  0.63650000  0.20690000  0.95050000  1.0 0.0999864412
C  C1  1  0.22014000  0.37716000  0.04733000  1.0 0.0513853006
C  C2  1  0.37716000  0.22014000  0.45267000  1.0 0.0513853006
C  C3  1  0.77986000  0.62284000  0.95267000  1.0 0.0513853006
C  C4  1  0.62284000  0.77986000  0.54733000  1.0 0.0513853006
C  C5  1  0.27511000  0.20209000  0.16365000  1.0 0.09377105
C  C6  1  0.20209000  0.27511000  0.33635000  1.0 0.09377105
C  C7  1  0.72489000  0.79791000  0.83635000  1.0 0.09377105
C  C8  1  0.79791000  0.72489000  0.66365000  1.0 0.09377105
C  C9  1  0.16280000  0.33900000  0.97976000  1.0 -0.1917723066
C  C10  1  0.33900000  0.16280000  0.52024000  1.0 -0.1917723066
C  C11  1  0.83720000  0.66100000  0.02024000  1.0 -0.1917723066
C  C12  1  0.66100000  0.83720000  0.47976000  1.0 -0.1917723066
C  C13  1  0.21970000  0.15738000  0.10023000  1.0 -0.1917723066
C  C14  1  0.15738000  0.21970000  0.39977000  1.0 -0.1917723066
C  C15  1  0.78030000  0.84262000  0.89977000  1.0 -0.1917723066
C  C16  1  0.84262000  0.78030000  0.60023000  1.0 -0.1917723066
C  C17  1  0.16192000  0.22664000  0.00538000  1.0 0.1853134102
C  C18  1  0.22664000  0.16192000  0.49462000  1.0 0.1853134102
C  C19  1  0.83808000  0.77336000  0.99462000  1.0 0.1853134102
C  C20  1  0.77336000  0.83808000  0.50538000  1.0 0.1853134102
C  C21  1  0.10067000  0.18479000  0.93027000  1.0 -0.2680099094
C  C22  1  0.18479000  0.10067000  0.56973000  1.0 -0.2680099094
C  C23  1  0.89933000  0.81521000  0.06973000  1.0 -0.2680099094
C  C24  1  0.81521000  0.89933000  0.43027000  1.0 -0.2680099094
C  C25  1  0.04954000  0.08956000  0.96633000  1.0 -0.0526850493
C  C26  1  0.08956000  0.04954000  0.53367000  1.0 -0.0526850493
C  C27  1  0.95046000  0.91044000  0.03367000  1.0 -0.0526850493
C  C28  1  0.91044000  0.95046000  0.46633000  1.0 -0.0526850493
C  C29  1  0.94637000  0.10797000  0.97252000  1.0 0.0999864412
C  C30  1  0.10797000  0.94637000  0.52748000  1.0 0.0999864412
C  C31  1  0.05363000  0.89203000  0.02748000  1.0 0.0999864412
C  C32  1  0.89203000  0.05363000  0.47252000  1.0 0.0999864412
C  C33  1  0.89836000  0.02140000  0.00426000  1.0 0.09377105
C  C34  1  0.02140000  0.89836000  0.49574000  1.0 0.0999864412
C  C35  1  0.10164000  0.97860000  0.99574000  1.0 0.0999864412
C  C36  1  0.97860000  0.10164000  0.50426000  1.0 0.0999864412
C  C37  1  0.51400000  0.51560000  0.36650000  1.0 0.0191677409
C  C38  1  0.51560000  0.51400000  0.13350000  1.0 0.0191677409
C  C39  1  0.48600000  0.48440000  0.63350000  1.0 0.0191677409
C  C40  1  0.48440000  0.48600000  0.86650000  1.0 0.0191677409
C  C41  1  0.62250000  0.34270000  0.41740000  1.0 0.0191677409
C  C42  1  0.34270000  0.62250000  0.08260000  1.0 0.0191677409
C  C43  1  0.37750000  0.65730000  0.58260000  1.0 0.0191677409
C  C44  1  0.65730000  0.37750000  0.91740000  1.0 0.0191677409
C  C45  1  0.59960000  0.54800000  0.42280000  1.0 -0.0407316209
C  C46  1  0.54800000  0.59960000  0.07720000  1.0 -0.0407316209
C  C47  1  0.40040000  0.45200000  0.57720000  1.0 -0.0407316209
C  C48  1  0.45200000  0.40040000  0.92280000  1.0 -0.0407316209
C  C49  1  0.71300000  0.36960000  0.47500000  1.0 -0.0319202956
C  C50  1  0.36960000  0.71300000  0.02500000  1.0 -0.0319202956
C  C51  1  0.28700000  0.63040000  0.52500000  1.0 -0.0319202956
C  C52  1  0.63040000  0.28700000  0.97500000  1.0 -0.0319202956
C  C53  1  0.70227000  0.47381000  0.47782000  1.0 0.0772923427
C  C54  1  0.47381000  0.70227000  0.02218000  1.0 0.0772923427
C  C55  1  0.29773000  0.52619000  0.52218000  1.0 0.0772923427
C  C56  1  0.52619000  0.29773000  0.97782000  1.0 0.0772923427
C  C57  1  0.79722000  0.50516000  0.54211000  1.0 -0.3043810361
C  C58  1  0.50516000  0.79722000  0.95789000  1.0 -0.3043810361
C  C59  1  0.20278000  0.49484000  0.45789000  1.0 -0.3043810361
C  C60  1  0.49484000  0.20278000  0.04211000  1.0 -0.3043810361
C  C61  1  0.90123000  0.50047000  0.52006000  1.0 -0.0681530954
C  C62  1  0.50047000  0.90123000  0.97994000  1.0 -0.0681530954
C  C63  1  0.09877000  0.49953000  0.47994000  1.0 -0.0681530954
C  C64  1  0.49953000  0.09877000  0.02006000  1.0 -0.0681530954
C  C65  1  0.90749000  0.58425000  0.44398000  1.0 0.0999864412
C  C66  1  0.58425000  0.90749000  0.05602000  1.0 0.0999864412
C  C67  1  0.09251000  0.41575000  0.55602000  1.0 0.0999864412
C  C68  1  0.41575000  0.09251000  0.94398000  1.0 0.0999864412
C  C69  1  0.00292000  0.58516000  0.42453000  1.0 0.1102279168
C  C70  1  0.58516000  0.00292000  0.07547000  1.0 0.1102279168
C  C71  1  0.99708000  0.41484000  0.57547000  1.0 0.1102279168
C  C72  1  0.41484000  0.99708000  0.92453000  1.0 0.1102279168
C  C73  1  0.50990000  0.48450000  0.40420000  1.0 0.0093853381
C  C74  1  0.48450000  0.50990000  0.09580000  1.0 0.0093853381
C  C75  1  0.49010000  0.51550000  0.59580000  1.0 0.0093853381
C  C76  1  0.51550000  0.49010000  0.90420000  1.0 0.0093853381
C  C77  1  0.63010000  0.36910000  0.38600000  1.0 0.0093853381
C  C78  1  0.36910000  0.63010000  0.11400000  1.0 0.0093853381
C  C79  1  0.36990000  0.63090000  0.61400000  1.0 0.0093853381
C  C80  1  0.63090000  0.36990000  0.88600000  1.0 0.0093853381
C  C81  1  0.59400000  0.51760000  0.45830000  1.0 -0.0526850493
C  C82  1  0.51760000  0.59400000  0.04170000  1.0 -0.0526850493
C  C83  1  0.40600000  0.48240000  0.54170000  1.0 -0.0526850493
C  C84  1  0.48240000  0.40600000  0.95830000  1.0 -0.0526850493
C  C85  1  0.71920000  0.39700000  0.43950000  1.0 -0.0319202956
C  C86  1  0.39700000  0.71920000  0.06050000  1.0 -0.0319202956
C  C87  1  0.28080000  0.60300000  0.56050000  1.0 -0.0319202956
C  C88  1  0.60300000  0.28080000  0.93950000  1.0 -0.0319202956
N  N1  1  0.27696000  0.31028000  0.13901000  1.0 -0.2475202986
N  N2  1  0.31028000  0.27696000  0.36099000  1.0 -0.2475202986
N  N3  1  0.72304000  0.68972000  0.86099000  1.0 -0.2475202986
N  N4  1  0.68972000  0.72304000  0.63901000  1.0 -0.2475202986
N  N5  1  0.52406000  0.41384000  0.36378000  1.0 -0.1917723066
N  N6  1  0.41384000  0.52406000  0.13622000  1.0 -0.1917723066
N  N7  1  0.47594000  0.58616000  0.63622000  1.0 -0.1917723066
N  N8  1  0.58616000  0.47594000  0.86378000  1.0 -0.1917723066
N  N9  1  0.54159000  0.16427000  0.28889000  1.0 0.5593125489
N  N10  1  0.16427000  0.54159000  0.21111000  1.0 0.5593125489
N  N11  1  0.45841000  0.83573000  0.71111000  1.0 0.5593125489
N  N12  1  0.83573000  0.45841000  0.78889000  1.0 0.5542074508
O  O1  1  0.53075000  0.26437000  0.23651000  1.0 -0.4408004516
O  O2  1  0.26437000  0.53075000  0.26349000  1.0 -0.4408004516
O  O3  1  0.46925000  0.73563000  0.76349000  1.0 -0.4408004516
O  O4  1  0.73563000  0.46925000  0.73651000  1.0 -0.4408004516
O  O5  1  0.50650000  0.14680000  0.35327000  1.0 -0.3936942452
O  O6  1  0.14680000  0.50650000  0.14673000  1.0 -0.3955560559
O  O7  1  0.49350000  0.85320000  0.64673000  1.0 -0.3936942452
O  O8  1  0.85320000  0.49350000  0.85327000  1.0 -0.3936942452
O  O9  1  0.58255000  0.08677000  0.27427000  1.0 -0.3620836371
O  O10  1  0.08677000  0.58255000  0.22573000  1.0 -0.3620836371
O  O11  1  0.41745000  0.91323000  0.72573000  1.0 -0.3620836371
O  O12  1  0.91323000  0.41745000  0.77427000  1.0 -0.3620836371
F  F1  1  0.89091000  0.21379000  0.94602000  1.0 -0.1224088646
F  F2  1  0.21379000  0.89091000  0.55398000  1.0 -0.1224088646
F  F3  1  0.10909000  0.78621000  0.05398000  1.0 -0.1251322636
F  F4  1  0.78621000  0.10909000  0.44602000  1.0 -0.1224088646
F  F5  1  0.79687000  0.04597000  0.00722000  1.0 -0.1388294184
F  F6  1  0.04597000  0.79687000  0.49278000  1.0 -0.1388294184
F  F7  1  0.20313000  0.95403000  0.99278000  1.0 -0.1388294184
F  F8  1  0.95403000  0.20313000  0.50722000  1.0 -0.1388294184
F  F9  1  0.81667000  0.66939000  0.38616000  1.0 -0.1224088646
F  F10  1  0.66939000  0.81667000  0.11384000  1.0 -0.1224088646
F  F11  1  0.18333000  0.33061000  0.61384000  1.0 -0.1224088646
F  F12  1  0.33061000  0.18333000  0.88616000  1.0 -0.1224088646
F  F13  1  0.00142000  0.67106000  0.34966000  1.0 -0.113357284
F  F14  1  0.67106000  0.00142000  0.15034000  1.0 -0.113357284
F  F15  1  0.99858000  0.32894000  0.65034000  1.0 -0.113357284
F  F16  1  0.32894000  0.99858000  0.84966000  1.0 -0.113357284
