# DDEC6 charges by PACMAN v1.1 (https://github.com/mtap-research/PACMAN-charge/)
data_MIDCAF_ASR_pacman
_symmetry_space_group_name_H-M   'P 1'
_cell_length_a   25.55990000
_cell_length_b   25.55990000
_cell_length_c   12.78330000
_cell_angle_alpha   90.00000000
_cell_angle_beta   90.00000000
_cell_angle_gamma   90.00000000
_symmetry_Int_Tables_number   1
_chemical_formula_structural   ZnH8C16(NO2)2
_chemical_formula_sum   'Zn12 H96 C192 N24 O48'
_cell_volume   8351.43839478
_cell_formula_units_Z   12
loop_
 _symmetry_equiv_pos_site_id
 _symmetry_equiv_pos_as_xyz
  1  'x, y, z'
loop_
 _atom_site_type_symbol
 _atom_site_label
 _atom_site_symmetry_multiplicity
 _atom_site_fract_x
 _atom_site_fract_y
 _atom_site_fract_z
 _atom_site_occupancy
 _atom_site_charge
Zn  Zn1  1  0.12514000  0.12514000  0.00000000  1.0 1.0457789275
Zn  Zn2  1  0.62514000  0.37486000  0.50000000  1.0 1.0441800926
Zn  Zn3  1  0.87486000  0.87486000  0.00000000  1.0 1.0457789275
Zn  Zn4  1  0.37486000  0.62514000  0.50000000  1.0 1.0441800926
Zn  Zn5  1  0.20515000  0.04442000  0.16050000  1.0 0.9154177877
Zn  Zn6  1  0.54442000  0.29485000  0.66050000  1.0 0.9154177877
Zn  Zn7  1  0.79485000  0.95558000  0.16050000  1.0 0.9154177877
Zn  Zn8  1  0.45558000  0.70515000  0.66050000  1.0 0.9154177877
Zn  Zn9  1  0.29485000  0.54442000  0.33950000  1.0 0.9154177877
Zn  Zn10  1  0.70515000  0.45558000  0.33950000  1.0 0.9154177877
Zn  Zn11  1  0.04442000  0.20515000  0.83950000  1.0 0.9154177877
Zn  Zn12  1  0.95558000  0.79485000  0.83950000  1.0 0.9154177877
H  H1  1  0.38690000  0.22860000  0.09930000  1.0 0.118198905
H  H2  1  0.72860000  0.11310000  0.59930000  1.0 0.118198905
H  H3  1  0.61310000  0.77140000  0.09930000  1.0 0.118198905
H  H4  1  0.27140000  0.88690000  0.59930000  1.0 0.118198905
H  H5  1  0.11310000  0.72860000  0.40070000  1.0 0.118198905
H  H6  1  0.88690000  0.27140000  0.40070000  1.0 0.118198905
H  H7  1  0.22860000  0.38690000  0.90070000  1.0 0.118198905
H  H8  1  0.77140000  0.61310000  0.90070000  1.0 0.118198905
H  H9  1  0.32460000  0.16630000  0.14990000  1.0 0.118198905
H  H10  1  0.66630000  0.17540000  0.64990000  1.0 0.118198905
H  H11  1  0.67540000  0.83370000  0.14990000  1.0 0.118198905
H  H12  1  0.33370000  0.82460000  0.64990000  1.0 0.118198905
H  H13  1  0.17540000  0.66630000  0.35010000  1.0 0.118198905
H  H14  1  0.82460000  0.33370000  0.35010000  1.0 0.118198905
H  H15  1  0.16630000  0.32460000  0.85010000  1.0 0.118198905
H  H16  1  0.83370000  0.67540000  0.85010000  1.0 0.118198905
H  H17  1  0.24660000  0.18750000  0.87990000  1.0 0.1277505291
H  H18  1  0.68750000  0.25340000  0.37990000  1.0 0.1277505291
H  H19  1  0.75340000  0.81250000  0.87990000  1.0 0.1277505291
H  H20  1  0.31250000  0.74660000  0.37990000  1.0 0.1277505291
H  H21  1  0.25340000  0.68750000  0.62010000  1.0 0.1277505291
H  H22  1  0.74660000  0.31250000  0.62010000  1.0 0.1277505291
H  H23  1  0.18750000  0.24660000  0.12010000  1.0 0.1277505291
H  H24  1  0.81250000  0.75340000  0.12010000  1.0 0.1277505291
H  H25  1  0.30520000  0.25250000  0.83320000  1.0 0.1116008799
H  H26  1  0.75250000  0.19480000  0.33320000  1.0 0.1116008799
H  H27  1  0.69480000  0.74750000  0.83320000  1.0 0.1116008799
H  H28  1  0.24750000  0.80520000  0.33320000  1.0 0.1116008799
H  H29  1  0.19480000  0.75250000  0.66680000  1.0 0.1116008799
H  H30  1  0.80520000  0.24750000  0.66680000  1.0 0.1116008799
H  H31  1  0.25250000  0.30520000  0.16680000  1.0 0.1116008799
H  H32  1  0.74750000  0.69480000  0.16680000  1.0 0.1116008799
H  H33  1  0.32200000  0.36800000  0.72410000  1.0 0.118198905
H  H34  1  0.86800000  0.17800000  0.22410000  1.0 0.118198905
H  H35  1  0.67800000  0.63200000  0.72410000  1.0 0.118198905
H  H36  1  0.13200000  0.82200000  0.22410000  1.0 0.118198905
H  H37  1  0.17800000  0.86800000  0.77590000  1.0 0.118198905
H  H38  1  0.82200000  0.13200000  0.77590000  1.0 0.118198905
H  H39  1  0.36800000  0.32200000  0.27590000  1.0 0.118198905
H  H40  1  0.63200000  0.67800000  0.27590000  1.0 0.118198905
H  H41  1  0.30150000  0.42340000  0.58120000  1.0 0.1277505291
H  H42  1  0.92340000  0.19850000  0.08120000  1.0 0.1277505291
H  H43  1  0.69850000  0.57660000  0.58120000  1.0 0.1277505291
H  H44  1  0.07660000  0.80150000  0.08120000  1.0 0.1277505291
H  H45  1  0.19850000  0.92340000  0.91880000  1.0 0.1277505291
H  H46  1  0.80150000  0.07660000  0.91880000  1.0 0.1277505291
H  H47  1  0.42340000  0.30150000  0.41880000  1.0 0.1277505291
H  H48  1  0.57660000  0.69850000  0.41880000  1.0 0.1277505291
H  H49  1  0.43900000  0.49900000  0.62410000  1.0 0.1277505291
H  H50  1  0.99900000  0.06100000  0.12410000  1.0 0.1277505291
H  H51  1  0.56100000  0.50100000  0.62410000  1.0 0.1277505291
H  H52  1  0.00100000  0.93900000  0.12410000  1.0 0.1277505291
H  H53  1  0.06100000  0.99900000  0.87590000  1.0 0.1277505291
H  H54  1  0.93900000  0.00100000  0.87590000  1.0 0.1277505291
H  H55  1  0.49900000  0.43900000  0.37590000  1.0 0.1277505291
H  H56  1  0.50100000  0.56100000  0.37590000  1.0 0.1277505291
H  H57  1  0.46050000  0.44310000  0.76320000  1.0 0.118198905
H  H58  1  0.94310000  0.03950000  0.26320000  1.0 0.118198905
H  H59  1  0.53950000  0.55690000  0.76320000  1.0 0.118198905
H  H60  1  0.05690000  0.96050000  0.26320000  1.0 0.118198905
H  H61  1  0.03950000  0.94310000  0.73680000  1.0 0.118198905
H  H62  1  0.96050000  0.05690000  0.73680000  1.0 0.118198905
H  H63  1  0.44310000  0.46050000  0.23680000  1.0 0.118198905
H  H64  1  0.55690000  0.53950000  0.23680000  1.0 0.118198905
H  H65  1  0.51500000  0.42840000  0.99010000  1.0 0.1116008799
H  H66  1  0.92840000  0.98500000  0.49010000  1.0 0.1116008799
H  H67  1  0.48500000  0.57160000  0.99010000  1.0 0.1116008799
H  H68  1  0.07160000  0.01500000  0.49010000  1.0 0.1116008799
H  H69  1  0.98500000  0.92840000  0.50990000  1.0 0.1116008799
H  H70  1  0.01500000  0.07160000  0.50990000  1.0 0.1116008799
H  H71  1  0.42840000  0.51500000  0.00990000  1.0 0.1116008799
H  H72  1  0.57160000  0.48500000  0.00990000  1.0 0.1116008799
H  H73  1  0.58690000  0.44810000  0.09500000  1.0 0.1036999944
H  H74  1  0.94810000  0.91310000  0.59500000  1.0 0.1036999944
H  H75  1  0.41310000  0.55190000  0.09500000  1.0 0.1036999944
H  H76  1  0.05190000  0.08690000  0.59500000  1.0 0.1036999944
H  H77  1  0.91310000  0.94810000  0.40500000  1.0 0.1036999944
H  H78  1  0.08690000  0.05190000  0.40500000  1.0 0.1036999944
H  H79  1  0.44810000  0.58690000  0.90500000  1.0 0.1036999944
H  H80  1  0.55190000  0.41310000  0.90500000  1.0 0.1036999944
H  H81  1  0.56250000  0.31670000  0.26040000  1.0 0.1277505291
H  H82  1  0.81670000  0.93750000  0.76040000  1.0 0.1277505291
H  H83  1  0.43750000  0.68330000  0.26040000  1.0 0.1277505291
H  H84  1  0.18330000  0.06250000  0.76040000  1.0 0.1277505291
H  H85  1  0.93750000  0.81670000  0.23960000  1.0 0.1277505291
H  H86  1  0.06250000  0.18330000  0.23960000  1.0 0.1277505291
H  H87  1  0.31670000  0.56250000  0.73960000  1.0 0.1277505291
H  H88  1  0.68330000  0.43750000  0.73960000  1.0 0.1277505291
H  H89  1  0.49730000  0.29100000  0.14420000  1.0 0.1116008799
H  H90  1  0.79100000  0.00270000  0.64420000  1.0 0.1116008799
H  H91  1  0.50270000  0.70900000  0.14420000  1.0 0.118198905
H  H92  1  0.20900000  0.99730000  0.64420000  1.0 0.118198905
H  H93  1  0.00270000  0.79100000  0.35580000  1.0 0.118198905
H  H94  1  0.99730000  0.20900000  0.35580000  1.0 0.1116008799
H  H95  1  0.29100000  0.49730000  0.85580000  1.0 0.118198905
H  H96  1  0.70900000  0.50270000  0.85580000  1.0 0.118198905
C  C1  1  0.24660000  0.12660000  0.05500000  1.0 0.6082090113
C  C2  1  0.62660000  0.25340000  0.55500000  1.0 0.6082090113
C  C3  1  0.75340000  0.87340000  0.05500000  1.0 0.6082090113
C  C4  1  0.37340000  0.74660000  0.55500000  1.0 0.6082090113
C  C5  1  0.25340000  0.62660000  0.44500000  1.0 0.6082090113
C  C6  1  0.74660000  0.37340000  0.44500000  1.0 0.6082090113
C  C7  1  0.12660000  0.24660000  0.94500000  1.0 0.6082090113
C  C8  1  0.87340000  0.75340000  0.94500000  1.0 0.6082090113
C  C9  1  0.34830000  0.50760000  0.49800000  1.0 0.5683406044
C  C10  1  0.00760000  0.15170000  0.99800000  1.0 0.5683406044
C  C11  1  0.65170000  0.49240000  0.49800000  1.0 0.5683406044
C  C12  1  0.99240000  0.84830000  0.99800000  1.0 0.5683406044
C  C13  1  0.15170000  0.00760000  0.00200000  1.0 0.5683406044
C  C14  1  0.84830000  0.99240000  0.00200000  1.0 0.5683406044
C  C15  1  0.50760000  0.34830000  0.50200000  1.0 0.5683406044
C  C16  1  0.49240000  0.65170000  0.50200000  1.0 0.5683406044
C  C17  1  0.62370000  0.40340000  0.25800000  1.0 0.5775163743
C  C18  1  0.90340000  0.87630000  0.75800000  1.0 0.5775163743
C  C19  1  0.37630000  0.59660000  0.25800000  1.0 0.5775163743
C  C20  1  0.09660000  0.12370000  0.75800000  1.0 0.5775163743
C  C21  1  0.87630000  0.90340000  0.24200000  1.0 0.5775163743
C  C22  1  0.12370000  0.09660000  0.24200000  1.0 0.5775163743
C  C23  1  0.40340000  0.62370000  0.74200000  1.0 0.5775163743
C  C24  1  0.59660000  0.37630000  0.74200000  1.0 0.5775163743
C  C25  1  0.38360000  0.29440000  0.94300000  1.0 0.3831518192
C  C26  1  0.79440000  0.11640000  0.44300000  1.0 0.3831518192
C  C27  1  0.61640000  0.70560000  0.94300000  1.0 0.3831518192
C  C28  1  0.20560000  0.88360000  0.44300000  1.0 0.3831518192
C  C29  1  0.11640000  0.79440000  0.55700000  1.0 0.3831518192
C  C30  1  0.88360000  0.20560000  0.55700000  1.0 0.3831518192
C  C31  1  0.29440000  0.38360000  0.05700000  1.0 0.3831518192
C  C32  1  0.70560000  0.61640000  0.05700000  1.0 0.3831518192
C  C33  1  0.40420000  0.36460000  0.83300000  1.0 0.3831518192
C  C34  1  0.86460000  0.09580000  0.33300000  1.0 0.3831518192
C  C35  1  0.59580000  0.63540000  0.83300000  1.0 0.3831518192
C  C36  1  0.13540000  0.90420000  0.33300000  1.0 0.3831518192
C  C37  1  0.09580000  0.86460000  0.66700000  1.0 0.3831518192
C  C38  1  0.90420000  0.13540000  0.66700000  1.0 0.3831518192
C  C39  1  0.36460000  0.40420000  0.16700000  1.0 0.3831518192
C  C40  1  0.63540000  0.59580000  0.16700000  1.0 0.3831518192
C  C41  1  0.45720000  0.34700000  0.98000000  1.0 0.3907375197
C  C42  1  0.84700000  0.04280000  0.48000000  1.0 0.3907375197
C  C43  1  0.54280000  0.65300000  0.98000000  1.0 0.3907375197
C  C44  1  0.15300000  0.95720000  0.48000000  1.0 0.3907375197
C  C45  1  0.04280000  0.84700000  0.52000000  1.0 0.3907375197
C  C46  1  0.95720000  0.15300000  0.52000000  1.0 0.3907375197
C  C47  1  0.34700000  0.45720000  0.02000000  1.0 0.3907375197
C  C48  1  0.65300000  0.54280000  0.02000000  1.0 0.3907375197
C  C49  1  0.34840000  0.24990000  0.96600000  1.0 0.0108827983
C  C50  1  0.74990000  0.15160000  0.46600000  1.0 0.0108827983
C  C51  1  0.65160000  0.75010000  0.96600000  1.0 0.0108827983
C  C52  1  0.25010000  0.84840000  0.46600000  1.0 0.0108827983
C  C53  1  0.15160000  0.74990000  0.53400000  1.0 0.0108827983
C  C54  1  0.84840000  0.25010000  0.53400000  1.0 0.0108827983
C  C55  1  0.24990000  0.34840000  0.03400000  1.0 0.0108827983
C  C56  1  0.75010000  0.65160000  0.03400000  1.0 0.0108827983
C  C57  1  0.35720000  0.22200000  0.05700000  1.0 -0.1113943074
C  C58  1  0.72200000  0.14280000  0.55700000  1.0 -0.1113943074
C  C59  1  0.64280000  0.77800000  0.05700000  1.0 -0.1113943074
C  C60  1  0.27800000  0.85720000  0.55700000  1.0 -0.1113943074
C  C61  1  0.14280000  0.72200000  0.44300000  1.0 -0.1113943074
C  C62  1  0.85720000  0.27800000  0.44300000  1.0 -0.1113943074
C  C63  1  0.22200000  0.35720000  0.94300000  1.0 -0.1113943074
C  C64  1  0.77800000  0.64280000  0.94300000  1.0 -0.1113943074
C  C65  1  0.32200000  0.18290000  0.08400000  1.0 -0.1113943074
C  C66  1  0.68290000  0.17800000  0.58400000  1.0 -0.1113943074
C  C67  1  0.67800000  0.81710000  0.08400000  1.0 -0.1113943074
C  C68  1  0.31710000  0.82200000  0.58400000  1.0 -0.1113943074
C  C69  1  0.17800000  0.68290000  0.41600000  1.0 -0.1113943074
C  C70  1  0.82200000  0.31710000  0.41600000  1.0 -0.1113943074
C  C71  1  0.18290000  0.32200000  0.91600000  1.0 -0.1113943074
C  C72  1  0.81710000  0.67800000  0.91600000  1.0 -0.1113943074
C  C73  1  0.28260000  0.16800000  0.01600000  1.0 -0.0345881945
C  C74  1  0.66800000  0.21740000  0.51600000  1.0 -0.0345881945
C  C75  1  0.71740000  0.83200000  0.01600000  1.0 -0.0345881945
C  C76  1  0.33200000  0.78260000  0.51600000  1.0 -0.0345881945
C  C77  1  0.21740000  0.66800000  0.48400000  1.0 -0.0345881945
C  C78  1  0.78260000  0.33200000  0.48400000  1.0 -0.0345881945
C  C79  1  0.16800000  0.28260000  0.98400000  1.0 -0.0345881945
C  C80  1  0.83200000  0.71740000  0.98400000  1.0 -0.0345881945
C  C81  1  0.27510000  0.19580000  0.92500000  1.0 -0.0879994061
C  C82  1  0.69580000  0.22490000  0.42500000  1.0 -0.0879994061
C  C83  1  0.72490000  0.80420000  0.92500000  1.0 -0.0879994061
C  C84  1  0.30420000  0.77510000  0.42500000  1.0 -0.0879994061
C  C85  1  0.22490000  0.69580000  0.57500000  1.0 -0.0879994061
C  C86  1  0.77510000  0.30420000  0.57500000  1.0 -0.0879994061
C  C87  1  0.19580000  0.27510000  0.07500000  1.0 -0.0879994061
C  C88  1  0.80420000  0.72490000  0.07500000  1.0 -0.0879994061
C  C89  1  0.30890000  0.23510000  0.89800000  1.0 -0.1011173308
C  C90  1  0.73510000  0.19110000  0.39800000  1.0 -0.1011173308
C  C91  1  0.69110000  0.76490000  0.89800000  1.0 -0.1011173308
C  C92  1  0.26490000  0.80890000  0.39800000  1.0 -0.1011173308
C  C93  1  0.19110000  0.73510000  0.60200000  1.0 -0.1011173308
C  C94  1  0.80890000  0.26490000  0.60200000  1.0 -0.1011173308
C  C95  1  0.23510000  0.30890000  0.10200000  1.0 -0.1011173308
C  C96  1  0.76490000  0.69110000  0.10200000  1.0 -0.1011173308
C  C97  1  0.39400000  0.40000000  0.74600000  1.0 -0.0002931387
C  C98  1  0.90000000  0.10600000  0.24600000  1.0 -0.0002931387
C  C99  1  0.60600000  0.60000000  0.74600000  1.0 -0.0002931387
C  C100  1  0.10000000  0.89400000  0.24600000  1.0 -0.0002931387
C  C101  1  0.10600000  0.90000000  0.75400000  1.0 -0.0002931387
C  C102  1  0.89400000  0.10000000  0.75400000  1.0 -0.0002931387
C  C103  1  0.40000000  0.39400000  0.25400000  1.0 -0.0002931387
C  C104  1  0.60000000  0.60600000  0.25400000  1.0 0.0003072248
C  C105  1  0.34590000  0.39390000  0.70000000  1.0 -0.1011173308
C  C106  1  0.89390000  0.15410000  0.20000000  1.0 -0.1011173308
C  C107  1  0.65410000  0.60610000  0.70000000  1.0 -0.1011173308
C  C108  1  0.10610000  0.84590000  0.20000000  1.0 -0.1011173308
C  C109  1  0.15410000  0.89390000  0.80000000  1.0 -0.1011173308
C  C110  1  0.84590000  0.10610000  0.80000000  1.0 -0.1011173308
C  C111  1  0.39390000  0.34590000  0.30000000  1.0 -0.1011173308
C  C112  1  0.60610000  0.65410000  0.30000000  1.0 -0.1011173308
C  C113  1  0.33350000  0.42730000  0.61800000  1.0 -0.1183739629
C  C114  1  0.92730000  0.16650000  0.11800000  1.0 -0.1183739629
C  C115  1  0.66650000  0.57270000  0.61800000  1.0 -0.1183739629
C  C116  1  0.07270000  0.83350000  0.11800000  1.0 -0.1183739629
C  C117  1  0.16650000  0.92730000  0.88200000  1.0 -0.1183739629
C  C118  1  0.83350000  0.07270000  0.88200000  1.0 -0.1183739629
C  C119  1  0.42730000  0.33350000  0.38200000  1.0 -0.1183739629
C  C120  1  0.57270000  0.66650000  0.38200000  1.0 -0.1183739629
C  C121  1  0.36900000  0.46620000  0.59200000  1.0 -0.0076003631
C  C122  1  0.96620000  0.13100000  0.09200000  1.0 -0.0076003631
C  C123  1  0.63100000  0.53380000  0.59200000  1.0 -0.0076003631
C  C124  1  0.03380000  0.86900000  0.09200000  1.0 -0.0076003631
C  C125  1  0.13100000  0.96620000  0.90800000  1.0 -0.0076003631
C  C126  1  0.86900000  0.03380000  0.90800000  1.0 -0.0076003631
C  C127  1  0.46620000  0.36900000  0.40800000  1.0 -0.0076003631
C  C128  1  0.53380000  0.63100000  0.40800000  1.0 -0.0076003631
C  C129  1  0.41560000  0.47190000  0.64400000  1.0 -0.1113943074
C  C130  1  0.97190000  0.08440000  0.14400000  1.0 -0.1113943074
C  C131  1  0.58440000  0.52810000  0.64400000  1.0 -0.1113943074
C  C132  1  0.02810000  0.91560000  0.14400000  1.0 -0.1113943074
C  C133  1  0.08440000  0.97190000  0.85600000  1.0 -0.1113943074
C  C134  1  0.91560000  0.02810000  0.85600000  1.0 -0.1113943074
C  C135  1  0.47190000  0.41560000  0.35600000  1.0 -0.1113943074
C  C136  1  0.52810000  0.58440000  0.35600000  1.0 -0.1113943074
C  C137  1  0.42900000  0.43890000  0.72500000  1.0 -0.1011173308
C  C138  1  0.93890000  0.07100000  0.22500000  1.0 -0.1011173308
C  C139  1  0.57100000  0.56110000  0.72500000  1.0 -0.1011173308
C  C140  1  0.06110000  0.92900000  0.22500000  1.0 -0.1011173308
C  C141  1  0.07100000  0.93890000  0.77500000  1.0 -0.1011173308
C  C142  1  0.92900000  0.06110000  0.77500000  1.0 -0.1011173308
C  C143  1  0.43890000  0.42900000  0.27500000  1.0 -0.1011173308
C  C144  1  0.56110000  0.57100000  0.27500000  1.0 -0.1011173308
C  C145  1  0.49800000  0.35810000  0.05900000  1.0 0.0108827983
C  C146  1  0.85810000  0.00200000  0.55900000  1.0 0.0108827983
C  C147  1  0.50200000  0.64190000  0.05900000  1.0 0.0108827983
C  C148  1  0.14190000  0.99800000  0.55900000  1.0 0.0108827983
C  C149  1  0.00200000  0.85810000  0.44100000  1.0 0.0108827983
C  C150  1  0.99800000  0.14190000  0.44100000  1.0 0.0108827983
C  C151  1  0.35810000  0.49800000  0.94100000  1.0 0.0108827983
C  C152  1  0.64190000  0.50200000  0.94100000  1.0 0.0108827983
C  C153  1  0.52530000  0.40490000  0.04400000  1.0 -0.1295110684
C  C154  1  0.90490000  0.97470000  0.54400000  1.0 -0.1295110684
C  C155  1  0.47470000  0.59510000  0.04400000  1.0 -0.1295110684
C  C156  1  0.09510000  0.02530000  0.54400000  1.0 -0.1295110684
C  C157  1  0.97470000  0.90490000  0.45600000  1.0 -0.1295110684
C  C158  1  0.02530000  0.09510000  0.45600000  1.0 -0.1295110684
C  C159  1  0.40490000  0.52530000  0.95600000  1.0 -0.1295110684
C  C160  1  0.59510000  0.47470000  0.95600000  1.0 -0.1295110684
C  C161  1  0.56750000  0.41710000  0.10700000  1.0 -0.1011173308
C  C162  1  0.91710000  0.93250000  0.60700000  1.0 -0.1011173308
C  C163  1  0.43250000  0.58290000  0.10700000  1.0 -0.1011173308
C  C164  1  0.08290000  0.06750000  0.60700000  1.0 -0.1011173308
C  C165  1  0.93250000  0.91710000  0.39300000  1.0 -0.1011173308
C  C166  1  0.06750000  0.08290000  0.39300000  1.0 -0.1011173308
C  C167  1  0.41710000  0.56750000  0.89300000  1.0 -0.1011173308
C  C168  1  0.58290000  0.43250000  0.89300000  1.0 -0.1011173308
C  C169  1  0.58140000  0.38460000  0.18900000  1.0 -0.0369549988
C  C170  1  0.88460000  0.91860000  0.68900000  1.0 -0.0369549988
C  C171  1  0.41860000  0.61540000  0.18900000  1.0 -0.0369549988
C  C172  1  0.11540000  0.08140000  0.68900000  1.0 -0.0369549988
C  C173  1  0.91860000  0.88460000  0.31100000  1.0 -0.0369549988
C  C174  1  0.08140000  0.11540000  0.31100000  1.0 -0.0369549988
C  C175  1  0.38460000  0.58140000  0.81100000  1.0 -0.0369549988
C  C176  1  0.61540000  0.41860000  0.81100000  1.0 -0.0369549988
C  C177  1  0.55380000  0.33880000  0.20300000  1.0 -0.0830128517
C  C178  1  0.83880000  0.94620000  0.70300000  1.0 -0.0830128517
C  C179  1  0.44620000  0.66120000  0.20300000  1.0 -0.0830128517
C  C180  1  0.16120000  0.05380000  0.70300000  1.0 -0.0830128517
C  C181  1  0.94620000  0.83880000  0.29700000  1.0 -0.0830128517
C  C182  1  0.05380000  0.16120000  0.29700000  1.0 -0.0830128517
C  C183  1  0.33880000  0.55380000  0.79700000  1.0 -0.0830128517
C  C184  1  0.66120000  0.44620000  0.79700000  1.0 -0.0830128517
C  C185  1  0.51380000  0.32410000  0.13700000  1.0 -0.1011173308
C  C186  1  0.82410000  0.98620000  0.63700000  1.0 -0.1011173308
C  C187  1  0.48620000  0.67590000  0.13700000  1.0 -0.1011173308
C  C188  1  0.17590000  0.01380000  0.63700000  1.0 -0.1011173308
C  C189  1  0.98620000  0.82410000  0.36300000  1.0 -0.1011173308
C  C190  1  0.01380000  0.17590000  0.36300000  1.0 -0.1011173308
C  C191  1  0.32410000  0.51380000  0.86300000  1.0 -0.1011173308
C  C192  1  0.67590000  0.48620000  0.86300000  1.0 -0.1011173308
N  N1  1  0.42570000  0.30610000  0.00670000  1.0 -0.4496601886
N  N2  1  0.80610000  0.07430000  0.50670000  1.0 -0.4496601886
N  N3  1  0.57430000  0.69390000  0.00670000  1.0 -0.4496601886
N  N4  1  0.19390000  0.92570000  0.50670000  1.0 -0.4496601886
N  N5  1  0.07430000  0.80610000  0.49330000  1.0 -0.4496601886
N  N6  1  0.92570000  0.19390000  0.49330000  1.0 -0.4496601886
N  N7  1  0.30610000  0.42570000  0.99330000  1.0 -0.4496601886
N  N8  1  0.69390000  0.57430000  0.99330000  1.0 -0.4496601886
N  N9  1  0.36930000  0.32650000  0.86200000  1.0 -0.4434147802
N  N10  1  0.82650000  0.13070000  0.36200000  1.0 -0.4434147802
N  N11  1  0.63070000  0.67350000  0.86200000  1.0 -0.4434147802
N  N12  1  0.17350000  0.86930000  0.36200000  1.0 -0.4434147802
N  N13  1  0.13070000  0.82650000  0.63800000  1.0 -0.4434147802
N  N14  1  0.86930000  0.17350000  0.63800000  1.0 -0.4434147802
N  N15  1  0.32650000  0.36930000  0.13800000  1.0 -0.4434147802
N  N16  1  0.67350000  0.63070000  0.13800000  1.0 -0.4434147802
N  N17  1  0.44430000  0.37880000  0.89700000  1.0 -0.4332613226
N  N18  1  0.87880000  0.05570000  0.39700000  1.0 -0.4332613226
N  N19  1  0.55570000  0.62120000  0.89700000  1.0 -0.4332613226
N  N20  1  0.12120000  0.94430000  0.39700000  1.0 -0.4332613226
N  N21  1  0.05570000  0.87880000  0.60300000  1.0 -0.4332613226
N  N22  1  0.94430000  0.12120000  0.60300000  1.0 -0.4332613226
N  N23  1  0.37880000  0.44430000  0.10300000  1.0 -0.4332613226
N  N24  1  0.62120000  0.55570000  0.10300000  1.0 -0.4332613226
O  O1  1  0.20640000  0.12230000  0.99270000  1.0 -0.6093660471
O  O2  1  0.62230000  0.29360000  0.49270000  1.0 -0.6093660471
O  O3  1  0.79360000  0.87770000  0.99270000  1.0 -0.6093660471
O  O4  1  0.37770000  0.70640000  0.49270000  1.0 -0.6093660471
O  O5  1  0.29360000  0.62230000  0.50730000  1.0 -0.6093660471
O  O6  1  0.70640000  0.37770000  0.50730000  1.0 -0.6093660471
O  O7  1  0.12230000  0.20640000  0.00730000  1.0 -0.6093660471
O  O8  1  0.87770000  0.79360000  0.00730000  1.0 -0.6093660471
O  O9  1  0.25570000  0.09790000  0.13050000  1.0 -0.5019669969
O  O10  1  0.59790000  0.24430000  0.63050000  1.0 -0.5019669969
O  O11  1  0.74430000  0.90210000  0.13050000  1.0 -0.5019669969
O  O12  1  0.40210000  0.75570000  0.63050000  1.0 -0.5019669969
O  O13  1  0.24430000  0.59790000  0.36950000  1.0 -0.5019669969
O  O14  1  0.75570000  0.40210000  0.36950000  1.0 -0.5019669969
O  O15  1  0.09790000  0.25570000  0.86950000  1.0 -0.5019669969
O  O16  1  0.90210000  0.74430000  0.86950000  1.0 -0.5019669969
O  O17  1  0.37770000  0.54250000  0.49720000  1.0 -0.4943351772
O  O18  1  0.04250000  0.12230000  0.99720000  1.0 -0.4943351772
O  O19  1  0.62230000  0.45750000  0.49720000  1.0 -0.4943351772
O  O20  1  0.95750000  0.87770000  0.99720000  1.0 -0.4943351772
O  O21  1  0.12230000  0.04250000  0.00280000  1.0 -0.4943351772
O  O22  1  0.87770000  0.95750000  0.00280000  1.0 -0.4943351772
O  O23  1  0.54250000  0.37770000  0.50280000  1.0 -0.4943351772
O  O24  1  0.45750000  0.62230000  0.50280000  1.0 -0.4943351772
O  O25  1  0.31240000  0.49500000  0.44540000  1.0 -0.4496601886
O  O26  1  0.99500000  0.18760000  0.94540000  1.0 -0.4496601886
O  O27  1  0.68760000  0.50500000  0.44540000  1.0 -0.4496601886
O  O28  1  0.00500000  0.81240000  0.94540000  1.0 -0.4557035294
O  O29  1  0.18760000  0.99500000  0.05460000  1.0 -0.4496601886
O  O30  1  0.81240000  0.00500000  0.05460000  1.0 -0.4496601886
O  O31  1  0.49500000  0.31240000  0.55460000  1.0 -0.4496601886
O  O32  1  0.50500000  0.68760000  0.55460000  1.0 -0.4496601886
O  O33  1  0.65220000  0.43810000  0.24140000  1.0 -0.4808035743
O  O34  1  0.93810000  0.84780000  0.74140000  1.0 -0.4808035743
O  O35  1  0.34780000  0.56190000  0.24140000  1.0 -0.4808035743
O  O36  1  0.06190000  0.15220000  0.74140000  1.0 -0.4808035743
O  O37  1  0.84780000  0.93810000  0.25860000  1.0 -0.4808035743
O  O38  1  0.15220000  0.06190000  0.25860000  1.0 -0.4808035743
O  O39  1  0.43810000  0.65220000  0.75860000  1.0 -0.4808035743
O  O40  1  0.56190000  0.34780000  0.75860000  1.0 -0.4808035743
O  O41  1  0.62760000  0.37020000  0.33450000  1.0 -0.5959522155
O  O42  1  0.87020000  0.87240000  0.83450000  1.0 -0.5959522155
O  O43  1  0.37240000  0.62980000  0.33450000  1.0 -0.5959522155
O  O44  1  0.12980000  0.12760000  0.83450000  1.0 -0.5959522155
O  O45  1  0.87240000  0.87020000  0.16550000  1.0 -0.5959522155
O  O46  1  0.12760000  0.12980000  0.16550000  1.0 -0.5959522155
O  O47  1  0.37020000  0.62760000  0.66550000  1.0 -0.5959522155
O  O48  1  0.62980000  0.37240000  0.66550000  1.0 -0.5959522155
