# DDEC6 charges by PACMAN v1.1 (https://github.com/mtap-research/PACMAN-charge/)
data_MIDSUP01_FSR_pacman
_symmetry_space_group_name_H-M   'P 1'
_cell_length_a   9.43443000
_cell_length_b   18.51740000
_cell_length_c   18.51740000
_cell_angle_alpha   90.00000000
_cell_angle_beta   90.00000000
_cell_angle_gamma   90.00000000
_symmetry_Int_Tables_number   1
_chemical_formula_structural   NiH12C15NO4
_chemical_formula_sum   'Ni4 H48 C60 N4 O16'
_cell_volume   3235.01040990
_cell_formula_units_Z   4
loop_
 _symmetry_equiv_pos_site_id
 _symmetry_equiv_pos_as_xyz
  1  'x, y, z'
loop_
 _atom_site_type_symbol
 _atom_site_label
 _atom_site_symmetry_multiplicity
 _atom_site_fract_x
 _atom_site_fract_y
 _atom_site_fract_z
 _atom_site_occupancy
 _atom_site_charge
Ni  Ni1  1  0.69180000  0.74859000  0.75257000  1.0 0.6653435241
Ni  Ni2  1  0.43319000  0.74717000  0.75350000  1.0 0.6635621995
Ni  Ni3  1  0.30780000  0.24837000  0.25249000  1.0 0.6635621995
Ni  Ni4  1  0.56615000  0.24733000  0.25340000  1.0 0.6635621995
H  H1  1  0.32650000  0.90897000  0.90757000  1.0 0.0991304093
H  H2  1  0.80240000  0.59966000  0.91754000  1.0 0.0991304093
H  H3  1  0.80435000  0.00483000  0.01098000  1.0 0.0991304093
H  H4  1  0.18301000  0.71528000  0.63918000  1.0 0.0870013569
H  H5  1  0.20552000  0.81416000  0.65677000  1.0 0.0824025267
H  H6  1  0.94094000  0.63615000  0.71584000  1.0 0.0824025267
H  H7  1  0.33129000  0.59232000  0.59475000  1.0 0.0991304093
H  H8  1  0.79380000  0.89926000  0.59278000  1.0 0.0991304093
H  H9  1  0.80950000  0.49821000  0.48973000  1.0 0.0991304093
H  H10  1  0.17802000  0.66471000  0.83372000  1.0 0.0824025267
H  H11  1  0.20270000  0.79414000  0.85797000  1.0 0.0870013569
H  H12  1  0.94317000  0.77209000  0.86380000  1.0 0.0870013569
H  H13  1  0.92291000  0.85197000  0.80236000  1.0 0.0824025267
H  H14  1  0.33220000  0.58701000  0.90764000  1.0 0.0991304093
H  H15  1  0.80139000  0.59720000  0.59253000  1.0 0.0991304093
H  H16  1  0.80987000  0.49934000  0.01816000  1.0 0.0991304093
H  H17  1  0.18239000  0.85812000  0.78023000  1.0 0.0870013569
H  H18  1  0.94694000  0.83243000  0.67281000  1.0 0.0824025267
H  H19  1  0.92047000  0.74011000  0.63375000  1.0 0.0870013569
H  H20  1  0.32415000  0.91457000  0.60381000  1.0 0.0991304093
H  H21  1  0.79847000  0.90356000  0.91107000  1.0 0.0991304093
H  H22  1  0.80237000  0.00101000  0.49233000  1.0 0.0991304093
H  H23  1  0.20327000  0.62933000  0.73970000  1.0 0.0870013569
H  H24  1  0.91928000  0.65001000  0.81530000  1.0 0.0824025267
H  H25  1  0.66871000  0.09231000  0.09449000  1.0 0.0991304093
H  H26  1  0.20422000  0.39914000  0.09207000  1.0 0.0991304093
H  H27  1  0.18999000  0.99797000  0.99016000  1.0 0.0991304093
H  H28  1  0.82179000  0.16441000  0.33354000  1.0 0.0824025267
H  H29  1  0.79721000  0.29321000  0.35894000  1.0 0.0870013569
H  H30  1  0.05717000  0.27174000  0.36428000  1.0 0.0870013569
H  H31  1  0.07641000  0.35189000  0.30312000  1.0 0.0824025267
H  H32  1  0.67281000  0.40950000  0.40700000  1.0 0.0991304093
H  H33  1  0.19651000  0.09956000  0.41698000  1.0 0.0991304093
H  H34  1  0.19544000  0.50491000  0.51116000  1.0 0.0991304093
H  H35  1  0.79415000  0.31529000  0.15785000  1.0 0.0824025267
H  H36  1  0.81623000  0.21654000  0.13928000  1.0 0.0824025267
H  H37  1  0.67370000  0.41412000  0.10371000  1.0 0.0991304093
H  H38  1  0.20100000  0.40379000  0.41124000  1.0 0.0991304093
H  H39  1  0.19619000  0.50087000  0.99201000  1.0 0.0991304093
H  H40  1  0.79620000  0.12961000  0.23931000  1.0 0.0870013569
H  H41  1  0.05825000  0.13670000  0.21514000  1.0 0.0824025267
H  H42  1  0.08042000  0.14960000  0.31471000  1.0 0.0824025267
H  H43  1  0.66666667  0.08687000  0.40763000  1.0 0.0991304093
H  H44  1  0.19861000  0.09729000  0.09248000  1.0 0.0991304093
H  H45  1  0.18849000  0.99947000  0.51780000  1.0 0.0991304093
H  H46  1  0.81676000  0.35802000  0.28186000  1.0 0.0870013569
H  H47  1  0.05263000  0.33333333  0.17384000  1.0 0.0824025267
H  H48  1  0.07879000  0.24134000  0.13387000  1.0 0.0870013569
C  C1  1  0.56163000  0.84418000  0.84889000  1.0 0.569836476
C  C2  1  0.56152000  0.90279000  0.90616000  1.0 -0.0157853671
C  C3  1  0.43049000  0.93178000  0.93153000  1.0 -0.1413766694
C  C4  1  0.70075000  0.57281000  0.93977000  1.0 -0.1084660197
C  C5  1  0.69856000  0.98364000  0.98741000  1.0 -0.1413766694
C  C6  1  0.42926000  0.98792000  0.98585000  1.0 0.0870013569
C  C7  1  0.14623000  0.76267000  0.67574000  1.0 -0.0712469725
C  C8  1  0.56287000  0.65357000  0.65554000  1.0 0.569836476
C  C9  1  0.56516000  0.59717000  0.59636000  1.0 -0.0144193193
C  C10  1  0.43441000  0.56933000  0.56990000  1.0 -0.1413766694
C  C11  1  0.69341000  0.92764000  0.57102000  1.0 -0.1084660197
C  C12  1  0.70295000  0.51869000  0.51321000  1.0 -0.1413766694
C  C13  1  0.43377000  0.51420000  0.51471000  1.0 0.0870013569
C  C14  1  0.14536000  0.80280000  0.80318000  1.0 -0.0712469725
C  C15  1  0.97992000  0.79683000  0.80922000  1.0 -0.0712469725
C  C16  1  0.56423000  0.65306000  0.85027000  1.0 0.569836476
C  C17  1  0.56617000  0.59642000  0.90943000  1.0 -0.0144193193
C  C18  1  0.43562000  0.56690000  0.93444000  1.0 -0.1413766694
C  C19  1  0.70015000  0.57180000  0.56800000  1.0 -0.1084660197
C  C20  1  0.70355000  0.51934000  0.99411000  1.0 -0.1413766694
C  C21  1  0.43464000  0.51287000  0.99064000  1.0 0.0870013569
C  C22  1  0.98070000  0.77248000  0.67805000  1.0 -0.0712469725
C  C23  1  0.55976000  0.84517000  0.65829000  1.0 0.569836476
C  C24  1  0.55880000  0.90401000  0.60131000  1.0 -0.0144193193
C  C25  1  0.42814000  0.93430000  0.57727000  1.0 -0.1413766694
C  C26  1  0.69626000  0.92917000  0.93411000  1.0 -0.1084660197
C  C27  1  0.69636000  0.98155000  0.51711000  1.0 -0.1413766694
C  C28  1  0.42727000  0.98844000  0.52101000  1.0 0.0870013569
C  C29  1  0.14392000  0.67246000  0.77407000  1.0 -0.0712469725
C  C30  1  0.97831000  0.67083000  0.76446000  1.0 -0.0712469725
C  C31  1  0.43709000  0.15335000  0.15558000  1.0 0.569836476
C  C32  1  0.43486000  0.09701000  0.09633000  1.0 -0.0144193193
C  C33  1  0.56551000  0.06922000  0.06977000  1.0 -0.1413766694
C  C34  1  0.30492000  0.42748000  0.07069000  1.0 -0.1084660197
C  C35  1  0.29665000  0.01847000  0.01342000  1.0 -0.1413766694
C  C36  1  0.56607000  0.01401000  0.01468000  1.0 0.0870013569
C  C37  1  0.85426000  0.30252000  0.30417000  1.0 -0.0712469725
C  C38  1  0.01978000  0.29666000  0.30989000  1.0 -0.0712469725
C  C39  1  0.43804000  0.34455000  0.34858000  1.0 0.569836476
C  C40  1  0.43787000  0.40326000  0.40580000  1.0 -0.0144193193
C  C41  1  0.56892000  0.43224000  0.43107000  1.0 -0.1413766694
C  C42  1  0.29792000  0.07256000  0.43925000  1.0 -0.1084660197
C  C43  1  0.30121000  0.48382000  0.48747000  1.0 -0.1413766694
C  C44  1  0.57032000  0.48820000  0.48560000  1.0 0.0870013569
C  C45  1  0.85325000  0.26353000  0.17630000  1.0 -0.0712469725
C  C46  1  0.43913000  0.34505000  0.15813000  1.0 0.569836476
C  C47  1  0.43942000  0.40389000  0.10115000  1.0 -0.0157853671
C  C48  1  0.57008000  0.43412000  0.07710000  1.0 -0.1413766694
C  C49  1  0.30329000  0.42948000  0.43401000  1.0 -0.1084660197
C  C50  1  0.30218000  0.48137000  0.01680000  1.0 -0.1413766694
C  C51  1  0.57117000  0.48831000  0.02095000  1.0 0.0870013569
C  C52  1  0.85564000  0.17251000  0.27391000  1.0 -0.0712469725
C  C53  1  0.02120000  0.17095000  0.26413000  1.0 -0.0712469725
C  C54  1  0.43486000  0.15301000  0.35014000  1.0 0.569836476
C  C55  1  0.43263000  0.09615000  0.40905000  1.0 -0.0144193193
C  C56  1  0.56310000  0.06668000  0.43423000  1.0 -0.1413766694
C  C57  1  0.29970000  0.07171000  0.06806000  1.0 -0.1084660197
C  C58  1  0.29497000  0.01938000  0.49386000  1.0 -0.1413766694
C  C59  1  0.56390000  0.01290000  0.49067000  1.0 0.0870013569
C  C60  1  0.01882000  0.27329000  0.17856000  1.0 -0.0712469725
N  N1  1  0.92193000  0.74704000  0.75060000  1.0 -0.0791407328
N  N2  1  0.20291000  0.74583000  0.75130000  1.0 -0.0712469725
N  N3  1  0.07763000  0.24719000  0.25085000  1.0 -0.0791407328
N  N4  1  0.79663000  0.24605000  0.25172000  1.0 -0.0712469725
O  O1  1  0.43994000  0.66458000  0.81843000  1.0 -0.4943722575
O  O2  1  0.68488000  0.83189000  0.81622000  1.0 -0.4943722575
O  O3  1  0.43685000  0.83149000  0.69094000  1.0 -0.4943722575
O  O4  1  0.68695000  0.66696000  0.68695000  1.0 -0.4955156733
O  O5  1  0.43771000  0.68343000  0.67015000  1.0 -0.4943722575
O  O6  1  0.68728000  0.68549000  0.83650000  1.0 -0.4943722575
O  O7  1  0.43889000  0.81104000  0.83673000  1.0 -0.4943722575
O  O8  1  0.68388000  0.81303000  0.66958000  1.0 -0.4943722575
O  O9  1  0.56210000  0.33163000  0.19081000  1.0 -0.4943722575
O  O10  1  0.31315000  0.16644000  0.18717000  1.0 -0.4943722575
O  O11  1  0.55918000  0.16459000  0.31835000  1.0 -0.4955156733
O  O12  1  0.31481000  0.33172000  0.31609000  1.0 -0.4943722575
O  O13  1  0.56114000  0.31169000  0.33649000  1.0 -0.4943722575
O  O14  1  0.31539000  0.31256000  0.16940000  1.0 -0.4955156733
O  O15  1  0.56204000  0.18352000  0.17006000  1.0 -0.4955156733
O  O16  1  0.31185000  0.18568000  0.33658000  1.0 -0.4943722575
