# DDEC6 charges by PACMAN v1.1 (https://github.com/mtap-research/PACMAN-charge/)
data_MIFGEP_FSR_pacman
_symmetry_space_group_name_H-M   'P 1'
_cell_length_a   14.91500000
_cell_length_b   8.98600000
_cell_length_c   29.17700000
_cell_angle_alpha   90.00000000
_cell_angle_beta   114.26700000
_cell_angle_gamma   90.00000000
_symmetry_Int_Tables_number   1
_chemical_formula_structural   CdH21C30NO7
_chemical_formula_sum   'Cd4 H84 C120 N4 O28'
_cell_volume   3564.95249348
_cell_formula_units_Z   4
loop_
 _symmetry_equiv_pos_site_id
 _symmetry_equiv_pos_as_xyz
  1  'x, y, z'
loop_
 _atom_site_type_symbol
 _atom_site_label
 _atom_site_symmetry_multiplicity
 _atom_site_fract_x
 _atom_site_fract_y
 _atom_site_fract_z
 _atom_site_occupancy
 _atom_site_charge
Cd  Cd1  1  0.70033000  0.68772000  0.64149000  1.0 1.0011811566
Cd  Cd2  1  0.70033000  0.81228000  0.14149000  1.0 1.0054082584
Cd  Cd3  1  0.29967000  0.18772000  0.85851000  1.0 1.0054082584
Cd  Cd4  1  0.29967000  0.31228000  0.35851000  1.0 1.0011811566
H  H1  1  0.41250000  0.50240000  0.50390000  1.0 0.1392133782
H  H2  1  0.41250000  0.99760000  0.00390000  1.0 0.1392133782
H  H3  1  0.38310000  0.51780000  0.63460000  1.0 0.1287740646
H  H4  1  0.38310000  0.98220000  0.13460000  1.0 0.1287740646
H  H5  1  0.70710000  0.09760000  0.52510000  1.0 0.1392133782
H  H6  1  0.70710000  0.40240000  0.02510000  1.0 0.1392133782
H  H7  1  0.78560000  0.24240000  0.48740000  1.0 0.1199184501
H  H8  1  0.78560000  0.25760000  0.98740000  1.0 0.1199184501
H  H9  1  0.04030000  0.03560000  0.56930000  1.0 0.1199184501
H  H10  1  0.04030000  0.46440000  0.06930000  1.0 0.1199184501
H  H11  1  0.96100000  0.89150000  0.60670000  1.0 0.1199184501
H  H12  1  0.96100000  0.60850000  0.10670000  1.0 0.1199184501
H  H13  1  0.85330000  0.26910000  0.43170000  1.0 0.1199184501
H  H14  1  0.85330000  0.23090000  0.93170000  1.0 0.1199184501
H  H15  1  0.09580000  0.46870000  0.43410000  1.0 0.1199184501
H  H16  1  0.09580000  0.03130000  0.93410000  1.0 0.1199184501
H  H17  1  0.10680000  0.24380000  0.55510000  1.0 0.1199184501
H  H18  1  0.10680000  0.25620000  0.05510000  1.0 0.1199184501
H  H19  1  0.81470000  0.27020000  0.34350000  1.0 0.1287740646
H  H20  1  0.81470000  0.22980000  0.84350000  1.0 0.1199184501
H  H21  1  0.73050000  0.37570000  0.26530000  1.0 0.1287740646
H  H22  1  0.73050000  0.12430000  0.76530000  1.0 0.1287740646
H  H23  1  0.89530000  0.74160000  0.30890000  1.0 0.1199184501
H  H24  1  0.89530000  0.75840000  0.80890000  1.0 0.1199184501
H  H25  1  0.98290000  0.63760000  0.38690000  1.0 0.1199184501
H  H26  1  0.98290000  0.86240000  0.88690000  1.0 0.1199184501
H  H27  1  0.25580000  0.40840000  0.46450000  1.0 0.1287740646
H  H28  1  0.25580000  0.09160000  0.96450000  1.0 0.1287740646
H  H29  1  0.22590000  0.42370000  0.59500000  1.0 0.1199184501
H  H30  1  0.22590000  0.07630000  0.09500000  1.0 0.1199184501
H  H31  1  0.91930000  0.10450000  0.69350000  1.0 0.1287740646
H  H32  1  0.91930000  0.39550000  0.19350000  1.0 0.1287740646
H  H33  1  0.80900000  0.15340000  0.66680000  1.0 0.1676360679
H  H34  1  0.80900000  0.34660000  0.16680000  1.0 0.1676360679
H  H35  1  0.88720000  0.22100000  0.64970000  1.0 0.1392133782
H  H36  1  0.88720000  0.27900000  0.14970000  1.0 0.1392133782
H  H37  1  0.99920000  0.18670000  0.76660000  1.0 0.146895046
H  H38  1  0.99920000  0.31330000  0.26660000  1.0 0.146895046
H  H39  1  0.02000000  0.35830000  0.77130000  1.0 0.146895046
H  H40  1  0.02000000  0.14170000  0.27130000  1.0 0.146895046
H  H41  1  0.94170000  0.29070000  0.78830000  1.0 0.146895046
H  H42  1  0.94170000  0.20930000  0.28830000  1.0 0.146895046
H  H43  1  0.58750000  0.00240000  0.99610000  1.0 0.1392133782
H  H44  1  0.58750000  0.49760000  0.49610000  1.0 0.1392133782
H  H45  1  0.61690000  0.01780000  0.86540000  1.0 0.1287740646
H  H46  1  0.61690000  0.48220000  0.36540000  1.0 0.1287740646
H  H47  1  0.29290000  0.59760000  0.97490000  1.0 0.1392133782
H  H48  1  0.29290000  0.90240000  0.47490000  1.0 0.1392133782
H  H49  1  0.21440000  0.74240000  0.01260000  1.0 0.1199184501
H  H50  1  0.21440000  0.75760000  0.51260000  1.0 0.1199184501
H  H51  1  0.95970000  0.53560000  0.93070000  1.0 0.1199184501
H  H52  1  0.95970000  0.96440000  0.43070000  1.0 0.1199184501
H  H53  1  0.03900000  0.39150000  0.89330000  1.0 0.1199184501
H  H54  1  0.03900000  0.10850000  0.39330000  1.0 0.1199184501
H  H55  1  0.14670000  0.76910000  0.06830000  1.0 0.1199184501
H  H56  1  0.14670000  0.73090000  0.56830000  1.0 0.1199184501
H  H57  1  0.90420000  0.96870000  0.06590000  1.0 0.1199184501
H  H58  1  0.90420000  0.53130000  0.56590000  1.0 0.1199184501
H  H59  1  0.89320000  0.74380000  0.94490000  1.0 0.1199184501
H  H60  1  0.89320000  0.75620000  0.44490000  1.0 0.1199184501
H  H61  1  0.18530000  0.77020000  0.15650000  1.0 0.1287740646
H  H62  1  0.18530000  0.72980000  0.65650000  1.0 0.1287740646
H  H63  1  0.26950000  0.87570000  0.23470000  1.0 0.1287740646
H  H64  1  0.26950000  0.62430000  0.73470000  1.0 0.1287740646
H  H65  1  0.10470000  0.24160000  0.19110000  1.0 0.1199184501
H  H66  1  0.10470000  0.25840000  0.69110000  1.0 0.1199184501
H  H67  1  0.01710000  0.13760000  0.11310000  1.0 0.1199184501
H  H68  1  0.01710000  0.36240000  0.61310000  1.0 0.1199184501
H  H69  1  0.74420000  0.90840000  0.03550000  1.0 0.1287740646
H  H70  1  0.74420000  0.59160000  0.53550000  1.0 0.1287740646
H  H71  1  0.77410000  0.92370000  0.90500000  1.0 0.1199184501
H  H72  1  0.77410000  0.57630000  0.40500000  1.0 0.1199184501
H  H73  1  0.08070000  0.60450000  0.80650000  1.0 0.1287740646
H  H74  1  0.08070000  0.89550000  0.30650000  1.0 0.1287740646
H  H75  1  0.19100000  0.65340000  0.83320000  1.0 0.1676360679
H  H76  1  0.19100000  0.84660000  0.33320000  1.0 0.1676360679
H  H77  1  0.11280000  0.72100000  0.85030000  1.0 0.1392133782
H  H78  1  0.11280000  0.77900000  0.35030000  1.0 0.1392133782
H  H79  1  0.00080000  0.68670000  0.73340000  1.0 0.146895046
H  H80  1  0.00080000  0.81330000  0.23340000  1.0 0.146895046
H  H81  1  0.98000000  0.85830000  0.72870000  1.0 0.146895046
H  H82  1  0.98000000  0.64170000  0.22870000  1.0 0.146895046
H  H83  1  0.05830000  0.79070000  0.71170000  1.0 0.146895046
H  H84  1  0.05830000  0.70930000  0.21170000  1.0 0.146895046
C  C1  1  0.37499000  0.48760000  0.52229000  1.0 -0.0712499476
C  C2  1  0.37499000  0.01240000  0.02229000  1.0 -0.0712499476
C  C3  1  0.41447000  0.52250000  0.57327000  1.0 -0.0172456354
C  C4  1  0.41447000  0.97750000  0.07327000  1.0 -0.0172456354
C  C5  1  0.35743000  0.49680000  0.60033000  1.0 -0.0909757784
C  C6  1  0.35743000  0.00320000  0.10033000  1.0 -0.0909757784
C  C7  1  0.51592000  0.58180000  0.59882000  1.0 0.5419821006
C  C8  1  0.51592000  0.91820000  0.09882000  1.0 0.5419821006
C  C9  1  0.75143000  0.63880000  0.22813000  1.0 0.5532363963
C  C10  1  0.75143000  0.86120000  0.72813000  1.0 0.5532363963
C  C11  1  0.82483000  0.97800000  0.56893000  1.0 -0.0172456354
C  C12  1  0.82483000  0.52200000  0.06893000  1.0 -0.0172456354
C  C13  1  0.77392000  0.08410000  0.53372000  1.0 -0.0909757784
C  C14  1  0.77392000  0.41590000  0.03372000  1.0 -0.0909757784
C  C15  1  0.82108000  0.17110000  0.51098000  1.0 -0.1388692248
C  C16  1  0.82108000  0.32890000  0.01098000  1.0 -0.1388692248
C  C17  1  0.92149000  0.15240000  0.52329000  1.0 0.0709762834
C  C18  1  0.92149000  0.34760000  0.02329000  1.0 0.0709762834
C  C19  1  0.97311000  0.04760000  0.55991000  1.0 -0.1520270358
C  C20  1  0.97311000  0.45240000  0.05991000  1.0 -0.1520270358
C  C21  1  0.92561000  0.96120000  0.58241000  1.0 -0.0958130869
C  C22  1  0.92561000  0.53880000  0.08241000  1.0 -0.0958130869
C  C23  1  0.97172000  0.24190000  0.49752000  1.0 0.0872488667
C  C24  1  0.97172000  0.25810000  0.99752000  1.0 0.0872488667
C  C25  1  0.91959000  0.29260000  0.44859000  1.0 -0.1883708376
C  C26  1  0.91959000  0.20740000  0.94859000  1.0 -0.1883708376
C  C27  1  0.96560000  0.37860000  0.42460000  1.0 0.0817438153
C  C28  1  0.96560000  0.12140000  0.92460000  1.0 0.0817438153
C  C29  1  0.06479000  0.41200000  0.44999000  1.0 -0.1722974915
C  C30  1  0.06479000  0.08800000  0.94999000  1.0 -0.1722974915
C  C31  1  0.11913000  0.36190000  0.49903000  1.0 0.0966949773
C  C32  1  0.11913000  0.13810000  0.99903000  1.0 0.0966949773
C  C33  1  0.07153000  0.27720000  0.52243000  1.0 -0.1831604491
C  C34  1  0.07153000  0.22280000  0.02243000  1.0 -0.1831604491
C  C35  1  0.90962000  0.44120000  0.37392000  1.0 0.0709762834
C  C36  1  0.90962000  0.05880000  0.87392000  1.0 0.0709762834
C  C37  1  0.83217000  0.36440000  0.33677000  1.0 -0.1520270358
C  C38  1  0.83217000  0.13560000  0.83677000  1.0 -0.1520270358
C  C39  1  0.78119000  0.42850000  0.28989000  1.0 -0.0909757784
C  C40  1  0.78119000  0.07150000  0.78989000  1.0 -0.0909757784
C  C41  1  0.80425000  0.56860000  0.27915000  1.0 -0.0172456354
C  C42  1  0.80425000  0.93140000  0.77915000  1.0 -0.0172456354
C  C43  1  0.87957000  0.64640000  0.31577000  1.0 -0.0909757784
C  C44  1  0.87957000  0.85360000  0.81577000  1.0 -0.0909757784
C  C45  1  0.93214000  0.58400000  0.36264000  1.0 -0.1520270358
C  C46  1  0.93214000  0.91600000  0.86264000  1.0 -0.1520270358
C  C47  1  0.22297000  0.40860000  0.52527000  1.0 0.0709762834
C  C48  1  0.22297000  0.09140000  0.02527000  1.0 0.0709762834
C  C49  1  0.28090000  0.43140000  0.49860000  1.0 -0.1236862864
C  C50  1  0.28090000  0.06860000  0.99860000  1.0 -0.1236862864
C  C51  1  0.26306000  0.44050000  0.57656000  1.0 -0.1520270358
C  C52  1  0.26306000  0.05950000  0.07656000  1.0 -0.1520270358
C  C53  1  0.77488000  0.88030000  0.59288000  1.0 0.5419821006
C  C54  1  0.77488000  0.61970000  0.09288000  1.0 0.5419821006
C  C55  1  0.84420000  0.43080000  0.70180000  1.0 0.318355939
C  C56  1  0.84420000  0.06920000  0.20180000  1.0 0.3149683189
C  C57  1  0.87590000  0.18600000  0.67800000  1.0 -0.3083785462
C  C58  1  0.87590000  0.31400000  0.17800000  1.0 -0.3083785462
C  C59  1  0.97020000  0.28340000  0.76430000  1.0 -0.3195618752
C  C60  1  0.97020000  0.21660000  0.26430000  1.0 -0.3195618752
C  C61  1  0.62501000  0.98760000  0.97771000  1.0 -0.0712499476
C  C62  1  0.62501000  0.51240000  0.47771000  1.0 -0.0712499476
C  C63  1  0.58553000  0.02250000  0.92673000  1.0 -0.0172456354
C  C64  1  0.58553000  0.47750000  0.42673000  1.0 -0.0172456354
C  C65  1  0.64257000  0.99680000  0.89967000  1.0 -0.0909757784
C  C66  1  0.64257000  0.50320000  0.39967000  1.0 -0.0909757784
C  C67  1  0.48408000  0.08180000  0.90118000  1.0 0.5419821006
C  C68  1  0.48408000  0.41820000  0.40118000  1.0 0.5419821006
C  C69  1  0.24857000  0.13880000  0.27187000  1.0 0.5532363963
C  C70  1  0.24857000  0.36120000  0.77187000  1.0 0.5532363963
C  C71  1  0.17517000  0.47800000  0.93107000  1.0 -0.0172456354
C  C72  1  0.17517000  0.02200000  0.43107000  1.0 -0.0172456354
C  C73  1  0.22608000  0.58410000  0.96628000  1.0 -0.0909757784
C  C74  1  0.22608000  0.91590000  0.46628000  1.0 -0.0909757784
C  C75  1  0.17892000  0.67110000  0.98902000  1.0 -0.1388692248
C  C76  1  0.17892000  0.82890000  0.48902000  1.0 -0.1388692248
C  C77  1  0.07851000  0.65240000  0.97671000  1.0 0.0709762834
C  C78  1  0.07851000  0.84760000  0.47671000  1.0 0.0709762834
C  C79  1  0.02689000  0.54760000  0.94009000  1.0 -0.1520270358
C  C80  1  0.02689000  0.95240000  0.44009000  1.0 -0.1520270358
C  C81  1  0.07439000  0.46120000  0.91759000  1.0 -0.0958130869
C  C82  1  0.07439000  0.03880000  0.41759000  1.0 -0.0958130869
C  C83  1  0.02828000  0.74190000  0.00248000  1.0 0.0872488667
C  C84  1  0.02828000  0.75810000  0.50248000  1.0 0.0872488667
C  C85  1  0.08041000  0.79260000  0.05141000  1.0 -0.1883708376
C  C86  1  0.08041000  0.70740000  0.55141000  1.0 -0.1883708376
C  C87  1  0.03440000  0.87860000  0.07540000  1.0 0.0817438153
C  C88  1  0.03440000  0.62140000  0.57540000  1.0 0.0817438153
C  C89  1  0.93521000  0.91200000  0.05001000  1.0 -0.1722974915
C  C90  1  0.93521000  0.58800000  0.55001000  1.0 -0.1722974915
C  C91  1  0.88087000  0.86190000  0.00097000  1.0 0.0966949773
C  C92  1  0.88087000  0.63810000  0.50097000  1.0 0.0966949773
C  C93  1  0.92847000  0.77720000  0.97757000  1.0 -0.1831604491
C  C94  1  0.92847000  0.72280000  0.47757000  1.0 -0.1831604491
C  C95  1  0.09038000  0.94120000  0.12608000  1.0 0.0709762834
C  C96  1  0.09038000  0.55880000  0.62608000  1.0 0.0709762834
C  C97  1  0.16783000  0.86440000  0.16323000  1.0 -0.1520270358
C  C98  1  0.16783000  0.63560000  0.66323000  1.0 -0.1520270358
C  C99  1  0.21881000  0.92850000  0.21011000  1.0 -0.0909757784
C  C100  1  0.21881000  0.57150000  0.71011000  1.0 -0.0909757784
C  C101  1  0.19575000  0.06860000  0.22085000  1.0 -0.0172456354
C  C102  1  0.19575000  0.43140000  0.72085000  1.0 -0.0172456354
C  C103  1  0.12043000  0.14640000  0.18423000  1.0 -0.0909757784
C  C104  1  0.12043000  0.35360000  0.68423000  1.0 -0.0909757784
C  C105  1  0.06786000  0.08400000  0.13736000  1.0 -0.1520270358
C  C106  1  0.06786000  0.41600000  0.63736000  1.0 -0.1520270358
C  C107  1  0.77703000  0.90860000  0.97473000  1.0 0.0709762834
C  C108  1  0.77703000  0.59140000  0.47473000  1.0 0.0709762834
C  C109  1  0.71910000  0.93140000  0.00140000  1.0 -0.1236862864
C  C110  1  0.71910000  0.56860000  0.50140000  1.0 -0.1236862864
C  C111  1  0.73694000  0.94050000  0.92344000  1.0 -0.1520270358
C  C112  1  0.73694000  0.55950000  0.42344000  1.0 -0.1520270358
C  C113  1  0.22512000  0.38030000  0.90712000  1.0 0.5419821006
C  C114  1  0.22512000  0.11970000  0.40712000  1.0 0.5419821006
C  C115  1  0.15580000  0.93080000  0.79820000  1.0 0.318355939
C  C116  1  0.15580000  0.56920000  0.29820000  1.0 0.318355939
C  C117  1  0.12410000  0.68600000  0.82200000  1.0 -0.3083785462
C  C118  1  0.12410000  0.81400000  0.32200000  1.0 -0.3083785462
C  C119  1  0.02980000  0.78340000  0.73570000  1.0 -0.3195618752
C  C120  1  0.02980000  0.71660000  0.23570000  1.0 -0.3195618752
N  N1  1  0.89415000  0.30520000  0.71385000  1.0 0.0077162813
N  N2  1  0.89415000  0.19480000  0.21385000  1.0 0.0077162813
N  N3  1  0.10585000  0.80520000  0.78615000  1.0 0.0077162813
N  N4  1  0.10585000  0.69480000  0.28615000  1.0 0.0077162813
O  O1  1  0.68875000  0.56740000  0.19345000  1.0 -0.5009308999
O  O2  1  0.68875000  0.93260000  0.69345000  1.0 -0.5068057863
O  O3  1  0.77724000  0.76960000  0.22324000  1.0 -0.5542403895
O  O4  1  0.77724000  0.73040000  0.72324000  1.0 -0.5542403895
O  O5  1  0.54917000  0.61580000  0.64380000  1.0 -0.4946892548
O  O6  1  0.54917000  0.88420000  0.14380000  1.0 -0.4946892548
O  O7  1  0.56690000  0.59660000  0.57367000  1.0 -0.5009308999
O  O8  1  0.56690000  0.90340000  0.07367000  1.0 -0.5009308999
O  O9  1  0.77689000  0.45500000  0.65959000  1.0 -0.4678839433
O  O10  1  0.77689000  0.04500000  0.15959000  1.0 -0.4678839433
O  O11  1  0.82216000  0.77850000  0.62171000  1.0 -0.5361060041
O  O12  1  0.82216000  0.72150000  0.12171000  1.0 -0.5361060041
O  O13  1  0.68500000  0.90260000  0.58280000  1.0 -0.5068057863
O  O14  1  0.68500000  0.59740000  0.08280000  1.0 -0.5068057863
O  O15  1  0.31125000  0.06740000  0.30655000  1.0 -0.5068057863
O  O16  1  0.31125000  0.43260000  0.80655000  1.0 -0.5009308999
O  O17  1  0.22276000  0.26960000  0.27676000  1.0 -0.5542403895
O  O18  1  0.22276000  0.23040000  0.77676000  1.0 -0.5542403895
O  O19  1  0.45083000  0.11580000  0.85620000  1.0 -0.4946892548
O  O20  1  0.45083000  0.38420000  0.35620000  1.0 -0.5009308999
O  O21  1  0.43310000  0.09660000  0.92633000  1.0 -0.5009308999
O  O22  1  0.43310000  0.40340000  0.42633000  1.0 -0.5009308999
O  O23  1  0.22311000  0.95500000  0.84041000  1.0 -0.4678839433
O  O24  1  0.22311000  0.54500000  0.34041000  1.0 -0.4678839433
O  O25  1  0.17784000  0.27850000  0.87829000  1.0 -0.5361060041
O  O26  1  0.17784000  0.22150000  0.37829000  1.0 -0.5361060041
O  O27  1  0.31500000  0.40260000  0.91720000  1.0 -0.5068057863
O  O28  1  0.31500000  0.09740000  0.41720000  1.0 -0.5068057863
