# DDEC6 charges by PACMAN v1.1 (https://github.com/mtap-research/PACMAN-charge/)
data_MIFKUJ_FSR_pacman
_symmetry_space_group_name_H-M   'P 1'
_cell_length_a   12.02390000
_cell_length_b   13.48200000
_cell_length_c   14.04140000
_cell_angle_alpha   109.50900000
_cell_angle_beta   102.85900000
_cell_angle_gamma   89.31200000
_symmetry_Int_Tables_number   1
_chemical_formula_structural   ZnH18(C11O2)3
_chemical_formula_sum   'Zn2 H36 C66 O12'
_cell_volume   2086.89668735
_cell_formula_units_Z   2
loop_
 _symmetry_equiv_pos_site_id
 _symmetry_equiv_pos_as_xyz
  1  'x, y, z'
loop_
 _atom_site_type_symbol
 _atom_site_label
 _atom_site_symmetry_multiplicity
 _atom_site_fract_x
 _atom_site_fract_y
 _atom_site_fract_z
 _atom_site_occupancy
 _atom_site_charge
Zn  Zn1  1  0.07234000  0.35811000  0.01613000  1.0 0.9200740982
Zn  Zn2  1  0.92766000  0.64189000  0.98387000  1.0 0.9200740982
H  H1  1  0.06670000  0.30870000  0.30890000  1.0 0.1284656143
H  H2  1  0.93330000  0.69130000  0.69110000  1.0 0.1284656143
H  H3  1  0.05290000  0.23800000  0.43640000  1.0 0.1209523406
H  H4  1  0.94710000  0.76200000  0.56360000  1.0 0.1209523406
H  H5  1  0.96660000  0.95110000  0.21510000  1.0 0.1209523406
H  H6  1  0.03340000  0.04890000  0.78490000  1.0 0.1209523406
H  H7  1  0.97740000  0.02360000  0.08880000  1.0 0.1284656143
H  H8  1  0.02260000  0.97640000  0.91120000  1.0 0.1284656143
H  H9  1  0.09460000  0.91870000  0.36920000  1.0 0.1209523406
H  H10  1  0.90540000  0.08130000  0.63080000  1.0 0.1209523406
H  H11  1  0.77510000  0.10320000  0.35190000  1.0 0.1209523406
H  H12  1  0.22490000  0.89680000  0.64810000  1.0 0.1209523406
H  H13  1  0.65580000  0.23500000  0.34100000  1.0 0.1456590821
H  H14  1  0.34420000  0.76500000  0.65900000  1.0 0.1456590821
H  H15  1  0.80970000  0.41240000  0.64620000  1.0 0.1395971928
H  H16  1  0.19030000  0.58760000  0.35380000  1.0 0.1395971928
H  H17  1  0.93370000  0.26920000  0.64770000  1.0 0.1209523406
H  H18  1  0.06630000  0.73080000  0.35230000  1.0 0.1209523406
H  H19  1  0.74780000  0.07670000  0.72770000  1.0 0.1284656143
H  H20  1  0.25220000  0.92330000  0.27230000  1.0 0.1284656143
H  H21  1  0.86200000  0.21370000  0.86430000  1.0 0.1284656143
H  H22  1  0.13800000  0.78630000  0.13570000  1.0 0.1284656143
H  H23  1  0.64780000  0.42230000  0.78280000  1.0 0.1284656143
H  H24  1  0.35220000  0.57770000  0.21720000  1.0 0.1284656143
H  H25  1  0.52940000  0.28450000  0.65770000  1.0 0.1209523406
H  H26  1  0.47060000  0.71550000  0.34230000  1.0 0.1209523406
H  H27  1  0.69510000  0.03220000  0.52680000  1.0 0.113251992
H  H28  1  0.30490000  0.96780000  0.47320000  1.0 0.113251992
H  H29  1  0.49100000  0.10020000  0.78030000  1.0 0.1209523406
H  H30  1  0.50900000  0.89980000  0.21970000  1.0 0.1209523406
H  H31  1  0.38220000  0.17960000  0.89910000  1.0 0.1395971928
H  H32  1  0.61780000  0.82040000  0.10090000  1.0 0.1395971928
H  H33  1  0.14160000  0.22720000  0.68210000  1.0 0.1209523406
H  H34  1  0.85840000  0.77280000  0.31790000  1.0 0.1284656143
H  H35  1  0.24310000  0.14780000  0.55550000  1.0 0.1209523406
H  H36  1  0.75690000  0.85220000  0.44450000  1.0 0.1209523406
C  C1  1  0.02370000  0.17350000  0.18740000  1.0 -0.0036600286
C  C2  1  0.97630000  0.82650000  0.81260000  1.0 -0.0036600286
C  C3  1  0.04550000  0.23570000  0.28960000  1.0 -0.0977139692
C  C4  1  0.95450000  0.76430000  0.71040000  1.0 -0.0977139692
C  C5  1  0.03700000  0.19360000  0.36560000  1.0 -0.1499086191
C  C6  1  0.96300000  0.80640000  0.63440000  1.0 -0.1499086191
C  C7  1  0.00600000  0.08920000  0.34010000  1.0 0.0714108961
C  C8  1  0.99400000  0.91080000  0.65990000  1.0 0.0714108961
C  C9  1  0.98560000  0.02450000  0.23450000  1.0 -0.1407795455
C  C10  1  0.01440000  0.97550000  0.76550000  1.0 -0.1407795455
C  C11  1  0.99320000  0.06720000  0.15980000  1.0 -0.0797485854
C  C12  1  0.00680000  0.93280000  0.84020000  1.0 -0.0797485854
C  C13  1  0.02960000  0.21960000  0.10470000  1.0 0.559230261
C  C14  1  0.97040000  0.78040000  0.89530000  1.0 0.559230261
C  C15  1  0.99840000  0.04060000  0.42030000  1.0 0.0326922938
C  C16  1  0.00160000  0.95940000  0.57970000  1.0 0.0326922938
C  C17  1  0.05600000  0.95250000  0.42240000  1.0 -0.1883695009
C  C18  1  0.94400000  0.04750000  0.57760000  1.0 -0.1883695009
C  C19  1  0.94180000  0.08710000  0.49870000  1.0 0.0388750811
C  C20  1  0.05820000  0.91290000  0.50130000  1.0 0.0388750811
C  C21  1  0.86730000  0.17950000  0.49930000  1.0 0.0565802646
C  C22  1  0.13270000  0.82050000  0.50070000  1.0 0.0565802646
C  C23  1  0.78200000  0.16650000  0.40960000  1.0 -0.1407795455
C  C24  1  0.21800000  0.83350000  0.59040000  1.0 -0.1407795455
C  C25  1  0.71010000  0.24150000  0.40370000  1.0 -0.1211807761
C  C26  1  0.28990000  0.75850000  0.59630000  1.0 -0.1211807761
C  C27  1  0.71680000  0.32290000  0.48580000  1.0 0.0176883754
C  C28  1  0.28320000  0.67710000  0.51420000  1.0 0.0176883754
C  C29  1  0.80460000  0.34900000  0.58890000  1.0 -0.1258175704
C  C30  1  0.19540000  0.65100000  0.41110000  1.0 -0.1258175704
C  C31  1  0.87730000  0.26540000  0.58700000  1.0 -0.1499086191
C  C32  1  0.12270000  0.73460000  0.41300000  1.0 -0.1499086191
C  C33  1  0.62940000  0.16740000  0.67900000  1.0 0.0714108961
C  C34  1  0.37060000  0.83260000  0.32100000  1.0 0.0714108961
C  C35  1  0.72710000  0.14730000  0.74030000  1.0 -0.1499086191
C  C36  1  0.27290000  0.85270000  0.25970000  1.0 -0.1499086191
C  C37  1  0.79640000  0.22880000  0.82070000  1.0 -0.0899627726
C  C38  1  0.20360000  0.77120000  0.17930000  1.0 -0.0899627726
C  C39  1  0.76800000  0.33240000  0.83590000  1.0 -0.0321141589
C  C40  1  0.23200000  0.66760000  0.16410000  1.0 -0.0321141589
C  C41  1  0.66780000  0.35180000  0.77290000  1.0 -0.0899627726
C  C42  1  0.33220000  0.64820000  0.22710000  1.0 -0.0899627726
C  C43  1  0.59870000  0.27040000  0.69750000  1.0 -0.1407795455
C  C44  1  0.40130000  0.72960000  0.30250000  1.0 -0.1407795455
C  C45  1  0.84360000  0.42210000  0.91530000  1.0 0.5975189735
C  C46  1  0.15640000  0.57790000  0.08470000  1.0 0.5975189735
C  C47  1  0.56090000  0.07990000  0.59070000  1.0 0.0326922938
C  C48  1  0.43910000  0.92010000  0.40930000  1.0 0.0326922938
C  C49  1  0.61490000  0.01960000  0.51580000  1.0 -0.1883695009
C  C50  1  0.38510000  0.98040000  0.48420000  1.0 -0.1883695009
C  C51  1  0.44300000  0.05980000  0.57610000  1.0 0.0326922938
C  C52  1  0.55700000  0.94020000  0.42390000  1.0 0.0326922938
C  C53  1  0.37750000  0.11470000  0.65480000  1.0 0.0714108961
C  C54  1  0.62250000  0.88530000  0.34520000  1.0 0.0714108961
C  C55  1  0.41910000  0.12520000  0.75800000  1.0 -0.1407795455
C  C56  1  0.58090000  0.87480000  0.24200000  1.0 -0.1407795455
C  C57  1  0.35280000  0.17330000  0.82850000  1.0 -0.0977139692
C  C58  1  0.64720000  0.82670000  0.17150000  1.0 -0.0977139692
C  C59  1  0.25490000  0.20990000  0.80530000  1.0 0.0025611729
C  C60  1  0.74510000  0.79010000  0.19470000  1.0 0.0025611729
C  C61  1  0.21340000  0.20050000  0.70170000  1.0 -0.1211807761
C  C62  1  0.78660000  0.79950000  0.29830000  1.0 -0.1211807761
C  C63  1  0.27320000  0.15330000  0.62570000  1.0 -0.1407795455
C  C64  1  0.72680000  0.84670000  0.37430000  1.0 -0.1407795455
C  C65  1  0.19620000  0.25720000  0.90650000  1.0 0.5343391229
C  C66  1  0.80380000  0.74280000  0.09350000  1.0 0.5343391229
O  O1  1  0.99190000  0.16870000  0.01240000  1.0 -0.525278158
O  O2  1  0.00810000  0.83130000  0.98760000  1.0 -0.5225448281
O  O3  1  0.07210000  0.31370000  0.13620000  1.0 -0.5107536982
O  O4  1  0.92790000  0.68630000  0.86380000  1.0 -0.5107536982
O  O5  1  0.91720000  0.40526000  0.98651000  1.0 -0.5580475996
O  O6  1  0.08280000  0.59474000  0.01349000  1.0 -0.5580475996
O  O7  1  0.82740000  0.51216000  0.90870000  1.0 -0.5225448281
O  O8  1  0.17260000  0.48784000  0.09130000  1.0 -0.5225448281
O  O9  1  0.24970000  0.25750000  0.99210000  1.0 -0.4347157846
O  O10  1  0.75030000  0.74250000  0.00790000  1.0 -0.4362658034
O  O11  1  0.11860000  0.28810000  0.88030000  1.0 -0.3717717748
O  O12  1  0.88140000  0.71190000  0.11970000  1.0 -0.3717717748
