# DDEC6 charges by PACMAN v1.1 (https://github.com/mtap-research/PACMAN-charge/)
data_MIFLIY_ASR_pacman
_symmetry_space_group_name_H-M   'P 1'
_cell_length_a   17.49570000
_cell_length_b   17.49570000
_cell_length_c   10.75740000
_cell_angle_alpha   75.90660000
_cell_angle_beta   104.09300000
_cell_angle_gamma   61.24180000
_symmetry_Int_Tables_number   1
_chemical_formula_structural   MgH18(C17O4)2
_chemical_formula_sum   'Mg2 H36 C68 O16'
_cell_volume   2535.46589391
_cell_formula_units_Z   2
loop_
 _symmetry_equiv_pos_site_id
 _symmetry_equiv_pos_as_xyz
  1  'x, y, z'
loop_
 _atom_site_type_symbol
 _atom_site_label
 _atom_site_symmetry_multiplicity
 _atom_site_fract_x
 _atom_site_fract_y
 _atom_site_fract_z
 _atom_site_occupancy
 _atom_site_charge
Mg  Mg1  1  0.00000000  0.50000000  0.50000000  1.0 1.4094690136
Mg  Mg2  1  0.50000000  0.00000000  0.00000000  1.0 1.4094690136
H  H1  1  0.91990000  0.11830000  0.41150000  1.0 0.1118147097
H  H2  1  0.11830000  0.91990000  0.08850000  1.0 0.1118147097
H  H3  1  0.08010000  0.88170000  0.58850000  1.0 0.1118147097
H  H4  1  0.88170000  0.08010000  0.91150000  1.0 0.1118147097
H  H5  1  0.91200000  0.25500000  0.30320000  1.0 0.1118147097
H  H6  1  0.25500000  0.91200000  0.19680000  1.0 0.1118147097
H  H7  1  0.08800000  0.74500000  0.69680000  1.0 0.1118147097
H  H8  1  0.74500000  0.08800000  0.80320000  1.0 0.1118147097
H  H9  1  0.95770000  0.28730000  0.66740000  1.0 0.1118147097
H  H10  1  0.28730000  0.95770000  0.83260000  1.0 0.1118147097
H  H11  1  0.04230000  0.71270000  0.33260000  1.0 0.1118147097
H  H12  1  0.71270000  0.04230000  0.16740000  1.0 0.1118147097
H  H13  1  0.96930000  0.14850000  0.77920000  1.0 0.1118147097
H  H14  1  0.14850000  0.96930000  0.72080000  1.0 0.1118147097
H  H15  1  0.03070000  0.85150000  0.22080000  1.0 0.1118147097
H  H16  1  0.85150000  0.03070000  0.27920000  1.0 0.1118147097
H  H17  1  0.84110000  0.05950000  0.51820000  1.0 0.1219397034
H  H18  1  0.05950000  0.84110000  0.98180000  1.0 0.1219397034
H  H19  1  0.15890000  0.94050000  0.48180000  1.0 0.1219397034
H  H20  1  0.94050000  0.15890000  0.01820000  1.0 0.1219397034
H  H21  1  0.87140000  0.88780000  0.47020000  1.0 0.1118147097
H  H22  1  0.88780000  0.87140000  0.02980000  1.0 0.1118147097
H  H23  1  0.12860000  0.11220000  0.52980000  1.0 0.1118147097
H  H24  1  0.11220000  0.12860000  0.97020000  1.0 0.1118147097
H  H25  1  0.75230000  0.88270000  0.32420000  1.0 0.1219397034
H  H26  1  0.88270000  0.75230000  0.17580000  1.0 0.1219397034
H  H27  1  0.24770000  0.11730000  0.67580000  1.0 0.1219397034
H  H28  1  0.11730000  0.24770000  0.82420000  1.0 0.1219397034
H  H29  1  0.59690000  0.96370000  0.54680000  1.0 0.1298038191
H  H30  1  0.96370000  0.59690000  0.95320000  1.0 0.1298038191
H  H31  1  0.40310000  0.03630000  0.45320000  1.0 0.1298038191
H  H32  1  0.03630000  0.40310000  0.04680000  1.0 0.1298038191
H  H33  1  0.71480000  0.97040000  0.69210000  1.0 0.1298038191
H  H34  1  0.97040000  0.71480000  0.80790000  1.0 0.1298038191
H  H35  1  0.28520000  0.02960000  0.30790000  1.0 0.1298038191
H  H36  1  0.02960000  0.28520000  0.19210000  1.0 0.1298038191
C  C1  1  0.94998000  0.11498000  0.60850000  1.0 0.0674990616
C  C2  1  0.11498000  0.94998000  0.89150000  1.0 0.0674990616
C  C3  1  0.05002000  0.88502000  0.39150000  1.0 0.0674990616
C  C4  1  0.88502000  0.05002000  0.10850000  1.0 0.0674990616
C  C5  1  0.93024000  0.15084000  0.46550000  1.0 -0.160438715
C  C6  1  0.15084000  0.93024000  0.03450000  1.0 -0.160438715
C  C7  1  0.06976000  0.84916000  0.53450000  1.0 -0.160438715
C  C8  1  0.84916000  0.06976000  0.96550000  1.0 -0.160438715
C  C9  1  0.92516000  0.23256000  0.40070000  1.0 -0.0981161943
C  C10  1  0.23256000  0.92516000  0.09930000  1.0 -0.0981161943
C  C11  1  0.07484000  0.76744000  0.59930000  1.0 -0.0981161943
C  C12  1  0.76744000  0.07484000  0.90070000  1.0 -0.0981161943
C  C13  1  0.93907000  0.28287000  0.47640000  1.0 -0.0111180375
C  C14  1  0.28287000  0.93907000  0.02360000  1.0 -0.0111180375
C  C15  1  0.06093000  0.71713000  0.52360000  1.0 -0.0111180375
C  C16  1  0.71713000  0.06093000  0.97640000  1.0 -0.0111180375
C  C17  1  0.95264000  0.25144000  0.61620000  1.0 -0.0981161943
C  C18  1  0.25144000  0.95264000  0.88380000  1.0 -0.0981161943
C  C19  1  0.04736000  0.74856000  0.38380000  1.0 -0.0981161943
C  C20  1  0.74856000  0.04736000  0.11620000  1.0 -0.0981161943
C  C21  1  0.95889000  0.16909000  0.68270000  1.0 -0.1473081805
C  C22  1  0.16909000  0.95889000  0.81730000  1.0 -0.1473081805
C  C23  1  0.04111000  0.83091000  0.31730000  1.0 -0.1473081805
C  C24  1  0.83091000  0.04111000  0.18270000  1.0 -0.1473081805
C  C25  1  0.95546000  0.02706000  0.68090000  1.0 0.0241160035
C  C26  1  0.02706000  0.95546000  0.81910000  1.0 0.0241160035
C  C27  1  0.04454000  0.97294000  0.31910000  1.0 0.0241160035
C  C28  1  0.97294000  0.04454000  0.18090000  1.0 0.0241160035
C  C29  1  0.88567000  0.01507000  0.61350000  1.0 -0.1876773075
C  C30  1  0.01507000  0.88567000  0.88650000  1.0 -0.1876773075
C  C31  1  0.11433000  0.98493000  0.38650000  1.0 -0.1876773075
C  C32  1  0.98493000  0.11433000  0.11350000  1.0 -0.1876773075
C  C33  1  0.87791000  0.94091000  0.67920000  1.0 0.0357911936
C  C34  1  0.94091000  0.87791000  0.82080000  1.0 0.0357911936
C  C35  1  0.12209000  0.05909000  0.32080000  1.0 0.0357911936
C  C36  1  0.05909000  0.12209000  0.17920000  1.0 0.0357911936
C  C37  1  0.80305000  0.93245000  0.59380000  1.0 0.0594630758
C  C38  1  0.93245000  0.80305000  0.90620000  1.0 0.0594630758
C  C39  1  0.19695000  0.06755000  0.40620000  1.0 0.0594630758
C  C40  1  0.06755000  0.19695000  0.09380000  1.0 0.0594630758
C  C41  1  0.81522000  0.90442000  0.48510000  1.0 -0.1320754238
C  C42  1  0.90442000  0.81522000  0.01490000  1.0 -0.1320754238
C  C43  1  0.18478000  0.09558000  0.51490000  1.0 -0.1320754238
C  C44  1  0.09558000  0.18478000  0.98510000  1.0 -0.1320754238
C  C45  1  0.74425000  0.90105000  0.39870000  1.0 -0.0852140509
C  C46  1  0.90105000  0.74425000  0.10130000  1.0 -0.0852140509
C  C47  1  0.25575000  0.09895000  0.60130000  1.0 -0.0852140509
C  C48  1  0.09895000  0.25575000  0.89870000  1.0 -0.0844536521
C  C49  1  0.66253000  0.92393000  0.41940000  1.0 -0.0279788207
C  C50  1  0.92393000  0.66253000  0.08060000  1.0 -0.0279788207
C  C51  1  0.33747000  0.07607000  0.58060000  1.0 -0.0279788207
C  C52  1  0.07607000  0.33747000  0.91940000  1.0 -0.0279788207
C  C53  1  0.65213000  0.94913000  0.53000000  1.0 -0.059682867
C  C54  1  0.94913000  0.65213000  0.97000000  1.0 -0.059682867
C  C55  1  0.34787000  0.05087000  0.47000000  1.0 -0.059682867
C  C56  1  0.05087000  0.34787000  0.03000000  1.0 -0.059682867
C  C57  1  0.72256000  0.95316000  0.61670000  1.0 -0.117265413
C  C58  1  0.95316000  0.72256000  0.88330000  1.0 -0.117265413
C  C59  1  0.27744000  0.04684000  0.38330000  1.0 -0.117265413
C  C60  1  0.04684000  0.27744000  0.11670000  1.0 -0.117265413
C  C61  1  0.94208000  0.36708000  0.41120000  1.0 0.5799332685
C  C62  1  0.36708000  0.94208000  0.08880000  1.0 0.5799332685
C  C63  1  0.05792000  0.63292000  0.58880000  1.0 0.5799332685
C  C64  1  0.63292000  0.05792000  0.91120000  1.0 0.5799332685
C  C65  1  0.58732000  0.92212000  0.32230000  1.0 0.5799332685
C  C66  1  0.92212000  0.58732000  0.17770000  1.0 0.5799332685
C  C67  1  0.41268000  0.07788000  0.67770000  1.0 0.5799332685
C  C68  1  0.07788000  0.41268000  0.82230000  1.0 0.5799332685
O  O1  1  0.96474000  0.40254000  0.48730000  1.0 -0.5891172834
O  O2  1  0.40254000  0.96474000  0.01270000  1.0 -0.5891172834
O  O3  1  0.03526000  0.59746000  0.51270000  1.0 -0.5891172834
O  O4  1  0.59746000  0.03526000  0.98730000  1.0 -0.5891172834
O  O5  1  0.92129000  0.39529000  0.27940000  1.0 -0.4392802962
O  O6  1  0.39529000  0.92129000  0.22060000  1.0 -0.4392802962
O  O7  1  0.07871000  0.60471000  0.72060000  1.0 -0.4392802962
O  O8  1  0.60471000  0.07871000  0.77940000  1.0 -0.4392802962
O  O9  1  0.59177000  0.91177000  0.21430000  1.0 -0.5627606757
O  O10  1  0.91177000  0.59177000  0.28570000  1.0 -0.5627606757
O  O11  1  0.40823000  0.08823000  0.78570000  1.0 -0.5651227184
O  O12  1  0.08823000  0.40823000  0.71430000  1.0 -0.5651227184
O  O13  1  0.51696000  0.93516000  0.35670000  1.0 -0.3981165338
O  O14  1  0.93516000  0.51696000  0.14330000  1.0 -0.3981165338
O  O15  1  0.48304000  0.06484000  0.64330000  1.0 -0.3981165338
O  O16  1  0.06484000  0.48304000  0.85670000  1.0 -0.3932127603
