# DDEC6 charges by PACMAN v1.1 (https://github.com/mtap-research/PACMAN-charge/)
data_MIHMOI_ASR_pacman
_symmetry_space_group_name_H-M   'P 1'
_cell_length_a   20.08670000
_cell_length_b   20.08670000
_cell_length_c   10.43450000
_cell_angle_alpha   82.18410000
_cell_angle_beta   97.81590000
_cell_angle_gamma   110.46300000
_symmetry_Int_Tables_number   1
_chemical_formula_structural   Bi4C68O19
_chemical_formula_sum   'Bi8 C136 O38'
_cell_volume   3889.97727696
_cell_formula_units_Z   2
loop_
 _symmetry_equiv_pos_site_id
 _symmetry_equiv_pos_as_xyz
  1  'x, y, z'
loop_
 _atom_site_type_symbol
 _atom_site_label
 _atom_site_symmetry_multiplicity
 _atom_site_fract_x
 _atom_site_fract_y
 _atom_site_fract_z
 _atom_site_occupancy
 _atom_site_charge
Bi  Bi1  1  0.58320000  0.09060000  0.44130000  1.0 1.3492472573
Bi  Bi2  1  0.45340000  0.00200000  0.18390000  1.0 1.417445968
Bi  Bi3  1  0.09060000  0.58320000  0.05870000  1.0 1.3492472573
Bi  Bi4  1  0.00200000  0.45340000  0.31610000  1.0 1.417445968
Bi  Bi5  1  0.41680000  0.90940000  0.55870000  1.0 1.3492472573
Bi  Bi6  1  0.54660000  0.99800000  0.81610000  1.0 1.4133526787
Bi  Bi7  1  0.90940000  0.41680000  0.94130000  1.0 1.3492472573
Bi  Bi8  1  0.99800000  0.54660000  0.68390000  1.0 1.417445968
C  C1  1  0.57740000  0.50980000  0.22310000  1.0 0.0378441775
C  C2  1  0.64630000  0.50570000  0.19400000  1.0 0.0491550367
C  C3  1  0.69550000  0.56450000  0.13600000  1.0 -0.0300637569
C  C4  1  0.75930000  0.56070000  0.10900000  1.0 0.0320248155
C  C5  1  0.77400000  0.49800000  0.14000000  1.0 -0.0193682035
C  C6  1  0.72500000  0.43900000  0.19900000  1.0 0.0491550367
C  C7  1  0.66110000  0.44290000  0.22600000  1.0 -0.0695062064
C  C8  1  0.84400000  0.49400000  0.11100000  1.0 0.580052411
C  C9  1  0.51720000  0.44960000  0.22310000  1.0 0.0320248155
C  C10  1  0.52130000  0.38070000  0.19400000  1.0 0.0559369951
C  C11  1  0.57600000  0.38000000  0.12900000  1.0 -0.0695062064
C  C12  1  0.58000000  0.31600000  0.10200000  1.0 -0.0193682035
C  C13  1  0.52900000  0.25300000  0.14000000  1.0 -0.0193682035
C  C14  1  0.47300000  0.25300000  0.20500000  1.0 -0.0193682035
C  C15  1  0.46900000  0.31700000  0.23200000  1.0 -0.0193682035
C  C16  1  0.53300000  0.18300000  0.11100000  1.0 0.580052411
C  C17  1  0.06210000  0.00210000  0.45460000  1.0 0.0378441775
C  C18  1  0.00500000  0.93920000  0.46070000  1.0 0.0320248155
C  C19  1  0.94280000  0.93700000  0.50610000  1.0 -0.117128129
C  C20  1  0.12930000  0.00450000  0.40600000  1.0 0.0491550367
C  C21  1  0.18300000  0.06900000  0.38000000  1.0 -0.0094945164
C  C22  1  0.24500000  0.07100000  0.33500000  1.0 -0.0094945164
C  C23  1  0.25400000  0.00800000  0.31500000  1.0 -0.0300637569
C  C24  1  0.20000000  0.94400000  0.34000000  1.0 -0.0468419528
C  C25  1  0.13800000  0.94200000  0.38500000  1.0 -0.004581604
C  C26  1  0.32100000  0.01100000  0.26600000  1.0 0.580052411
C  C27  1  0.01030000  0.87350000  0.41800000  1.0 0.0491550367
C  C28  1  0.05300000  0.87900000  0.32200000  1.0 -0.0193682035
C  C29  1  0.05800000  0.81800000  0.28300000  1.0 -0.0387682541
C  C30  1  0.02000000  0.75200000  0.34000000  1.0 -0.0193682035
C  C31  1  0.97700000  0.74700000  0.43600000  1.0 0.0491550367
C  C32  1  0.97300000  0.80700000  0.47500000  1.0 -0.0300637569
C  C33  1  0.02600000  0.68600000  0.29700000  1.0 0.5725214287
C  C34  1  0.50980000  0.57740000  0.27690000  1.0 0.0378441775
C  C35  1  0.50570000  0.64630000  0.30600000  1.0 0.0491550367
C  C36  1  0.56450000  0.69550000  0.36400000  1.0 -0.0300637569
C  C37  1  0.56070000  0.75930000  0.39100000  1.0 0.0320248155
C  C38  1  0.49800000  0.77400000  0.36000000  1.0 -0.0193682035
C  C39  1  0.43900000  0.72500000  0.30100000  1.0 0.0491550367
C  C40  1  0.44290000  0.66110000  0.27400000  1.0 -0.0695062064
C  C41  1  0.49400000  0.84400000  0.38900000  1.0 0.580052411
C  C42  1  0.44960000  0.51720000  0.27690000  1.0 0.0320248155
C  C43  1  0.38070000  0.52130000  0.30600000  1.0 0.0559369951
C  C44  1  0.38000000  0.57600000  0.37100000  1.0 -0.0695062064
C  C45  1  0.31600000  0.58000000  0.39800000  1.0 -0.0193682035
C  C46  1  0.25300000  0.52900000  0.36000000  1.0 -0.0193682035
C  C47  1  0.25300000  0.47300000  0.29500000  1.0 -0.0193682035
C  C48  1  0.31700000  0.46900000  0.26800000  1.0 -0.0193682035
C  C49  1  0.18300000  0.53300000  0.38900000  1.0 0.580052411
C  C50  1  0.00210000  0.06210000  0.04540000  1.0 0.0378441775
C  C51  1  0.93920000  0.00500000  0.03930000  1.0 0.0320248155
C  C52  1  0.93700000  0.94280000  0.99390000  1.0 -0.117128129
C  C53  1  0.00450000  0.12930000  0.09400000  1.0 0.0491550367
C  C54  1  0.06900000  0.18300000  0.12000000  1.0 -0.0094945164
C  C55  1  0.07100000  0.24500000  0.16500000  1.0 -0.0094945164
C  C56  1  0.00800000  0.25400000  0.18500000  1.0 -0.0300637569
C  C57  1  0.94400000  0.20000000  0.16000000  1.0 -0.0468419528
C  C58  1  0.94200000  0.13800000  0.11500000  1.0 -0.0094945164
C  C59  1  0.01100000  0.32100000  0.23400000  1.0 0.580052411
C  C60  1  0.87350000  0.01030000  0.08200000  1.0 0.0491550367
C  C61  1  0.87900000  0.05300000  0.17800000  1.0 -0.0193682035
C  C62  1  0.81800000  0.05800000  0.21700000  1.0 -0.0387682541
C  C63  1  0.75200000  0.02000000  0.16000000  1.0 -0.0193682035
C  C64  1  0.74700000  0.97700000  0.06400000  1.0 0.0491550367
C  C65  1  0.80700000  0.97300000  0.02500000  1.0 -0.0300637569
C  C66  1  0.68600000  0.02600000  0.20300000  1.0 0.5725214287
C  C67  1  0.42260000  0.49020000  0.77690000  1.0 0.0378441775
C  C68  1  0.35370000  0.49430000  0.80600000  1.0 0.0491550367
C  C69  1  0.30450000  0.43550000  0.86400000  1.0 -0.0300637569
C  C70  1  0.24070000  0.43930000  0.89100000  1.0 0.0320248155
C  C71  1  0.22600000  0.50200000  0.86000000  1.0 -0.0193682035
C  C72  1  0.27500000  0.56100000  0.80100000  1.0 0.0491550367
C  C73  1  0.33890000  0.55710000  0.77400000  1.0 -0.0695062064
C  C74  1  0.15600000  0.50600000  0.88900000  1.0 0.580052411
C  C75  1  0.48280000  0.55040000  0.77690000  1.0 0.0320248155
C  C76  1  0.47870000  0.61930000  0.80600000  1.0 0.0559369951
C  C77  1  0.42400000  0.62000000  0.87100000  1.0 -0.0695062064
C  C78  1  0.42000000  0.68400000  0.89800000  1.0 -0.0193682035
C  C79  1  0.47100000  0.74700000  0.86000000  1.0 -0.0193682035
C  C80  1  0.52700000  0.74700000  0.79500000  1.0 -0.0193682035
C  C81  1  0.53100000  0.68300000  0.76800000  1.0 -0.0193682035
C  C82  1  0.46700000  0.81700000  0.88900000  1.0 0.580052411
C  C83  1  0.93790000  0.99790000  0.54540000  1.0 0.0378441775
C  C84  1  0.99500000  0.06080000  0.53930000  1.0 0.0320248155
C  C85  1  0.05720000  0.06300000  0.49390000  1.0 -0.117128129
C  C86  1  0.87070000  0.99550000  0.59400000  1.0 0.0491550367
C  C87  1  0.81700000  0.93100000  0.62000000  1.0 -0.0094945164
C  C88  1  0.75500000  0.92900000  0.66500000  1.0 -0.004581604
C  C89  1  0.74600000  0.99200000  0.68500000  1.0 -0.0300637569
C  C90  1  0.80000000  0.05600000  0.66000000  1.0 -0.0468419528
C  C91  1  0.86200000  0.05800000  0.61500000  1.0 -0.0094945164
C  C92  1  0.67900000  0.98900000  0.73400000  1.0 0.580052411
C  C93  1  0.98970000  0.12650000  0.58200000  1.0 0.0491550367
C  C94  1  0.94700000  0.12100000  0.67800000  1.0 -0.0193682035
C  C95  1  0.94200000  0.18200000  0.71700000  1.0 -0.0387682541
C  C96  1  0.98000000  0.24800000  0.66000000  1.0 -0.0193682035
C  C97  1  0.02300000  0.25300000  0.56400000  1.0 0.0491550367
C  C98  1  0.02700000  0.19300000  0.52500000  1.0 -0.0300637569
C  C99  1  0.97400000  0.31400000  0.70300000  1.0 0.5725214287
C  C100  1  0.49020000  0.42260000  0.72310000  1.0 0.0378441775
C  C101  1  0.49430000  0.35370000  0.69400000  1.0 0.0491550367
C  C102  1  0.43550000  0.30450000  0.63600000  1.0 -0.0300637569
C  C103  1  0.43930000  0.24070000  0.60900000  1.0 0.0320248155
C  C104  1  0.50200000  0.22600000  0.64000000  1.0 -0.0193682035
C  C105  1  0.56100000  0.27500000  0.69900000  1.0 0.0491550367
C  C106  1  0.55710000  0.33890000  0.72600000  1.0 -0.0695062064
C  C107  1  0.50600000  0.15600000  0.61100000  1.0 0.580052411
C  C108  1  0.55040000  0.48280000  0.72310000  1.0 0.0320248155
C  C109  1  0.61930000  0.47870000  0.69400000  1.0 0.0559369951
C  C110  1  0.62000000  0.42400000  0.62900000  1.0 -0.0695062064
C  C111  1  0.68400000  0.42000000  0.60200000  1.0 -0.0193682035
C  C112  1  0.74700000  0.47100000  0.64000000  1.0 -0.0193682035
C  C113  1  0.74700000  0.52700000  0.70500000  1.0 -0.0193682035
C  C114  1  0.68300000  0.53100000  0.73200000  1.0 -0.0193682035
C  C115  1  0.81700000  0.46700000  0.61100000  1.0 0.580052411
C  C116  1  0.99790000  0.93790000  0.95460000  1.0 0.0378441775
C  C117  1  0.06080000  0.99500000  0.96070000  1.0 0.0320248155
C  C118  1  0.06300000  0.05720000  0.00610000  1.0 -0.117128129
C  C119  1  0.99550000  0.87070000  0.90600000  1.0 0.0491550367
C  C120  1  0.93100000  0.81700000  0.88000000  1.0 -0.0094945164
C  C121  1  0.92900000  0.75500000  0.83500000  1.0 -0.004581604
C  C122  1  0.99200000  0.74600000  0.81500000  1.0 -0.0300637569
C  C123  1  0.05600000  0.80000000  0.84000000  1.0 -0.0468419528
C  C124  1  0.05800000  0.86200000  0.88500000  1.0 -0.0094945164
C  C125  1  0.98900000  0.67900000  0.76600000  1.0 0.580052411
C  C126  1  0.12650000  0.98970000  0.91800000  1.0 0.0491550367
C  C127  1  0.12100000  0.94700000  0.82200000  1.0 -0.0193682035
C  C128  1  0.18200000  0.94200000  0.78300000  1.0 -0.0387682541
C  C129  1  0.24800000  0.98000000  0.84000000  1.0 -0.0193682035
C  C130  1  0.25300000  0.02300000  0.93600000  1.0 0.0491550367
C  C131  1  0.19300000  0.02700000  0.97500000  1.0 -0.0300637569
C  C132  1  0.31400000  0.97400000  0.79700000  1.0 0.5725214287
C  C133  1  0.57380000  0.57380000  0.25000000  1.0 -0.1096255228
C  C134  1  0.45330000  0.45330000  0.25000000  1.0 -0.1271491319
C  C135  1  0.42620000  0.42620000  0.75000000  1.0 -0.1096255228
C  C136  1  0.54670000  0.54670000  0.75000000  1.0 -0.1271491319
O  O1  1  0.46847000  0.99955000  0.40549000  1.0 -0.7066932217
O  O2  1  0.85300000  0.43700000  0.12500000  1.0 -0.4805671841
O  O3  1  0.89000000  0.54800000  0.07400000  1.0 -0.4238539979
O  O4  1  0.51800000  0.13200000  0.19200000  1.0 -0.5101379053
O  O5  1  0.55100000  0.17900000  0.00700000  1.0 -0.4369893566
O  O6  1  0.31800000  0.98600000  0.16400000  1.0 -0.4949702815
O  O7  1  0.37800000  0.03800000  0.32800000  1.0 -0.3855908857
O  O8  1  0.08000000  0.68800000  0.25600000  1.0 -0.4986763592
O  O9  1  0.97600000  0.63000000  0.30400000  1.0 -0.4805671841
O  O10  1  0.99955000  0.46847000  0.09451000  1.0 -0.7066932217
O  O11  1  0.43700000  0.85300000  0.37500000  1.0 -0.4805671841
O  O12  1  0.54800000  0.89000000  0.42600000  1.0 -0.4238539979
O  O13  1  0.13200000  0.51800000  0.30800000  1.0 -0.5101379053
O  O14  1  0.17900000  0.55100000  0.49300000  1.0 -0.4369893566
O  O15  1  0.98600000  0.31800000  0.33600000  1.0 -0.4986763592
O  O16  1  0.03800000  0.37800000  0.17200000  1.0 -0.3855908857
O  O17  1  0.68800000  0.08000000  0.24400000  1.0 -0.4986763592
O  O18  1  0.63000000  0.97600000  0.19600000  1.0 -0.4805671841
O  O19  1  0.53153000  0.00045000  0.59451000  1.0 -0.7066932217
O  O20  1  0.14700000  0.56300000  0.87500000  1.0 -0.4805671841
O  O21  1  0.11000000  0.45200000  0.92600000  1.0 -0.4238539979
O  O22  1  0.48200000  0.86800000  0.80800000  1.0 -0.5101379053
O  O23  1  0.44900000  0.82100000  0.99300000  1.0 -0.4369893566
O  O24  1  0.68200000  0.01400000  0.83600000  1.0 -0.4986763592
O  O25  1  0.62200000  0.96200000  0.67200000  1.0 -0.3855908857
O  O26  1  0.92000000  0.31200000  0.74400000  1.0 -0.4986763592
O  O27  1  0.02400000  0.37000000  0.69600000  1.0 -0.4805671841
O  O28  1  0.00045000  0.53153000  0.90549000  1.0 -0.7066932217
O  O29  1  0.56300000  0.14700000  0.62500000  1.0 -0.4805671841
O  O30  1  0.45200000  0.11000000  0.57400000  1.0 -0.4238539979
O  O31  1  0.86800000  0.48200000  0.69200000  1.0 -0.5101379053
O  O32  1  0.82100000  0.44900000  0.50700000  1.0 -0.4369893566
O  O33  1  0.01400000  0.68200000  0.66400000  1.0 -0.4949702815
O  O34  1  0.96200000  0.62200000  0.82800000  1.0 -0.3855908857
O  O35  1  0.31200000  0.92000000  0.75600000  1.0 -0.4986763592
O  O36  1  0.37000000  0.02400000  0.80400000  1.0 -0.4805671841
O  O37  1  0.50000000  0.00000000  0.00000000  1.0 -0.8424369887
O  O38  1  0.00000000  0.50000000  0.50000000  1.0 -0.8424369887
