# DDEC6 charges by PACMAN v1.1 (https://github.com/mtap-research/PACMAN-charge/)
data_MIHVIM_ASR_pacman
_symmetry_space_group_name_H-M   'P 1'
_cell_length_a   16.77380000
_cell_length_b   16.77380000
_cell_length_c   9.22410000
_cell_angle_alpha   90.00000000
_cell_angle_beta   90.00000000
_cell_angle_gamma   120.00000000
_symmetry_Int_Tables_number   1
_chemical_formula_structural   Ca3Dy2H12C42N6(ClO4)6
_chemical_formula_sum   'Ca3 Dy2 H12 C42 N6 Cl6 O24'
_cell_volume   2247.59240151
_cell_formula_units_Z   1
loop_
 _symmetry_equiv_pos_site_id
 _symmetry_equiv_pos_as_xyz
  1  'x, y, z'
loop_
 _atom_site_type_symbol
 _atom_site_label
 _atom_site_symmetry_multiplicity
 _atom_site_fract_x
 _atom_site_fract_y
 _atom_site_fract_z
 _atom_site_occupancy
 _atom_site_charge
Ca  Ca1  1  0.50000000  0.50000000  0.50000000  1.0 1.2164321522
Ca  Ca2  1  0.50000000  0.00000000  0.50000000  1.0 1.2164321522
Ca  Ca3  1  0.00000000  0.50000000  0.50000000  1.0 1.2164321522
Dy  Dy1  1  0.33333333  0.66666667  0.00059000  1.0 1.847118634
Dy  Dy2  1  0.66666667  0.33333333  0.99941000  1.0 1.847118634
H  H1  1  0.42370000  0.40720000  0.13030000  1.0 0.1492962379
H  H2  1  0.59280000  0.01650000  0.13030000  1.0 0.1492962379
H  H3  1  0.98350000  0.57630000  0.13030000  1.0 0.1492962379
H  H4  1  0.57630000  0.59280000  0.86970000  1.0 0.1492962379
H  H5  1  0.40720000  0.98350000  0.86970000  1.0 0.1492962379
H  H6  1  0.01650000  0.42370000  0.86970000  1.0 0.1492962379
H  H7  1  0.24580000  0.33110000  0.79760000  1.0 0.1492962379
H  H8  1  0.66890000  0.91470000  0.79760000  1.0 0.1492962379
H  H9  1  0.08530000  0.75420000  0.79760000  1.0 0.1492962379
H  H10  1  0.75420000  0.66890000  0.20240000  1.0 0.1492962379
H  H11  1  0.33110000  0.08530000  0.20240000  1.0 0.1492962379
H  H12  1  0.91470000  0.24580000  0.20240000  1.0 0.1492962379
C  C1  1  0.38000000  0.49740000  0.08010000  1.0 0.1232657611
C  C2  1  0.50260000  0.88260000  0.08010000  1.0 0.1232657611
C  C3  1  0.11740000  0.62000000  0.08010000  1.0 0.1232657611
C  C4  1  0.62000000  0.50260000  0.91990000  1.0 0.1232657611
C  C5  1  0.49740000  0.11740000  0.91990000  1.0 0.1232657611
C  C6  1  0.88260000  0.38000000  0.91990000  1.0 0.1232657611
C  C7  1  0.43160000  0.57110000  0.19200000  1.0 0.5859862745
C  C8  1  0.42890000  0.86050000  0.19200000  1.0 0.5859862745
C  C9  1  0.13950000  0.56840000  0.19200000  1.0 0.5859862745
C  C10  1  0.56840000  0.42890000  0.80800000  1.0 0.5859862745
C  C11  1  0.57110000  0.13950000  0.80800000  1.0 0.5859862745
C  C12  1  0.86050000  0.43160000  0.80800000  1.0 0.5859862745
C  C13  1  0.38670000  0.41830000  0.06810000  1.0 -0.1769504517
C  C14  1  0.58170000  0.96840000  0.06810000  1.0 -0.1769504517
C  C15  1  0.03160000  0.61330000  0.06810000  1.0 -0.1769504517
C  C16  1  0.61330000  0.58170000  0.93190000  1.0 -0.1769504517
C  C17  1  0.41830000  0.03160000  0.93190000  1.0 -0.1769504517
C  C18  1  0.96840000  0.38670000  0.93190000  1.0 -0.1769504517
C  C19  1  0.22220000  0.47980000  0.79480000  1.0 0.5434319854
C  C20  1  0.52020000  0.74240000  0.79480000  1.0 0.5434319854
C  C21  1  0.25760000  0.77780000  0.79480000  1.0 0.5434319854
C  C22  1  0.77780000  0.52020000  0.20520000  1.0 0.5434319854
C  C23  1  0.47980000  0.25760000  0.20520000  1.0 0.5434319854
C  C24  1  0.74240000  0.22220000  0.20520000  1.0 0.5434319854
C  C25  1  0.27940000  0.45397000  0.88880000  1.0 0.1373827786
C  C26  1  0.54603000  0.82543000  0.88880000  1.0 0.1373827786
C  C27  1  0.17457000  0.72060000  0.88880000  1.0 0.1373827786
C  C28  1  0.72060000  0.54603000  0.11120000  1.0 0.1373827786
C  C29  1  0.45397000  0.17457000  0.11120000  1.0 0.1373827786
C  C30  1  0.82543000  0.27940000  0.11120000  1.0 0.1373827786
C  C31  1  0.33610000  0.35710000  0.95990000  1.0 0.1492962379
C  C32  1  0.64290000  0.97900000  0.95990000  1.0 0.1492962379
C  C33  1  0.02100000  0.66390000  0.95990000  1.0 0.1492962379
C  C34  1  0.66390000  0.64290000  0.04010000  1.0 0.1492962379
C  C35  1  0.35710000  0.02100000  0.04010000  1.0 0.1492962379
C  C36  1  0.97900000  0.33610000  0.04010000  1.0 0.1492962379
C  C37  1  0.28090000  0.37300000  0.86930000  1.0 -0.1769504517
C  C38  1  0.62700000  0.90790000  0.86930000  1.0 -0.1769504517
C  C39  1  0.09210000  0.71910000  0.86930000  1.0 -0.1769504517
C  C40  1  0.71910000  0.62700000  0.13070000  1.0 -0.1769504517
C  C41  1  0.37300000  0.09210000  0.13070000  1.0 -0.1769504517
C  C42  1  0.90790000  0.28090000  0.13070000  1.0 -0.1769504517
N  N1  1  0.32762000  0.51470000  0.99140000  1.0 -0.3293535729
N  N2  1  0.48530000  0.81292000  0.99140000  1.0 -0.3293535729
N  N3  1  0.18708000  0.67238000  0.99140000  1.0 -0.3293535729
N  N4  1  0.67238000  0.48530000  0.00860000  1.0 -0.3293535729
N  N5  1  0.51470000  0.18708000  0.00860000  1.0 -0.3293535729
N  N6  1  0.81292000  0.32762000  0.00860000  1.0 -0.3293535729
Cl  Cl1  1  0.34108000  0.25756000  0.93689000  1.0 -0.0521844819
Cl  Cl2  1  0.74244000  0.08352000  0.93689000  1.0 -0.0521844819
Cl  Cl3  1  0.91648000  0.65892000  0.93689000  1.0 -0.0521844819
Cl  Cl4  1  0.65892000  0.74244000  0.06311000  1.0 -0.0521844819
Cl  Cl5  1  0.25756000  0.91648000  0.06311000  1.0 -0.0521844819
Cl  Cl6  1  0.08352000  0.34108000  0.06311000  1.0 -0.0521844819
O  O1  1  0.47733000  0.55808000  0.28380000  1.0 -0.6107243816
O  O2  1  0.44192000  0.91925000  0.28380000  1.0 -0.6107243816
O  O3  1  0.08075000  0.52267000  0.28380000  1.0 -0.6107243816
O  O4  1  0.52267000  0.44192000  0.71620000  1.0 -0.6107243816
O  O5  1  0.55808000  0.08075000  0.71620000  1.0 -0.6107243816
O  O6  1  0.91925000  0.47733000  0.71620000  1.0 -0.6107243816
O  O7  1  0.42351000  0.64167000  0.17980000  1.0 -0.5931970894
O  O8  1  0.35833000  0.78184000  0.17980000  1.0 -0.5931970894
O  O9  1  0.21816000  0.57649000  0.17980000  1.0 -0.5931970894
O  O10  1  0.57649000  0.35833000  0.82020000  1.0 -0.5931970894
O  O11  1  0.64167000  0.21816000  0.82020000  1.0 -0.5931970894
O  O12  1  0.78184000  0.42351000  0.82020000  1.0 -0.5931970894
O  O13  1  0.17220000  0.42399000  0.70240000  1.0 -0.5200180233
O  O14  1  0.57601000  0.74821000  0.70240000  1.0 -0.5200180233
O  O15  1  0.25179000  0.82780000  0.70240000  1.0 -0.5200180233
O  O16  1  0.82780000  0.57601000  0.29760000  1.0 -0.5200180233
O  O17  1  0.42399000  0.25179000  0.29760000  1.0 -0.5200180233
O  O18  1  0.74821000  0.17220000  0.29760000  1.0 -0.5200180233
O  O19  1  0.23172000  0.55855000  0.81900000  1.0 -0.6024993479
O  O20  1  0.44145000  0.67317000  0.81900000  1.0 -0.6024993479
O  O21  1  0.32683000  0.76828000  0.81900000  1.0 -0.6024993479
O  O22  1  0.76828000  0.44145000  0.18100000  1.0 -0.6024993479
O  O23  1  0.55855000  0.32683000  0.18100000  1.0 -0.6024993479
O  O24  1  0.67317000  0.23172000  0.18100000  1.0 -0.6024993479
