# DDEC6 charges by PACMAN v1.1 (https://github.com/mtap-research/PACMAN-charge/)
data_MIHWIM_FSR_pacman
_symmetry_space_group_name_H-M   'P 1'
_cell_length_a   14.94600000
_cell_length_b   14.94600000
_cell_length_c   14.94600000
_cell_angle_alpha   117.72200000
_cell_angle_beta   117.72200000
_cell_angle_gamma   117.72200000
_symmetry_Int_Tables_number   1
_chemical_formula_structural   FeHC4O5
_chemical_formula_sum   'Fe6 H6 C24 O30'
_cell_volume   1290.87308642
_cell_formula_units_Z   6
loop_
 _symmetry_equiv_pos_site_id
 _symmetry_equiv_pos_as_xyz
  1  'x, y, z'
loop_
 _atom_site_type_symbol
 _atom_site_label
 _atom_site_symmetry_multiplicity
 _atom_site_fract_x
 _atom_site_fract_y
 _atom_site_fract_z
 _atom_site_occupancy
 _atom_site_charge
Fe  Fe1  1  0.51890000  0.78540000  0.10370000  1.0 1.0492470797
Fe  Fe2  1  0.78540000  0.10370000  0.51890000  1.0 1.0492470797
Fe  Fe3  1  0.10370000  0.51890000  0.78540000  1.0 1.0492470797
Fe  Fe4  1  0.48110000  0.21460000  0.89630000  1.0 1.0492470797
Fe  Fe5  1  0.21460000  0.89630000  0.48110000  1.0 1.0492470797
Fe  Fe6  1  0.89630000  0.48110000  0.21460000  1.0 1.0492470797
H  H1  1  0.19750000  0.64430000  0.66110000  1.0 0.1969127294
H  H2  1  0.64430000  0.66110000  0.19750000  1.0 0.1969127294
H  H3  1  0.66110000  0.19750000  0.64430000  1.0 0.1969127294
H  H4  1  0.80250000  0.35570000  0.33890000  1.0 0.1969127294
H  H5  1  0.35570000  0.33890000  0.80250000  1.0 0.1969127294
H  H6  1  0.33890000  0.80250000  0.35570000  1.0 0.1969127294
C  C1  1  0.74630000  0.18270000  0.35560000  1.0 0.6414172487
C  C2  1  0.62580000  0.08940000  0.16890000  1.0 -0.060641002
C  C3  1  0.43450000  0.86780000  0.96830000  1.0 0.3577900515
C  C4  1  0.32020000  0.78660000  0.79210000  1.0 -0.1464709256
C  C5  1  0.18270000  0.35560000  0.74630000  1.0 0.6414172487
C  C6  1  0.08940000  0.16890000  0.62580000  1.0 -0.060641002
C  C7  1  0.86780000  0.96830000  0.43450000  1.0 0.3577900515
C  C8  1  0.78660000  0.79210000  0.32020000  1.0 -0.1464709256
C  C9  1  0.35560000  0.74630000  0.18270000  1.0 0.6414172487
C  C10  1  0.16890000  0.62580000  0.08940000  1.0 -0.060641002
C  C11  1  0.96830000  0.43450000  0.86780000  1.0 0.3577900515
C  C12  1  0.79210000  0.32020000  0.78660000  1.0 -0.1464709256
C  C13  1  0.25370000  0.81730000  0.64440000  1.0 0.6414172487
C  C14  1  0.37420000  0.91060000  0.83110000  1.0 -0.060641002
C  C15  1  0.56550000  0.13220000  0.03170000  1.0 0.3577900515
C  C16  1  0.67980000  0.21340000  0.20790000  1.0 -0.1464709256
C  C17  1  0.81730000  0.64440000  0.25370000  1.0 0.6414172487
C  C18  1  0.91060000  0.83110000  0.37420000  1.0 -0.060641002
C  C19  1  0.13220000  0.03170000  0.56550000  1.0 0.3577900515
C  C20  1  0.21340000  0.20790000  0.67980000  1.0 -0.1464709256
C  C21  1  0.64440000  0.25370000  0.81730000  1.0 0.6414172487
C  C22  1  0.83110000  0.37420000  0.91060000  1.0 -0.060641002
C  C23  1  0.03170000  0.56550000  0.13220000  1.0 0.3577900515
C  C24  1  0.20790000  0.67980000  0.21340000  1.0 -0.1464709256
O  O1  1  0.69320000  0.06840000  0.33310000  1.0 -0.5491448605
O  O2  1  0.89730000  0.37980000  0.52140000  1.0 -0.4870997929
O  O3  1  0.36270000  0.72870000  0.92240000  1.0 -0.5121558571
O  O4  1  0.79140000  0.04500000  0.24960000  1.0 -0.2069252271
O  O5  1  0.65800000  0.82700000  0.09100000  1.0 -0.2850728694
O  O6  1  0.06840000  0.33310000  0.69320000  1.0 -0.5491448605
O  O7  1  0.37980000  0.52140000  0.89730000  1.0 -0.4870997929
O  O8  1  0.72870000  0.92240000  0.36270000  1.0 -0.5121558571
O  O9  1  0.04500000  0.24960000  0.79140000  1.0 -0.2035452489
O  O10  1  0.82700000  0.09100000  0.65800000  1.0 -0.2835477207
O  O11  1  0.33310000  0.69320000  0.06840000  1.0 -0.5491448605
O  O12  1  0.52140000  0.89730000  0.37980000  1.0 -0.4870997929
O  O13  1  0.92240000  0.36270000  0.72870000  1.0 -0.5121558571
O  O14  1  0.24960000  0.79140000  0.04500000  1.0 -0.2035452489
O  O15  1  0.09100000  0.65800000  0.82700000  1.0 -0.2850728694
O  O16  1  0.30680000  0.93160000  0.66690000  1.0 -0.5491448605
O  O17  1  0.10270000  0.62020000  0.47860000  1.0 -0.4870997929
O  O18  1  0.63730000  0.27130000  0.07760000  1.0 -0.5121558571
O  O19  1  0.20860000  0.95500000  0.75040000  1.0 -0.2069252271
O  O20  1  0.34200000  0.17300000  0.90900000  1.0 -0.2835477207
O  O21  1  0.93160000  0.66690000  0.30680000  1.0 -0.5491448605
O  O22  1  0.62020000  0.47860000  0.10270000  1.0 -0.4870997929
O  O23  1  0.27130000  0.07760000  0.63730000  1.0 -0.5121558571
O  O24  1  0.95500000  0.75040000  0.20860000  1.0 -0.2069252271
O  O25  1  0.17300000  0.90900000  0.34200000  1.0 -0.2835477207
O  O26  1  0.66690000  0.30680000  0.93160000  1.0 -0.5491448605
O  O27  1  0.47860000  0.10270000  0.62020000  1.0 -0.4870997929
O  O28  1  0.07760000  0.63730000  0.27130000  1.0 -0.5121558571
O  O29  1  0.75040000  0.20860000  0.95500000  1.0 -0.2069252271
O  O30  1  0.90900000  0.34200000  0.17300000  1.0 -0.2835477207
