# DDEC6 charges by PACMAN v1.1 (https://github.com/mtap-research/PACMAN-charge/)
data_MIHWOS_ASR_pacman
_symmetry_space_group_name_H-M   'P 1'
_cell_length_a   14.98630000
_cell_length_b   14.98630000
_cell_length_c   14.98630000
_cell_angle_alpha   117.73700000
_cell_angle_beta   117.73700000
_cell_angle_gamma   117.73700000
_symmetry_Int_Tables_number   1
_chemical_formula_structural   FeHC4O5
_chemical_formula_sum   'Fe6 H6 C24 O30'
_cell_volume   1297.21062738
_cell_formula_units_Z   6
loop_
 _symmetry_equiv_pos_site_id
 _symmetry_equiv_pos_as_xyz
  1  'x, y, z'
loop_
 _atom_site_type_symbol
 _atom_site_label
 _atom_site_symmetry_multiplicity
 _atom_site_fract_x
 _atom_site_fract_y
 _atom_site_fract_z
 _atom_site_occupancy
 _atom_site_charge
Fe  Fe1  1  0.52530000  0.78470000  0.10850000  1.0 1.0507991362
Fe  Fe2  1  0.78470000  0.10850000  0.52530000  1.0 1.0507991362
Fe  Fe3  1  0.10850000  0.52530000  0.78470000  1.0 1.0507991362
Fe  Fe4  1  0.47470000  0.21530000  0.89150000  1.0 1.0507991362
Fe  Fe5  1  0.21530000  0.89150000  0.47470000  1.0 1.0507991362
Fe  Fe6  1  0.89150000  0.47470000  0.21530000  1.0 1.0507991362
H  H1  1  0.19690000  0.64520000  0.66080000  1.0 0.1927498179
H  H2  1  0.64520000  0.66080000  0.19690000  1.0 0.1927498179
H  H3  1  0.66080000  0.19690000  0.64520000  1.0 0.1927498179
H  H4  1  0.80310000  0.35480000  0.33920000  1.0 0.1927498179
H  H5  1  0.35480000  0.33920000  0.80310000  1.0 0.1927498179
H  H6  1  0.33920000  0.80310000  0.35480000  1.0 0.1927498179
C  C1  1  0.74630000  0.18430000  0.35550000  1.0 0.6385568031
C  C2  1  0.62570000  0.09070000  0.16890000  1.0 -0.0421442243
C  C3  1  0.43410000  0.86900000  0.96810000  1.0 0.3569175599
C  C4  1  0.31970000  0.78760000  0.79190000  1.0 -0.1506681085
C  C5  1  0.18430000  0.35550000  0.74630000  1.0 0.6385568031
C  C6  1  0.09070000  0.16890000  0.62570000  1.0 -0.0421442243
C  C7  1  0.86900000  0.96810000  0.43410000  1.0 0.3569175599
C  C8  1  0.78760000  0.79190000  0.31970000  1.0 -0.1506681085
C  C9  1  0.35550000  0.74630000  0.18430000  1.0 0.6385568031
C  C10  1  0.16890000  0.62570000  0.09070000  1.0 -0.0421442243
C  C11  1  0.96810000  0.43410000  0.86900000  1.0 0.3569175599
C  C12  1  0.79190000  0.31970000  0.78760000  1.0 -0.1506681085
C  C13  1  0.25370000  0.81570000  0.64450000  1.0 0.6385568031
C  C14  1  0.37430000  0.90930000  0.83110000  1.0 -0.0421442243
C  C15  1  0.56590000  0.13100000  0.03190000  1.0 0.3569175599
C  C16  1  0.68030000  0.21240000  0.20810000  1.0 -0.1506681085
C  C17  1  0.81570000  0.64450000  0.25370000  1.0 0.6385568031
C  C18  1  0.90930000  0.83110000  0.37430000  1.0 -0.0421442243
C  C19  1  0.13100000  0.03190000  0.56590000  1.0 0.3569175599
C  C20  1  0.21240000  0.20810000  0.68030000  1.0 -0.1506681085
C  C21  1  0.64450000  0.25370000  0.81570000  1.0 0.6385568031
C  C22  1  0.83110000  0.37430000  0.90930000  1.0 -0.0421442243
C  C23  1  0.03190000  0.56590000  0.13100000  1.0 0.3569175599
C  C24  1  0.20810000  0.68030000  0.21240000  1.0 -0.1506681085
O  O1  1  0.69310000  0.07010000  0.33300000  1.0 -0.5466628127
O  O2  1  0.89740000  0.38140000  0.52150000  1.0 -0.4607864273
O  O3  1  0.36230000  0.73010000  0.92200000  1.0 -0.5596430751
O  O4  1  0.79490000  0.01940000  0.24470000  1.0 -0.3284505608
O  O5  1  0.63760000  0.79020000  0.07320000  1.0 -0.1506681085
O  O6  1  0.07010000  0.33300000  0.69310000  1.0 -0.5466628127
O  O7  1  0.38140000  0.52150000  0.89740000  1.0 -0.4607864273
O  O8  1  0.73010000  0.92200000  0.36230000  1.0 -0.5596430751
O  O9  1  0.01940000  0.24470000  0.79490000  1.0 -0.3284505608
O  O10  1  0.79020000  0.07320000  0.63760000  1.0 -0.1506681085
O  O11  1  0.33300000  0.69310000  0.07010000  1.0 -0.5466628127
O  O12  1  0.52150000  0.89740000  0.38140000  1.0 -0.4607864273
O  O13  1  0.92200000  0.36230000  0.73010000  1.0 -0.5596430751
O  O14  1  0.24470000  0.79490000  0.01940000  1.0 -0.3284505608
O  O15  1  0.07320000  0.63760000  0.79020000  1.0 -0.1506681085
O  O16  1  0.30690000  0.92990000  0.66700000  1.0 -0.5466628127
O  O17  1  0.10260000  0.61860000  0.47850000  1.0 -0.4607864273
O  O18  1  0.63770000  0.26990000  0.07800000  1.0 -0.5596430751
O  O19  1  0.20510000  0.98060000  0.75530000  1.0 -0.3284505608
O  O20  1  0.36240000  0.20980000  0.92680000  1.0 -0.1506681085
O  O21  1  0.92990000  0.66700000  0.30690000  1.0 -0.5466628127
O  O22  1  0.61860000  0.47850000  0.10260000  1.0 -0.4607864273
O  O23  1  0.26990000  0.07800000  0.63770000  1.0 -0.5596430751
O  O24  1  0.98060000  0.75530000  0.20510000  1.0 -0.3284505608
O  O25  1  0.20980000  0.92680000  0.36240000  1.0 -0.1506681085
O  O26  1  0.66700000  0.30690000  0.92990000  1.0 -0.5466628127
O  O27  1  0.47850000  0.10260000  0.61860000  1.0 -0.4607864273
O  O28  1  0.07800000  0.63770000  0.26990000  1.0 -0.5596430751
O  O29  1  0.75530000  0.20510000  0.98060000  1.0 -0.3284505608
O  O30  1  0.92680000  0.36240000  0.20980000  1.0 -0.1506681085
