# DDEC6 charges by PACMAN v1.1 (https://github.com/mtap-research/PACMAN-charge/)
data_MIJHOD_FSR_pacman
_symmetry_space_group_name_H-M   'P 1'
_cell_length_a   9.48430000
_cell_length_b   17.34900000
_cell_length_c   18.81840000
_cell_angle_alpha   90.00000000
_cell_angle_beta   90.00000000
_cell_angle_gamma   90.00000000
_symmetry_Int_Tables_number   1
_chemical_formula_structural   Mg3H4(CO)20
_chemical_formula_sum   'Mg12 H16 C80 O80'
_cell_volume   3096.43826258
_cell_formula_units_Z   4
loop_
 _symmetry_equiv_pos_site_id
 _symmetry_equiv_pos_as_xyz
  1  'x, y, z'
loop_
 _atom_site_type_symbol
 _atom_site_label
 _atom_site_symmetry_multiplicity
 _atom_site_fract_x
 _atom_site_fract_y
 _atom_site_fract_z
 _atom_site_occupancy
 _atom_site_charge
Mg  Mg1  1  0.26214000  0.30410000  0.25519000  1.0 1.3906858004
Mg  Mg2  1  0.23786000  0.80410000  0.24481000  1.0 1.3906858004
Mg  Mg3  1  0.26214000  0.19590000  0.74481000  1.0 1.3906858004
Mg  Mg4  1  0.23786000  0.69590000  0.75519000  1.0 1.3906858004
Mg  Mg5  1  0.73786000  0.69590000  0.74481000  1.0 1.3906858004
Mg  Mg6  1  0.76214000  0.19590000  0.75519000  1.0 1.3906858004
Mg  Mg7  1  0.73786000  0.80410000  0.25519000  1.0 1.3906858004
Mg  Mg8  1  0.76214000  0.30410000  0.24481000  1.0 1.3906858004
Mg  Mg9  1  0.07076000  0.25000000  0.00000000  1.0 1.3111647404
Mg  Mg10  1  0.42924000  0.75000000  0.50000000  1.0 1.3111647404
Mg  Mg11  1  0.92924000  0.75000000  0.00000000  1.0 1.3111647404
Mg  Mg12  1  0.57076000  0.25000000  0.50000000  1.0 1.3111647404
H  H1  1  0.20100000  0.06220000  0.09240000  1.0 0.1246942765
H  H2  1  0.29900000  0.56220000  0.40760000  1.0 0.1246942765
H  H3  1  0.20100000  0.43780000  0.90760000  1.0 0.1246942765
H  H4  1  0.29900000  0.93780000  0.59240000  1.0 0.1246942765
H  H5  1  0.79900000  0.93780000  0.90760000  1.0 0.1246942765
H  H6  1  0.70100000  0.43780000  0.59240000  1.0 0.1246942765
H  H7  1  0.79900000  0.56220000  0.09240000  1.0 0.1246942765
H  H8  1  0.70100000  0.06220000  0.40760000  1.0 0.1246942765
H  H9  1  0.54400000  0.05420000  0.27090000  1.0 0.1325237341
H  H10  1  0.95600000  0.55420000  0.22910000  1.0 0.1325237341
H  H11  1  0.54400000  0.44580000  0.72910000  1.0 0.1325237341
H  H12  1  0.95600000  0.94580000  0.77090000  1.0 0.1325237341
H  H13  1  0.45600000  0.94580000  0.72910000  1.0 0.1325237341
H  H14  1  0.04400000  0.44580000  0.77090000  1.0 0.1325237341
H  H15  1  0.45600000  0.55420000  0.27090000  1.0 0.1325237341
H  H16  1  0.04400000  0.05420000  0.22910000  1.0 0.1325237341
C  C1  1  0.32700000  0.12939000  0.15530000  1.0 -0.0655436051
C  C2  1  0.17300000  0.62939000  0.34470000  1.0 -0.0655436051
C  C3  1  0.32700000  0.37061000  0.84470000  1.0 -0.0655436051
C  C4  1  0.17300000  0.87061000  0.65530000  1.0 -0.0655436051
C  C5  1  0.67300000  0.87061000  0.84470000  1.0 -0.0655436051
C  C6  1  0.82700000  0.37061000  0.65530000  1.0 -0.0655436051
C  C7  1  0.67300000  0.62939000  0.15530000  1.0 -0.0655436051
C  C8  1  0.82700000  0.12939000  0.34470000  1.0 -0.0655436051
C  C9  1  0.27190000  0.06019000  0.13021000  1.0 -0.0789974668
C  C10  1  0.22810000  0.56019000  0.36979000  1.0 -0.0789974668
C  C11  1  0.27190000  0.43981000  0.86979000  1.0 -0.0789974668
C  C12  1  0.22810000  0.93981000  0.63021000  1.0 -0.0789974668
C  C13  1  0.72810000  0.93981000  0.86979000  1.0 -0.0789974668
C  C14  1  0.77190000  0.43981000  0.63021000  1.0 -0.0789974668
C  C15  1  0.72810000  0.56019000  0.13021000  1.0 -0.0789974668
C  C16  1  0.77190000  0.06019000  0.36979000  1.0 -0.0789974668
C  C17  1  0.31370000  0.98906000  0.15687000  1.0 -0.0604700204
C  C18  1  0.18630000  0.48906000  0.34313000  1.0 -0.0604700204
C  C19  1  0.31370000  0.51094000  0.84313000  1.0 -0.0604700204
C  C20  1  0.18630000  0.01094000  0.65687000  1.0 -0.0604700204
C  C21  1  0.68630000  0.01094000  0.84313000  1.0 -0.0604700204
C  C22  1  0.81370000  0.51094000  0.65687000  1.0 -0.0604700204
C  C23  1  0.68630000  0.48906000  0.15687000  1.0 -0.0604700204
C  C24  1  0.81370000  0.98906000  0.34313000  1.0 -0.0604700204
C  C25  1  0.41740000  0.98693000  0.20973000  1.0 0.0176622639
C  C26  1  0.08260000  0.48693000  0.29027000  1.0 0.0176622639
C  C27  1  0.41740000  0.51307000  0.79027000  1.0 0.0176622639
C  C28  1  0.08260000  0.01307000  0.70973000  1.0 0.0176622639
C  C29  1  0.58260000  0.01307000  0.79027000  1.0 0.0176622639
C  C30  1  0.91740000  0.51307000  0.70973000  1.0 0.0176622639
C  C31  1  0.58260000  0.48693000  0.20973000  1.0 0.0176622639
C  C32  1  0.91740000  0.98693000  0.29027000  1.0 0.0176622639
C  C33  1  0.47500000  0.05621000  0.23442000  1.0 -0.11149567
C  C34  1  0.02500000  0.55621000  0.26558000  1.0 -0.11149567
C  C35  1  0.47500000  0.44379000  0.76558000  1.0 -0.11149567
C  C36  1  0.02500000  0.94379000  0.73442000  1.0 -0.11149567
C  C37  1  0.52500000  0.94379000  0.76558000  1.0 -0.11149567
C  C38  1  0.97500000  0.44379000  0.73442000  1.0 -0.11149567
C  C39  1  0.52500000  0.55621000  0.23442000  1.0 -0.11149567
C  C40  1  0.97500000  0.05621000  0.26558000  1.0 -0.11149567
C  C41  1  0.42900000  0.12728000  0.20901000  1.0 0.0115511763
C  C42  1  0.07100000  0.62728000  0.29099000  1.0 0.0115511763
C  C43  1  0.42900000  0.37272000  0.79099000  1.0 0.0115511763
C  C44  1  0.07100000  0.87272000  0.70901000  1.0 0.0115511763
C  C45  1  0.57100000  0.87272000  0.79099000  1.0 0.0115511763
C  C46  1  0.92900000  0.37272000  0.70901000  1.0 0.0115511763
C  C47  1  0.57100000  0.62728000  0.20901000  1.0 0.0115511763
C  C48  1  0.92900000  0.12728000  0.29099000  1.0 0.0115511763
C  C49  1  0.49480000  0.19884000  0.24189000  1.0 0.6060568429
C  C50  1  0.00520000  0.69884000  0.25811000  1.0 0.6060568429
C  C51  1  0.49480000  0.30116000  0.75811000  1.0 0.6060568429
C  C52  1  0.00520000  0.80116000  0.74189000  1.0 0.6060568429
C  C53  1  0.50520000  0.80116000  0.75811000  1.0 0.6060568429
C  C54  1  0.99480000  0.30116000  0.74189000  1.0 0.6060568429
C  C55  1  0.50520000  0.69884000  0.24189000  1.0 0.6060568429
C  C56  1  0.99480000  0.19884000  0.25811000  1.0 0.6060568429
C  C57  1  0.27440000  0.20313000  0.12174000  1.0 0.622913409
C  C58  1  0.22560000  0.70313000  0.37826000  1.0 0.622913409
C  C59  1  0.27440000  0.29687000  0.87826000  1.0 0.622913409
C  C60  1  0.22560000  0.79687000  0.62174000  1.0 0.622913409
C  C61  1  0.72560000  0.79687000  0.87826000  1.0 0.622913409
C  C62  1  0.77440000  0.29687000  0.62174000  1.0 0.622913409
C  C63  1  0.72560000  0.70313000  0.12174000  1.0 0.622913409
C  C64  1  0.77440000  0.20313000  0.37826000  1.0 0.622913409
C  C65  1  0.24840000  0.91784000  0.12379000  1.0 0.5830675698
C  C66  1  0.25160000  0.41784000  0.37621000  1.0 0.5830675698
C  C67  1  0.24840000  0.58216000  0.87621000  1.0 0.5830675698
C  C68  1  0.25160000  0.08216000  0.62379000  1.0 0.5830675698
C  C69  1  0.75160000  0.08216000  0.87621000  1.0 0.5830675698
C  C70  1  0.74840000  0.58216000  0.62379000  1.0 0.5830675698
C  C71  1  0.75160000  0.41784000  0.12379000  1.0 0.5830675698
C  C72  1  0.74840000  0.91784000  0.37621000  1.0 0.5830675698
C  C73  1  0.47140000  0.91327000  0.24360000  1.0 0.5981950498
C  C74  1  0.02860000  0.41327000  0.25640000  1.0 0.5981950498
C  C75  1  0.47140000  0.58673000  0.75640000  1.0 0.5981950498
C  C76  1  0.02860000  0.08673000  0.74360000  1.0 0.5981950498
C  C77  1  0.52860000  0.08673000  0.75640000  1.0 0.5981950498
C  C78  1  0.97140000  0.58673000  0.74360000  1.0 0.5981950498
C  C79  1  0.52860000  0.41327000  0.24360000  1.0 0.5981950498
C  C80  1  0.97140000  0.91327000  0.25640000  1.0 0.5981950498
O  O1  1  0.29130000  0.26554000  0.15421000  1.0 -0.5803848766
O  O2  1  0.20870000  0.76554000  0.34579000  1.0 -0.5803848766
O  O3  1  0.29130000  0.23446000  0.84579000  1.0 -0.5803848766
O  O4  1  0.20870000  0.73446000  0.65421000  1.0 -0.5803848766
O  O5  1  0.70870000  0.73446000  0.84579000  1.0 -0.5803848766
O  O6  1  0.79130000  0.23446000  0.65421000  1.0 -0.5803848766
O  O7  1  0.70870000  0.76554000  0.15421000  1.0 -0.5803848766
O  O8  1  0.79130000  0.26554000  0.34579000  1.0 -0.5803848766
O  O9  1  0.21660000  0.19680000  0.06211000  1.0 -0.6135413014
O  O10  1  0.28340000  0.69680000  0.43789000  1.0 -0.6135413014
O  O11  1  0.21660000  0.30320000  0.93789000  1.0 -0.6135413014
O  O12  1  0.28340000  0.80320000  0.56211000  1.0 -0.6135413014
O  O13  1  0.78340000  0.80320000  0.93789000  1.0 -0.6135413014
O  O14  1  0.71660000  0.30320000  0.56211000  1.0 -0.6135413014
O  O15  1  0.78340000  0.69680000  0.06211000  1.0 -0.6135413014
O  O16  1  0.71660000  0.19680000  0.43789000  1.0 -0.6135413014
O  O17  1  0.17110000  0.92833000  0.07130000  1.0 -0.3959442303
O  O18  1  0.32890000  0.42833000  0.42870000  1.0 -0.3959442303
O  O19  1  0.17110000  0.57167000  0.92870000  1.0 -0.3959442303
O  O20  1  0.32890000  0.07167000  0.57130000  1.0 -0.3959442303
O  O21  1  0.82890000  0.07167000  0.92870000  1.0 -0.3959442303
O  O22  1  0.67110000  0.57167000  0.57130000  1.0 -0.3959442303
O  O23  1  0.82890000  0.42833000  0.07130000  1.0 -0.3959442303
O  O24  1  0.67110000  0.92833000  0.42870000  1.0 -0.3959442303
O  O25  1  0.27645000  0.85279000  0.14909000  1.0 -0.5877576732
O  O26  1  0.22355000  0.35279000  0.35091000  1.0 -0.5877576732
O  O27  1  0.27645000  0.64721000  0.85091000  1.0 -0.5877576732
O  O28  1  0.22355000  0.14721000  0.64909000  1.0 -0.5877576732
O  O29  1  0.72355000  0.14721000  0.85091000  1.0 -0.5877576732
O  O30  1  0.77645000  0.64721000  0.64909000  1.0 -0.5877576732
O  O31  1  0.72355000  0.35279000  0.14909000  1.0 -0.5877576732
O  O32  1  0.77645000  0.85279000  0.35091000  1.0 -0.5877576732
O  O33  1  0.39157000  0.87888000  0.28609000  1.0 -0.5197318457
O  O34  1  0.10843000  0.37888000  0.21391000  1.0 -0.5197318457
O  O35  1  0.39157000  0.62112000  0.71391000  1.0 -0.5197318457
O  O36  1  0.10843000  0.12112000  0.78609000  1.0 -0.5197318457
O  O37  1  0.60843000  0.12112000  0.71391000  1.0 -0.5197318457
O  O38  1  0.89157000  0.62112000  0.78609000  1.0 -0.5197318457
O  O39  1  0.60843000  0.37888000  0.28609000  1.0 -0.5197318457
O  O40  1  0.89157000  0.87888000  0.21391000  1.0 -0.5197318457
O  O41  1  0.59591000  0.89463000  0.22916000  1.0 -0.5696038418
O  O42  1  0.90409000  0.39463000  0.27084000  1.0 -0.5696038418
O  O43  1  0.59591000  0.60537000  0.77084000  1.0 -0.5696038418
O  O44  1  0.90409000  0.10537000  0.72916000  1.0 -0.5696038418
O  O45  1  0.40409000  0.10537000  0.77084000  1.0 -0.5696038418
O  O46  1  0.09591000  0.60537000  0.72916000  1.0 -0.5696038418
O  O47  1  0.40409000  0.39463000  0.22916000  1.0 -0.5696038418
O  O48  1  0.09591000  0.89463000  0.27084000  1.0 -0.5696038418
O  O49  1  0.61501000  0.21697000  0.22080000  1.0 -0.5803848766
O  O50  1  0.88499000  0.71697000  0.27920000  1.0 -0.5803848766
O  O51  1  0.61501000  0.28303000  0.77920000  1.0 -0.5803848766
O  O52  1  0.88499000  0.78303000  0.72080000  1.0 -0.5803848766
O  O53  1  0.38499000  0.78303000  0.77920000  1.0 -0.5803848766
O  O54  1  0.11501000  0.28303000  0.72080000  1.0 -0.5803848766
O  O55  1  0.38499000  0.71697000  0.22080000  1.0 -0.5803848766
O  O56  1  0.11501000  0.21697000  0.27920000  1.0 -0.5803848766
O  O57  1  0.42518000  0.23241000  0.28992000  1.0 -0.550793659
O  O58  1  0.07482000  0.73241000  0.21008000  1.0 -0.550793659
O  O59  1  0.42518000  0.26759000  0.71008000  1.0 -0.550793659
O  O60  1  0.07482000  0.76759000  0.78992000  1.0 -0.550793659
O  O61  1  0.57482000  0.76759000  0.71008000  1.0 -0.550793659
O  O62  1  0.92518000  0.26759000  0.78992000  1.0 -0.550793659
O  O63  1  0.57482000  0.73241000  0.28992000  1.0 -0.550793659
O  O64  1  0.92518000  0.23241000  0.21008000  1.0 -0.550793659
O  O65  1  0.91770000  0.19068000  0.06186000  1.0 -0.1347119474
O  O66  1  0.58230000  0.69068000  0.43814000  1.0 -0.1398293808
O  O67  1  0.91770000  0.30932000  0.93814000  1.0 -0.1398293808
O  O68  1  0.58230000  0.80932000  0.56186000  1.0 -0.1398293808
O  O69  1  0.08230000  0.80932000  0.93814000  1.0 -0.1398293808
O  O70  1  0.41770000  0.30932000  0.56186000  1.0 -0.1398293808
O  O71  1  0.08230000  0.69068000  0.06186000  1.0 -0.1398293808
O  O72  1  0.41770000  0.19068000  0.43814000  1.0 -0.1398293808
O  O73  1  0.05210000  0.15961000  0.92865000  1.0 0.1109062759
O  O74  1  0.44790000  0.65961000  0.57135000  1.0 0.1109062759
O  O75  1  0.05210000  0.34039000  0.07135000  1.0 0.1109062759
O  O76  1  0.44790000  0.84039000  0.42865000  1.0 0.1109062759
O  O77  1  0.94790000  0.84039000  0.07135000  1.0 0.1109062759
O  O78  1  0.55210000  0.34039000  0.42865000  1.0 0.1109062759
O  O79  1  0.94790000  0.65961000  0.92865000  1.0 0.1109062759
O  O80  1  0.55210000  0.15961000  0.57135000  1.0 0.1109062759
