# DDEC6 charges by PACMAN v1.1 (https://github.com/mtap-research/PACMAN-charge/)
data_MIJMAU_FSR_pacman
_symmetry_space_group_name_H-M   'P 1'
_cell_length_a   16.13120000
_cell_length_b   16.13120000
_cell_length_c   18.16400000
_cell_angle_alpha   56.25640000
_cell_angle_beta   123.74400000
_cell_angle_gamma   109.98200000
_symmetry_Int_Tables_number   1
_chemical_formula_structural   Ni2H72W(C5N2)8
_chemical_formula_sum   'Ni4 H144 W2 C80 N32'
_cell_volume   3264.37618946
_cell_formula_units_Z   2
loop_
 _symmetry_equiv_pos_site_id
 _symmetry_equiv_pos_as_xyz
  1  'x, y, z'
loop_
 _atom_site_type_symbol
 _atom_site_label
 _atom_site_symmetry_multiplicity
 _atom_site_fract_x
 _atom_site_fract_y
 _atom_site_fract_z
 _atom_site_occupancy
 _atom_site_charge
Ni  Ni1  1  0.00000000  0.50000000  0.00000000  1.0 0.5553521246
Ni  Ni2  1  0.50000000  0.00000000  0.50000000  1.0 0.5553521246
Ni  Ni3  1  0.00000000  0.00000000  0.50000000  1.0 0.5539321036
Ni  Ni4  1  0.00000000  0.00000000  0.00000000  1.0 0.5539321036
H  H1  1  0.98460000  0.34180000  0.21660000  1.0 0.1400686552
H  H2  1  0.34180000  0.98460000  0.28340000  1.0 0.1400686552
H  H3  1  0.01540000  0.65820000  0.78340000  1.0 0.1400686552
H  H4  1  0.65820000  0.01540000  0.71660000  1.0 0.1400686552
H  H5  1  0.93770000  0.38690000  0.24140000  1.0 0.1291641915
H  H6  1  0.38690000  0.93770000  0.25860000  1.0 0.1291641915
H  H7  1  0.06230000  0.61310000  0.75860000  1.0 0.1291641915
H  H8  1  0.61310000  0.06230000  0.74140000  1.0 0.1291641915
H  H9  1  0.99910000  0.54790000  0.14430000  1.0 0.0819642798
H  H10  1  0.54790000  0.99910000  0.35570000  1.0 0.0819642798
H  H11  1  0.00090000  0.45210000  0.85570000  1.0 0.0819642798
H  H12  1  0.45210000  0.00090000  0.64430000  1.0 0.0819642798
H  H13  1  0.85830000  0.36950000  0.90090000  1.0 0.112045093
H  H14  1  0.36950000  0.85830000  0.59910000  1.0 0.112045093
H  H15  1  0.14170000  0.63050000  0.09910000  1.0 0.112045093
H  H16  1  0.63050000  0.14170000  0.40090000  1.0 0.112045093
H  H17  1  0.77740000  0.44420000  0.80000000  1.0 0.112045093
H  H18  1  0.44420000  0.77740000  0.70000000  1.0 0.112045093
H  H19  1  0.22260000  0.55580000  0.20000000  1.0 0.112045093
H  H20  1  0.55580000  0.22260000  0.30000000  1.0 0.112045093
H  H21  1  0.76860000  0.50240000  0.89170000  1.0 0.1160094545
H  H22  1  0.50240000  0.76860000  0.60830000  1.0 0.1160094545
H  H23  1  0.23140000  0.49760000  0.10830000  1.0 0.1160094545
H  H24  1  0.49760000  0.23140000  0.39170000  1.0 0.1160094545
H  H25  1  0.73920000  0.38720000  0.93010000  1.0 0.112045093
H  H26  1  0.38720000  0.73920000  0.56990000  1.0 0.112045093
H  H27  1  0.26080000  0.61280000  0.06990000  1.0 0.112045093
H  H28  1  0.61280000  0.26080000  0.43010000  1.0 0.112045093
H  H29  1  0.78000000  0.49660000  0.09070000  1.0 0.1400686552
H  H30  1  0.49660000  0.78000000  0.40930000  1.0 0.1400686552
H  H31  1  0.22000000  0.50340000  0.90930000  1.0 0.1400686552
H  H32  1  0.50340000  0.22000000  0.59070000  1.0 0.1400686552
H  H33  1  0.85500000  0.56020000  0.04720000  1.0 0.1485755615
H  H34  1  0.56020000  0.85500000  0.45280000  1.0 0.1485755615
H  H35  1  0.14500000  0.43980000  0.95280000  1.0 0.1485755615
H  H36  1  0.43980000  0.14500000  0.54720000  1.0 0.1485755615
H  H37  1  0.75300000  0.51940000  0.98410000  1.0 0.1400686552
H  H38  1  0.51940000  0.75300000  0.51590000  1.0 0.1400686552
H  H39  1  0.24700000  0.48060000  0.01590000  1.0 0.1400686552
H  H40  1  0.48060000  0.24700000  0.48410000  1.0 0.1400686552
H  H41  1  0.82380000  0.25860000  0.16130000  1.0 0.1400686552
H  H42  1  0.25860000  0.82380000  0.33870000  1.0 0.1400686552
H  H43  1  0.17620000  0.74140000  0.83870000  1.0 0.1400686552
H  H44  1  0.74140000  0.17620000  0.66130000  1.0 0.1400686552
H  H45  1  0.77160000  0.31660000  0.17000000  1.0 0.1400686552
H  H46  1  0.31660000  0.77160000  0.33000000  1.0 0.1400686552
H  H47  1  0.22840000  0.68340000  0.83000000  1.0 0.1400686552
H  H48  1  0.68340000  0.22840000  0.67000000  1.0 0.1400686552
H  H49  1  0.72900000  0.31860000  0.06770000  1.0 0.1400686552
H  H50  1  0.31860000  0.72900000  0.43230000  1.0 0.1400686552
H  H51  1  0.27100000  0.68140000  0.93230000  1.0 0.1400686552
H  H52  1  0.68140000  0.27100000  0.56770000  1.0 0.1400686552
H  H53  1  0.16220000  0.52620000  0.28860000  1.0 0.1291641915
H  H54  1  0.52620000  0.16220000  0.21140000  1.0 0.1291641915
H  H55  1  0.83780000  0.47380000  0.71140000  1.0 0.1291641915
H  H56  1  0.47380000  0.83780000  0.78860000  1.0 0.1291641915
H  H57  1  0.07290000  0.49710000  0.31160000  1.0 0.1400686552
H  H58  1  0.49710000  0.07290000  0.18840000  1.0 0.1400686552
H  H59  1  0.92710000  0.50290000  0.68840000  1.0 0.1400686552
H  H60  1  0.50290000  0.92710000  0.81160000  1.0 0.1400686552
H  H61  1  0.12940000  0.41360000  0.34000000  1.0 0.1485755615
H  H62  1  0.41360000  0.12940000  0.16000000  1.0 0.1485755615
H  H63  1  0.87060000  0.58640000  0.66000000  1.0 0.1485755615
H  H64  1  0.58640000  0.87060000  0.84000000  1.0 0.1485755615
H  H65  1  0.12760000  0.05660000  0.69030000  1.0 0.1291641915
H  H66  1  0.05660000  0.12760000  0.80970000  1.0 0.1291641915
H  H67  1  0.87240000  0.94340000  0.30970000  1.0 0.1291641915
H  H68  1  0.94340000  0.87240000  0.19030000  1.0 0.1291641915
H  H69  1  0.21540000  0.13560000  0.68360000  1.0 0.1291641915
H  H70  1  0.13560000  0.21540000  0.81640000  1.0 0.1291641915
H  H71  1  0.78460000  0.86440000  0.31640000  1.0 0.1291641915
H  H72  1  0.86440000  0.78460000  0.18360000  1.0 0.1291641915
H  H73  1  0.11460000  0.19660000  0.49970000  1.0 0.0858443429
H  H74  1  0.19660000  0.11460000  0.00030000  1.0 0.0858443429
H  H75  1  0.88540000  0.80340000  0.50030000  1.0 0.0858443429
H  H76  1  0.80340000  0.88540000  0.99970000  1.0 0.0858443429
H  H77  1  0.06160000  0.78340000  0.63020000  1.0 0.112045093
H  H78  1  0.78340000  0.06160000  0.86980000  1.0 0.112045093
H  H79  1  0.93840000  0.21660000  0.36980000  1.0 0.112045093
H  H80  1  0.21660000  0.93840000  0.13020000  1.0 0.112045093
H  H81  1  0.10610000  0.77950000  0.57420000  1.0 0.1160094545
H  H82  1  0.77950000  0.10610000  0.92580000  1.0 0.1160094545
H  H83  1  0.89390000  0.22050000  0.42580000  1.0 0.1160094545
H  H84  1  0.22050000  0.89390000  0.07420000  1.0 0.1160094545
H  H85  1  0.19790000  0.92810000  0.56790000  1.0 0.1291641915
H  H86  1  0.92810000  0.19790000  0.93210000  1.0 0.1291641915
H  H87  1  0.80210000  0.07190000  0.43210000  1.0 0.1291641915
H  H88  1  0.07190000  0.80210000  0.06790000  1.0 0.1291641915
H  H89  1  0.22480000  0.84740000  0.67980000  1.0 0.112045093
H  H90  1  0.84740000  0.22480000  0.82020000  1.0 0.112045093
H  H91  1  0.77520000  0.15260000  0.32020000  1.0 0.112045093
H  H92  1  0.15260000  0.77520000  0.17980000  1.0 0.112045093
H  H93  1  0.33650000  0.01830000  0.79170000  1.0 0.1400686552
H  H94  1  0.01830000  0.33650000  0.70830000  1.0 0.1400686552
H  H95  1  0.66350000  0.98170000  0.20830000  1.0 0.1400686552
H  H96  1  0.98170000  0.66350000  0.29170000  1.0 0.1400686552
H  H97  1  0.25210000  0.93770000  0.80950000  1.0 0.1485755615
H  H98  1  0.93770000  0.25210000  0.69050000  1.0 0.1485755615
H  H99  1  0.74790000  0.06230000  0.19050000  1.0 0.1485755615
H  H100  1  0.06230000  0.74790000  0.30950000  1.0 0.1485755615
H  H101  1  0.32050000  0.92270000  0.78190000  1.0 0.1400686552
H  H102  1  0.92270000  0.32050000  0.71810000  1.0 0.1400686552
H  H103  1  0.67950000  0.07730000  0.21810000  1.0 0.1400686552
H  H104  1  0.07730000  0.67950000  0.28190000  1.0 0.1400686552
H  H105  1  0.23060000  0.13200000  0.53640000  1.0 0.1485755615
H  H106  1  0.13200000  0.23060000  0.96360000  1.0 0.1485755615
H  H107  1  0.76940000  0.86800000  0.46360000  1.0 0.1485755615
H  H108  1  0.86800000  0.76940000  0.03640000  1.0 0.1485755615
H  H109  1  0.32890000  0.11930000  0.63610000  1.0 0.1485755615
H  H110  1  0.11930000  0.32890000  0.86390000  1.0 0.1485755615
H  H111  1  0.67110000  0.88070000  0.36390000  1.0 0.1485755615
H  H112  1  0.88070000  0.67110000  0.13610000  1.0 0.1485755615
H  H113  1  0.29600000  0.04040000  0.59880000  1.0 0.1400686552
H  H114  1  0.04040000  0.29600000  0.90120000  1.0 0.1400686552
H  H115  1  0.70400000  0.95960000  0.40120000  1.0 0.1400686552
H  H116  1  0.95960000  0.70400000  0.09880000  1.0 0.1400686552
H  H117  1  0.07420000  0.23660000  0.61010000  1.0 0.1400686552
H  H118  1  0.23660000  0.07420000  0.88990000  1.0 0.1400686552
H  H119  1  0.92580000  0.76340000  0.38990000  1.0 0.1400686552
H  H120  1  0.76340000  0.92580000  0.11010000  1.0 0.1400686552
H  H121  1  0.13300000  0.30720000  0.54900000  1.0 0.1400686552
H  H122  1  0.30720000  0.13300000  0.95100000  1.0 0.1400686552
H  H123  1  0.86700000  0.69280000  0.45100000  1.0 0.1400686552
H  H124  1  0.69280000  0.86700000  0.04900000  1.0 0.1400686552
H  H125  1  0.01670000  0.29230000  0.49270000  1.0 0.1291641915
H  H126  1  0.29230000  0.01670000  0.00730000  1.0 0.1291641915
H  H127  1  0.98330000  0.70770000  0.50730000  1.0 0.1291641915
H  H128  1  0.70770000  0.98330000  0.99270000  1.0 0.1291641915
H  H129  1  0.89340000  0.35220000  0.05030000  1.0 0.2603806313
H  H130  1  0.35220000  0.89340000  0.44970000  1.0 0.2603806313
H  H131  1  0.10660000  0.64780000  0.94970000  1.0 0.2603806313
H  H132  1  0.64780000  0.10660000  0.55030000  1.0 0.2603806313
H  H133  1  0.12140000  0.42880000  0.18340000  1.0 0.2603806313
H  H134  1  0.42880000  0.12140000  0.31660000  1.0 0.2603806313
H  H135  1  0.87860000  0.57120000  0.81660000  1.0 0.2603806313
H  H136  1  0.57120000  0.87860000  0.68340000  1.0 0.2603806313
H  H137  1  0.12170000  0.91050000  0.67700000  1.0 0.2603806313
H  H138  1  0.91050000  0.12170000  0.82300000  1.0 0.2603806313
H  H139  1  0.87830000  0.08950000  0.32300000  1.0 0.2603806313
H  H140  1  0.08950000  0.87830000  0.17700000  1.0 0.2603806313
H  H141  1  0.97830000  0.08870000  0.56570000  1.0 0.2651846737
H  H142  1  0.08870000  0.97830000  0.93430000  1.0 0.2651846737
H  H143  1  0.02170000  0.91130000  0.43430000  1.0 0.2651846737
H  H144  1  0.91130000  0.02170000  0.06570000  1.0 0.2651846737
W  W1  1  0.85457000  0.85457000  0.75000000  1.0 0.456394452
W  W2  1  0.14543000  0.14543000  0.25000000  1.0 0.456394452
C  C1  1  0.91870000  0.71570000  0.87710000  1.0 -0.0137564109
C  C2  1  0.71570000  0.91870000  0.62290000  1.0 -0.0137564109
C  C3  1  0.08130000  0.28430000  0.12290000  1.0 -0.0137564109
C  C4  1  0.28430000  0.08130000  0.37710000  1.0 -0.0137564109
C  C5  1  0.90420000  0.88200000  0.64990000  1.0 -0.0218663064
C  C6  1  0.88200000  0.90420000  0.85010000  1.0 -0.0218663064
C  C7  1  0.09580000  0.11800000  0.35010000  1.0 -0.0218663064
C  C8  1  0.11800000  0.09580000  0.14990000  1.0 -0.0218663064
C  C9  1  0.01460000  0.87680000  0.82310000  1.0 -0.0288070237
C  C10  1  0.87680000  0.01460000  0.67690000  1.0 -0.0288070237
C  C11  1  0.98540000  0.12320000  0.17690000  1.0 -0.0288070237
C  C12  1  0.12320000  0.98540000  0.32310000  1.0 -0.0288070237
C  C13  1  0.78060000  0.74260000  0.69810000  1.0 -0.0218663064
C  C14  1  0.74260000  0.78060000  0.80190000  1.0 -0.0218663064
C  C15  1  0.21940000  0.25740000  0.30190000  1.0 -0.0218663064
C  C16  1  0.25740000  0.21940000  0.19810000  1.0 -0.0218663064
C  C17  1  0.85540000  0.40960000  0.09730000  1.0 0.3670387597
C  C18  1  0.40960000  0.85540000  0.40270000  1.0 0.3670387597
C  C19  1  0.14460000  0.59040000  0.90270000  1.0 0.3670387597
C  C20  1  0.59040000  0.14460000  0.59730000  1.0 0.3670387597
C  C21  1  0.95400000  0.40060000  0.19150000  1.0 -0.3535718403
C  C22  1  0.40060000  0.95400000  0.30850000  1.0 -0.3535718403
C  C23  1  0.04600000  0.59940000  0.80850000  1.0 -0.3535718403
C  C24  1  0.59940000  0.04600000  0.69150000  1.0 -0.3535718403
C  C25  1  0.03310000  0.48510000  0.18790000  1.0 0.1644744531
C  C26  1  0.48510000  0.03310000  0.31210000  1.0 0.1644744531
C  C27  1  0.96690000  0.51490000  0.81210000  1.0 0.1644744531
C  C28  1  0.51490000  0.96690000  0.68790000  1.0 0.1644744531
C  C29  1  0.83150000  0.43410000  0.86590000  1.0 -0.0933944292
C  C30  1  0.43410000  0.83150000  0.63410000  1.0 -0.0933944292
C  C31  1  0.16850000  0.56590000  0.13410000  1.0 -0.0933944292
C  C32  1  0.56590000  0.16850000  0.36590000  1.0 -0.0933944292
C  C33  1  0.79290000  0.43710000  0.92450000  1.0 -0.0933944292
C  C34  1  0.43710000  0.79290000  0.57550000  1.0 -0.0933944292
C  C35  1  0.20710000  0.56290000  0.07550000  1.0 -0.0933944292
C  C36  1  0.56290000  0.20710000  0.42450000  1.0 -0.0933944292
C  C37  1  0.80630000  0.50550000  0.05040000  1.0 -0.4985451705
C  C38  1  0.50550000  0.80630000  0.44960000  1.0 -0.4985451705
C  C39  1  0.19370000  0.49450000  0.94960000  1.0 -0.4985451705
C  C40  1  0.49450000  0.19370000  0.55040000  1.0 -0.4985451705
C  C41  1  0.78880000  0.31740000  0.12680000  1.0 -0.50875694
C  C42  1  0.31740000  0.78880000  0.37320000  1.0 -0.50875694
C  C43  1  0.21120000  0.68260000  0.87320000  1.0 -0.50875694
C  C44  1  0.68260000  0.21120000  0.62680000  1.0 -0.50875694
C  C45  1  0.10620000  0.48000000  0.29180000  1.0 -0.4681729644
C  C46  1  0.48000000  0.10620000  0.20820000  1.0 -0.4681729644
C  C47  1  0.89380000  0.52000000  0.70820000  1.0 -0.4681729644
C  C48  1  0.52000000  0.89380000  0.79180000  1.0 -0.4681729644
C  C49  1  0.21470000  0.02510000  0.66060000  1.0 0.3500871987
C  C50  1  0.02510000  0.21470000  0.83940000  1.0 0.3500871987
C  C51  1  0.78530000  0.97490000  0.33940000  1.0 0.3500871987
C  C52  1  0.97490000  0.78530000  0.16060000  1.0 0.3500871987
C  C53  1  0.16340000  0.09680000  0.65130000  1.0 -0.3215614377
C  C54  1  0.09680000  0.16340000  0.84870000  1.0 -0.3215614377
C  C55  1  0.83660000  0.90320000  0.34870000  1.0 -0.3215614377
C  C56  1  0.90320000  0.83660000  0.15130000  1.0 -0.3215614377
C  C57  1  0.08960000  0.17120000  0.54730000  1.0 0.1747293652
C  C58  1  0.17120000  0.08960000  0.95270000  1.0 0.1747293652
C  C59  1  0.91040000  0.82880000  0.45270000  1.0 0.1747293652
C  C60  1  0.82880000  0.91040000  0.04730000  1.0 0.1747293652
C  C61  1  0.08540000  0.82400000  0.58080000  1.0 -0.1313177391
C  C62  1  0.82400000  0.08540000  0.91920000  1.0 -0.1313177391
C  C63  1  0.91460000  0.17600000  0.41920000  1.0 -0.1313177391
C  C64  1  0.17600000  0.91460000  0.08080000  1.0 -0.1313177391
C  C65  1  0.17220000  0.88800000  0.61580000  1.0 -0.1313177391
C  C66  1  0.88800000  0.17220000  0.88420000  1.0 -0.1313177391
C  C67  1  0.82780000  0.11200000  0.38420000  1.0 -0.1313177391
C  C68  1  0.11200000  0.82780000  0.11580000  1.0 -0.1313177391
C  C69  1  0.28760000  0.97100000  0.77110000  1.0 -0.50875694
C  C70  1  0.97100000  0.28760000  0.72890000  1.0 -0.50875694
C  C71  1  0.71240000  0.02900000  0.22890000  1.0 -0.50875694
C  C72  1  0.02900000  0.71240000  0.27110000  1.0 -0.50875694
C  C73  1  0.27280000  0.08460000  0.60270000  1.0 -0.4985451705
C  C74  1  0.08460000  0.27280000  0.89730000  1.0 -0.4985451705
C  C75  1  0.72720000  0.91540000  0.39730000  1.0 -0.4985451705
C  C76  1  0.91540000  0.72720000  0.10270000  1.0 -0.4985451705
C  C77  1  0.07720000  0.26020000  0.55010000  1.0 -0.461620894
C  C78  1  0.26020000  0.07720000  0.94990000  1.0 -0.461620894
C  C79  1  0.92280000  0.73980000  0.44990000  1.0 -0.461620894
C  C80  1  0.73980000  0.92280000  0.05010000  1.0 -0.461620894
N  N1  1  0.95150000  0.64070000  0.94200000  1.0 -0.3691271165
N  N2  1  0.64070000  0.95150000  0.55800000  1.0 -0.3691271165
N  N3  1  0.04850000  0.35930000  0.05800000  1.0 -0.3691271165
N  N4  1  0.35930000  0.04850000  0.44200000  1.0 -0.3691271165
N  N5  1  0.93570000  0.90510000  0.59800000  1.0 -0.3779754236
N  N6  1  0.90510000  0.93570000  0.90200000  1.0 -0.3779754236
N  N7  1  0.06430000  0.09490000  0.40200000  1.0 -0.3779754236
N  N8  1  0.09490000  0.06430000  0.09800000  1.0 -0.3779754236
N  N9  1  0.10000000  0.88380000  0.86530000  1.0 -0.3868485509
N  N10  1  0.88380000  0.10000000  0.63470000  1.0 -0.3868485509
N  N11  1  0.90000000  0.11620000  0.13470000  1.0 -0.3868485509
N  N12  1  0.11620000  0.90000000  0.36530000  1.0 -0.3868485509
N  N13  1  0.74170000  0.68370000  0.67220000  1.0 -0.3691271165
N  N14  1  0.68370000  0.74170000  0.82780000  1.0 -0.3691271165
N  N15  1  0.25830000  0.31630000  0.32780000  1.0 -0.3691271165
N  N16  1  0.31630000  0.25830000  0.17220000  1.0 -0.3691271165
N  N17  1  0.87980000  0.41600000  0.02430000  1.0 -0.3691271165
N  N18  1  0.41600000  0.87980000  0.47570000  1.0 -0.3691271165
N  N19  1  0.12020000  0.58400000  0.97570000  1.0 -0.3691271165
N  N20  1  0.58400000  0.12020000  0.52430000  1.0 -0.3691271165
N  N21  1  0.09140000  0.48800000  0.14320000  1.0 -0.3354095562
N  N22  1  0.48800000  0.09140000  0.35680000  1.0 -0.3354095562
N  N23  1  0.90860000  0.51200000  0.85680000  1.0 -0.3354095562
N  N24  1  0.51200000  0.90860000  0.64320000  1.0 -0.3354095562
N  N25  1  0.13710000  0.95330000  0.62580000  1.0 -0.3535718403
N  N26  1  0.95330000  0.13710000  0.87420000  1.0 -0.3535718403
N  N27  1  0.86290000  0.04670000  0.37420000  1.0 -0.3535718403
N  N28  1  0.04670000  0.86290000  0.12580000  1.0 -0.3535718403
N  N29  1  0.99790000  0.11550000  0.51800000  1.0 -0.3277970372
N  N30  1  0.11550000  0.99790000  0.98200000  1.0 -0.3277970372
N  N31  1  0.00210000  0.88450000  0.48200000  1.0 -0.3277970372
N  N32  1  0.88450000  0.00210000  0.01800000  1.0 -0.3277970372
