# DDEC6 charges by PACMAN v1.1 (https://github.com/mtap-research/PACMAN-charge/)
data_MIKJAR_FSR_pacman
_symmetry_space_group_name_H-M   'P 1'
_cell_length_a   14.44490000
_cell_length_b   14.44490000
_cell_length_c   14.44490000
_cell_angle_alpha   110.80300000
_cell_angle_beta   110.80300000
_cell_angle_gamma   110.80300000
_symmetry_Int_Tables_number   1
_chemical_formula_structural   Ga2P2H13C4N3O8
_chemical_formula_sum   'Ga12 P12 H78 C24 N18 O48'
_cell_volume   2198.35725404
_cell_formula_units_Z   6
loop_
 _symmetry_equiv_pos_site_id
 _symmetry_equiv_pos_as_xyz
  1  'x, y, z'
loop_
 _atom_site_type_symbol
 _atom_site_label
 _atom_site_symmetry_multiplicity
 _atom_site_fract_x
 _atom_site_fract_y
 _atom_site_fract_z
 _atom_site_occupancy
 _atom_site_charge
Ga  Ga1  1  0.85360000  0.48040000  0.02750000  1.0 1.3237946806
Ga  Ga2  1  0.48040000  0.02750000  0.85360000  1.0 1.3106037853
Ga  Ga3  1  0.02750000  0.85360000  0.48040000  1.0 1.3106037853
Ga  Ga4  1  0.14640000  0.51960000  0.97250000  1.0 1.3106037853
Ga  Ga5  1  0.51960000  0.97250000  0.14640000  1.0 1.3237946806
Ga  Ga6  1  0.97250000  0.14640000  0.51960000  1.0 1.3106037853
Ga  Ga7  1  0.80750000  0.26430000  0.67170000  1.0 1.2800680774
Ga  Ga8  1  0.26430000  0.67170000  0.80750000  1.0 1.2800680774
Ga  Ga9  1  0.67170000  0.80750000  0.26430000  1.0 1.2800680774
Ga  Ga10  1  0.19250000  0.73570000  0.32830000  1.0 1.2800680774
Ga  Ga11  1  0.73570000  0.32830000  0.19250000  1.0 1.2800680774
Ga  Ga12  1  0.32830000  0.19250000  0.73570000  1.0 1.2800680774
P  P1  1  0.93610000  0.53700000  0.88270000  1.0 1.4994235982
P  P2  1  0.53700000  0.88270000  0.93610000  1.0 1.4994235982
P  P3  1  0.88270000  0.93610000  0.53700000  1.0 1.4994235982
P  P4  1  0.06390000  0.46300000  0.11730000  1.0 1.4994235982
P  P5  1  0.46300000  0.11730000  0.06390000  1.0 1.4994235982
P  P6  1  0.11730000  0.06390000  0.46300000  1.0 1.4994235982
P  P7  1  0.93840000  0.60490000  0.29070000  1.0 1.5055765925
P  P8  1  0.60490000  0.29070000  0.93840000  1.0 1.5055765925
P  P9  1  0.29070000  0.93840000  0.60490000  1.0 1.4994235982
P  P10  1  0.06160000  0.39510000  0.70930000  1.0 1.5055765925
P  P11  1  0.39510000  0.70930000  0.06160000  1.0 1.5055765925
P  P12  1  0.70930000  0.06160000  0.39510000  1.0 1.5055765925
H  H1  1  0.67490000  0.28380000  0.52230000  1.0 0.2703888593
H  H2  1  0.28380000  0.52230000  0.67490000  1.0 0.2703888593
H  H3  1  0.52230000  0.67490000  0.28380000  1.0 0.2703888593
H  H4  1  0.32510000  0.71620000  0.47770000  1.0 0.2703888593
H  H5  1  0.71620000  0.47770000  0.32510000  1.0 0.2703888593
H  H6  1  0.47770000  0.32510000  0.71620000  1.0 0.2703888593
H  H7  1  0.74430000  0.39450000  0.63170000  1.0 0.2901938853
H  H8  1  0.39450000  0.63170000  0.74430000  1.0 0.2901938853
H  H9  1  0.63170000  0.74430000  0.39450000  1.0 0.2901938853
H  H10  1  0.25570000  0.60550000  0.36830000  1.0 0.2901938853
H  H11  1  0.60550000  0.36830000  0.25570000  1.0 0.2901938853
H  H12  1  0.36830000  0.25570000  0.60550000  1.0 0.2901938853
H  H13  1  0.69210000  0.23350000  0.77440000  1.0 0.2606670437
H  H14  1  0.23350000  0.77440000  0.69210000  1.0 0.2606670437
H  H15  1  0.77440000  0.69210000  0.23350000  1.0 0.2606670437
H  H16  1  0.30790000  0.76650000  0.22560000  1.0 0.2606670437
H  H17  1  0.76650000  0.22560000  0.30790000  1.0 0.2606670437
H  H18  1  0.22560000  0.30790000  0.76650000  1.0 0.2606670437
H  H19  1  0.88810000  0.13810000  0.70530000  1.0 0.297991435
H  H20  1  0.13810000  0.70530000  0.88810000  1.0 0.297991435
H  H21  1  0.70530000  0.88810000  0.13810000  1.0 0.297991435
H  H22  1  0.11190000  0.86190000  0.29470000  1.0 0.297991435
H  H23  1  0.86190000  0.29470000  0.11190000  1.0 0.297991435
H  H24  1  0.29470000  0.11190000  0.86190000  1.0 0.297991435
H  H25  1  0.95040000  0.24900000  0.81980000  1.0 0.2901938853
H  H26  1  0.24900000  0.81980000  0.95040000  1.0 0.297991435
H  H27  1  0.81980000  0.95040000  0.24900000  1.0 0.2901938853
H  H28  1  0.04960000  0.75100000  0.18020000  1.0 0.297991435
H  H29  1  0.75100000  0.18020000  0.04960000  1.0 0.2901938853
H  H30  1  0.18020000  0.04960000  0.75100000  1.0 0.2901938853
H  H31  1  0.53670000  0.26950000  0.55270000  1.0 0.1201462204
H  H32  1  0.26950000  0.55270000  0.53670000  1.0 0.1201462204
H  H33  1  0.55270000  0.53670000  0.26950000  1.0 0.1201462204
H  H34  1  0.46330000  0.73050000  0.44730000  1.0 0.1201462204
H  H35  1  0.73050000  0.44730000  0.46330000  1.0 0.1201462204
H  H36  1  0.44730000  0.46330000  0.73050000  1.0 0.1201462204
H  H37  1  0.63030000  0.33890000  0.69780000  1.0 0.1201462204
H  H38  1  0.33890000  0.69780000  0.63030000  1.0 0.1201462204
H  H39  1  0.69780000  0.63030000  0.33890000  1.0 0.1201462204
H  H40  1  0.36970000  0.66110000  0.30220000  1.0 0.1201462204
H  H41  1  0.66110000  0.30220000  0.36970000  1.0 0.1201462204
H  H42  1  0.30220000  0.36970000  0.66110000  1.0 0.1201462204
H  H43  1  0.62050000  0.04510000  0.71400000  1.0 0.1295153985
H  H44  1  0.04510000  0.71400000  0.62050000  1.0 0.1295153985
H  H45  1  0.71400000  0.62050000  0.04510000  1.0 0.1295153985
H  H46  1  0.37950000  0.95490000  0.28600000  1.0 0.1295153985
H  H47  1  0.95490000  0.28600000  0.37950000  1.0 0.1295153985
H  H48  1  0.28600000  0.37950000  0.95490000  1.0 0.1295153985
H  H49  1  0.64640000  0.02090000  0.61510000  1.0 0.1201462204
H  H50  1  0.02090000  0.61510000  0.64640000  1.0 0.1201462204
H  H51  1  0.61510000  0.64640000  0.02090000  1.0 0.1201462204
H  H52  1  0.35360000  0.97910000  0.38490000  1.0 0.1201462204
H  H53  1  0.97910000  0.38490000  0.35360000  1.0 0.1201462204
H  H54  1  0.38490000  0.35360000  0.97910000  1.0 0.1201462204
H  H55  1  0.50160000  0.13330000  0.61510000  1.0 0.1295153985
H  H56  1  0.13330000  0.61510000  0.50160000  1.0 0.1295153985
H  H57  1  0.61510000  0.50160000  0.13330000  1.0 0.1295153985
H  H58  1  0.49840000  0.86670000  0.38490000  1.0 0.1295153985
H  H59  1  0.86670000  0.38490000  0.49840000  1.0 0.1295153985
H  H60  1  0.38490000  0.49840000  0.86670000  1.0 0.1295153985
H  H61  1  0.54290000  0.09290000  0.52030000  1.0 0.0778315095
H  H62  1  0.09290000  0.52030000  0.54290000  1.0 0.0778315095
H  H63  1  0.52030000  0.54290000  0.09290000  1.0 0.0778315095
H  H64  1  0.45710000  0.90710000  0.47970000  1.0 0.0778315095
H  H65  1  0.90710000  0.47970000  0.45710000  1.0 0.0778315095
H  H66  1  0.47970000  0.45710000  0.90710000  1.0 0.0778315095
H  H67  1  0.80430000  0.06230000  0.77520000  1.0 0.1201462204
H  H68  1  0.06230000  0.77520000  0.80430000  1.0 0.1201462204
H  H69  1  0.77520000  0.80430000  0.06230000  1.0 0.1201462204
H  H70  1  0.19570000  0.93770000  0.22480000  1.0 0.1201462204
H  H71  1  0.93770000  0.22480000  0.19570000  1.0 0.1201462204
H  H72  1  0.22480000  0.19570000  0.93770000  1.0 0.1201462204
H  H73  1  0.83000000  0.18830000  0.86530000  1.0 0.1201462204
H  H74  1  0.18830000  0.86530000  0.83000000  1.0 0.1201462204
H  H75  1  0.86530000  0.83000000  0.18830000  1.0 0.1201462204
H  H76  1  0.17000000  0.81170000  0.13470000  1.0 0.1201462204
H  H77  1  0.81170000  0.13470000  0.17000000  1.0 0.1201462204
H  H78  1  0.13470000  0.17000000  0.81170000  1.0 0.1201462204
C  C1  1  0.60150000  0.27810000  0.61160000  1.0 -0.0518015528
C  C2  1  0.27810000  0.61160000  0.60150000  1.0 -0.0518015528
C  C3  1  0.61160000  0.60150000  0.27810000  1.0 -0.0518015528
C  C4  1  0.39850000  0.72190000  0.38840000  1.0 -0.0518015528
C  C5  1  0.72190000  0.38840000  0.39850000  1.0 -0.0518015528
C  C6  1  0.38840000  0.39850000  0.72190000  1.0 -0.0518015528
C  C7  1  0.56750000  0.16430000  0.60700000  1.0 -0.0802972513
C  C8  1  0.16430000  0.60700000  0.56750000  1.0 -0.0802972513
C  C9  1  0.60700000  0.56750000  0.16430000  1.0 -0.0802972513
C  C10  1  0.43250000  0.83570000  0.39300000  1.0 -0.0802972513
C  C11  1  0.83570000  0.39300000  0.43250000  1.0 -0.0802972513
C  C12  1  0.39300000  0.43250000  0.83570000  1.0 -0.0802972513
C  C13  1  0.67490000  0.08190000  0.69480000  1.0 -0.10468625
C  C14  1  0.08190000  0.69480000  0.67490000  1.0 -0.10468625
C  C15  1  0.69480000  0.67490000  0.08190000  1.0 -0.10468625
C  C16  1  0.32510000  0.91810000  0.30520000  1.0 -0.10468625
C  C17  1  0.91810000  0.30520000  0.32510000  1.0 -0.10468625
C  C18  1  0.30520000  0.32510000  0.91810000  1.0 -0.10468625
C  C19  1  0.80040000  0.12690000  0.78080000  1.0 -0.040659451
C  C20  1  0.12690000  0.78080000  0.80040000  1.0 -0.040659451
C  C21  1  0.78080000  0.80040000  0.12690000  1.0 -0.040659451
C  C22  1  0.19960000  0.87310000  0.21920000  1.0 -0.040659451
C  C23  1  0.87310000  0.21920000  0.19960000  1.0 -0.040659451
C  C24  1  0.21920000  0.19960000  0.87310000  1.0 -0.040659451
N  N1  1  0.70030000  0.31330000  0.59400000  1.0 -0.5132294717
N  N2  1  0.31330000  0.59400000  0.70030000  1.0 -0.5132294717
N  N3  1  0.59400000  0.70030000  0.31330000  1.0 -0.5132294717
N  N4  1  0.29970000  0.68670000  0.40600000  1.0 -0.5132294717
N  N5  1  0.68670000  0.40600000  0.29970000  1.0 -0.5132294717
N  N6  1  0.40600000  0.29970000  0.68670000  1.0 -0.5132294717
N  N7  1  0.67490000  0.18290000  0.69400000  1.0 -0.3239171031
N  N8  1  0.18290000  0.69400000  0.67490000  1.0 -0.3239171031
N  N9  1  0.69400000  0.67490000  0.18290000  1.0 -0.3239171031
N  N10  1  0.32510000  0.81710000  0.30600000  1.0 -0.3239171031
N  N11  1  0.81710000  0.30600000  0.32510000  1.0 -0.3239171031
N  N12  1  0.30600000  0.32510000  0.81710000  1.0 -0.3239171031
N  N13  1  0.87820000  0.19120000  0.75090000  1.0 -0.533150546
N  N14  1  0.19120000  0.75090000  0.87820000  1.0 -0.533150546
N  N15  1  0.75090000  0.87820000  0.19120000  1.0 -0.533150546
N  N16  1  0.12180000  0.80880000  0.24910000  1.0 -0.533150546
N  N17  1  0.80880000  0.24910000  0.12180000  1.0 -0.533150546
N  N18  1  0.24910000  0.12180000  0.80880000  1.0 -0.533150546
O  O1  1  0.88050000  0.40370000  0.82710000  1.0 -0.8280198994
O  O2  1  0.40370000  0.82710000  0.88050000  1.0 -0.8280198994
O  O3  1  0.82710000  0.88050000  0.40370000  1.0 -0.8280198994
O  O4  1  0.11950000  0.59630000  0.17290000  1.0 -0.8280198994
O  O5  1  0.59630000  0.17290000  0.11950000  1.0 -0.8280198994
O  O6  1  0.17290000  0.11950000  0.59630000  1.0 -0.8280198994
O  O7  1  0.90940000  0.57740000  0.98060000  1.0 -0.7692511303
O  O8  1  0.57740000  0.98060000  0.90940000  1.0 -0.7692511303
O  O9  1  0.98060000  0.90940000  0.57740000  1.0 -0.7692511303
O  O10  1  0.09060000  0.42260000  0.01940000  1.0 -0.7692511303
O  O11  1  0.42260000  0.01940000  0.09060000  1.0 -0.7692511303
O  O12  1  0.01940000  0.09060000  0.42260000  1.0 -0.7692511303
O  O13  1  0.07390000  0.59780000  0.94750000  1.0 -0.7813088036
O  O14  1  0.59780000  0.94750000  0.07390000  1.0 -0.7813088036
O  O15  1  0.94750000  0.07390000  0.59780000  1.0 -0.7813088036
O  O16  1  0.92610000  0.40220000  0.05250000  1.0 -0.7813088036
O  O17  1  0.40220000  0.05250000  0.92610000  1.0 -0.7813088036
O  O18  1  0.05250000  0.92610000  0.40220000  1.0 -0.7813088036
O  O19  1  0.89330000  0.57130000  0.79880000  1.0 -0.7813088036
O  O20  1  0.57130000  0.79880000  0.89330000  1.0 -0.7813088036
O  O21  1  0.79880000  0.89330000  0.57130000  1.0 -0.7813088036
O  O22  1  0.10670000  0.42870000  0.20120000  1.0 -0.7813088036
O  O23  1  0.42870000  0.20120000  0.10670000  1.0 -0.7813088036
O  O24  1  0.20120000  0.10670000  0.42870000  1.0 -0.7813088036
O  O25  1  0.88190000  0.58700000  0.16740000  1.0 -0.7813088036
O  O26  1  0.58700000  0.16740000  0.88190000  1.0 -0.7813088036
O  O27  1  0.16740000  0.88190000  0.58700000  1.0 -0.7813088036
O  O28  1  0.11810000  0.41300000  0.83260000  1.0 -0.7813088036
O  O29  1  0.41300000  0.83260000  0.11810000  1.0 -0.7813088036
O  O30  1  0.83260000  0.11810000  0.41300000  1.0 -0.7813088036
O  O31  1  0.91850000  0.69410000  0.36660000  1.0 -0.7813088036
O  O32  1  0.69410000  0.36660000  0.91850000  1.0 -0.7813088036
O  O33  1  0.36660000  0.91850000  0.69410000  1.0 -0.7813088036
O  O34  1  0.08150000  0.30590000  0.63340000  1.0 -0.7813088036
O  O35  1  0.30590000  0.63340000  0.08150000  1.0 -0.7813088036
O  O36  1  0.63340000  0.08150000  0.30590000  1.0 -0.7813088036
O  O37  1  0.88180000  0.49040000  0.28330000  1.0 -0.7851157012
O  O38  1  0.49040000  0.28330000  0.88180000  1.0 -0.7813088036
O  O39  1  0.28330000  0.88180000  0.49040000  1.0 -0.7813088036
O  O40  1  0.11820000  0.50960000  0.71670000  1.0 -0.7813088036
O  O41  1  0.50960000  0.71670000  0.11820000  1.0 -0.7851157012
O  O42  1  0.71670000  0.11820000  0.50960000  1.0 -0.7813088036
O  O43  1  0.07160000  0.66130000  0.35010000  1.0 -0.7958455803
O  O44  1  0.66130000  0.35010000  0.07160000  1.0 -0.7958455803
O  O45  1  0.35010000  0.07160000  0.66130000  1.0 -0.7958455803
O  O46  1  0.92840000  0.33870000  0.64990000  1.0 -0.7958455803
O  O47  1  0.33870000  0.64990000  0.92840000  1.0 -0.7958455803
O  O48  1  0.64990000  0.92840000  0.33870000  1.0 -0.7958455803
