# DDEC6 charges by PACMAN v1.1 (https://github.com/mtap-research/PACMAN-charge/)
data_MIKLEA_ASR_pacman
_symmetry_space_group_name_H-M   'P 1'
_cell_length_a   18.49940000
_cell_length_b   18.49940000
_cell_length_c   22.53540000
_cell_angle_alpha   90.00000000
_cell_angle_beta   90.00000000
_cell_angle_gamma   106.74900000
_symmetry_Int_Tables_number   1
_chemical_formula_structural   CuH16(C5N)4
_chemical_formula_sum   'Cu8 H128 C160 N32'
_cell_volume   7385.05929933
_cell_formula_units_Z   8
loop_
 _symmetry_equiv_pos_site_id
 _symmetry_equiv_pos_as_xyz
  1  'x, y, z'
loop_
 _atom_site_type_symbol
 _atom_site_label
 _atom_site_symmetry_multiplicity
 _atom_site_fract_x
 _atom_site_fract_y
 _atom_site_fract_z
 _atom_site_occupancy
 _atom_site_charge
Cu  Cu1  1  0.00000000  0.50000000  0.46873000  1.0 0.1221912268
Cu  Cu2  1  0.50000000  0.00000000  0.53127000  1.0 0.1221912268
Cu  Cu3  1  0.50000000  0.00000000  0.03127000  1.0 0.1221912268
Cu  Cu4  1  0.00000000  0.50000000  0.96873000  1.0 0.1221912268
Cu  Cu5  1  0.50000000  0.50000000  0.50000000  1.0 0.1630145275
Cu  Cu6  1  0.00000000  0.00000000  0.00000000  1.0 0.1630145275
Cu  Cu7  1  0.00000000  0.00000000  0.50000000  1.0 0.1370058619
Cu  Cu8  1  0.50000000  0.50000000  0.00000000  1.0 0.1370058619
H  H1  1  0.03130000  0.60990000  0.57200000  1.0 0.090178453
H  H2  1  0.03190000  0.61290000  0.67320000  1.0 0.1221912268
H  H3  1  0.99470000  0.39110000  0.76550000  1.0 0.1221912268
H  H4  1  0.99300000  0.39320000  0.86640000  1.0 0.0970641452
H  H5  1  0.16300000  0.52920000  0.50290000  1.0 0.090178453
H  H6  1  0.26800000  0.62840000  0.52020000  1.0 0.1221912268
H  H7  1  0.15590000  0.76810000  0.45920000  1.0 0.1221912268
H  H8  1  0.05500000  0.66560000  0.44070000  1.0 0.090178453
H  H9  1  0.96870000  0.39010000  0.57200000  1.0 0.090178453
H  H10  1  0.96810000  0.38710000  0.67320000  1.0 0.1221912268
H  H11  1  0.00530000  0.60890000  0.76550000  1.0 0.1221912268
H  H12  1  0.00700000  0.60680000  0.86640000  1.0 0.0970641452
H  H13  1  0.83700000  0.47080000  0.50290000  1.0 0.090178453
H  H14  1  0.73200000  0.37160000  0.52020000  1.0 0.1221912268
H  H15  1  0.84410000  0.23190000  0.45920000  1.0 0.1221912268
H  H16  1  0.94500000  0.33440000  0.44070000  1.0 0.090178453
H  H17  1  0.60990000  0.03130000  0.42800000  1.0 0.090178453
H  H18  1  0.61290000  0.03190000  0.32680000  1.0 0.1221912268
H  H19  1  0.39110000  0.99470000  0.23450000  1.0 0.1221912268
H  H20  1  0.39320000  0.99300000  0.13360000  1.0 0.0970641452
H  H21  1  0.52920000  0.16300000  0.49710000  1.0 0.090178453
H  H22  1  0.62840000  0.26800000  0.47980000  1.0 0.1221912268
H  H23  1  0.76810000  0.15590000  0.54080000  1.0 0.1221912268
H  H24  1  0.66560000  0.05500000  0.55930000  1.0 0.090178453
H  H25  1  0.39010000  0.96870000  0.42800000  1.0 0.090178453
H  H26  1  0.38710000  0.96810000  0.32680000  1.0 0.1221912268
H  H27  1  0.60890000  0.00530000  0.23450000  1.0 0.1221912268
H  H28  1  0.60680000  0.00700000  0.13360000  1.0 0.0970641452
H  H29  1  0.47080000  0.83700000  0.49710000  1.0 0.090178453
H  H30  1  0.37160000  0.73200000  0.47980000  1.0 0.1221912268
H  H31  1  0.23190000  0.84410000  0.54080000  1.0 0.1221912268
H  H32  1  0.33440000  0.94500000  0.55930000  1.0 0.090178453
H  H33  1  0.46870000  0.89010000  0.92800000  1.0 0.090178453
H  H34  1  0.46810000  0.88710000  0.82680000  1.0 0.1221912268
H  H35  1  0.50530000  0.10890000  0.73450000  1.0 0.1221912268
H  H36  1  0.50700000  0.10680000  0.63360000  1.0 0.0970641452
H  H37  1  0.33700000  0.97080000  0.99710000  1.0 0.090178453
H  H38  1  0.23200000  0.87160000  0.97980000  1.0 0.1221912268
H  H39  1  0.34410000  0.73190000  0.04080000  1.0 0.1221912268
H  H40  1  0.44500000  0.83440000  0.05930000  1.0 0.090178453
H  H41  1  0.53130000  0.10990000  0.92800000  1.0 0.090178453
H  H42  1  0.53190000  0.11290000  0.82680000  1.0 0.1221912268
H  H43  1  0.49470000  0.89110000  0.73450000  1.0 0.1221912268
H  H44  1  0.49300000  0.89320000  0.63360000  1.0 0.0970641452
H  H45  1  0.66300000  0.02920000  0.99710000  1.0 0.090178453
H  H46  1  0.76800000  0.12840000  0.97980000  1.0 0.1221912268
H  H47  1  0.65590000  0.26810000  0.04080000  1.0 0.1221912268
H  H48  1  0.55500000  0.16560000  0.05930000  1.0 0.090178453
H  H49  1  0.89010000  0.46870000  0.07200000  1.0 0.090178453
H  H50  1  0.88710000  0.46810000  0.17320000  1.0 0.1221912268
H  H51  1  0.10890000  0.50530000  0.26550000  1.0 0.1221912268
H  H52  1  0.10680000  0.50700000  0.36640000  1.0 0.0970641452
H  H53  1  0.97080000  0.33700000  0.00290000  1.0 0.090178453
H  H54  1  0.87160000  0.23200000  0.02020000  1.0 0.1221912268
H  H55  1  0.73190000  0.34410000  0.95920000  1.0 0.1221912268
H  H56  1  0.83440000  0.44500000  0.94070000  1.0 0.090178453
H  H57  1  0.10990000  0.53130000  0.07200000  1.0 0.090178453
H  H58  1  0.11290000  0.53190000  0.17320000  1.0 0.1221912268
H  H59  1  0.89110000  0.49470000  0.26550000  1.0 0.1221912268
H  H60  1  0.89320000  0.49300000  0.36640000  1.0 0.0970641452
H  H61  1  0.02920000  0.66300000  0.00290000  1.0 0.090178453
H  H62  1  0.12840000  0.76800000  0.02020000  1.0 0.1221912268
H  H63  1  0.26810000  0.65590000  0.95920000  1.0 0.1221912268
H  H64  1  0.16560000  0.55500000  0.94070000  1.0 0.090178453
H  H65  1  0.54400000  0.65700000  0.54210000  1.0 0.090178453
H  H66  1  0.64500000  0.76280000  0.54130000  1.0 0.1221912268
H  H67  1  0.85660000  0.73560000  0.46120000  1.0 0.1221912268
H  H68  1  0.95880000  0.84060000  0.46300000  1.0 0.090178453
H  H69  1  0.04550000  0.91750000  0.39570000  1.0 0.090178453
H  H70  1  0.04380000  0.91360000  0.29460000  1.0 0.1221912268
H  H71  1  0.98100000  0.88780000  0.20360000  1.0 0.1261218601
H  H72  1  0.98230000  0.89090000  0.10250000  1.0 0.0970641452
H  H73  1  0.45600000  0.34300000  0.54210000  1.0 0.090178453
H  H74  1  0.35500000  0.23720000  0.54130000  1.0 0.1221912268
H  H75  1  0.14340000  0.26440000  0.46120000  1.0 0.1221912268
H  H76  1  0.04120000  0.15940000  0.46300000  1.0 0.090178453
H  H77  1  0.95450000  0.08250000  0.39570000  1.0 0.090178453
H  H78  1  0.95620000  0.08640000  0.29460000  1.0 0.1221912268
H  H79  1  0.01900000  0.11220000  0.20360000  1.0 0.1261218601
H  H80  1  0.01770000  0.10910000  0.10250000  1.0 0.0970641452
H  H81  1  0.65700000  0.54400000  0.45790000  1.0 0.090178453
H  H82  1  0.76280000  0.64500000  0.45870000  1.0 0.1221912268
H  H83  1  0.73560000  0.85660000  0.53880000  1.0 0.1221912268
H  H84  1  0.84060000  0.95880000  0.53700000  1.0 0.090178453
H  H85  1  0.91750000  0.04550000  0.60430000  1.0 0.090178453
H  H86  1  0.91360000  0.04380000  0.70540000  1.0 0.1221912268
H  H87  1  0.88780000  0.98100000  0.79640000  1.0 0.1261218601
H  H88  1  0.89090000  0.98230000  0.89750000  1.0 0.0970641452
H  H89  1  0.34300000  0.45600000  0.45790000  1.0 0.090178453
H  H90  1  0.23720000  0.35500000  0.45870000  1.0 0.1221912268
H  H91  1  0.26440000  0.14340000  0.53880000  1.0 0.1221912268
H  H92  1  0.15940000  0.04120000  0.53700000  1.0 0.090178453
H  H93  1  0.08250000  0.95450000  0.60430000  1.0 0.090178453
H  H94  1  0.08640000  0.95620000  0.70540000  1.0 0.1221912268
H  H95  1  0.11220000  0.01900000  0.79640000  1.0 0.1261218601
H  H96  1  0.10910000  0.01770000  0.89750000  1.0 0.0970641452
H  H97  1  0.95600000  0.84300000  0.95790000  1.0 0.090178453
H  H98  1  0.85500000  0.73720000  0.95870000  1.0 0.1221912268
H  H99  1  0.64340000  0.76440000  0.03880000  1.0 0.1221912268
H  H100  1  0.54120000  0.65940000  0.03700000  1.0 0.090178453
H  H101  1  0.45450000  0.58250000  0.10430000  1.0 0.090178453
H  H102  1  0.45620000  0.58640000  0.20540000  1.0 0.1221912268
H  H103  1  0.51900000  0.61220000  0.29640000  1.0 0.1261218601
H  H104  1  0.51770000  0.60910000  0.39750000  1.0 0.0970641452
H  H105  1  0.04400000  0.15700000  0.95790000  1.0 0.090178453
H  H106  1  0.14500000  0.26280000  0.95870000  1.0 0.1221912268
H  H107  1  0.35660000  0.23560000  0.03880000  1.0 0.1221912268
H  H108  1  0.45880000  0.34060000  0.03700000  1.0 0.090178453
H  H109  1  0.54550000  0.41750000  0.10430000  1.0 0.090178453
H  H110  1  0.54380000  0.41360000  0.20540000  1.0 0.1221912268
H  H111  1  0.48100000  0.38780000  0.29640000  1.0 0.1261218601
H  H112  1  0.48230000  0.39090000  0.39750000  1.0 0.0970641452
H  H113  1  0.84300000  0.95600000  0.04210000  1.0 0.090178453
H  H114  1  0.73720000  0.85500000  0.04130000  1.0 0.1221912268
H  H115  1  0.76440000  0.64340000  0.96120000  1.0 0.1221912268
H  H116  1  0.65940000  0.54120000  0.96300000  1.0 0.090178453
H  H117  1  0.58250000  0.45450000  0.89570000  1.0 0.090178453
H  H118  1  0.58640000  0.45620000  0.79460000  1.0 0.1221912268
H  H119  1  0.61220000  0.51900000  0.70360000  1.0 0.1261218601
H  H120  1  0.60910000  0.51770000  0.60250000  1.0 0.0970641452
H  H121  1  0.15700000  0.04400000  0.04210000  1.0 0.090178453
H  H122  1  0.26280000  0.14500000  0.04130000  1.0 0.1221912268
H  H123  1  0.23560000  0.35660000  0.96120000  1.0 0.1221912268
H  H124  1  0.34060000  0.45880000  0.96300000  1.0 0.090178453
H  H125  1  0.41750000  0.54550000  0.89570000  1.0 0.090178453
H  H126  1  0.41360000  0.54380000  0.79460000  1.0 0.1221912268
H  H127  1  0.38780000  0.48100000  0.70360000  1.0 0.1261218601
H  H128  1  0.39090000  0.48230000  0.60250000  1.0 0.090178453
C  C1  1  0.01830000  0.56438000  0.59261000  1.0 0.0390800572
C  C2  1  0.01882000  0.56662000  0.65366000  1.0 -0.2091042203
C  C3  1  0.99665000  0.43581000  0.78502000  1.0 -0.1991682962
C  C4  1  0.99620000  0.43760000  0.84586000  1.0 0.0278221714
C  C5  1  0.16153000  0.57793000  0.49421000  1.0 0.0230423863
C  C6  1  0.22471000  0.63739000  0.50505000  1.0 -0.1991682962
C  C7  1  0.22384000  0.71054000  0.49338000  1.0 0.090178453
C  C8  1  0.15857000  0.71993000  0.46861000  1.0 -0.1991682962
C  C9  1  0.09792000  0.65814000  0.45802000  1.0 0.0278221714
C  C10  1  0.98170000  0.43562000  0.59261000  1.0 0.0390800572
C  C11  1  0.98118000  0.43338000  0.65366000  1.0 -0.2091042203
C  C12  1  0.00335000  0.56419000  0.78502000  1.0 -0.1991682962
C  C13  1  0.00380000  0.56240000  0.84586000  1.0 0.0278221714
C  C14  1  0.83847000  0.42207000  0.49421000  1.0 0.0230423863
C  C15  1  0.77529000  0.36261000  0.50505000  1.0 -0.1991682962
C  C16  1  0.77616000  0.28946000  0.49338000  1.0 0.090178453
C  C17  1  0.84143000  0.28007000  0.46861000  1.0 -0.1991682962
C  C18  1  0.90208000  0.34186000  0.45802000  1.0 0.0278221714
C  C19  1  0.56438000  0.01830000  0.40739000  1.0 0.0390800572
C  C20  1  0.56662000  0.01882000  0.34634000  1.0 -0.2091042203
C  C21  1  0.43581000  0.99665000  0.21498000  1.0 -0.1991682962
C  C22  1  0.43760000  0.99620000  0.15414000  1.0 0.0278221714
C  C23  1  0.57793000  0.16153000  0.50579000  1.0 0.0230423863
C  C24  1  0.63739000  0.22471000  0.49495000  1.0 -0.1991682962
C  C25  1  0.71054000  0.22384000  0.50662000  1.0 0.090178453
C  C26  1  0.71993000  0.15857000  0.53139000  1.0 -0.1991682962
C  C27  1  0.65814000  0.09792000  0.54198000  1.0 0.0278221714
C  C28  1  0.43562000  0.98170000  0.40739000  1.0 0.0390800572
C  C29  1  0.43338000  0.98118000  0.34634000  1.0 -0.2091042203
C  C30  1  0.56419000  0.00335000  0.21498000  1.0 -0.1991682962
C  C31  1  0.56240000  0.00380000  0.15414000  1.0 0.0278221714
C  C32  1  0.42207000  0.83847000  0.50579000  1.0 0.0230423863
C  C33  1  0.36261000  0.77529000  0.49495000  1.0 -0.1991682962
C  C34  1  0.28946000  0.77616000  0.50662000  1.0 0.080989334
C  C35  1  0.28007000  0.84143000  0.53139000  1.0 -0.1991682962
C  C36  1  0.34186000  0.90208000  0.54198000  1.0 0.0278221714
C  C37  1  0.48170000  0.93562000  0.90739000  1.0 0.0390800572
C  C38  1  0.48118000  0.93338000  0.84634000  1.0 -0.2091042203
C  C39  1  0.50335000  0.06419000  0.71498000  1.0 -0.1991682962
C  C40  1  0.50380000  0.06240000  0.65414000  1.0 0.0278221714
C  C41  1  0.33847000  0.92207000  0.00579000  1.0 0.0230423863
C  C42  1  0.27529000  0.86261000  0.99495000  1.0 -0.1991682962
C  C43  1  0.27616000  0.78946000  0.00662000  1.0 0.090178453
C  C44  1  0.34143000  0.78007000  0.03139000  1.0 -0.1991682962
C  C45  1  0.40208000  0.84186000  0.04198000  1.0 0.0278221714
C  C46  1  0.51830000  0.06438000  0.90739000  1.0 0.0390800572
C  C47  1  0.51882000  0.06662000  0.84634000  1.0 -0.2091042203
C  C48  1  0.49665000  0.93581000  0.71498000  1.0 -0.1991682962
C  C49  1  0.49620000  0.93760000  0.65414000  1.0 0.0278221714
C  C50  1  0.66153000  0.07793000  0.00579000  1.0 0.0230423863
C  C51  1  0.72471000  0.13739000  0.99495000  1.0 -0.1991682962
C  C52  1  0.72384000  0.21054000  0.00662000  1.0 0.090178453
C  C53  1  0.65857000  0.21993000  0.03139000  1.0 -0.1991682962
C  C54  1  0.59792000  0.15814000  0.04198000  1.0 0.0278221714
C  C55  1  0.93562000  0.48170000  0.09261000  1.0 0.0390800572
C  C56  1  0.93338000  0.48118000  0.15366000  1.0 -0.2091042203
C  C57  1  0.06419000  0.50335000  0.28502000  1.0 -0.1991682962
C  C58  1  0.06240000  0.50380000  0.34586000  1.0 0.0278221714
C  C59  1  0.92207000  0.33847000  0.99421000  1.0 0.0230423863
C  C60  1  0.86261000  0.27529000  0.00505000  1.0 -0.1991682962
C  C61  1  0.78946000  0.27616000  0.99338000  1.0 0.090178453
C  C62  1  0.78007000  0.34143000  0.96861000  1.0 -0.1991682962
C  C63  1  0.84186000  0.40208000  0.95802000  1.0 0.0278221714
C  C64  1  0.06438000  0.51830000  0.09261000  1.0 0.0390800572
C  C65  1  0.06662000  0.51882000  0.15366000  1.0 -0.2091042203
C  C66  1  0.93581000  0.49665000  0.28502000  1.0 -0.1991682962
C  C67  1  0.93760000  0.49620000  0.34586000  1.0 0.0278221714
C  C68  1  0.07793000  0.66153000  0.99421000  1.0 0.0230423863
C  C69  1  0.13739000  0.72471000  0.00505000  1.0 -0.1991682962
C  C70  1  0.21054000  0.72384000  0.99338000  1.0 0.090178453
C  C71  1  0.21993000  0.65857000  0.96861000  1.0 -0.1991682962
C  C72  1  0.15814000  0.59792000  0.95802000  1.0 0.0278221714
C  C73  1  0.00000000  0.50000000  0.68631000  1.0 0.090178453
C  C74  1  0.00000000  0.50000000  0.75254000  1.0 0.090178453
C  C75  1  0.50000000  0.00000000  0.31369000  1.0 0.090178453
C  C76  1  0.50000000  0.00000000  0.24746000  1.0 0.090178453
C  C77  1  0.50000000  0.00000000  0.81369000  1.0 0.090178453
C  C78  1  0.50000000  0.00000000  0.74746000  1.0 0.090178453
C  C79  1  0.00000000  0.50000000  0.18631000  1.0 0.090178453
C  C80  1  0.00000000  0.50000000  0.25254000  1.0 0.090178453
C  C81  1  0.58858000  0.65466000  0.52427000  1.0 0.0278221714
C  C82  1  0.64954000  0.71840000  0.52446000  1.0 -0.2091042203
C  C83  1  0.85204000  0.78050000  0.47716000  1.0 -0.1991682962
C  C84  1  0.91310000  0.84376000  0.47818000  1.0 0.0390800572
C  C85  1  0.02623000  0.95147000  0.37523000  1.0 0.0278221714
C  C86  1  0.02614000  0.94938000  0.31420000  1.0 -0.1991682962
C  C87  1  0.98884000  0.93370000  0.18395000  1.0 -0.2091042203
C  C88  1  0.98949000  0.93593000  0.12313000  1.0 0.0278221714
C  C89  1  0.41142000  0.34534000  0.52427000  1.0 0.0278221714
C  C90  1  0.35046000  0.28160000  0.52446000  1.0 -0.2091042203
C  C91  1  0.14796000  0.21950000  0.47716000  1.0 -0.1991682962
C  C92  1  0.08690000  0.15624000  0.47818000  1.0 0.0278221714
C  C93  1  0.97377000  0.04853000  0.37523000  1.0 0.0278221714
C  C94  1  0.97386000  0.05062000  0.31420000  1.0 -0.1991682962
C  C95  1  0.01116000  0.06630000  0.18395000  1.0 -0.2091042203
C  C96  1  0.01051000  0.06407000  0.12313000  1.0 0.0278221714
C  C97  1  0.65466000  0.58858000  0.47573000  1.0 0.0278221714
C  C98  1  0.71840000  0.64954000  0.47554000  1.0 -0.2091042203
C  C99  1  0.78050000  0.85204000  0.52284000  1.0 -0.1991682962
C  C100  1  0.84376000  0.91310000  0.52182000  1.0 0.0390800572
C  C101  1  0.95147000  0.02623000  0.62477000  1.0 0.0278221714
C  C102  1  0.94938000  0.02614000  0.68580000  1.0 -0.1991682962
C  C103  1  0.93370000  0.98884000  0.81605000  1.0 -0.2091042203
C  C104  1  0.93593000  0.98949000  0.87687000  1.0 0.0390800572
C  C105  1  0.34534000  0.41142000  0.47573000  1.0 0.0278221714
C  C106  1  0.28160000  0.35046000  0.47554000  1.0 -0.2091042203
C  C107  1  0.21950000  0.14796000  0.52284000  1.0 -0.1991682962
C  C108  1  0.15624000  0.08690000  0.52182000  1.0 0.0390800572
C  C109  1  0.04853000  0.97377000  0.62477000  1.0 0.0278221714
C  C110  1  0.05062000  0.97386000  0.68580000  1.0 -0.1991682962
C  C111  1  0.06630000  0.01116000  0.81605000  1.0 -0.2091042203
C  C112  1  0.06407000  0.01051000  0.87687000  1.0 0.0278221714
C  C113  1  0.91142000  0.84534000  0.97573000  1.0 0.0278221714
C  C114  1  0.85046000  0.78160000  0.97554000  1.0 -0.2091042203
C  C115  1  0.64796000  0.71950000  0.02284000  1.0 -0.1991682962
C  C116  1  0.58690000  0.65624000  0.02182000  1.0 0.0390800572
C  C117  1  0.47377000  0.54853000  0.12477000  1.0 0.0278221714
C  C118  1  0.47386000  0.55062000  0.18580000  1.0 -0.1991682962
C  C119  1  0.51116000  0.56630000  0.31605000  1.0 -0.2091042203
C  C120  1  0.51051000  0.56407000  0.37687000  1.0 0.0278221714
C  C121  1  0.08858000  0.15466000  0.97573000  1.0 0.0230423863
C  C122  1  0.14954000  0.21840000  0.97554000  1.0 -0.2091042203
C  C123  1  0.35204000  0.28050000  0.02284000  1.0 -0.1991682962
C  C124  1  0.41310000  0.34376000  0.02182000  1.0 0.0390800572
C  C125  1  0.52623000  0.45147000  0.12477000  1.0 0.0278221714
C  C126  1  0.52614000  0.44938000  0.18580000  1.0 -0.1991682962
C  C127  1  0.48884000  0.43370000  0.31605000  1.0 -0.2091042203
C  C128  1  0.48949000  0.43593000  0.37687000  1.0 0.0278221714
C  C129  1  0.84534000  0.91142000  0.02427000  1.0 0.0278221714
C  C130  1  0.78160000  0.85046000  0.02446000  1.0 -0.2091042203
C  C131  1  0.71950000  0.64796000  0.97716000  1.0 -0.1991682962
C  C132  1  0.65624000  0.58690000  0.97818000  1.0 0.0390800572
C  C133  1  0.54853000  0.47377000  0.87523000  1.0 0.0278221714
C  C134  1  0.55062000  0.47386000  0.81420000  1.0 -0.1991682962
C  C135  1  0.56630000  0.51116000  0.68395000  1.0 -0.2091042203
C  C136  1  0.56407000  0.51051000  0.62313000  1.0 0.0390800572
C  C137  1  0.15466000  0.08858000  0.02427000  1.0 0.0230423863
C  C138  1  0.21840000  0.14954000  0.02446000  1.0 -0.2091042203
C  C139  1  0.28050000  0.35204000  0.97716000  1.0 -0.1991682962
C  C140  1  0.34376000  0.41310000  0.97818000  1.0 0.0390800572
C  C141  1  0.45147000  0.52623000  0.87523000  1.0 0.0278221714
C  C142  1  0.44938000  0.52614000  0.81420000  1.0 -0.1991682962
C  C143  1  0.43370000  0.48884000  0.68395000  1.0 -0.2091042203
C  C144  1  0.43593000  0.48949000  0.62313000  1.0 0.0278221714
C  C145  1  0.71666000  0.71666000  0.50000000  1.0 0.080989334
C  C146  1  0.78376000  0.78376000  0.50000000  1.0 0.090178453
C  C147  1  0.28334000  0.28334000  0.50000000  1.0 0.080989334
C  C148  1  0.21624000  0.21624000  0.50000000  1.0 0.090178453
C  C149  1  0.78334000  0.78334000  0.00000000  1.0 0.080989334
C  C150  1  0.71624000  0.71624000  0.00000000  1.0 0.090178453
C  C151  1  0.21666000  0.21666000  0.00000000  1.0 0.080989334
C  C152  1  0.28376000  0.28376000  0.00000000  1.0 0.090178453
C  C153  1  0.00000000  0.00000000  0.28211000  1.0 0.080989334
C  C154  1  0.00000000  0.00000000  0.21628000  1.0 0.090178453
C  C155  1  0.00000000  0.00000000  0.71789000  1.0 0.080989334
C  C156  1  0.00000000  0.00000000  0.78372000  1.0 0.090178453
C  C157  1  0.50000000  0.50000000  0.21789000  1.0 0.080989334
C  C158  1  0.50000000  0.50000000  0.28372000  1.0 0.090178453
C  C159  1  0.50000000  0.50000000  0.78211000  1.0 0.080989334
C  C160  1  0.50000000  0.50000000  0.71628000  1.0 0.090178453
N  N1  1  0.09775000  0.58767000  0.47145000  1.0 -0.2168776578
N  N2  1  0.90225000  0.41233000  0.47145000  1.0 -0.2091042203
N  N3  1  0.58767000  0.09775000  0.52855000  1.0 -0.2168776578
N  N4  1  0.41233000  0.90225000  0.52855000  1.0 -0.2168776578
N  N5  1  0.40225000  0.91233000  0.02855000  1.0 -0.2168776578
N  N6  1  0.59775000  0.08767000  0.02855000  1.0 -0.2091042203
N  N7  1  0.91233000  0.40225000  0.97145000  1.0 -0.2091042203
N  N8  1  0.08767000  0.59775000  0.97145000  1.0 -0.2091042203
N  N9  1  0.00000000  0.50000000  0.56134000  1.0 -0.1991682962
N  N10  1  0.00000000  0.50000000  0.87703000  1.0 -0.1991682962
N  N11  1  0.50000000  0.00000000  0.43866000  1.0 -0.1991682962
N  N12  1  0.50000000  0.00000000  0.12297000  1.0 -0.1991682962
N  N13  1  0.50000000  0.00000000  0.93866000  1.0 -0.1991682962
N  N14  1  0.50000000  0.00000000  0.62297000  1.0 -0.1991682962
N  N15  1  0.00000000  0.50000000  0.06134000  1.0 -0.1991682962
N  N16  1  0.00000000  0.50000000  0.37703000  1.0 -0.1991682962
N  N17  1  0.59040000  0.59040000  0.50000000  1.0 -0.1991682962
N  N18  1  0.90950000  0.90950000  0.50000000  1.0 -0.1879272795
N  N19  1  0.40960000  0.40960000  0.50000000  1.0 -0.1879272795
N  N20  1  0.09050000  0.09050000  0.50000000  1.0 -0.1879272795
N  N21  1  0.90960000  0.90960000  0.00000000  1.0 -0.1879272795
N  N22  1  0.59050000  0.59050000  0.00000000  1.0 -0.1879272795
N  N23  1  0.09040000  0.09040000  0.00000000  1.0 -0.1879272795
N  N24  1  0.40950000  0.40950000  0.00000000  1.0 -0.1879272795
N  N25  1  0.00000000  0.00000000  0.09173000  1.0 -0.2272065244
N  N26  1  0.00000000  0.00000000  0.40663000  1.0 -0.2091042203
N  N27  1  0.00000000  0.00000000  0.90827000  1.0 -0.2272065244
N  N28  1  0.00000000  0.00000000  0.59337000  1.0 -0.2091042203
N  N29  1  0.50000000  0.50000000  0.40827000  1.0 -0.2272065244
N  N30  1  0.50000000  0.50000000  0.09337000  1.0 -0.2091042203
N  N31  1  0.50000000  0.50000000  0.59173000  1.0 -0.2272065244
N  N32  1  0.50000000  0.50000000  0.90663000  1.0 -0.2091042203
