# DDEC6 charges by PACMAN v1.1 (https://github.com/mtap-research/PACMAN-charge/)
data_MIKVAG_ASR_pacman
_symmetry_space_group_name_H-M   'P 1'
_cell_length_a   20.91730000
_cell_length_b   20.91730000
_cell_length_c   18.27000000
_cell_angle_alpha   90.00000000
_cell_angle_beta   90.00000000
_cell_angle_gamma   105.82000000
_symmetry_Int_Tables_number   1
_chemical_formula_structural   Cu2H11C23(NO2)4
_chemical_formula_sum   'Cu12 H66 C138 N24 O48'
_cell_volume   7690.95632986
_cell_formula_units_Z   6
loop_
 _symmetry_equiv_pos_site_id
 _symmetry_equiv_pos_as_xyz
  1  'x, y, z'
loop_
 _atom_site_type_symbol
 _atom_site_label
 _atom_site_symmetry_multiplicity
 _atom_site_fract_x
 _atom_site_fract_y
 _atom_site_fract_z
 _atom_site_occupancy
 _atom_site_charge
Cu  Cu1  1  0.55627000  0.02029000  0.46229000  1.0 0.836361227
Cu  Cu2  1  0.44373000  0.97971000  0.96229000  1.0 0.836361227
Cu  Cu3  1  0.97971000  0.44373000  0.03771000  1.0 0.836361227
Cu  Cu4  1  0.02029000  0.55627000  0.53771000  1.0 0.836361227
Cu  Cu5  1  0.44373000  0.97971000  0.53771000  1.0 0.836361227
Cu  Cu6  1  0.55627000  0.02029000  0.03771000  1.0 0.836361227
Cu  Cu7  1  0.02029000  0.55627000  0.96229000  1.0 0.836361227
Cu  Cu8  1  0.97971000  0.44373000  0.46229000  1.0 0.836361227
Cu  Cu9  1  0.35761000  0.64239000  0.75000000  1.0 0.8619532262
Cu  Cu10  1  0.43771000  0.56229000  0.75000000  1.0 0.8897698199
Cu  Cu11  1  0.64239000  0.35761000  0.25000000  1.0 0.8619532262
Cu  Cu12  1  0.56229000  0.43771000  0.25000000  1.0 0.8897698199
H  H1  1  0.45490000  0.78450000  0.59828000  1.0 0.1420277745
H  H2  1  0.62668000  0.84944000  0.48774000  1.0 0.1302832651
H  H3  1  0.58756000  0.67670000  0.59794000  1.0 0.1302832651
H  H4  1  0.73256000  0.85552000  0.52379000  1.0 0.1302832651
H  H5  1  0.69023000  0.09209000  0.63730000  1.0 0.1420277745
H  H6  1  0.01138000  0.94788000  0.53212000  1.0 0.1468971198
H  H7  1  0.54510000  0.21550000  0.09828000  1.0 0.1420277745
H  H8  1  0.37332000  0.15056000  0.98774000  1.0 0.1302832651
H  H9  1  0.41244000  0.32330000  0.09794000  1.0 0.1302832651
H  H10  1  0.26744000  0.14448000  0.02379000  1.0 0.1302832651
H  H11  1  0.30977000  0.90791000  0.13730000  1.0 0.1420277745
H  H12  1  0.98862000  0.05212000  0.03212000  1.0 0.1468971198
H  H13  1  0.21550000  0.54510000  0.90172000  1.0 0.1420277745
H  H14  1  0.15056000  0.37332000  0.01226000  1.0 0.1302832651
H  H15  1  0.32330000  0.41244000  0.90206000  1.0 0.1302832651
H  H16  1  0.14448000  0.26744000  0.97621000  1.0 0.1302832651
H  H17  1  0.90791000  0.30977000  0.86270000  1.0 0.1420277745
H  H18  1  0.05212000  0.98862000  0.96788000  1.0 0.1468971198
H  H19  1  0.78450000  0.45490000  0.40172000  1.0 0.1420277745
H  H20  1  0.84944000  0.62668000  0.51226000  1.0 0.1302832651
H  H21  1  0.67670000  0.58756000  0.40206000  1.0 0.1302832651
H  H22  1  0.85552000  0.73256000  0.47621000  1.0 0.1302832651
H  H23  1  0.09209000  0.69023000  0.36270000  1.0 0.1420277745
H  H24  1  0.94788000  0.01138000  0.46788000  1.0 0.1468971198
H  H25  1  0.54510000  0.21550000  0.40172000  1.0 0.1420277745
H  H26  1  0.37332000  0.15056000  0.51226000  1.0 0.1302832651
H  H27  1  0.41244000  0.32330000  0.40206000  1.0 0.1302832651
H  H28  1  0.26744000  0.14448000  0.47621000  1.0 0.1302832651
H  H29  1  0.30977000  0.90791000  0.36270000  1.0 0.1420277745
H  H30  1  0.98862000  0.05212000  0.46788000  1.0 0.1468971198
H  H31  1  0.45490000  0.78450000  0.90172000  1.0 0.1420277745
H  H32  1  0.62668000  0.84944000  0.01226000  1.0 0.1302832651
H  H33  1  0.58756000  0.67670000  0.90206000  1.0 0.1302832651
H  H34  1  0.73256000  0.85552000  0.97621000  1.0 0.1302832651
H  H35  1  0.69023000  0.09209000  0.86270000  1.0 0.1420277745
H  H36  1  0.01138000  0.94788000  0.96788000  1.0 0.1468971198
H  H37  1  0.78450000  0.45490000  0.09828000  1.0 0.1420277745
H  H38  1  0.84944000  0.62668000  0.98774000  1.0 0.1302832651
H  H39  1  0.67670000  0.58756000  0.09794000  1.0 0.1302832651
H  H40  1  0.85552000  0.73256000  0.02379000  1.0 0.1302832651
H  H41  1  0.09209000  0.69023000  0.13730000  1.0 0.1420277745
H  H42  1  0.94788000  0.01138000  0.03212000  1.0 0.1468971198
H  H43  1  0.21550000  0.54510000  0.59828000  1.0 0.1420277745
H  H44  1  0.15056000  0.37332000  0.48774000  1.0 0.1302832651
H  H45  1  0.32330000  0.41244000  0.59794000  1.0 0.1302832651
H  H46  1  0.14448000  0.26744000  0.52379000  1.0 0.1302832651
H  H47  1  0.90791000  0.30977000  0.63730000  1.0 0.1420277745
H  H48  1  0.05212000  0.98862000  0.53212000  1.0 0.1468971198
H  H49  1  0.65281000  0.65281000  0.50000000  1.0 0.1141911683
H  H50  1  0.34719000  0.34719000  0.00000000  1.0 0.1141911683
H  H51  1  0.34719000  0.34719000  0.50000000  1.0 0.1141911683
H  H52  1  0.65281000  0.65281000  0.00000000  1.0 0.1141911683
H  H53  1  0.51833000  0.02349000  0.75000000  1.0 0.1420277745
H  H54  1  0.79865000  0.04133000  0.75000000  1.0 0.1214702701
H  H55  1  0.86840000  0.97416000  0.75000000  1.0 0.2962874745
H  H56  1  0.48167000  0.97651000  0.25000000  1.0 0.1420277745
H  H57  1  0.20135000  0.95867000  0.25000000  1.0 0.1214702701
H  H58  1  0.13160000  0.02584000  0.25000000  1.0 0.2962874745
H  H59  1  0.97651000  0.48167000  0.75000000  1.0 0.1420277745
H  H60  1  0.95867000  0.20135000  0.75000000  1.0 0.1214702701
H  H61  1  0.02584000  0.13160000  0.75000000  1.0 0.2962874745
H  H62  1  0.02349000  0.51833000  0.25000000  1.0 0.1420277745
H  H63  1  0.04133000  0.79865000  0.25000000  1.0 0.1214702701
H  H64  1  0.97416000  0.86840000  0.25000000  1.0 0.2962874745
H  H65  1  0.77479000  0.22521000  0.75000000  1.0 0.1420277745
H  H66  1  0.22521000  0.77479000  0.25000000  1.0 0.1420277745
C  C1  1  0.51423000  0.72295000  0.60526000  1.0 -0.0356876167
C  C2  1  0.49547000  0.77873000  0.58332000  1.0 -0.0913705106
C  C3  1  0.59835000  0.81767000  0.51705000  1.0 -0.123028796
C  C4  1  0.61720000  0.76148000  0.53909000  1.0 0.0526561325
C  C5  1  0.57516000  0.71416000  0.58316000  1.0 -0.1267229477
C  C6  1  0.47031000  0.67727000  0.65699000  1.0 0.5803561271
C  C7  1  0.52299000  0.89103000  0.52210000  1.0 0.5749687826
C  C8  1  0.67933000  0.75683000  0.51461000  1.0 0.0893020506
C  C9  1  0.73763000  0.81345000  0.51456000  1.0 -0.2271548609
C  C10  1  0.60332000  0.06006000  0.68162000  1.0 -0.0118321168
C  C11  1  0.66825000  0.08451000  0.68204000  1.0 -0.123028796
C  C12  1  0.56623000  0.04059000  0.61088000  1.0 0.5749687826
C  C13  1  0.53787000  0.82641000  0.53850000  1.0 -0.0192834145
C  C14  1  0.48577000  0.27705000  0.10526000  1.0 -0.0356876167
C  C15  1  0.50453000  0.22127000  0.08332000  1.0 -0.0913705106
C  C16  1  0.40165000  0.18233000  0.01705000  1.0 -0.1267229477
C  C17  1  0.38280000  0.23852000  0.03909000  1.0 0.0526561325
C  C18  1  0.42484000  0.28584000  0.08316000  1.0 -0.1267229477
C  C19  1  0.52969000  0.32273000  0.15699000  1.0 0.5803561271
C  C20  1  0.47701000  0.10897000  0.02210000  1.0 0.5803561271
C  C21  1  0.32067000  0.24317000  0.01461000  1.0 0.0893020506
C  C22  1  0.26237000  0.18655000  0.01456000  1.0 -0.2271548609
C  C23  1  0.39668000  0.93994000  0.18162000  1.0 -0.0118321168
C  C24  1  0.33175000  0.91549000  0.18204000  1.0 -0.123028796
C  C25  1  0.43377000  0.95941000  0.11088000  1.0 0.5749687826
C  C26  1  0.46213000  0.17359000  0.03850000  1.0 -0.0192834145
C  C27  1  0.27705000  0.48577000  0.89474000  1.0 -0.0356876167
C  C28  1  0.22127000  0.50453000  0.91668000  1.0 -0.0913705106
C  C29  1  0.18233000  0.40165000  0.98295000  1.0 -0.123028796
C  C30  1  0.23852000  0.38280000  0.96091000  1.0 0.0526561325
C  C31  1  0.28584000  0.42484000  0.91684000  1.0 -0.1267229477
C  C32  1  0.32273000  0.52969000  0.84301000  1.0 0.5803561271
C  C33  1  0.10897000  0.47701000  0.97790000  1.0 0.5803561271
C  C34  1  0.24317000  0.32067000  0.98539000  1.0 0.0893020506
C  C35  1  0.18655000  0.26237000  0.98544000  1.0 -0.2271548609
C  C36  1  0.93994000  0.39668000  0.81838000  1.0 -0.0118321168
C  C37  1  0.91549000  0.33175000  0.81796000  1.0 -0.123028796
C  C38  1  0.95941000  0.43377000  0.88912000  1.0 0.5749687826
C  C39  1  0.17359000  0.46213000  0.96150000  1.0 -0.0192834145
C  C40  1  0.72295000  0.51423000  0.39474000  1.0 -0.0356876167
C  C41  1  0.77873000  0.49547000  0.41668000  1.0 -0.0913705106
C  C42  1  0.81767000  0.59835000  0.48295000  1.0 -0.123028796
C  C43  1  0.76148000  0.61720000  0.46091000  1.0 0.0526561325
C  C44  1  0.71416000  0.57516000  0.41684000  1.0 -0.1267229477
C  C45  1  0.67727000  0.47031000  0.34301000  1.0 0.5803561271
C  C46  1  0.89103000  0.52299000  0.47790000  1.0 0.5749687826
C  C47  1  0.75683000  0.67933000  0.48539000  1.0 0.0893020506
C  C48  1  0.81345000  0.73763000  0.48544000  1.0 -0.2271548609
C  C49  1  0.06006000  0.60332000  0.31838000  1.0 -0.0118321168
C  C50  1  0.08451000  0.66825000  0.31796000  1.0 -0.123028796
C  C51  1  0.04059000  0.56623000  0.38912000  1.0 0.5749687826
C  C52  1  0.82641000  0.53787000  0.46150000  1.0 -0.0192834145
C  C53  1  0.48577000  0.27705000  0.39474000  1.0 -0.0356876167
C  C54  1  0.50453000  0.22127000  0.41668000  1.0 -0.0913705106
C  C55  1  0.40165000  0.18233000  0.48295000  1.0 -0.123028796
C  C56  1  0.38280000  0.23852000  0.46091000  1.0 0.0526561325
C  C57  1  0.42484000  0.28584000  0.41684000  1.0 -0.1267229477
C  C58  1  0.52969000  0.32273000  0.34301000  1.0 0.5803561271
C  C59  1  0.47701000  0.10897000  0.47790000  1.0 0.5803561271
C  C60  1  0.32067000  0.24317000  0.48539000  1.0 0.0893020506
C  C61  1  0.26237000  0.18655000  0.48544000  1.0 -0.2271548609
C  C62  1  0.39668000  0.93994000  0.31838000  1.0 -0.0118321168
C  C63  1  0.33175000  0.91549000  0.31796000  1.0 -0.123028796
C  C64  1  0.43377000  0.95941000  0.38912000  1.0 0.5749687826
C  C65  1  0.46213000  0.17359000  0.46150000  1.0 -0.0192834145
C  C66  1  0.51423000  0.72295000  0.89474000  1.0 -0.0356876167
C  C67  1  0.49547000  0.77873000  0.91668000  1.0 -0.0913705106
C  C68  1  0.59835000  0.81767000  0.98295000  1.0 -0.123028796
C  C69  1  0.61720000  0.76148000  0.96091000  1.0 0.0526561325
C  C70  1  0.57516000  0.71416000  0.91684000  1.0 -0.1267229477
C  C71  1  0.47031000  0.67727000  0.84301000  1.0 0.5803561271
C  C72  1  0.52299000  0.89103000  0.97790000  1.0 0.5749687826
C  C73  1  0.67933000  0.75683000  0.98539000  1.0 0.0893020506
C  C74  1  0.73763000  0.81345000  0.98544000  1.0 -0.2271548609
C  C75  1  0.60332000  0.06006000  0.81838000  1.0 -0.0118321168
C  C76  1  0.66825000  0.08451000  0.81796000  1.0 -0.123028796
C  C77  1  0.56623000  0.04059000  0.88912000  1.0 0.5803561271
C  C78  1  0.53787000  0.82641000  0.96150000  1.0 -0.0192834145
C  C79  1  0.72295000  0.51423000  0.10526000  1.0 -0.0356876167
C  C80  1  0.77873000  0.49547000  0.08332000  1.0 -0.0913705106
C  C81  1  0.81767000  0.59835000  0.01705000  1.0 -0.1267229477
C  C82  1  0.76148000  0.61720000  0.03909000  1.0 0.0526561325
C  C83  1  0.71416000  0.57516000  0.08316000  1.0 -0.1267229477
C  C84  1  0.67727000  0.47031000  0.15699000  1.0 0.5803561271
C  C85  1  0.89103000  0.52299000  0.02210000  1.0 0.5803561271
C  C86  1  0.75683000  0.67933000  0.01461000  1.0 0.0893020506
C  C87  1  0.81345000  0.73763000  0.01456000  1.0 -0.2271548609
C  C88  1  0.06006000  0.60332000  0.18162000  1.0 -0.0118321168
C  C89  1  0.08451000  0.66825000  0.18204000  1.0 -0.123028796
C  C90  1  0.04059000  0.56623000  0.11088000  1.0 0.5749687826
C  C91  1  0.82641000  0.53787000  0.03850000  1.0 -0.0192834145
C  C92  1  0.27705000  0.48577000  0.60526000  1.0 -0.0356876167
C  C93  1  0.22127000  0.50453000  0.58332000  1.0 -0.0913705106
C  C94  1  0.18233000  0.40165000  0.51705000  1.0 -0.123028796
C  C95  1  0.23852000  0.38280000  0.53909000  1.0 0.0526561325
C  C96  1  0.28584000  0.42484000  0.58316000  1.0 -0.1267229477
C  C97  1  0.32273000  0.52969000  0.65699000  1.0 0.5803561271
C  C98  1  0.10897000  0.47701000  0.52210000  1.0 0.5803561271
C  C99  1  0.24317000  0.32067000  0.51461000  1.0 0.0893020506
C  C100  1  0.18655000  0.26237000  0.51456000  1.0 -0.2271548609
C  C101  1  0.93994000  0.39668000  0.68162000  1.0 -0.0118321168
C  C102  1  0.91549000  0.33175000  0.68204000  1.0 -0.123028796
C  C103  1  0.95941000  0.43377000  0.61088000  1.0 0.5749687826
C  C104  1  0.17359000  0.46213000  0.53850000  1.0 -0.0192834145
C  C105  1  0.68967000  0.68967000  0.50000000  1.0 -0.2068486983
C  C106  1  0.80613000  0.80613000  0.50000000  1.0 0.0788371836
C  C107  1  0.86534000  0.86534000  0.50000000  1.0 0.2558725228
C  C108  1  0.31033000  0.31033000  0.00000000  1.0 -0.2068486983
C  C109  1  0.19387000  0.19387000  0.00000000  1.0 0.0788371836
C  C110  1  0.13466000  0.13466000  0.00000000  1.0 0.2558725228
C  C111  1  0.31033000  0.31033000  0.50000000  1.0 -0.2068486983
C  C112  1  0.19387000  0.19387000  0.50000000  1.0 0.0788371836
C  C113  1  0.13466000  0.13466000  0.50000000  1.0 0.2558725228
C  C114  1  0.68967000  0.68967000  0.00000000  1.0 -0.2068486983
C  C115  1  0.80613000  0.80613000  0.00000000  1.0 0.0788371836
C  C116  1  0.86534000  0.86534000  0.00000000  1.0 0.2558725228
C  C117  1  0.56394000  0.04312000  0.75000000  1.0 -0.0622135332
C  C118  1  0.70860000  0.10074000  0.75000000  1.0 0.058273231
C  C119  1  0.77691000  0.12999000  0.75000000  1.0 0.058273231
C  C120  1  0.81726000  0.08710000  0.75000000  1.0 -0.1942371155
C  C121  1  0.43606000  0.95688000  0.25000000  1.0 -0.0622135332
C  C122  1  0.29140000  0.89926000  0.25000000  1.0 0.058273231
C  C123  1  0.22309000  0.87001000  0.25000000  1.0 0.058273231
C  C124  1  0.18274000  0.91290000  0.25000000  1.0 -0.1951674844
C  C125  1  0.95688000  0.43606000  0.75000000  1.0 -0.0622135332
C  C126  1  0.89926000  0.29140000  0.75000000  1.0 0.058273231
C  C127  1  0.87001000  0.22309000  0.75000000  1.0 0.058273231
C  C128  1  0.91290000  0.18274000  0.75000000  1.0 -0.1942371155
C  C129  1  0.04312000  0.56394000  0.25000000  1.0 -0.0622135332
C  C130  1  0.10074000  0.70860000  0.25000000  1.0 0.058273231
C  C131  1  0.12999000  0.77691000  0.25000000  1.0 0.058273231
C  C132  1  0.08710000  0.81726000  0.25000000  1.0 -0.1951674844
C  C133  1  0.80266000  0.19734000  0.75000000  1.0 -0.170487913
C  C134  1  0.88625000  0.11375000  0.75000000  1.0 0.0526561325
C  C135  1  0.93129000  0.06871000  0.75000000  1.0 0.0893020506
C  C136  1  0.19734000  0.80266000  0.25000000  1.0 -0.170487913
C  C137  1  0.11375000  0.88625000  0.25000000  1.0 0.0526561325
C  C138  1  0.06871000  0.93129000  0.25000000  1.0 0.1002367189
N  N1  1  0.92816000  0.86864000  0.53208000  1.0 -0.2771009082
N  N2  1  0.97046000  0.93358000  0.51906000  1.0 -0.1090055319
N  N3  1  0.07184000  0.13136000  0.03208000  1.0 -0.2771009082
N  N4  1  0.02954000  0.06642000  0.01906000  1.0 -0.1090055319
N  N5  1  0.13136000  0.07184000  0.96792000  1.0 -0.2771009082
N  N6  1  0.06642000  0.02954000  0.98094000  1.0 -0.1090055319
N  N7  1  0.86864000  0.92816000  0.46792000  1.0 -0.2771009082
N  N8  1  0.93358000  0.97046000  0.48094000  1.0 -0.1090055319
N  N9  1  0.07184000  0.13136000  0.46792000  1.0 -0.2771009082
N  N10  1  0.02954000  0.06642000  0.48094000  1.0 -0.1090055319
N  N11  1  0.92816000  0.86864000  0.96792000  1.0 -0.2771009082
N  N12  1  0.97046000  0.93358000  0.98094000  1.0 -0.1090055319
N  N13  1  0.86864000  0.92816000  0.03208000  1.0 -0.2771009082
N  N14  1  0.93358000  0.97046000  0.01906000  1.0 -0.1090055319
N  N15  1  0.13136000  0.07184000  0.53208000  1.0 -0.2771009082
N  N16  1  0.06642000  0.02954000  0.51906000  1.0 -0.1090055319
N  N17  1  0.90891000  0.99825000  0.75000000  1.0 -0.2573401058
N  N18  1  0.96729000  0.97557000  0.75000000  1.0 -0.0824759664
N  N19  1  0.09109000  0.00175000  0.25000000  1.0 -0.2573401058
N  N20  1  0.03271000  0.02443000  0.25000000  1.0 -0.0824759664
N  N21  1  0.00175000  0.09109000  0.75000000  1.0 -0.2573401058
N  N22  1  0.02443000  0.03271000  0.75000000  1.0 -0.0824759664
N  N23  1  0.99825000  0.90891000  0.25000000  1.0 -0.2573401058
N  N24  1  0.97557000  0.96729000  0.25000000  1.0 -0.0824759664
O  O1  1  0.41848000  0.68964000  0.67467000  1.0 -0.4844690586
O  O2  1  0.48440000  0.62384000  0.67508000  1.0 -0.5209124937
O  O3  1  0.57002000  0.92636000  0.48224000  1.0 -0.5254257304
O  O4  1  0.46931000  0.89697000  0.54802000  1.0 -0.5080837781
O  O5  1  0.60583000  0.05195000  0.55516000  1.0 -0.5209124937
O  O6  1  0.50740000  0.01668000  0.61584000  1.0 -0.4585758696
O  O7  1  0.58152000  0.31036000  0.17467000  1.0 -0.4844690586
O  O8  1  0.51560000  0.37616000  0.17508000  1.0 -0.5209124937
O  O9  1  0.42998000  0.07364000  0.98224000  1.0 -0.5254257304
O  O10  1  0.53069000  0.10303000  0.04802000  1.0 -0.5080837781
O  O11  1  0.39417000  0.94805000  0.05516000  1.0 -0.5209124937
O  O12  1  0.49260000  0.98332000  0.11584000  1.0 -0.4585758696
O  O13  1  0.31036000  0.58152000  0.82533000  1.0 -0.4844690586
O  O14  1  0.37616000  0.51560000  0.82492000  1.0 -0.5209124937
O  O15  1  0.07364000  0.42998000  0.01776000  1.0 -0.5254257304
O  O16  1  0.10303000  0.53069000  0.95198000  1.0 -0.5080837781
O  O17  1  0.94805000  0.39417000  0.94484000  1.0 -0.5209124937
O  O18  1  0.98332000  0.49260000  0.88416000  1.0 -0.4585758696
O  O19  1  0.68964000  0.41848000  0.32533000  1.0 -0.4844690586
O  O20  1  0.62384000  0.48440000  0.32492000  1.0 -0.5209124937
O  O21  1  0.92636000  0.57002000  0.51776000  1.0 -0.5254257304
O  O22  1  0.89697000  0.46931000  0.45198000  1.0 -0.5080837781
O  O23  1  0.05195000  0.60583000  0.44484000  1.0 -0.5209124937
O  O24  1  0.01668000  0.50740000  0.38416000  1.0 -0.4585758696
O  O25  1  0.58152000  0.31036000  0.32533000  1.0 -0.4844690586
O  O26  1  0.51560000  0.37616000  0.32492000  1.0 -0.5209124937
O  O27  1  0.42998000  0.07364000  0.51776000  1.0 -0.5254257304
O  O28  1  0.53069000  0.10303000  0.45198000  1.0 -0.5080837781
O  O29  1  0.39417000  0.94805000  0.44484000  1.0 -0.5209124937
O  O30  1  0.49260000  0.98332000  0.38416000  1.0 -0.4585758696
O  O31  1  0.41848000  0.68964000  0.82533000  1.0 -0.4844690586
O  O32  1  0.48440000  0.62384000  0.82492000  1.0 -0.5209124937
O  O33  1  0.57002000  0.92636000  0.01776000  1.0 -0.5254257304
O  O34  1  0.46931000  0.89697000  0.95198000  1.0 -0.5080837781
O  O35  1  0.60583000  0.05195000  0.94484000  1.0 -0.5209124937
O  O36  1  0.50740000  0.01668000  0.88416000  1.0 -0.4585758696
O  O37  1  0.68964000  0.41848000  0.17467000  1.0 -0.4844690586
O  O38  1  0.62384000  0.48440000  0.17508000  1.0 -0.5209124937
O  O39  1  0.92636000  0.57002000  0.98224000  1.0 -0.5209124937
O  O40  1  0.89697000  0.46931000  0.04802000  1.0 -0.5080837781
O  O41  1  0.05195000  0.60583000  0.05516000  1.0 -0.5209124937
O  O42  1  0.01668000  0.50740000  0.11584000  1.0 -0.4585758696
O  O43  1  0.31036000  0.58152000  0.67467000  1.0 -0.4844690586
O  O44  1  0.37616000  0.51560000  0.67508000  1.0 -0.5209124937
O  O45  1  0.07364000  0.42998000  0.48224000  1.0 -0.5254257304
O  O46  1  0.10303000  0.53069000  0.54802000  1.0 -0.5080837781
O  O47  1  0.94805000  0.39417000  0.55516000  1.0 -0.5209124937
O  O48  1  0.98332000  0.49260000  0.61584000  1.0 -0.4585758696
