# DDEC6 charges by PACMAN v1.1 (https://github.com/mtap-research/PACMAN-charge/)
data_MIMWIS_ASR_pacman
_symmetry_space_group_name_H-M   'P 1'
_cell_length_a   11.29560000
_cell_length_b   12.08250000
_cell_length_c   13.04220000
_cell_angle_alpha   101.75700000
_cell_angle_beta   100.54700000
_cell_angle_gamma   104.87800000
_symmetry_Int_Tables_number   1
_chemical_formula_structural   EuH5C14S5O6
_chemical_formula_sum   'Eu2 H10 C28 S10 O12'
_cell_volume   1631.28601360
_cell_formula_units_Z   2
loop_
 _symmetry_equiv_pos_site_id
 _symmetry_equiv_pos_as_xyz
  1  'x, y, z'
loop_
 _atom_site_type_symbol
 _atom_site_label
 _atom_site_symmetry_multiplicity
 _atom_site_fract_x
 _atom_site_fract_y
 _atom_site_fract_z
 _atom_site_occupancy
 _atom_site_charge
Eu  Eu1  1  0.31211000  0.47082000  0.45986000  1.0 2.0907009148
Eu  Eu2  1  0.68789000  0.52918000  0.54014000  1.0 2.0907009148
H  H1  1  0.15231000  0.66893000  0.16896000  1.0 0.118191255
H  H2  1  0.84769000  0.33107000  0.83104000  1.0 0.118191255
H  H3  1  0.35971000  0.77481000  0.44579000  1.0 0.1306216025
H  H4  1  0.64029000  0.22519000  0.55421000  1.0 0.1306216025
H  H5  1  0.31561000  0.43697000  0.09353000  1.0 0.1012620643
H  H6  1  0.68439000  0.56303000  0.90647000  1.0 0.1012620643
H  H7  1  0.99100000  0.67910000  0.91489000  1.0 0.118191255
H  H8  1  0.00900000  0.32090000  0.08511000  1.0 0.118191255
H  H9  1  0.31400000  0.45016000  0.84389000  1.0 0.1012620643
H  H10  1  0.68600000  0.54984000  0.15611000  1.0 0.1012620643
C  C1  1  0.15810000  0.49090000  0.27500000  1.0 0.5211828255
C  C2  1  0.84190000  0.50910000  0.72500000  1.0 0.5211828255
C  C3  1  0.09490000  0.49480000  0.16690000  1.0 -0.0288701624
C  C4  1  0.90510000  0.50520000  0.83310000  1.0 -0.0288701624
C  C5  1  0.10300000  0.59070000  0.12870000  1.0 -0.1089122801
C  C6  1  0.89700000  0.40930000  0.87130000  1.0 -0.1089122801
C  C7  1  0.02410000  0.56050000  0.01600000  1.0 -0.0398273061
C  C8  1  0.97590000  0.43950000  0.98400000  1.0 -0.0398273061
C  C9  1  0.58530000  0.72850000  0.53740000  1.0 0.618807187
C  C10  1  0.41470000  0.27150000  0.46260000  1.0 0.618807187
C  C11  1  0.54940000  0.83490000  0.52510000  1.0 -0.1089122801
C  C12  1  0.45060000  0.16510000  0.47490000  1.0 -0.1089122801
C  C13  1  0.43400000  0.84090000  0.47570000  1.0 -0.1767098404
C  C14  1  0.56600000  0.15910000  0.52430000  1.0 -0.1767098404
C  C15  1  0.44130000  0.95920000  0.47570000  1.0 -0.0288701624
C  C16  1  0.55870000  0.04080000  0.52430000  1.0 -0.0288701624
C  C17  1  0.50750000  0.48630000  0.28770000  1.0 0.6054527068
C  C18  1  0.49250000  0.51370000  0.71230000  1.0 0.6054527068
C  C19  1  0.50510000  0.49030000  0.17300000  1.0 -0.0208990561
C  C20  1  0.49490000  0.50970000  0.82700000  1.0 -0.0208990561
C  C21  1  0.40050000  0.46350000  0.08820000  1.0 -0.1089122801
C  C22  1  0.59950000  0.53650000  0.91180000  1.0 -0.1089122801
C  C23  1  0.43500000  0.48040000  0.99250000  1.0 -0.0398273061
C  C24  1  0.56500000  0.51960000  0.00750000  1.0 -0.0398273061
C  C25  1  0.97500000  0.59860000  0.91730000  1.0 -0.1017488747
C  C26  1  0.02500000  0.40140000  0.08270000  1.0 -0.1017488747
C  C27  1  0.40100000  0.47600000  0.88160000  1.0 -0.089860881
C  C28  1  0.59900000  0.52400000  0.11840000  1.0 -0.089860881
S  S1  1  0.99630000  0.63680000  0.92670000  1.0 0.0493056082
S  S2  1  0.00370000  0.36320000  0.07330000  1.0 0.0493056082
S  S3  1  0.33411000  0.02780000  0.42805000  1.0 0.1478604877
S  S4  1  0.66589000  0.97220000  0.57195000  1.0 0.1478604877
S  S5  1  0.35381000  0.46478000  0.86365000  1.0 0.0745743939
S  S6  1  0.64619000  0.53522000  0.13635000  1.0 0.0758620554
S  S7  1  0.10720000  0.62930000  0.13930000  1.0 0.0493056082
S  S8  1  0.89280000  0.37070000  0.86070000  1.0 0.0493056082
S  S9  1  0.35950000  0.44700000  0.08760000  1.0 0.0493056082
S  S10  1  0.64050000  0.55300000  0.91240000  1.0 0.0493056082
O  O1  1  0.23480000  0.58500000  0.33920000  1.0 -0.6289251543
O  O2  1  0.76520000  0.41500000  0.66080000  1.0 -0.6289251543
O  O3  1  0.13520000  0.39360000  0.29970000  1.0 -0.6103776193
O  O4  1  0.86480000  0.60640000  0.70030000  1.0 -0.6103776193
O  O5  1  0.49980000  0.62840000  0.50730000  1.0 -0.7640947795
O  O6  1  0.50020000  0.37160000  0.49270000  1.0 -0.7640947795
O  O7  1  0.69840000  0.73900000  0.57480000  1.0 -0.6103776193
O  O8  1  0.30160000  0.26100000  0.42520000  1.0 -0.6103776193
O  O9  1  0.40370000  0.44700000  0.30750000  1.0 -0.6289251543
O  O10  1  0.59630000  0.55300000  0.69250000  1.0 -0.6289251543
O  O11  1  0.61490000  0.52400000  0.35330000  1.0 -0.6806166566
O  O12  1  0.38510000  0.47600000  0.64670000  1.0 -0.6806166566
