# DDEC6 charges by PACMAN v1.1 (https://github.com/mtap-research/PACMAN-charge/)
data_MIMWUE_ASR_pacman
_symmetry_space_group_name_H-M   'P 1'
_cell_length_a   11.45440000
_cell_length_b   12.05140000
_cell_length_c   13.01010000
_cell_angle_alpha   99.94100000
_cell_angle_beta   100.88600000
_cell_angle_gamma   108.09100000
_symmetry_Int_Tables_number   1
_chemical_formula_structural   EuH18C22S5NO7
_chemical_formula_sum   'Eu2 H36 C44 S10 N2 O14'
_cell_volume   1624.16020844
_cell_formula_units_Z   2
loop_
 _symmetry_equiv_pos_site_id
 _symmetry_equiv_pos_as_xyz
  1  'x, y, z'
loop_
 _atom_site_type_symbol
 _atom_site_label
 _atom_site_symmetry_multiplicity
 _atom_site_fract_x
 _atom_site_fract_y
 _atom_site_fract_z
 _atom_site_occupancy
 _atom_site_charge
Eu  Eu1  1  0.31075000  0.46342000  0.45891000  1.0 1.9765944797
Eu  Eu2  1  0.68925000  0.53658000  0.54109000  1.0 1.9765944797
H  H1  1  0.94493000  0.34869000  0.63843000  1.0 0.0979429986
H  H2  1  0.05507000  0.65131000  0.36157000  1.0 0.0979429986
H  H3  1  0.95028000  0.20253000  0.75826000  1.0 0.0811299141
H  H4  1  0.04972000  0.79747000  0.24174000  1.0 0.0811299141
H  H5  1  0.99917000  0.06006000  0.62779000  1.0 0.0811299141
H  H6  1  0.00083000  0.93994000  0.37221000  1.0 0.0811299141
H  H7  1  0.12129000  0.13957000  0.72623000  1.0 0.0979429986
H  H8  1  0.87871000  0.86043000  0.27377000  1.0 0.0979429986
H  H9  1  0.21084000  0.22174000  0.62281000  1.0 0.0903091411
H  H10  1  0.78916000  0.77826000  0.37719000  1.0 0.0903091411
H  H11  1  0.09301000  0.13688000  0.52398000  1.0 0.1110934677
H  H12  1  0.90699000  0.86312000  0.47602000  1.0 0.1110934677
H  H13  1  0.02158000  0.68619000  0.91314000  1.0 0.130880231
H  H14  1  0.97842000  0.31381000  0.08686000  1.0 0.130880231
H  H15  1  0.36157000  0.76739000  0.44446000  1.0 0.1446974296
H  H16  1  0.63843000  0.23261000  0.55554000  1.0 0.1446974296
H  H17  1  0.31163000  0.43483000  0.09133000  1.0 0.1110934677
H  H18  1  0.68837000  0.56517000  0.90867000  1.0 0.1110934677
H  H19  1  0.06397000  0.24627000  0.40013000  1.0 0.1202683963
H  H20  1  0.93603000  0.75373000  0.59987000  1.0 0.1202683963
H  H21  1  0.95167000  0.19735000  0.64641000  1.0 0.0979429986
H  H22  1  0.04833000  0.80265000  0.35359000  1.0 0.0979429986
H  H23  1  0.07160000  0.30878000  0.64516000  1.0 0.1110934677
H  H24  1  0.92840000  0.69122000  0.35484000  1.0 0.1110934677
H  H25  1  0.07886000  0.17663000  0.62952000  1.0 0.0979429986
H  H26  1  0.92114000  0.82337000  0.37048000  1.0 0.0979429986
H  H27  1  0.79387000  0.11492000  0.48854000  1.0 0.1110934677
H  H28  1  0.20613000  0.88508000  0.51146000  1.0 0.1110934677
H  H29  1  0.86301000  0.02957000  0.43960000  1.0 0.1110934677
H  H30  1  0.13699000  0.97043000  0.56040000  1.0 0.1110934677
H  H31  1  0.82495000  0.11948000  0.37414000  1.0 0.1202683963
H  H32  1  0.17505000  0.88052000  0.62586000  1.0 0.1202683963
H  H33  1  0.14983000  0.66575000  0.17605000  1.0 0.1202683963
H  H34  1  0.85017000  0.33425000  0.82395000  1.0 0.1202683963
H  H35  1  0.31359000  0.42638000  0.83939000  1.0 0.1110934677
H  H36  1  0.68641000  0.57362000  0.16061000  1.0 0.1110934677
C  C1  1  0.08970000  0.29670000  0.57540000  1.0 0.0903091411
C  C2  1  0.91030000  0.70330000  0.42460000  1.0 0.0903091411
C  C3  1  0.99460000  0.29850000  0.63920000  1.0 -0.1264622753
C  C4  1  0.00540000  0.70150000  0.36080000  1.0 -0.1264622753
C  C5  1  0.99130000  0.21140000  0.70160000  1.0 -0.1562075523
C  C6  1  0.00870000  0.78860000  0.29840000  1.0 -0.1562075523
C  C7  1  0.05770000  0.14320000  0.66500000  1.0 -0.170145249
C  C8  1  0.94230000  0.85680000  0.33500000  1.0 -0.170145249
C  C9  1  0.11780000  0.19710000  0.59380000  1.0 -0.1814945248
C  C10  1  0.88220000  0.80290000  0.40620000  1.0 -0.1814945248
C  C11  1  0.15560000  0.48510000  0.27470000  1.0 0.4971961099
C  C12  1  0.84440000  0.51490000  0.72530000  1.0 0.4971961099
C  C13  1  0.09340000  0.49120000  0.16650000  1.0 -0.045976935
C  C14  1  0.90660000  0.50880000  0.83350000  1.0 -0.0449758564
C  C15  1  0.99200000  0.60450000  0.91700000  1.0 -0.1180828643
C  C16  1  0.00800000  0.39550000  0.08300000  1.0 -0.1180828643
C  C17  1  0.03210000  0.56050000  0.01480000  1.0 -0.0594070164
C  C18  1  0.96790000  0.43950000  0.98520000  1.0 -0.0594070164
C  C19  1  0.58900000  0.73200000  0.53490000  1.0 0.5959698576
C  C20  1  0.41100000  0.26800000  0.46510000  1.0 0.5959698576
C  C21  1  0.55200000  0.83720000  0.52300000  1.0 -0.073747566
C  C22  1  0.44800000  0.16280000  0.47700000  1.0 -0.073747566
C  C23  1  0.43570000  0.83750000  0.47480000  1.0 -0.1814945248
C  C24  1  0.56430000  0.16250000  0.52520000  1.0 -0.1814945248
C  C25  1  0.44050000  0.95630000  0.47600000  1.0 -0.010576809
C  C26  1  0.55950000  0.04370000  0.52400000  1.0 -0.010576809
C  C27  1  0.50400000  0.48720000  0.28810000  1.0 0.614117356
C  C28  1  0.49600000  0.51280000  0.71190000  1.0 0.614117356
C  C29  1  0.50280000  0.49040000  0.17350000  1.0 -0.0343058902
C  C30  1  0.49720000  0.50960000  0.82650000  1.0 -0.0343058902
C  C31  1  0.39740000  0.46200000  0.08700000  1.0 -0.0895064604
C  C32  1  0.60260000  0.53800000  0.91300000  1.0 -0.0895064604
C  C33  1  0.43520000  0.47900000  0.99220000  1.0 -0.045976935
C  C34  1  0.56480000  0.52100000  0.00780000  1.0 -0.045976935
C  C35  1  0.05800000  0.27150000  0.47180000  1.0 0.0301570044
C  C36  1  0.94200000  0.72850000  0.52820000  1.0 0.0301570044
C  C37  1  0.02300000  0.22300000  0.61400000  1.0 -0.010576809
C  C38  1  0.97700000  0.77700000  0.38600000  1.0 -0.010576809
C  C39  1  0.85500000  0.10900000  0.44600000  1.0 -0.4694057387
C  C40  1  0.14500000  0.89100000  0.55400000  1.0 -0.4694057387
C  C41  1  0.10300000  0.58660000  0.13220000  1.0 -0.0973546897
C  C42  1  0.89700000  0.41340000  0.86780000  1.0 -0.0973546897
C  C43  1  0.40000000  0.46500000  0.87940000  1.0 -0.1068641227
C  C44  1  0.60000000  0.53500000  0.12060000  1.0 -0.1068641227
S  S1  1  0.12810000  0.62520000  0.13390000  1.0 0.0711643813
S  S2  1  0.87190000  0.37480000  0.86610000  1.0 0.0711643813
S  S3  1  0.33150000  0.02027000  0.43017000  1.0 0.0393669679
S  S4  1  0.66850000  0.97973000  0.56983000  1.0 0.0393669679
S  S5  1  0.35450000  0.46110000  0.86178000  1.0 0.0534419025
S  S6  1  0.64550000  0.53890000  0.13822000  1.0 0.0534419025
S  S7  1  0.01050000  0.64030000  0.92440000  1.0 0.0711643813
S  S8  1  0.98950000  0.35970000  0.07560000  1.0 0.0711643813
S  S9  1  0.35900000  0.43500000  0.08610000  1.0 0.0711643813
S  S10  1  0.64100000  0.56500000  0.91390000  1.0 0.0711643813
N  N1  1  0.97600000  0.20090000  0.50000000  1.0 0.0301570044
N  N2  1  0.02400000  0.79910000  0.50000000  1.0 0.0301570044
O  O1  1  0.12730000  0.36050000  0.51830000  1.0 -0.2944755238
O  O2  1  0.87270000  0.63950000  0.48170000  1.0 -0.2956308406
O  O3  1  0.23900000  0.58040000  0.33790000  1.0 -0.6040627044
O  O4  1  0.76100000  0.41960000  0.66210000  1.0 -0.6040627044
O  O5  1  0.12780000  0.38600000  0.30040000  1.0 -0.5896708948
O  O6  1  0.87220000  0.61400000  0.69960000  1.0 -0.5896708948
O  O7  1  0.50210000  0.62800000  0.50590000  1.0 -0.742413221
O  O8  1  0.49790000  0.37200000  0.49410000  1.0 -0.742413221
O  O9  1  0.70250000  0.74740000  0.57140000  1.0 -0.5896708948
O  O10  1  0.29750000  0.25260000  0.42860000  1.0 -0.5896708948
O  O11  1  0.39880000  0.44350000  0.30690000  1.0 -0.6307762545
O  O12  1  0.60120000  0.55650000  0.69310000  1.0 -0.6307762545
O  O13  1  0.61180000  0.52850000  0.35390000  1.0 -0.6593550127
O  O14  1  0.38820000  0.47150000  0.64610000  1.0 -0.6593550127
