# DDEC6 charges by PACMAN v1.1 (https://github.com/mtap-research/PACMAN-charge/)
data_MIMWOY_ASR_pacman
_symmetry_space_group_name_H-M   'P 1'
_cell_length_a   11.88500000
_cell_length_b   12.08830000
_cell_length_c   13.04180000
_cell_angle_alpha   99.46100000
_cell_angle_beta   101.72900000
_cell_angle_gamma   105.72400000
_symmetry_Int_Tables_number   1
_chemical_formula_structural   EuH5C14S5O6
_chemical_formula_sum   'Eu2 H10 C28 S10 O12'
_cell_volume   1717.38659848
_cell_formula_units_Z   2
loop_
 _symmetry_equiv_pos_site_id
 _symmetry_equiv_pos_as_xyz
  1  'x, y, z'
loop_
 _atom_site_type_symbol
 _atom_site_label
 _atom_site_symmetry_multiplicity
 _atom_site_fract_x
 _atom_site_fract_y
 _atom_site_fract_z
 _atom_site_occupancy
 _atom_site_charge
Eu  Eu1  1  0.67791000  0.52941000  0.54267000  1.0 2.094990826
Eu  Eu2  1  0.32209000  0.47059000  0.45733000  1.0 2.0962668423
H  H1  1  0.87121000  0.33353000  0.83159000  1.0 0.1101449941
H  H2  1  0.12879000  0.66647000  0.16841000  1.0 0.1101449941
H  H3  1  0.67776000  0.57020000  0.91052000  1.0 0.1101449941
H  H4  1  0.32224000  0.42980000  0.08948000  1.0 0.1101449941
H  H5  1  0.62577000  0.22650000  0.57786000  1.0 0.1363807458
H  H6  1  0.37423000  0.77350000  0.42214000  1.0 0.1363807458
H  H7  1  0.00330000  0.30392000  0.06067000  1.0 0.1201840032
H  H8  1  0.99670000  0.69608000  0.93933000  1.0 0.1201840032
H  H9  1  0.67755000  0.54129000  0.15502000  1.0 0.1101449941
H  H10  1  0.32245000  0.45871000  0.84498000  1.0 0.1101449941
C  C1  1  0.82780000  0.51200000  0.73090000  1.0 0.5195849899
C  C2  1  0.17220000  0.48800000  0.26910000  1.0 0.5195849899
C  C3  1  0.89450000  0.50790000  0.83690000  1.0 0.0101176378
C  C4  1  0.10550000  0.49210000  0.16310000  1.0 0.0101176378
C  C5  1  0.90700000  0.41220000  0.87390000  1.0 -0.068803779
C  C6  1  0.09300000  0.58780000  0.12610000  1.0 -0.068803779
C  C7  1  0.97860000  0.44040000  0.98180000  1.0 0.0008277901
C  C8  1  0.02140000  0.55960000  0.01820000  1.0 -0.0013882864
C  C9  1  0.49360000  0.52410000  0.71440000  1.0 0.6132128898
C  C10  1  0.50640000  0.47590000  0.28560000  1.0 0.6132128898
C  C11  1  0.49590000  0.51980000  0.82840000  1.0 -0.0134249284
C  C12  1  0.50410000  0.48020000  0.17160000  1.0 -0.0134249284
C  C13  1  0.59630000  0.54290000  0.91450000  1.0 -0.1068868052
C  C14  1  0.40370000  0.45710000  0.08550000  1.0 -0.1068868052
C  C15  1  0.56200000  0.52060000  0.00840000  1.0 -0.0278894177
C  C16  1  0.43800000  0.47940000  0.99160000  1.0 -0.0278894177
C  C17  1  0.41670000  0.27200000  0.46720000  1.0 0.6287389163
C  C18  1  0.58330000  0.72800000  0.53280000  1.0 0.6287389163
C  C19  1  0.45240000  0.16550000  0.47670000  1.0 -0.1068868052
C  C20  1  0.54760000  0.83450000  0.52330000  1.0 -0.1068868052
C  C21  1  0.55870000  0.15980000  0.53770000  1.0 -0.1799027782
C  C22  1  0.44130000  0.84020000  0.46230000  1.0 -0.1799027782
C  C23  1  0.55450000  0.04120000  0.53240000  1.0 -0.0160116122
C  C24  1  0.44550000  0.95880000  0.46760000  1.0 -0.0160116122
C  C25  1  0.02120000  0.38600000  0.06410000  1.0 -0.2669319447
C  C26  1  0.97880000  0.61400000  0.93590000  1.0 -0.2669319447
C  C27  1  0.59400000  0.51800000  0.11730000  1.0 -0.0902536299
C  C28  1  0.40600000  0.48200000  0.88270000  1.0 -0.0902536299
S  S1  1  0.02456000  0.36118000  0.06802000  1.0 -0.0278894177
S  S2  1  0.97544000  0.63882000  0.93198000  1.0 -0.0278894177
S  S3  1  0.63937000  0.53067000  0.13689000  1.0 0.0866845723
S  S4  1  0.36063000  0.46933000  0.86311000  1.0 0.0866845723
S  S5  1  0.65261000  0.97209000  0.58708000  1.0 0.1505921248
S  S6  1  0.34739000  0.02791000  0.41292000  1.0 0.1505921248
S  S7  1  0.87950000  0.37360000  0.86680000  1.0 0.051314405
S  S8  1  0.12050000  0.62640000  0.13320000  1.0 0.051314405
S  S9  1  0.63350000  0.56490000  0.91760000  1.0 0.051314405
S  S10  1  0.36650000  0.43510000  0.08240000  1.0 0.051314405
O  O1  1  0.85050000  0.60850000  0.70190000  1.0 -0.5735103723
O  O2  1  0.14950000  0.39150000  0.29810000  1.0 -0.5735103723
O  O3  1  0.74910000  0.41910000  0.67140000  1.0 -0.6336868044
O  O4  1  0.25090000  0.58090000  0.32860000  1.0 -0.6369607087
O  O5  1  0.59380000  0.56080000  0.69450000  1.0 -0.6336868044
O  O6  1  0.40620000  0.43920000  0.30550000  1.0 -0.6336868044
O  O7  1  0.39080000  0.48930000  0.64830000  1.0 -0.6760998007
O  O8  1  0.60920000  0.51070000  0.35170000  1.0 -0.6760998007
O  O9  1  0.49640000  0.37300000  0.50300000  1.0 -0.7588263389
O  O10  1  0.50360000  0.62700000  0.49700000  1.0 -0.7588263389
O  O11  1  0.30810000  0.26030000  0.42700000  1.0 -0.6115800675
O  O12  1  0.69190000  0.73970000  0.57300000  1.0 -0.6115800675
