# DDEC6 charges by PACMAN v1.1 (https://github.com/mtap-research/PACMAN-charge/)
data_MIMWEO_FSR_pacman
_symmetry_space_group_name_H-M   'P 1'
_cell_length_a   12.05100000
_cell_length_b   12.08710000
_cell_length_c   12.99780000
_cell_angle_alpha   99.40900000
_cell_angle_beta   101.61700000
_cell_angle_gamma   101.59400000
_symmetry_Int_Tables_number   1
_chemical_formula_structural   EuH35C32S5(NO4)2
_chemical_formula_sum   'Eu2 H70 C64 S10 N4 O16'
_cell_volume   1775.14789616
_cell_formula_units_Z   2
loop_
 _symmetry_equiv_pos_site_id
 _symmetry_equiv_pos_as_xyz
  1  'x, y, z'
loop_
 _atom_site_type_symbol
 _atom_site_label
 _atom_site_symmetry_multiplicity
 _atom_site_fract_x
 _atom_site_fract_y
 _atom_site_fract_z
 _atom_site_occupancy
 _atom_site_charge
Eu  Eu1  1  0.17379000  0.51464000  0.53758000  1.0 1.908470321
Eu  Eu2  1  0.82621000  0.48536000  0.46242000  1.0 1.908470321
H  H1  1  0.45087000  0.65863000  0.31401000  1.0 0.0985415433
H  H2  1  0.54913000  0.34137000  0.68599000  1.0 0.0985415433
H  H3  1  0.53891000  0.60720000  0.39315000  1.0 0.0916700068
H  H4  1  0.46109000  0.39280000  0.60685000  1.0 0.0916700068
H  H5  1  0.66329000  0.78564000  0.44678000  1.0 0.0620963234
H  H6  1  0.33671000  0.21436000  0.55322000  1.0 0.0620963234
H  H7  1  0.57112000  0.83872000  0.37449000  1.0 0.0620963234
H  H8  1  0.42888000  0.16128000  0.62551000  1.0 0.0620963234
H  H9  1  0.42210000  0.79143000  0.60481000  1.0 0.0707258218
H  H10  1  0.57790000  0.20857000  0.39519000  1.0 0.0707258218
H  H11  1  0.58496000  0.98159000  0.65332000  1.0 0.079747489
H  H12  1  0.41504000  0.01841000  0.34668000  1.0 0.079747489
H  H13  1  0.61453000  0.01725000  0.54682000  1.0 0.0916700068
H  H14  1  0.38547000  0.98275000  0.45318000  1.0 0.0916700068
H  H15  1  0.69936000  0.95764000  0.61834000  1.0 0.0916700068
H  H16  1  0.30064000  0.04236000  0.38166000  1.0 0.0916700068
H  H17  1  0.32467000  0.43134000  0.28323000  1.0 0.0515838244
H  H18  1  0.67533000  0.56866000  0.71677000  1.0 0.0515838244
H  H19  1  0.40928000  0.35763000  0.33710000  1.0 0.0515838244
H  H20  1  0.59072000  0.64237000  0.66290000  1.0 0.0515838244
H  H21  1  0.26861000  0.29659000  0.12732000  1.0 0.0707258218
H  H22  1  0.73139000  0.70341000  0.87268000  1.0 0.0707258218
H  H23  1  0.35961000  0.22762000  0.17846000  1.0 0.0707258218
H  H24  1  0.64039000  0.77238000  0.82154000  1.0 0.0707258218
H  H25  1  0.11337000  0.14999000  0.32236000  1.0 0.0916700068
H  H26  1  0.88663000  0.85001000  0.67764000  1.0 0.0916700068
H  H27  1  0.06735000  0.03140000  0.13067000  1.0 0.1084695194
H  H28  1  0.93265000  0.96860000  0.86933000  1.0 0.1084695194
H  H29  1  0.19305000  0.01433000  0.11964000  1.0 0.1230781857
H  H30  1  0.80695000  0.98567000  0.88036000  1.0 0.1230781857
H  H31  1  0.12756000  0.08688000  0.04581000  1.0 0.1230781857
H  H32  1  0.87244000  0.91312000  0.95419000  1.0 0.1230781857
H  H33  1  0.48129000  0.66855000  0.89583000  1.0 0.1304568496
H  H34  1  0.51871000  0.33145000  0.10417000  1.0 0.1304568496
H  H35  1  0.12720000  0.21606000  0.55578000  1.0 0.1304568496
H  H36  1  0.87280000  0.78394000  0.44422000  1.0 0.1304568496
H  H37  1  0.80337000  0.46403000  0.09034000  1.0 0.079747489
H  H38  1  0.19663000  0.53597000  0.90966000  1.0 0.079747489
H  H39  1  0.40074000  0.74808000  0.56418000  1.0 0.0916700068
H  H40  1  0.59926000  0.25192000  0.43582000  1.0 0.0916700068
H  H41  1  0.53580000  0.62509000  0.38723000  1.0 0.1084695194
H  H42  1  0.46420000  0.37491000  0.61277000  1.0 0.1084695194
H  H43  1  0.58019000  0.74778000  0.35885000  1.0 0.0707258218
H  H44  1  0.41981000  0.25222000  0.64115000  1.0 0.0707258218
H  H45  1  0.44565000  0.68016000  0.31632000  1.0 0.0985415433
H  H46  1  0.55435000  0.31984000  0.68368000  1.0 0.0985415433
H  H47  1  0.54757000  0.87824000  0.57151000  1.0 0.0916700068
H  H48  1  0.45243000  0.12176000  0.42849000  1.0 0.0916700068
H  H49  1  0.54697000  0.90022000  0.45331000  1.0 0.0620963234
H  H50  1  0.45303000  0.09978000  0.54669000  1.0 0.0620963234
H  H51  1  0.64304000  0.84217000  0.51203000  1.0 0.0620963234
H  H52  1  0.35696000  0.15783000  0.48797000  1.0 0.0620963234
H  H53  1  0.34591000  0.39807000  0.37483000  1.0 0.0707258218
H  H54  1  0.65409000  0.60193000  0.62517000  1.0 0.0707258218
H  H55  1  0.15020000  0.11899000  0.27420000  1.0 0.0916700068
H  H56  1  0.84980000  0.88101000  0.72580000  1.0 0.0916700068
H  H57  1  0.11199000  0.18152000  0.17808000  1.0 0.0916700068
H  H58  1  0.88801000  0.81848000  0.82192000  1.0 0.0916700068
H  H59  1  0.09428000  0.22755000  0.29486000  1.0 0.0916700068
H  H60  1  0.90572000  0.77245000  0.70514000  1.0 0.0985415433
H  H61  1  0.27842000  0.24511000  0.14585000  1.0 0.0707258218
H  H62  1  0.72158000  0.75489000  0.85415000  1.0 0.0707258218
H  H63  1  0.34745000  0.18221000  0.22759000  1.0 0.079747489
H  H64  1  0.65255000  0.81779000  0.77241000  1.0 0.079747489
H  H65  1  0.38472000  0.31977000  0.24300000  1.0 0.0620963234
H  H66  1  0.61528000  0.68023000  0.75700000  1.0 0.0620963234
H  H67  1  0.64624000  0.66860000  0.14874000  1.0 0.1304568496
H  H68  1  0.35376000  0.33140000  0.85126000  1.0 0.1304568496
H  H69  1  0.83292000  0.51026000  0.82715000  1.0 0.1304568496
H  H70  1  0.16708000  0.48974000  0.17285000  1.0 0.1304568496
C  C1  1  0.41790000  0.66880000  0.46640000  1.0 0.1594865915
C  C2  1  0.58210000  0.33120000  0.53360000  1.0 0.1594865915
C  C3  1  0.49610000  0.66880000  0.38890000  1.0 -0.1116157463
C  C4  1  0.50390000  0.33120000  0.61110000  1.0 -0.1116157463
C  C5  1  0.58110000  0.79160000  0.42970000  1.0 -0.0633489071
C  C6  1  0.41890000  0.20840000  0.57030000  1.0 -0.0633489071
C  C7  1  0.54920000  0.84370000  0.52770000  1.0 -0.010739444
C  C8  1  0.45080000  0.15630000  0.47230000  1.0 -0.010739444
C  C9  1  0.45660000  0.77360000  0.54650000  1.0 -0.1216649429
C  C10  1  0.54340000  0.22640000  0.45350000  1.0 -0.1216649429
C  C11  1  0.61790000  0.96010000  0.59210000  1.0 -0.3732611652
C  C12  1  0.38210000  0.03990000  0.40790000  1.0 -0.3732611652
C  C13  1  0.23580000  0.30690000  0.35700000  1.0 0.1594865915
C  C14  1  0.76420000  0.69310000  0.64300000  1.0 0.1594865915
C  C15  1  0.32930000  0.35380000  0.29640000  1.0 -0.1251528751
C  C16  1  0.67070000  0.64620000  0.70360000  1.0 -0.1251528751
C  C17  1  0.29370000  0.26180000  0.18930000  1.0 -0.1216649429
C  C18  1  0.70630000  0.73820000  0.81070000  1.0 -0.1216649429
C  C19  1  0.19910000  0.17650000  0.20130000  1.0 0.0620963234
C  C20  1  0.80090000  0.82350000  0.79870000  1.0 0.0620963234
C  C21  1  0.17000000  0.20000000  0.29890000  1.0 -0.0680585321
C  C22  1  0.83000000  0.80000000  0.70110000  1.0 -0.0680585321
C  C23  1  0.14180000  0.06780000  0.11700000  1.0 -0.5351166841
C  C24  1  0.85820000  0.93220000  0.88300000  1.0 -0.5351166841
C  C25  1  0.32690000  0.49770000  0.72490000  1.0 0.4067239497
C  C26  1  0.67310000  0.50230000  0.27510000  1.0 0.4067239497
C  C27  1  0.39440000  0.49860000  0.83380000  1.0 -0.0408037038
C  C28  1  0.60560000  0.50140000  0.16620000  1.0 -0.0408037038
C  C29  1  0.52180000  0.55780000  0.00660000  1.0 -0.052013269
C  C30  1  0.47820000  0.44220000  0.99340000  1.0 -0.052013269
C  C31  1  0.46720000  0.59170000  0.90700000  1.0 -0.1592845436
C  C32  1  0.53280000  0.40830000  0.09300000  1.0 -0.1592845436
C  C33  1  0.91800000  0.28010000  0.47470000  1.0 0.594280738
C  C34  1  0.08200000  0.71990000  0.52530000  1.0 0.594280738
C  C35  1  0.95180000  0.16980000  0.48200000  1.0 -0.052013269
C  C36  1  0.04820000  0.83020000  0.51800000  1.0 -0.052013269
C  C37  1  0.05900000  0.15510000  0.52650000  1.0 -0.228241932
C  C38  1  0.94100000  0.84490000  0.47350000  1.0 -0.228241932
C  C39  1  0.05490000  0.03650000  0.52310000  1.0 -0.0024633444
C  C40  1  0.94510000  0.96350000  0.47690000  1.0 -0.0024633444
C  C41  1  0.00040000  0.47250000  0.28450000  1.0 0.5457072143
C  C42  1  0.99960000  0.52750000  0.71550000  1.0 0.5457072143
C  C43  1  0.99880000  0.47910000  0.17090000  1.0 0.0040939242
C  C44  1  0.00120000  0.52090000  0.82910000  1.0 0.0040939242
C  C45  1  0.94120000  0.49810000  0.99510000  1.0 -0.0266004329
C  C46  1  0.05880000  0.50190000  0.00490000  1.0 -0.0238423059
C  C47  1  0.88250000  0.47580000  0.08600000  1.0 -0.1116157463
C  C48  1  0.11750000  0.52420000  0.91400000  1.0 -0.1116157463
C  C49  1  0.41200000  0.70300000  0.50200000  1.0 0.0620963234
C  C50  1  0.58800000  0.29700000  0.49800000  1.0 0.0620963234
C  C51  1  0.51500000  0.69700000  0.37600000  1.0 -0.1592845436
C  C52  1  0.48500000  0.30300000  0.62400000  1.0 -0.1592845436
C  C53  1  0.56200000  0.84800000  0.50200000  1.0 -0.0238423059
C  C54  1  0.43800000  0.15200000  0.49800000  1.0 -0.0238423059
C  C55  1  0.27700000  0.34000000  0.36840000  1.0 0.039711525
C  C56  1  0.72300000  0.66000000  0.63160000  1.0 0.039711525
C  C57  1  0.14500000  0.19300000  0.25600000  1.0 -0.1003413241
C  C58  1  0.85500000  0.80700000  0.74400000  1.0 -0.1003413241
C  C59  1  0.31900000  0.25200000  0.22100000  1.0 -0.1003413241
C  C60  1  0.68100000  0.74800000  0.77900000  1.0 -0.1003413241
C  C61  1  0.60220000  0.59180000  0.11680000  1.0 -0.1216649429
C  C62  1  0.39780000  0.40820000  0.88320000  1.0 -0.1216649429
C  C63  1  0.90800000  0.51060000  0.86700000  1.0 -0.1116157463
C  C64  1  0.09200000  0.48940000  0.13300000  1.0 -0.1116157463
S  S1  1  0.61540000  0.62860000  0.12270000  1.0 0.079747489
S  S2  1  0.38460000  0.37140000  0.87730000  1.0 0.079747489
S  S3  1  0.15530000  0.95894000  0.56366000  1.0 -0.0633489071
S  S4  1  0.84470000  0.04106000  0.43634000  1.0 -0.0680585321
S  S5  1  0.87185000  0.50939000  0.87097000  1.0 0.039711525
S  S6  1  0.12815000  0.49061000  0.12903000  1.0 0.039711525
S  S7  1  0.48640000  0.62420000  0.90950000  1.0 0.079747489
S  S8  1  0.51360000  0.37580000  0.09050000  1.0 0.079747489
S  S9  1  0.91660000  0.49440000  0.09810000  1.0 0.079747489
S  S10  1  0.08340000  0.50560000  0.90190000  1.0 0.079747489
N  N1  1  0.49360000  0.74790000  0.46140000  1.0 0.039711525
N  N2  1  0.50640000  0.25210000  0.53860000  1.0 0.039711525
N  N3  1  0.24740000  0.26190000  0.28110000  1.0 0.039711525
N  N4  1  0.75260000  0.73810000  0.71890000  1.0 0.0333968248
O  O1  1  0.33660000  0.59090000  0.46230000  1.0 -0.4354775067
O  O2  1  0.66340000  0.40910000  0.53770000  1.0 -0.4354775067
O  O3  1  0.23130000  0.35190000  0.44640000  1.0 -0.3844820078
O  O4  1  0.76870000  0.64810000  0.55360000  1.0 -0.3844820078
O  O5  1  0.34420000  0.58990000  0.68990000  1.0 -0.5825173374
O  O6  1  0.65580000  0.41010000  0.31010000  1.0 -0.5825173374
O  O7  1  0.25350000  0.40700000  0.67090000  1.0 -0.5721482004
O  O8  1  0.74650000  0.59300000  0.32910000  1.0 -0.5721482004
O  O9  1  0.99640000  0.37310000  0.50310000  1.0 -0.7057985183
O  O10  1  0.00360000  0.62690000  0.49690000  1.0 -0.7057985183
O  O11  1  0.81310000  0.27800000  0.44150000  1.0 -0.5721482004
O  O12  1  0.18690000  0.72200000  0.55850000  1.0 -0.5721482004
O  O13  1  0.09990000  0.49340000  0.34810000  1.0 -0.6500168558
O  O14  1  0.90010000  0.50660000  0.65190000  1.0 -0.6500168558
O  O15  1  0.90370000  0.44810000  0.30710000  1.0 -0.5974286314
O  O16  1  0.09630000  0.55190000  0.69290000  1.0 -0.5974286314
