# DDEC6 charges by PACMAN v1.1 (https://github.com/mtap-research/PACMAN-charge/)
data_MIMXAL_FSR_pacman
_symmetry_space_group_name_H-M   'P 1'
_cell_length_a   11.99260000
_cell_length_b   12.12140000
_cell_length_c   13.02360000
_cell_angle_alpha   100.91200000
_cell_angle_beta   101.84900000
_cell_angle_gamma   105.29000000
_symmetry_Int_Tables_number   1
_chemical_formula_structural   EuH27C26S5(NO4)2
_chemical_formula_sum   'Eu2 H54 C52 S10 N4 O16'
_cell_volume   1726.82836162
_cell_formula_units_Z   2
loop_
 _symmetry_equiv_pos_site_id
 _symmetry_equiv_pos_as_xyz
  1  'x, y, z'
loop_
 _atom_site_type_symbol
 _atom_site_label
 _atom_site_symmetry_multiplicity
 _atom_site_fract_x
 _atom_site_fract_y
 _atom_site_fract_z
 _atom_site_occupancy
 _atom_site_charge
Eu  Eu1  1  0.67636000  0.52941000  0.54390000  1.0 1.9982838023
Eu  Eu2  1  0.32364000  0.47059000  0.45610000  1.0 1.9982838023
H  H1  1  0.89451000  0.86966000  0.61408000  1.0 0.0999396178
H  H2  1  0.10549000  0.13034000  0.38592000  1.0 0.0999396178
H  H3  1  0.98120000  0.82198000  0.69336000  1.0 0.1196255597
H  H4  1  0.01880000  0.17802000  0.30664000  1.0 0.1196255597
H  H5  1  0.14010000  0.93659000  0.66765000  1.0 0.0796937893
H  H6  1  0.85990000  0.06341000  0.33235000  1.0 0.0796937893
H  H7  1  0.05421000  0.99895000  0.60532000  1.0 0.0796937893
H  H8  1  0.94579000  0.00105000  0.39468000  1.0 0.0796937893
H  H9  1  0.14400000  0.89823000  0.46522000  1.0 0.0496266249
H  H10  1  0.85600000  0.10177000  0.53478000  1.0 0.0496266249
H  H11  1  0.07009000  0.71696000  0.33643000  1.0 0.0716526962
H  H12  1  0.92991000  0.28304000  0.66357000  1.0 0.0716526962
H  H13  1  0.92699000  0.66543000  0.30889000  1.0 0.0796937893
H  H14  1  0.07301000  0.33457000  0.69111000  1.0 0.0796937893
H  H15  1  0.00919000  0.60611000  0.37836000  1.0 0.0886470505
H  H16  1  0.99081000  0.39389000  0.62164000  1.0 0.0886470505
H  H17  1  0.86280000  0.41328000  0.38572000  1.0 0.1128110849
H  H18  1  0.13720000  0.58672000  0.61428000  1.0 0.1128110849
H  H19  1  0.80792000  0.19042000  0.18569000  1.0 0.1196255597
H  H20  1  0.19208000  0.80958000  0.81431000  1.0 0.1196255597
H  H21  1  0.88013000  0.32903000  0.22684000  1.0 0.0999396178
H  H22  1  0.11987000  0.67097000  0.77316000  1.0 0.0999396178
H  H23  1  0.75420000  0.28255000  0.13609000  1.0 0.0999396178
H  H24  1  0.24580000  0.71745000  0.86391000  1.0 0.0999396178
H  H25  1  0.57624000  0.18297000  0.18691000  1.0 0.1128110849
H  H26  1  0.42376000  0.81703000  0.81309000  1.0 0.1128110849
H  H27  1  0.57220000  0.24423000  0.30568000  1.0 0.1285816438
H  H28  1  0.42780000  0.75577000  0.69432000  1.0 0.1285816438
H  H29  1  0.61825000  0.13140000  0.28737000  1.0 0.1128110849
H  H30  1  0.38175000  0.86860000  0.71263000  1.0 0.1128110849
H  H31  1  0.85409000  0.32765000  0.83529000  1.0 0.1196255597
H  H32  1  0.14591000  0.67235000  0.16471000  1.0 0.1285816438
H  H33  1  0.62470000  0.22709000  0.57619000  1.0 0.1484092164
H  H34  1  0.37530000  0.77291000  0.42381000  1.0 0.1484092164
H  H35  1  0.67621000  0.56802000  0.91286000  1.0 0.1196255597
H  H36  1  0.32379000  0.43198000  0.08714000  1.0 0.1196255597
H  H37  1  0.00245000  0.31974000  0.06975000  1.0 0.1285816438
H  H38  1  0.99755000  0.68026000  0.93025000  1.0 0.1285816438
H  H39  1  0.67083000  0.53086000  0.15519000  1.0 0.1285816438
H  H40  1  0.32917000  0.46914000  0.84481000  1.0 0.1285816438
H  H41  1  0.19275000  0.87076000  0.53589000  1.0 0.0496266249
H  H42  1  0.80725000  0.12924000  0.46411000  1.0 0.0496266249
H  H43  1  0.12477000  0.89640000  0.62701000  1.0 0.0886470505
H  H44  1  0.87523000  0.10360000  0.37299000  1.0 0.0886470505
H  H45  1  0.10236000  0.94662000  0.52207000  1.0 0.0796937893
H  H46  1  0.89764000  0.05338000  0.47793000  1.0 0.0796937893
H  H47  1  0.90523000  0.77582000  0.56655000  1.0 0.0886470505
H  H48  1  0.09477000  0.22418000  0.43345000  1.0 0.0886470505
H  H49  1  0.03756000  0.78521000  0.34432000  1.0 0.0796937893
H  H50  1  0.96244000  0.21479000  0.65568000  1.0 0.0796937893
H  H51  1  0.11900000  0.71580000  0.40001000  1.0 0.0999396178
H  H52  1  0.88100000  0.28420000  0.59999000  1.0 0.0999396178
H  H53  1  0.97757000  0.65260000  0.34979000  1.0 0.0565257656
H  H54  1  0.02243000  0.34740000  0.65021000  1.0 0.0565257656
C  C1  1  0.93100000  0.72260000  0.53120000  1.0 0.0120010671
C  C2  1  0.06900000  0.27740000  0.46880000  1.0 0.0120010671
C  C3  1  0.96270000  0.83750000  0.62080000  1.0 -0.2331450296
C  C4  1  0.03730000  0.16250000  0.37920000  1.0 -0.2331450296
C  C5  1  0.06850000  0.92250000  0.60730000  1.0 -0.167879795
C  C6  1  0.93150000  0.07750000  0.39270000  1.0 -0.167879795
C  C7  1  0.08580000  0.86540000  0.50000000  1.0 0.0195466976
C  C8  1  0.91420000  0.13460000  0.50000000  1.0 0.0195466976
C  C9  1  0.00520000  0.76300000  0.46610000  1.0 -0.0513148382
C  C10  1  0.99480000  0.23700000  0.53390000  1.0 -0.0513148382
C  C11  1  0.00270000  0.68080000  0.36360000  1.0 -0.1356231508
C  C12  1  0.99730000  0.31920000  0.63640000  1.0 -0.1356231508
C  C13  1  0.78520000  0.36030000  0.37640000  1.0 0.1285816438
C  C14  1  0.21480000  0.63970000  0.62360000  1.0 0.1196255597
C  C15  1  0.80010000  0.26990000  0.20180000  1.0 -0.380655573
C  C16  1  0.19990000  0.73010000  0.79820000  1.0 -0.380655573
C  C17  1  0.61630000  0.20360000  0.26470000  1.0 -0.2910743368
C  C18  1  0.38370000  0.79640000  0.73530000  1.0 -0.2910743368
C  C19  1  0.82500000  0.51000000  0.73060000  1.0 0.4767715323
C  C20  1  0.17500000  0.49000000  0.26940000  1.0 0.4767715323
C  C21  1  0.89330000  0.50600000  0.83710000  1.0 -0.0596744169
C  C22  1  0.10670000  0.49400000  0.16290000  1.0 -0.0596744169
C  C23  1  0.97340000  0.43990000  0.98170000  1.0 -0.0709427588
C  C24  1  0.02660000  0.56010000  0.01830000  1.0 -0.0709427588
C  C25  1  0.89720000  0.40700000  0.87540000  1.0 -0.1008780551
C  C26  1  0.10280000  0.59300000  0.12460000  1.0 -0.1008780551
C  C27  1  0.41690000  0.27030000  0.46440000  1.0 0.6124671089
C  C28  1  0.58310000  0.72970000  0.53560000  1.0 0.6124671089
C  C29  1  0.45170000  0.16430000  0.47440000  1.0 -0.0709427588
C  C30  1  0.54830000  0.83570000  0.52560000  1.0 -0.0709427588
C  C31  1  0.55790000  0.15970000  0.53610000  1.0 -0.167879795
C  C32  1  0.44210000  0.84030000  0.46390000  1.0 -0.167879795
C  C33  1  0.55390000  0.04140000  0.53170000  1.0 -0.0024278718
C  C34  1  0.44610000  0.95860000  0.46830000  1.0 -0.0024278718
C  C35  1  0.49500000  0.52890000  0.71600000  1.0 0.6169838297
C  C36  1  0.50500000  0.47110000  0.28400000  1.0 0.6169838297
C  C37  1  0.49600000  0.52290000  0.82960000  1.0 -0.0513148382
C  C38  1  0.50400000  0.47710000  0.17040000  1.0 -0.0513148382
C  C39  1  0.56180000  0.51840000  0.00890000  1.0 -0.0513148382
C  C40  1  0.43820000  0.48160000  0.99110000  1.0 -0.0513148382
C  C41  1  0.59540000  0.54210000  0.91620000  1.0 -0.1008780551
C  C42  1  0.40460000  0.45790000  0.08380000  1.0 -0.1008780551
C  C43  1  0.02300000  0.40100000  0.07020000  1.0 -0.1164072913
C  C44  1  0.97700000  0.59900000  0.92980000  1.0 -0.1164072913
C  C45  1  0.58900000  0.51100000  0.11700000  1.0 -0.0796087806
C  C46  1  0.41100000  0.48900000  0.88300000  1.0 -0.0796087806
C  C47  1  0.92390000  0.72380000  0.51320000  1.0 0.0120010671
C  C48  1  0.07610000  0.27620000  0.48680000  1.0 0.0120010671
C  C49  1  0.04020000  0.72800000  0.38810000  1.0 -0.0903851894
C  C50  1  0.95980000  0.27200000  0.61190000  1.0 -0.0903851894
C  C51  1  0.11780000  0.88030000  0.54890000  1.0 -0.0903851894
C  C52  1  0.88220000  0.11970000  0.45110000  1.0 -0.0903851894
S  S1  1  0.01681000  0.36339000  0.07048000  1.0 0.0999396178
S  S2  1  0.98319000  0.63661000  0.92952000  1.0 0.0999396178
S  S3  1  0.65225000  0.97463000  0.58853000  1.0 -0.011419728
S  S4  1  0.34775000  0.02537000  0.41147000  1.0 -0.011419728
S  S5  1  0.63785000  0.52274000  0.13619000  1.0 0.1196255597
S  S6  1  0.36215000  0.47726000  0.86381000  1.0 0.1196255597
S  S7  1  0.86840000  0.37260000  0.86420000  1.0 0.0886470505
S  S8  1  0.13160000  0.62740000  0.13580000  1.0 0.0886470505
S  S9  1  0.63310000  0.56090000  0.91750000  1.0 0.0796937893
S  S10  1  0.36690000  0.43910000  0.08250000  1.0 0.0796937893
N  N1  1  0.73850000  0.28140000  0.28570000  1.0 -0.0903851894
N  N2  1  0.26150000  0.71860000  0.71430000  1.0 -0.1008780551
N  N3  1  0.02020000  0.77350000  0.49290000  1.0 0.0716526962
N  N4  1  0.97980000  0.22650000  0.50710000  1.0 0.0716526962
O  O1  1  0.84900000  0.62700000  0.48240000  1.0 -0.3399398041
O  O2  1  0.15100000  0.37300000  0.51760000  1.0 -0.3399398041
O  O3  1  0.74040000  0.37460000  0.45230000  1.0 -0.4926816833
O  O4  1  0.25960000  0.62540000  0.54770000  1.0 -0.4926816833
O  O5  1  0.74340000  0.41810000  0.67170000  1.0 -0.5701297534
O  O6  1  0.25660000  0.58190000  0.32830000  1.0 -0.5701297534
O  O7  1  0.85070000  0.60520000  0.70200000  1.0 -0.5701297534
O  O8  1  0.14930000  0.39480000  0.29800000  1.0 -0.5701297534
O  O9  1  0.49560000  0.37210000  0.50130000  1.0 -0.7350357187
O  O10  1  0.50440000  0.62790000  0.49870000  1.0 -0.7350357187
O  O11  1  0.30910000  0.25880000  0.42200000  1.0 -0.5872703207
O  O12  1  0.69090000  0.74120000  0.57800000  1.0 -0.5872703207
O  O13  1  0.59400000  0.56470000  0.69660000  1.0 -0.6270742428
O  O14  1  0.40600000  0.43530000  0.30340000  1.0 -0.6270742428
O  O15  1  0.39250000  0.49410000  0.64840000  1.0 -0.6368401957
O  O16  1  0.60750000  0.50590000  0.35160000  1.0 -0.6368401957
