# DDEC6 charges by PACMAN v1.1 (https://github.com/mtap-research/PACMAN-charge/)
data_MINCET_ASR_pacman
_symmetry_space_group_name_H-M   'P 1'
_cell_length_a   15.16280000
_cell_length_b   15.16280000
_cell_length_c   26.57450000
_cell_angle_alpha   70.51890000
_cell_angle_beta   109.48100000
_cell_angle_gamma   115.60500000
_symmetry_Int_Tables_number   1
_chemical_formula_structural   TbH27C29(NO4)2
_chemical_formula_sum   'Tb4 H108 C116 N8 O32'
_cell_volume   5063.82637624
_cell_formula_units_Z   4
loop_
 _symmetry_equiv_pos_site_id
 _symmetry_equiv_pos_as_xyz
  1  'x, y, z'
loop_
 _atom_site_type_symbol
 _atom_site_label
 _atom_site_symmetry_multiplicity
 _atom_site_fract_x
 _atom_site_fract_y
 _atom_site_fract_z
 _atom_site_occupancy
 _atom_site_charge
Tb  Tb1  1  0.08096000  0.20684000  0.94706000  1.0 1.9793799335
Tb  Tb2  1  0.20684000  0.08096000  0.55294000  1.0 1.9793799335
Tb  Tb3  1  0.91904000  0.79316000  0.05294000  1.0 1.9793799335
Tb  Tb4  1  0.79316000  0.91904000  0.44706000  1.0 1.9793799335
H  H1  1  0.97770000  0.16010000  0.75730000  1.0 0.1209700693
H  H2  1  0.16010000  0.97770000  0.74270000  1.0 0.1209700693
H  H3  1  0.02230000  0.83990000  0.24270000  1.0 0.1209700693
H  H4  1  0.83990000  0.02230000  0.25730000  1.0 0.1209700693
H  H5  1  0.64990000  0.14550000  0.72820000  1.0 0.1209700693
H  H6  1  0.14550000  0.64990000  0.77180000  1.0 0.1209700693
H  H7  1  0.35010000  0.85450000  0.27180000  1.0 0.1209700693
H  H8  1  0.85450000  0.35010000  0.22820000  1.0 0.1209700693
H  H9  1  0.76930000  0.18990000  0.80610000  1.0 0.1311912784
H  H10  1  0.18990000  0.76930000  0.69390000  1.0 0.1311912784
H  H11  1  0.23070000  0.81010000  0.19390000  1.0 0.1311912784
H  H12  1  0.81010000  0.23070000  0.30610000  1.0 0.1311912784
H  H13  1  0.79180000  0.07460000  0.53630000  1.0 0.1066584049
H  H14  1  0.07460000  0.79180000  0.96370000  1.0 0.1066584049
H  H15  1  0.20820000  0.92540000  0.46370000  1.0 0.1066584049
H  H16  1  0.92540000  0.20820000  0.03630000  1.0 0.1066584049
H  H17  1  0.01790000  0.13570000  0.70110000  1.0 0.1311912784
H  H18  1  0.13570000  0.01790000  0.79890000  1.0 0.1311912784
H  H19  1  0.98210000  0.86430000  0.29890000  1.0 0.1311912784
H  H20  1  0.86430000  0.98210000  0.20110000  1.0 0.1311912784
H  H21  1  0.07090000  0.11790000  0.63300000  1.0 0.1209700693
H  H22  1  0.11790000  0.07090000  0.86700000  1.0 0.1209700693
H  H23  1  0.92910000  0.88210000  0.36700000  1.0 0.1209700693
H  H24  1  0.88210000  0.92910000  0.13300000  1.0 0.1209700693
H  H25  1  0.55580000  0.12780000  0.65460000  1.0 0.1209700693
H  H26  1  0.12780000  0.55580000  0.84540000  1.0 0.1209700693
H  H27  1  0.44420000  0.87220000  0.34540000  1.0 0.1209700693
H  H28  1  0.87220000  0.44420000  0.15460000  1.0 0.1209700693
H  H29  1  0.65250000  0.07570000  0.52210000  1.0 0.1311912784
H  H30  1  0.07570000  0.65250000  0.97790000  1.0 0.1311912784
H  H31  1  0.34750000  0.92430000  0.47790000  1.0 0.1311912784
H  H32  1  0.92430000  0.34750000  0.02210000  1.0 0.1311912784
H  H33  1  0.49280000  0.06680000  0.50830000  1.0 0.1209700693
H  H34  1  0.06680000  0.49280000  0.99170000  1.0 0.1209700693
H  H35  1  0.50720000  0.93320000  0.49170000  1.0 0.1209700693
H  H36  1  0.93320000  0.50720000  0.00830000  1.0 0.1209700693
H  H37  1  0.19890000  0.04990000  0.14940000  1.0 0.0924615974
H  H38  1  0.04990000  0.19890000  0.35060000  1.0 0.0924615974
H  H39  1  0.80110000  0.95010000  0.85060000  1.0 0.0924615974
H  H40  1  0.95010000  0.80110000  0.64940000  1.0 0.0924615974
H  H41  1  0.09550000  0.01290000  0.10620000  1.0 0.1311912784
H  H42  1  0.01290000  0.09550000  0.39380000  1.0 0.1311912784
H  H43  1  0.90450000  0.98710000  0.89380000  1.0 0.1311912784
H  H44  1  0.98710000  0.90450000  0.60620000  1.0 0.1311912784
H  H45  1  0.19980000  0.04400000  0.09060000  1.0 0.1410525306
H  H46  1  0.04400000  0.19980000  0.40940000  1.0 0.1410525306
H  H47  1  0.80020000  0.95600000  0.90940000  1.0 0.1410525306
H  H48  1  0.95600000  0.80020000  0.59060000  1.0 0.1410525306
H  H49  1  0.22650000  0.35330000  0.07620000  1.0 0.1410525306
H  H50  1  0.35330000  0.22650000  0.42380000  1.0 0.1410525306
H  H51  1  0.77350000  0.64670000  0.92380000  1.0 0.1410525306
H  H52  1  0.64670000  0.77350000  0.57620000  1.0 0.1410525306
H  H53  1  0.10840000  0.31860000  0.07030000  1.0 0.1209700693
H  H54  1  0.31860000  0.10840000  0.42970000  1.0 0.1209700693
H  H55  1  0.89160000  0.68140000  0.92970000  1.0 0.1209700693
H  H56  1  0.68140000  0.89160000  0.57030000  1.0 0.1209700693
H  H57  1  0.18570000  0.35690000  0.12350000  1.0 0.1311912784
H  H58  1  0.35690000  0.18570000  0.37650000  1.0 0.1311912784
H  H59  1  0.81430000  0.64310000  0.87650000  1.0 0.1311912784
H  H60  1  0.64310000  0.81430000  0.62350000  1.0 0.1311912784
H  H61  1  0.20410000  0.11030000  0.19210000  1.0 0.0695033262
H  H62  1  0.11030000  0.20410000  0.30790000  1.0 0.0695033262
H  H63  1  0.79590000  0.88970000  0.80790000  1.0 0.0695033262
H  H64  1  0.88970000  0.79590000  0.69210000  1.0 0.0695033262
H  H65  1  0.18610000  0.19410000  0.20710000  1.0 0.0807495094
H  H66  1  0.19410000  0.18610000  0.29290000  1.0 0.0807495094
H  H67  1  0.81390000  0.80590000  0.79290000  1.0 0.0807495094
H  H68  1  0.80590000  0.81390000  0.70710000  1.0 0.0807495094
H  H69  1  0.09250000  0.10590000  0.18240000  1.0 0.0980402469
H  H70  1  0.10590000  0.09250000  0.31760000  1.0 0.0980402469
H  H71  1  0.90750000  0.89410000  0.81760000  1.0 0.0980402469
H  H72  1  0.89410000  0.90750000  0.68240000  1.0 0.0980402469
H  H73  1  0.83410000  0.65390000  0.60450000  1.0 0.1410525306
H  H74  1  0.65390000  0.83410000  0.89550000  1.0 0.1410525306
H  H75  1  0.16590000  0.34610000  0.39550000  1.0 0.1410525306
H  H76  1  0.34610000  0.16590000  0.10450000  1.0 0.1410525306
H  H77  1  0.71890000  0.63010000  0.60110000  1.0 0.1488219148
H  H78  1  0.63010000  0.71890000  0.89890000  1.0 0.1488219148
H  H79  1  0.28110000  0.36990000  0.39890000  1.0 0.1488219148
H  H80  1  0.36990000  0.28110000  0.10110000  1.0 0.1488219148
H  H81  1  0.80330000  0.66690000  0.65280000  1.0 0.0924615974
H  H82  1  0.66690000  0.80330000  0.84720000  1.0 0.0924615974
H  H83  1  0.19670000  0.33310000  0.34720000  1.0 0.0924615974
H  H84  1  0.33310000  0.19670000  0.15280000  1.0 0.0924615974
H  H85  1  0.81840000  0.94800000  0.54550000  1.0 0.1730151402
H  H86  1  0.94800000  0.81840000  0.95450000  1.0 0.1730151402
H  H87  1  0.18160000  0.05200000  0.45450000  1.0 0.1730151402
H  H88  1  0.05200000  0.18160000  0.04550000  1.0 0.1730151402
H  H89  1  0.90710000  0.01350000  0.58630000  1.0 0.0980402469
H  H90  1  0.01350000  0.90710000  0.91370000  1.0 0.0980402469
H  H91  1  0.09290000  0.98650000  0.41370000  1.0 0.0980402469
H  H92  1  0.98650000  0.09290000  0.08630000  1.0 0.0980402469
H  H93  1  0.79630000  0.95950000  0.59730000  1.0 0.1066584049
H  H94  1  0.95950000  0.79630000  0.90270000  1.0 0.1066584049
H  H95  1  0.20370000  0.04050000  0.40270000  1.0 0.1066584049
H  H96  1  0.04050000  0.20370000  0.09730000  1.0 0.1066584049
H  H97  1  0.91030000  0.85470000  0.69700000  1.0 0.0980402469
H  H98  1  0.85470000  0.91030000  0.80300000  1.0 0.0980402469
H  H99  1  0.08970000  0.14530000  0.30300000  1.0 0.0980402469
H  H100  1  0.14530000  0.08970000  0.19700000  1.0 0.0980402469
H  H101  1  0.87400000  0.74680000  0.68420000  1.0 0.0807495094
H  H102  1  0.74680000  0.87400000  0.81580000  1.0 0.0807495094
H  H103  1  0.12600000  0.25320000  0.31580000  1.0 0.0807495094
H  H104  1  0.25320000  0.12600000  0.18420000  1.0 0.0807495094
H  H105  1  0.79470000  0.78310000  0.69070000  1.0 0.0807495094
H  H106  1  0.78310000  0.79470000  0.80930000  1.0 0.0807495094
H  H107  1  0.20530000  0.21690000  0.30930000  1.0 0.0807495094
H  H108  1  0.21690000  0.20530000  0.19070000  1.0 0.0807495094
C  C1  1  0.95720000  0.19300000  0.84410000  1.0 0.5488622302
C  C2  1  0.19300000  0.95720000  0.65590000  1.0 0.5488622302
C  C3  1  0.04280000  0.80700000  0.15590000  1.0 0.5488622302
C  C4  1  0.80700000  0.04280000  0.34410000  1.0 0.5488622302
C  C5  1  0.88400000  0.17440000  0.79120000  1.0 -0.0131568902
C  C6  1  0.17440000  0.88400000  0.70880000  1.0 -0.0131568902
C  C7  1  0.11600000  0.82560000  0.20880000  1.0 -0.0131568902
C  C8  1  0.82560000  0.11600000  0.29120000  1.0 -0.0131568902
C  C9  1  0.91160000  0.15880000  0.75090000  1.0 -0.1518515477
C  C10  1  0.15880000  0.91160000  0.74910000  1.0 -0.1518515477
C  C11  1  0.08840000  0.84120000  0.24910000  1.0 -0.1518515477
C  C12  1  0.84120000  0.08840000  0.25090000  1.0 -0.1518515477
C  C13  1  0.84340000  0.14100000  0.70040000  1.0 0.020569292
C  C14  1  0.14100000  0.84340000  0.79960000  1.0 0.020569292
C  C15  1  0.15660000  0.85900000  0.29960000  1.0 0.020569292
C  C16  1  0.85900000  0.15660000  0.20040000  1.0 0.020569292
C  C17  1  0.74810000  0.13910000  0.69100000  1.0 0.020569292
C  C18  1  0.13910000  0.74810000  0.80900000  1.0 0.020569292
C  C19  1  0.25190000  0.86090000  0.30900000  1.0 0.020569292
C  C20  1  0.86090000  0.25190000  0.19100000  1.0 0.020569292
C  C21  1  0.71730000  0.15210000  0.73300000  1.0 -0.1518515477
C  C22  1  0.15210000  0.71730000  0.76700000  1.0 -0.1518515477
C  C23  1  0.28270000  0.84790000  0.26700000  1.0 -0.1518515477
C  C24  1  0.84790000  0.28270000  0.23300000  1.0 -0.1518515477
C  C25  1  0.78750000  0.17410000  0.78010000  1.0 -0.098223501
C  C26  1  0.17410000  0.78750000  0.71990000  1.0 -0.098223501
C  C27  1  0.21250000  0.82590000  0.21990000  1.0 -0.098223501
C  C28  1  0.82590000  0.21250000  0.28010000  1.0 -0.098223501
C  C29  1  0.96220000  0.07080000  0.53600000  1.0 0.6194402987
C  C30  1  0.07080000  0.96220000  0.96400000  1.0 0.6194402987
C  C31  1  0.03780000  0.92920000  0.46400000  1.0 0.6194402987
C  C32  1  0.92920000  0.03780000  0.03600000  1.0 0.6194402987
C  C33  1  0.93290000  0.09010000  0.57930000  1.0 -0.098223501
C  C34  1  0.09010000  0.93290000  0.92070000  1.0 -0.098223501
C  C35  1  0.06710000  0.90990000  0.42070000  1.0 -0.098223501
C  C36  1  0.90990000  0.06710000  0.07930000  1.0 -0.098223501
C  C37  1  0.83760000  0.08780000  0.56990000  1.0 -0.1630465685
C  C38  1  0.08780000  0.83760000  0.93010000  1.0 -0.1630465685
C  C39  1  0.16240000  0.91220000  0.43010000  1.0 -0.1630465685
C  C40  1  0.91220000  0.16240000  0.06990000  1.0 -0.1630465685
C  C41  1  0.80570000  0.10470000  0.60970000  1.0 0.0141604228
C  C42  1  0.10470000  0.80570000  0.89030000  1.0 0.0141604228
C  C43  1  0.19430000  0.89530000  0.39030000  1.0 0.0141604228
C  C44  1  0.89530000  0.19430000  0.10970000  1.0 0.020569292
C  C45  1  0.87640000  0.12360000  0.65970000  1.0 0.0333408045
C  C46  1  0.12360000  0.87640000  0.84030000  1.0 0.0333408045
C  C47  1  0.12360000  0.87640000  0.34030000  1.0 0.0333408045
C  C48  1  0.87640000  0.12360000  0.15970000  1.0 0.0333408045
C  C49  1  0.97180000  0.12520000  0.66730000  1.0 -0.1674732713
C  C50  1  0.12520000  0.97180000  0.83270000  1.0 -0.1674732713
C  C51  1  0.02820000  0.87480000  0.33270000  1.0 -0.1674732713
C  C52  1  0.87480000  0.02820000  0.16730000  1.0 -0.1674732713
C  C53  1  0.00350000  0.11210000  0.62750000  1.0 -0.0723425651
C  C54  1  0.11210000  0.00350000  0.87250000  1.0 -0.0723425651
C  C55  1  0.99650000  0.88790000  0.37250000  1.0 -0.0723425651
C  C56  1  0.88790000  0.99650000  0.12750000  1.0 -0.0723425651
C  C57  1  0.40350000  0.09270000  0.56980000  1.0 0.5689252133
C  C58  1  0.09270000  0.40350000  0.93020000  1.0 0.5689252133
C  C59  1  0.59650000  0.90730000  0.43020000  1.0 0.5689252133
C  C60  1  0.90730000  0.59650000  0.06980000  1.0 0.5689252133
C  C61  1  0.50990000  0.09910000  0.58050000  1.0 0.0010888141
C  C62  1  0.09910000  0.50990000  0.91950000  1.0 0.0010888141
C  C63  1  0.49010000  0.90090000  0.41950000  1.0 0.0010888141
C  C64  1  0.90090000  0.49010000  0.08050000  1.0 0.0010888141
C  C65  1  0.57680000  0.11700000  0.62800000  1.0 -0.1411180904
C  C66  1  0.11700000  0.57680000  0.87200000  1.0 -0.1411180904
C  C67  1  0.42320000  0.88300000  0.37200000  1.0 -0.1411180904
C  C68  1  0.88300000  0.42320000  0.12800000  1.0 -0.1411180904
C  C69  1  0.67430000  0.12050000  0.63990000  1.0 0.0333408045
C  C70  1  0.12050000  0.67430000  0.86010000  1.0 0.0333408045
C  C71  1  0.32570000  0.87950000  0.36010000  1.0 0.0333408045
C  C72  1  0.87950000  0.32570000  0.13990000  1.0 0.0333408045
C  C73  1  0.70410000  0.10170000  0.59960000  1.0 0.0483538249
C  C74  1  0.10170000  0.70410000  0.90040000  1.0 0.0483538249
C  C75  1  0.29590000  0.89830000  0.40040000  1.0 0.0483538249
C  C76  1  0.89830000  0.29590000  0.09960000  1.0 0.0483538249
C  C77  1  0.63320000  0.08480000  0.55010000  1.0 -0.1255322879
C  C78  1  0.08480000  0.63320000  0.94990000  1.0 -0.1255322879
C  C79  1  0.36680000  0.91520000  0.44990000  1.0 -0.1255322879
C  C80  1  0.91520000  0.36680000  0.05010000  1.0 -0.1255322879
C  C81  1  0.53960000  0.08140000  0.54140000  1.0 -0.098223501
C  C82  1  0.08140000  0.53960000  0.95860000  1.0 -0.098223501
C  C83  1  0.46040000  0.91860000  0.45860000  1.0 -0.098223501
C  C84  1  0.91860000  0.46040000  0.04140000  1.0 -0.098223501
C  C85  1  0.16970000  0.16490000  0.08800000  1.0 0.251408931
C  C86  1  0.16490000  0.16970000  0.41200000  1.0 0.251408931
C  C87  1  0.83030000  0.83510000  0.91200000  1.0 0.251408931
C  C88  1  0.83510000  0.83030000  0.58800000  1.0 0.251408931
C  C89  1  0.16560000  0.05860000  0.11050000  1.0 -0.3615823721
C  C90  1  0.05860000  0.16560000  0.38950000  1.0 -0.3615823721
C  C91  1  0.83440000  0.94140000  0.88950000  1.0 -0.3615823721
C  C92  1  0.94140000  0.83440000  0.61050000  1.0 -0.3615823721
C  C93  1  0.17250000  0.32010000  0.09610000  1.0 -0.4444610562
C  C94  1  0.32010000  0.17250000  0.40390000  1.0 -0.4444610562
C  C95  1  0.82750000  0.67990000  0.90390000  1.0 -0.4444610562
C  C96  1  0.67990000  0.82750000  0.59610000  1.0 -0.4452170616
C  C97  1  0.16210000  0.15050000  0.18150000  1.0 -0.1630465685
C  C98  1  0.15050000  0.16210000  0.31850000  1.0 -0.1630465685
C  C99  1  0.83790000  0.84950000  0.81850000  1.0 -0.1630465685
C  C100  1  0.84950000  0.83790000  0.68150000  1.0 -0.1630465685
C  C101  1  0.80120000  0.78040000  0.58450000  1.0 0.3050375396
C  C102  1  0.78040000  0.80120000  0.91550000  1.0 0.3050375396
C  C103  1  0.19880000  0.21960000  0.41550000  1.0 0.3050375396
C  C104  1  0.21960000  0.19880000  0.08450000  1.0 0.3050375396
C  C105  1  0.78840000  0.67360000  0.61320000  1.0 -0.531199876
C  C106  1  0.67360000  0.78840000  0.88680000  1.0 -0.531199876
C  C107  1  0.21160000  0.32640000  0.38680000  1.0 -0.531199876
C  C108  1  0.32640000  0.21160000  0.11320000  1.0 -0.531199876
C  C109  1  0.84610000  0.95390000  0.58400000  1.0 -0.2058519756
C  C110  1  0.95390000  0.84610000  0.91600000  1.0 -0.2058519756
C  C111  1  0.15390000  0.04610000  0.41600000  1.0 -0.2058519756
C  C112  1  0.04610000  0.15390000  0.08400000  1.0 -0.2058519756
C  C113  1  0.85540000  0.80460000  0.67760000  1.0 -0.1411180904
C  C114  1  0.80460000  0.85540000  0.82240000  1.0 -0.1411180904
C  C115  1  0.14460000  0.19540000  0.32240000  1.0 -0.1411180904
C  C116  1  0.19540000  0.14460000  0.17760000  1.0 -0.1411180904
N  N1  1  0.16740000  0.21400000  0.12440000  1.0 0.1886219682
N  N2  1  0.21400000  0.16740000  0.37560000  1.0 0.1886219682
N  N3  1  0.83260000  0.78600000  0.87560000  1.0 0.1886219682
N  N4  1  0.78600000  0.83260000  0.62440000  1.0 0.1886219682
N  N5  1  0.83660000  0.84940000  0.61830000  1.0 0.1488219148
N  N6  1  0.84940000  0.83660000  0.88170000  1.0 0.1488219148
N  N7  1  0.16340000  0.15060000  0.38170000  1.0 0.1488219148
N  N8  1  0.15060000  0.16340000  0.11830000  1.0 0.1488219148
O  O1  1  0.92950000  0.20370000  0.88090000  1.0 -0.612530644
O  O2  1  0.20370000  0.92950000  0.61910000  1.0 -0.612530644
O  O3  1  0.07050000  0.79630000  0.11910000  1.0 -0.612530644
O  O4  1  0.79630000  0.07050000  0.38090000  1.0 -0.612530644
O  O5  1  0.04390000  0.19510000  0.85240000  1.0 -0.612530644
O  O6  1  0.19510000  0.04390000  0.64760000  1.0 -0.612530644
O  O7  1  0.95610000  0.80490000  0.14760000  1.0 -0.612530644
O  O8  1  0.80490000  0.95610000  0.35240000  1.0 -0.612530644
O  O9  1  0.05260000  0.09020000  0.54140000  1.0 -0.6347360497
O  O10  1  0.09020000  0.05260000  0.95860000  1.0 -0.6347360497
O  O11  1  0.94740000  0.90980000  0.45860000  1.0 -0.6352165228
O  O12  1  0.90980000  0.94740000  0.04140000  1.0 -0.6347360497
O  O13  1  0.89560000  0.04200000  0.49690000  1.0 -0.5742623494
O  O14  1  0.04200000  0.89560000  0.00310000  1.0 -0.5742623494
O  O15  1  0.10440000  0.95800000  0.50310000  1.0 -0.575250197
O  O16  1  0.95800000  0.10440000  0.99690000  1.0 -0.5742623494
O  O17  1  0.33830000  0.05290000  0.53190000  1.0 -0.6186451032
O  O18  1  0.05290000  0.33830000  0.96810000  1.0 -0.6186451032
O  O19  1  0.66170000  0.94710000  0.46810000  1.0 -0.6186451032
O  O20  1  0.94710000  0.66170000  0.03190000  1.0 -0.6186451032
O  O21  1  0.38360000  0.12460000  0.60200000  1.0 -0.6186451032
O  O22  1  0.12460000  0.38360000  0.89800000  1.0 -0.612530644
O  O23  1  0.61640000  0.87540000  0.39800000  1.0 -0.6186451032
O  O24  1  0.87540000  0.61640000  0.10200000  1.0 -0.6186451032
O  O25  1  0.17500000  0.20940000  0.03520000  1.0 -0.5122861302
O  O26  1  0.20940000  0.17500000  0.46480000  1.0 -0.5122861302
O  O27  1  0.82500000  0.79060000  0.96480000  1.0 -0.5122861302
O  O28  1  0.79060000  0.82500000  0.53520000  1.0 -0.5122861302
O  O29  1  0.77950000  0.80650000  0.52920000  1.0 -0.6034408545
O  O30  1  0.80650000  0.77950000  0.97080000  1.0 -0.6034408545
O  O31  1  0.22050000  0.19350000  0.47080000  1.0 -0.6034408545
O  O32  1  0.19350000  0.22050000  0.02920000  1.0 -0.6034408545
