# DDEC6 charges by PACMAN v1.1 (https://github.com/mtap-research/PACMAN-charge/)
data_MINFOH_ion_pacman
_symmetry_space_group_name_H-M   'P 1'
_cell_length_a   14.64100000
_cell_length_b   16.19500000
_cell_length_c   15.58400000
_cell_angle_alpha   90.00000000
_cell_angle_beta   117.20300000
_cell_angle_gamma   90.00000000
_symmetry_Int_Tables_number   1
_chemical_formula_structural   Co3H62C66(NO5)4
_chemical_formula_sum   'Co6 H124 C132 N8 O40'
_cell_volume   3286.42757051
_cell_formula_units_Z   2
loop_
 _symmetry_equiv_pos_site_id
 _symmetry_equiv_pos_as_xyz
  1  'x, y, z'
loop_
 _atom_site_type_symbol
 _atom_site_label
 _atom_site_symmetry_multiplicity
 _atom_site_fract_x
 _atom_site_fract_y
 _atom_site_fract_z
 _atom_site_occupancy
 _atom_site_charge
Co  Co1  1  0.74268000  0.51351000  0.50121000  1.0 1.0575569199
Co  Co2  1  0.25732000  0.01351000  0.99879000  1.0 1.0575569199
Co  Co3  1  0.25732000  0.48649000  0.49879000  1.0 1.0575569199
Co  Co4  1  0.74268000  0.98649000  0.00121000  1.0 1.0575569199
Co  Co5  1  0.50000000  0.50000000  0.50000000  1.0 1.0855078922
Co  Co6  1  0.50000000  0.00000000  0.00000000  1.0 1.0855078922
H  H1  1  0.68600000  0.44900000  0.61700000  1.0 0.3918343262
H  H2  1  0.69000000  0.54000000  0.62900000  1.0 0.3918343262
H  H3  1  0.91880000  0.58240000  0.86190000  1.0 0.1200215805
H  H4  1  0.01830000  0.57820000  0.02590000  1.0 0.1127727452
H  H5  1  0.14840000  0.67580000  0.10180000  1.0 0.1200215805
H  H6  1  0.17820000  0.77480000  0.01520000  1.0 0.1200215805
H  H7  1  0.04360000  0.83850000  0.68990000  1.0 0.1200215805
H  H8  1  0.91580000  0.74130000  0.61370000  1.0 0.1200215805
H  H9  1  0.72110000  0.75980000  0.50670000  1.0 0.1200215805
H  H10  1  0.81790000  0.87640000  0.53270000  1.0 0.1127727452
H  H11  1  0.76730000  0.98080000  0.41720000  1.0 0.1127727452
H  H12  1  0.61470000  0.97070000  0.27930000  1.0 0.1285436406
H  H13  1  0.34140000  0.78800000  0.16740000  1.0 0.1200215805
H  H14  1  0.39790000  0.67890000  0.27560000  1.0 0.1285436406
H  H15  1  0.31400000  0.94900000  0.88300000  1.0 0.3918343262
H  H16  1  0.31000000  0.04000000  0.87100000  1.0 0.3918343262
H  H17  1  0.08120000  0.08240000  0.63810000  1.0 0.1200215805
H  H18  1  0.98170000  0.07820000  0.47410000  1.0 0.1127727452
H  H19  1  0.85160000  0.17580000  0.39820000  1.0 0.1200215805
H  H20  1  0.82180000  0.27480000  0.48480000  1.0 0.1200215805
H  H21  1  0.95640000  0.33850000  0.81010000  1.0 0.1200215805
H  H22  1  0.08420000  0.24130000  0.88630000  1.0 0.1200215805
H  H23  1  0.27890000  0.25980000  0.99330000  1.0 0.1200215805
H  H24  1  0.18210000  0.37640000  0.96730000  1.0 0.1127727452
H  H25  1  0.23270000  0.48080000  0.08280000  1.0 0.1127727452
H  H26  1  0.38530000  0.47070000  0.22070000  1.0 0.1285436406
H  H27  1  0.65860000  0.28800000  0.33260000  1.0 0.1200215805
H  H28  1  0.60210000  0.17890000  0.22440000  1.0 0.1285436406
H  H29  1  0.31400000  0.55100000  0.38300000  1.0 0.3918343262
H  H30  1  0.31000000  0.46000000  0.37100000  1.0 0.3918343262
H  H31  1  0.08120000  0.41760000  0.13810000  1.0 0.1200215805
H  H32  1  0.98170000  0.42180000  0.97410000  1.0 0.1127727452
H  H33  1  0.85160000  0.32420000  0.89820000  1.0 0.1200215805
H  H34  1  0.82180000  0.22520000  0.98480000  1.0 0.1200215805
H  H35  1  0.95640000  0.16150000  0.31010000  1.0 0.1200215805
H  H36  1  0.08420000  0.25870000  0.38630000  1.0 0.1200215805
H  H37  1  0.27890000  0.24020000  0.49330000  1.0 0.1200215805
H  H38  1  0.18210000  0.12360000  0.46730000  1.0 0.1127727452
H  H39  1  0.23270000  0.01920000  0.58280000  1.0 0.1127727452
H  H40  1  0.38530000  0.02930000  0.72070000  1.0 0.1285436406
H  H41  1  0.65860000  0.21200000  0.83260000  1.0 0.1200215805
H  H42  1  0.60210000  0.32110000  0.72440000  1.0 0.1285436406
H  H43  1  0.68600000  0.05100000  0.11700000  1.0 0.3918343262
H  H44  1  0.69000000  0.96000000  0.12900000  1.0 0.3918343262
H  H45  1  0.91880000  0.91760000  0.36190000  1.0 0.1200215805
H  H46  1  0.01830000  0.92180000  0.52590000  1.0 0.1127727452
H  H47  1  0.14840000  0.82420000  0.60180000  1.0 0.1200215805
H  H48  1  0.17820000  0.72520000  0.51520000  1.0 0.1200215805
H  H49  1  0.04360000  0.66150000  0.18990000  1.0 0.1200215805
H  H50  1  0.91580000  0.75870000  0.11370000  1.0 0.1200215805
H  H51  1  0.72110000  0.74020000  0.00670000  1.0 0.1200215805
H  H52  1  0.81790000  0.62360000  0.03270000  1.0 0.1127727452
H  H53  1  0.76730000  0.51920000  0.91720000  1.0 0.1127727452
H  H54  1  0.61470000  0.52930000  0.77930000  1.0 0.1285436406
H  H55  1  0.34140000  0.71200000  0.66740000  1.0 0.1200215805
H  H56  1  0.39790000  0.82110000  0.77560000  1.0 0.1285436406
H  H57  1  0.89690000  0.51000000  0.26930000  1.0 0.1394941873
H  H58  1  0.80970000  0.54110000  0.17050000  1.0 0.1127727452
H  H59  1  0.89420000  0.48080000  0.17230000  1.0 0.1127727452
H  H60  1  0.83250000  0.37720000  0.23570000  1.0 0.1007476555
H  H61  1  0.74850000  0.43740000  0.23450000  1.0 0.1007476555
H  H62  1  0.69810000  0.44170000  0.06780000  1.0 0.1127727452
H  H63  1  0.75970000  0.36030000  0.08770000  1.0 0.1127727452
H  H64  1  0.58370000  0.39320000  0.06990000  1.0 0.1127727452
H  H65  1  0.64460000  0.32070000  0.13650000  1.0 0.1200215805
H  H66  1  0.64180000  0.28160000  0.97240000  1.0 0.1200215805
H  H67  1  0.57400000  0.24120000  0.01490000  1.0 0.1285436406
H  H68  1  0.52760000  0.44460000  0.88640000  1.0 0.1285436406
H  H69  1  0.35770000  0.44310000  0.74670000  1.0 0.145688899
H  H70  1  0.23240000  0.24170000  0.72760000  1.0 0.1394941873
H  H71  1  0.24360000  0.29850000  0.65150000  1.0 0.145688899
H  H72  1  0.19300000  0.33310000  0.71370000  1.0 0.1394941873
H  H73  1  0.40420000  0.22600000  0.87670000  1.0 0.1394941873
H  H74  1  0.10310000  0.01000000  0.23070000  1.0 0.1394941873
H  H75  1  0.19030000  0.04110000  0.32950000  1.0 0.1127727452
H  H76  1  0.10580000  0.98080000  0.32770000  1.0 0.1127727452
H  H77  1  0.16750000  0.87720000  0.26430000  1.0 0.1007476555
H  H78  1  0.25150000  0.93740000  0.26550000  1.0 0.1007476555
H  H79  1  0.30190000  0.94170000  0.43220000  1.0 0.1127727452
H  H80  1  0.24030000  0.86030000  0.41230000  1.0 0.1127727452
H  H81  1  0.41630000  0.89320000  0.43010000  1.0 0.1127727452
H  H82  1  0.35540000  0.82070000  0.36350000  1.0 0.1200215805
H  H83  1  0.35820000  0.78160000  0.52760000  1.0 0.1200215805
H  H84  1  0.42600000  0.74120000  0.48510000  1.0 0.1285436406
H  H85  1  0.47240000  0.94460000  0.61360000  1.0 0.1285436406
H  H86  1  0.64230000  0.94310000  0.75330000  1.0 0.145688899
H  H87  1  0.76760000  0.74170000  0.77240000  1.0 0.1394941873
H  H88  1  0.75640000  0.79850000  0.84850000  1.0 0.145688899
H  H89  1  0.80700000  0.83310000  0.78630000  1.0 0.1394941873
H  H90  1  0.59580000  0.72600000  0.62330000  1.0 0.1394941873
H  H91  1  0.10310000  0.49000000  0.73070000  1.0 0.1394941873
H  H92  1  0.19030000  0.45890000  0.82950000  1.0 0.1127727452
H  H93  1  0.10580000  0.51920000  0.82770000  1.0 0.1127727452
H  H94  1  0.16750000  0.62280000  0.76430000  1.0 0.1007476555
H  H95  1  0.25150000  0.56260000  0.76550000  1.0 0.1007476555
H  H96  1  0.30190000  0.55830000  0.93220000  1.0 0.1127727452
H  H97  1  0.24030000  0.63970000  0.91230000  1.0 0.1127727452
H  H98  1  0.41630000  0.60680000  0.93010000  1.0 0.1127727452
H  H99  1  0.35540000  0.67930000  0.86350000  1.0 0.1200215805
H  H100  1  0.35820000  0.71840000  0.02760000  1.0 0.1200215805
H  H101  1  0.42600000  0.75880000  0.98510000  1.0 0.1285436406
H  H102  1  0.47240000  0.55540000  0.11360000  1.0 0.1285436406
H  H103  1  0.64230000  0.55690000  0.25330000  1.0 0.145688899
H  H104  1  0.76760000  0.75830000  0.27240000  1.0 0.1394941873
H  H105  1  0.75640000  0.70150000  0.34850000  1.0 0.145688899
H  H106  1  0.80700000  0.66690000  0.28630000  1.0 0.1394941873
H  H107  1  0.59580000  0.77400000  0.12330000  1.0 0.1394941873
H  H108  1  0.89690000  0.99000000  0.76930000  1.0 0.1394941873
H  H109  1  0.80970000  0.95890000  0.67050000  1.0 0.1127727452
H  H110  1  0.89420000  0.01920000  0.67230000  1.0 0.1127727452
H  H111  1  0.83250000  0.12280000  0.73570000  1.0 0.1007476555
H  H112  1  0.74850000  0.06260000  0.73450000  1.0 0.1007476555
H  H113  1  0.69810000  0.05830000  0.56780000  1.0 0.1127727452
H  H114  1  0.75970000  0.13970000  0.58770000  1.0 0.1127727452
H  H115  1  0.58370000  0.10680000  0.56990000  1.0 0.1127727452
H  H116  1  0.64460000  0.17930000  0.63650000  1.0 0.1200215805
H  H117  1  0.64180000  0.21840000  0.47240000  1.0 0.1200215805
H  H118  1  0.57400000  0.25880000  0.51490000  1.0 0.1285436406
H  H119  1  0.52760000  0.05540000  0.38640000  1.0 0.1285436406
H  H120  1  0.35770000  0.05690000  0.24670000  1.0 0.145688899
H  H121  1  0.23240000  0.25830000  0.22760000  1.0 0.1394941873
H  H122  1  0.24360000  0.20150000  0.15150000  1.0 0.145688899
H  H123  1  0.19300000  0.16690000  0.21370000  1.0 0.1394941873
H  H124  1  0.40420000  0.27400000  0.37670000  1.0 0.1394941873
C  C1  1  0.98700000  0.68170000  0.83450000  1.0 0.0494906764
C  C2  1  0.97070000  0.62120000  0.89160000  1.0 -0.1407751582
C  C3  1  0.02980000  0.61860000  0.98960000  1.0 -0.1073992071
C  C4  1  0.10840000  0.67760000  0.03530000  1.0 -0.0981212692
C  C5  1  0.12600000  0.73660000  0.98360000  1.0 -0.1302108157
C  C6  1  0.06600000  0.74160000  0.88130000  1.0 0.0494906764
C  C7  1  0.08580000  0.80110000  0.82490000  1.0 -0.0590347237
C  C8  1  0.03000000  0.79980000  0.72670000  1.0 -0.1302108157
C  C9  1  0.95270000  0.74090000  0.68060000  1.0 -0.1228726825
C  C10  1  0.93020000  0.68300000  0.73180000  1.0 -0.0590347237
C  C11  1  0.16840000  0.86580000  0.86770000  1.0 0.5666321145
C  C12  1  0.84490000  0.62300000  0.67580000  1.0 0.5585872756
C  C13  1  0.60260000  0.79335000  0.37630000  1.0 0.0494906764
C  C14  1  0.69830000  0.80190000  0.46110000  1.0 -0.1407751582
C  C15  1  0.75680000  0.87110000  0.47600000  1.0 -0.0981212692
C  C16  1  0.72590000  0.93460000  0.40700000  1.0 -0.0981212692
C  C17  1  0.63460000  0.92843000  0.32470000  1.0 -0.1302108157
C  C18  1  0.57010000  0.85896000  0.30740000  1.0 0.0417784584
C  C19  1  0.47140000  0.85368000  0.22610000  1.0 -0.0683240442
C  C20  1  0.40790000  0.78862000  0.21760000  1.0 -0.1407751582
C  C21  1  0.44180000  0.72294000  0.28360000  1.0 -0.1302108157
C  C22  1  0.53850000  0.72285000  0.35950000  1.0 -0.0768489409
C  C23  1  0.57400000  0.64507000  0.41880000  1.0 0.5799489693
C  C24  1  0.43590000  0.91502000  0.14400000  1.0 0.5799489693
C  C25  1  0.01300000  0.18170000  0.66550000  1.0 0.0494906764
C  C26  1  0.02930000  0.12120000  0.60840000  1.0 -0.1407751582
C  C27  1  0.97020000  0.11860000  0.51040000  1.0 -0.1073992071
C  C28  1  0.89160000  0.17760000  0.46470000  1.0 -0.0981212692
C  C29  1  0.87400000  0.23660000  0.51640000  1.0 -0.1302108157
C  C30  1  0.93400000  0.24160000  0.61870000  1.0 0.0494906764
C  C31  1  0.91420000  0.30110000  0.67510000  1.0 -0.0590347237
C  C32  1  0.97000000  0.29980000  0.77330000  1.0 -0.1228726825
C  C33  1  0.04730000  0.24090000  0.81940000  1.0 -0.1228726825
C  C34  1  0.06980000  0.18300000  0.76820000  1.0 -0.0590347237
C  C35  1  0.83160000  0.36580000  0.63230000  1.0 0.5666321145
C  C36  1  0.15510000  0.12300000  0.82420000  1.0 0.5585872756
C  C37  1  0.39740000  0.29335000  0.12370000  1.0 0.0494906764
C  C38  1  0.30170000  0.30190000  0.03890000  1.0 -0.1407751582
C  C39  1  0.24320000  0.37110000  0.02400000  1.0 -0.0981212692
C  C40  1  0.27410000  0.43460000  0.09300000  1.0 -0.0981212692
C  C41  1  0.36540000  0.42843000  0.17530000  1.0 -0.1302108157
C  C42  1  0.42990000  0.35896000  0.19260000  1.0 0.0417784584
C  C43  1  0.52860000  0.35368000  0.27390000  1.0 -0.0683240442
C  C44  1  0.59210000  0.28862000  0.28240000  1.0 -0.1407751582
C  C45  1  0.55820000  0.22294000  0.21640000  1.0 -0.1302108157
C  C46  1  0.46150000  0.22285000  0.14050000  1.0 -0.0768489409
C  C47  1  0.42600000  0.14507000  0.08120000  1.0 0.5799489693
C  C48  1  0.56410000  0.41502000  0.35600000  1.0 0.5799489693
C  C49  1  0.01300000  0.31830000  0.16550000  1.0 0.0494906764
C  C50  1  0.02930000  0.37880000  0.10840000  1.0 -0.1407751582
C  C51  1  0.97020000  0.38140000  0.01040000  1.0 -0.1073992071
C  C52  1  0.89160000  0.32240000  0.96470000  1.0 -0.0981212692
C  C53  1  0.87400000  0.26340000  0.01640000  1.0 -0.1302108157
C  C54  1  0.93400000  0.25840000  0.11870000  1.0 0.0494906764
C  C55  1  0.91420000  0.19890000  0.17510000  1.0 -0.0590347237
C  C56  1  0.97000000  0.20020000  0.27330000  1.0 -0.1228726825
C  C57  1  0.04730000  0.25910000  0.31940000  1.0 -0.1228726825
C  C58  1  0.06980000  0.31700000  0.26820000  1.0 -0.0590347237
C  C59  1  0.83160000  0.13420000  0.13230000  1.0 0.5666321145
C  C60  1  0.15510000  0.37700000  0.32420000  1.0 0.5585872756
C  C61  1  0.39740000  0.20665000  0.62370000  1.0 0.0494906764
C  C62  1  0.30170000  0.19810000  0.53890000  1.0 -0.1407751582
C  C63  1  0.24320000  0.12890000  0.52400000  1.0 -0.0981212692
C  C64  1  0.27410000  0.06540000  0.59300000  1.0 -0.0981212692
C  C65  1  0.36540000  0.07157000  0.67530000  1.0 -0.1302108157
C  C66  1  0.42990000  0.14104000  0.69260000  1.0 0.0417784584
C  C67  1  0.52860000  0.14632000  0.77390000  1.0 -0.0683240442
C  C68  1  0.59210000  0.21138000  0.78240000  1.0 -0.1407751582
C  C69  1  0.55820000  0.27706000  0.71640000  1.0 -0.1302108157
C  C70  1  0.46150000  0.27715000  0.64050000  1.0 -0.0768489409
C  C71  1  0.42600000  0.35493000  0.58120000  1.0 0.5799489693
C  C72  1  0.56410000  0.08498000  0.85600000  1.0 0.5799489693
C  C73  1  0.98700000  0.81830000  0.33450000  1.0 0.0494906764
C  C74  1  0.97070000  0.87880000  0.39160000  1.0 -0.1407751582
C  C75  1  0.02980000  0.88140000  0.48960000  1.0 -0.1073992071
C  C76  1  0.10840000  0.82240000  0.53530000  1.0 -0.0981212692
C  C77  1  0.12600000  0.76340000  0.48360000  1.0 -0.1302108157
C  C78  1  0.06600000  0.75840000  0.38130000  1.0 0.0494906764
C  C79  1  0.08580000  0.69890000  0.32490000  1.0 -0.0590347237
C  C80  1  0.03000000  0.70020000  0.22670000  1.0 -0.1302108157
C  C81  1  0.95270000  0.75910000  0.18060000  1.0 -0.1228726825
C  C82  1  0.93020000  0.81700000  0.23180000  1.0 -0.0590347237
C  C83  1  0.16840000  0.63420000  0.36770000  1.0 0.5666321145
C  C84  1  0.84490000  0.87700000  0.17580000  1.0 0.5585872756
C  C85  1  0.60260000  0.70665000  0.87630000  1.0 0.0494906764
C  C86  1  0.69830000  0.69810000  0.96110000  1.0 -0.1407751582
C  C87  1  0.75680000  0.62890000  0.97600000  1.0 -0.0981212692
C  C88  1  0.72590000  0.56540000  0.90700000  1.0 -0.0981212692
C  C89  1  0.63460000  0.57157000  0.82470000  1.0 -0.1302108157
C  C90  1  0.57010000  0.64104000  0.80740000  1.0 0.0417784584
C  C91  1  0.47140000  0.64632000  0.72610000  1.0 -0.0683240442
C  C92  1  0.40790000  0.71138000  0.71760000  1.0 -0.1451751365
C  C93  1  0.44180000  0.77706000  0.78360000  1.0 -0.1302108157
C  C94  1  0.53850000  0.77715000  0.85950000  1.0 -0.0768489409
C  C95  1  0.57400000  0.85493000  0.91880000  1.0 0.5799489693
C  C96  1  0.43590000  0.58498000  0.64400000  1.0 0.5799489693
C  C97  1  0.85300000  0.49520000  0.20340000  1.0 -0.3702676146
C  C98  1  0.78730000  0.42230000  0.20040000  1.0 -0.1073992071
C  C99  1  0.71780000  0.39290000  0.10840000  1.0 -0.1698952465
C  C100  1  0.63690000  0.35280000  0.08110000  1.0 -0.1698952465
C  C101  1  0.59060000  0.29300000  0.99400000  1.0 -0.1228726825
C  C102  1  0.48120000  0.40100000  0.86680000  1.0 -0.1073992071
C  C103  1  0.38800000  0.40010000  0.79010000  1.0 -0.088776255
C  C104  1  0.24500000  0.29710000  0.71370000  1.0 -0.3425632342
C  C105  1  0.41330000  0.28000000  0.86180000  1.0 0.0306312834
C  C106  1  0.14700000  0.99520000  0.29660000  1.0 -0.3702676146
C  C107  1  0.21270000  0.92230000  0.29960000  1.0 -0.1073992071
C  C108  1  0.28220000  0.89290000  0.39160000  1.0 -0.1698952465
C  C109  1  0.36310000  0.85280000  0.41890000  1.0 -0.1698952465
C  C110  1  0.40940000  0.79300000  0.50600000  1.0 -0.1228726825
C  C111  1  0.51880000  0.90100000  0.63320000  1.0 -0.1073992071
C  C112  1  0.61200000  0.90010000  0.70990000  1.0 -0.088776255
C  C113  1  0.75500000  0.79710000  0.78630000  1.0 -0.3425632342
C  C114  1  0.58670000  0.78000000  0.63820000  1.0 0.0306312834
C  C115  1  0.14700000  0.50480000  0.79660000  1.0 -0.3702676146
C  C116  1  0.21270000  0.57770000  0.79960000  1.0 -0.1073992071
C  C117  1  0.28220000  0.60710000  0.89160000  1.0 -0.1698952465
C  C118  1  0.36310000  0.64720000  0.91890000  1.0 -0.1698952465
C  C119  1  0.40940000  0.70700000  0.00600000  1.0 -0.1228726825
C  C120  1  0.51880000  0.59900000  0.13320000  1.0 -0.1073992071
C  C121  1  0.61200000  0.59990000  0.20990000  1.0 -0.088776255
C  C122  1  0.75500000  0.70290000  0.28630000  1.0 -0.3425632342
C  C123  1  0.58670000  0.72000000  0.13820000  1.0 0.0306312834
C  C124  1  0.85300000  0.00480000  0.70340000  1.0 -0.3702676146
C  C125  1  0.78730000  0.07770000  0.70040000  1.0 -0.1073992071
C  C126  1  0.71780000  0.10710000  0.60840000  1.0 -0.1698952465
C  C127  1  0.63690000  0.14720000  0.58110000  1.0 -0.1698952465
C  C128  1  0.59060000  0.20700000  0.49400000  1.0 -0.1228726825
C  C129  1  0.48120000  0.09900000  0.36680000  1.0 -0.1073992071
C  C130  1  0.38800000  0.09990000  0.29010000  1.0 -0.088776255
C  C131  1  0.24500000  0.20290000  0.21370000  1.0 -0.3425632342
C  C132  1  0.41330000  0.22000000  0.36180000  1.0 0.0306312834
N  N1  1  0.34610000  0.32430000  0.78750000  1.0 0.1007476555
N  N2  1  0.49510000  0.32640000  0.91040000  1.0 0.0417784584
N  N3  1  0.65390000  0.82430000  0.71250000  1.0 0.1007476555
N  N4  1  0.50490000  0.82640000  0.58960000  1.0 0.0417784584
N  N5  1  0.65390000  0.67570000  0.21250000  1.0 0.1007476555
N  N6  1  0.50490000  0.67360000  0.08960000  1.0 0.0417784584
N  N7  1  0.34610000  0.17570000  0.28750000  1.0 0.1007476555
N  N8  1  0.49510000  0.17360000  0.41040000  1.0 0.0417784584
O  O1  1  0.66271000  0.62036000  0.43914000  1.0 -0.5522202824
O  O2  1  0.83459000  0.52904000  0.42555000  1.0 -0.23147507
O  O3  1  0.51070000  0.61101000  0.44019000  1.0 -0.5633044614
O  O4  1  0.85247000  0.58583000  0.60846000  1.0 -0.5386267477
O  O5  1  0.65980000  0.49743000  0.58451000  1.0 -0.7743075861
O  O6  1  0.77270000  0.61670000  0.69620000  1.0 -0.5307306423
O  O7  1  0.22640000  0.87340000  0.83020000  1.0 -0.5386267477
O  O8  1  0.17090000  0.90789000  0.93695000  1.0 -0.5522202824
O  O9  1  0.49568000  0.92847000  0.10927000  1.0 -0.5522202824
O  O10  1  0.34872000  0.94460000  0.11732000  1.0 -0.5386267477
O  O11  1  0.33729000  0.12036000  0.06086000  1.0 -0.5522202824
O  O12  1  0.16541000  0.02904000  0.07445000  1.0 -0.23147507
O  O13  1  0.48930000  0.11101000  0.05981000  1.0 -0.5633044614
O  O14  1  0.14753000  0.08583000  0.89154000  1.0 -0.5386267477
O  O15  1  0.34020000  0.99743000  0.91549000  1.0 -0.7743075861
O  O16  1  0.22730000  0.11670000  0.80380000  1.0 -0.5307306423
O  O17  1  0.77360000  0.37340000  0.66980000  1.0 -0.5386267477
O  O18  1  0.82910000  0.40789000  0.56305000  1.0 -0.5522202824
O  O19  1  0.50432000  0.42847000  0.39073000  1.0 -0.5522202824
O  O20  1  0.65128000  0.44460000  0.38268000  1.0 -0.5386267477
O  O21  1  0.33729000  0.37964000  0.56086000  1.0 -0.5522202824
O  O22  1  0.16541000  0.47096000  0.57445000  1.0 -0.23147507
O  O23  1  0.48930000  0.38899000  0.55981000  1.0 -0.5633044614
O  O24  1  0.14753000  0.41417000  0.39154000  1.0 -0.5386267477
O  O25  1  0.34020000  0.50257000  0.41549000  1.0 -0.7743075861
O  O26  1  0.22730000  0.38330000  0.30380000  1.0 -0.5307306423
O  O27  1  0.77360000  0.12660000  0.16980000  1.0 -0.5386267477
O  O28  1  0.82910000  0.09211000  0.06305000  1.0 -0.5522202824
O  O29  1  0.50432000  0.07153000  0.89073000  1.0 -0.5522202824
O  O30  1  0.65128000  0.05540000  0.88268000  1.0 -0.5386267477
O  O31  1  0.66271000  0.87964000  0.93914000  1.0 -0.5522202824
O  O32  1  0.83459000  0.97096000  0.92555000  1.0 -0.23147507
O  O33  1  0.51070000  0.88899000  0.94019000  1.0 -0.5633044614
O  O34  1  0.85247000  0.91417000  0.10846000  1.0 -0.5386267477
O  O35  1  0.65980000  0.00257000  0.08451000  1.0 -0.7743075861
O  O36  1  0.77270000  0.88330000  0.19620000  1.0 -0.5307306423
O  O37  1  0.22640000  0.62660000  0.33020000  1.0 -0.5386267477
O  O38  1  0.17090000  0.59211000  0.43695000  1.0 -0.5522202824
O  O39  1  0.49568000  0.57153000  0.60927000  1.0 -0.5522202824
O  O40  1  0.34872000  0.55540000  0.61732000  1.0 -0.5386267477
