# DDEC6 charges by PACMAN v1.1 (https://github.com/mtap-research/PACMAN-charge/)
data_MIQLEE_FSR_pacman
_symmetry_space_group_name_H-M   'P 1'
_cell_length_a   11.36840000
_cell_length_b   17.01750000
_cell_length_c   24.50430000
_cell_angle_alpha   90.00000000
_cell_angle_beta   91.23700000
_cell_angle_gamma   90.00000000
_symmetry_Int_Tables_number   1
_chemical_formula_structural   Zn4H9C27O22
_chemical_formula_sum   'Zn16 H36 C108 O88'
_cell_volume   4739.53988444
_cell_formula_units_Z   4
loop_
 _symmetry_equiv_pos_site_id
 _symmetry_equiv_pos_as_xyz
  1  'x, y, z'
loop_
 _atom_site_type_symbol
 _atom_site_label
 _atom_site_symmetry_multiplicity
 _atom_site_fract_x
 _atom_site_fract_y
 _atom_site_fract_z
 _atom_site_occupancy
 _atom_site_charge
Zn  Zn1  1  0.15975000  0.96021000  0.65766000  1.0 0.9853980506
Zn  Zn2  1  0.84025000  0.46021000  0.84234000  1.0 0.9853980506
Zn  Zn3  1  0.84025000  0.03979000  0.34234000  1.0 0.9853980506
Zn  Zn4  1  0.15975000  0.53979000  0.15766000  1.0 0.9853980506
Zn  Zn5  1  0.13810000  0.45316000  0.83139000  1.0 0.9806063363
Zn  Zn6  1  0.86190000  0.95316000  0.66861000  1.0 0.9806063363
Zn  Zn7  1  0.86190000  0.54684000  0.16861000  1.0 0.9806063363
Zn  Zn8  1  0.13810000  0.04684000  0.33139000  1.0 0.9806063363
Zn  Zn9  1  0.00374000  0.83480000  0.57228000  1.0 1.1637989694
Zn  Zn10  1  0.99626000  0.33480000  0.92772000  1.0 1.1637989694
Zn  Zn11  1  0.99626000  0.16520000  0.42772000  1.0 1.1637989694
Zn  Zn12  1  0.00374000  0.66520000  0.07228000  1.0 1.1637989694
Zn  Zn13  1  0.31876000  0.99727000  0.99128000  1.0 0.9806063363
Zn  Zn14  1  0.68124000  0.49727000  0.50872000  1.0 0.9806063363
Zn  Zn15  1  0.68124000  0.00273000  0.00872000  1.0 0.9806063363
Zn  Zn16  1  0.31876000  0.50273000  0.49128000  1.0 0.9806063363
H  H1  1  0.15080000  0.72780000  0.93510000  1.0 0.1141867751
H  H2  1  0.84920000  0.22780000  0.56490000  1.0 0.1141867751
H  H3  1  0.84920000  0.27220000  0.06490000  1.0 0.1141867751
H  H4  1  0.15080000  0.77220000  0.43510000  1.0 0.1141867751
H  H5  1  0.15760000  0.69580000  0.77300000  1.0 0.1307613243
H  H6  1  0.84240000  0.19580000  0.72700000  1.0 0.1307613243
H  H7  1  0.84240000  0.30420000  0.22700000  1.0 0.1307613243
H  H8  1  0.15760000  0.80420000  0.27300000  1.0 0.1307613243
H  H9  1  0.17990000  0.91360000  0.83500000  1.0 0.1307613243
H  H10  1  0.82010000  0.41360000  0.66500000  1.0 0.1307613243
H  H11  1  0.82010000  0.08640000  0.16500000  1.0 0.1307613243
H  H12  1  0.17990000  0.58640000  0.33500000  1.0 0.1307613243
H  H13  1  0.17880000  0.42010000  0.65170000  1.0 0.1307613243
H  H14  1  0.82120000  0.92010000  0.84830000  1.0 0.1307613243
H  H15  1  0.82120000  0.57990000  0.34830000  1.0 0.1307613243
H  H16  1  0.17880000  0.07990000  0.15170000  1.0 0.1307613243
H  H17  1  0.19300000  0.23220000  0.55250000  1.0 0.1141867751
H  H18  1  0.80700000  0.73220000  0.94750000  1.0 0.1141867751
H  H19  1  0.80700000  0.76780000  0.44750000  1.0 0.1141867751
H  H20  1  0.19300000  0.26780000  0.05250000  1.0 0.1141867751
H  H21  1  0.14300000  0.20280000  0.71250000  1.0 0.1245623606
H  H22  1  0.85700000  0.70280000  0.78750000  1.0 0.1245623606
H  H23  1  0.85700000  0.79720000  0.28750000  1.0 0.1245623606
H  H24  1  0.14300000  0.29720000  0.21250000  1.0 0.1245623606
H  H25  1  0.50570000  0.90520000  0.60670000  1.0 0.1307613243
H  H26  1  0.49430000  0.40520000  0.89330000  1.0 0.1307613243
H  H27  1  0.49430000  0.09480000  0.39330000  1.0 0.1307613243
H  H28  1  0.50570000  0.59480000  0.10670000  1.0 0.1307613243
H  H29  1  0.68030000  0.71480000  0.55620000  1.0 0.1307613243
H  H30  1  0.31970000  0.21480000  0.94380000  1.0 0.1307613243
H  H31  1  0.31970000  0.28520000  0.44380000  1.0 0.1307613243
H  H32  1  0.68030000  0.78520000  0.05620000  1.0 0.1307613243
H  H33  1  0.32770000  0.71800000  0.54780000  1.0 0.1307613243
H  H34  1  0.67230000  0.21800000  0.95220000  1.0 0.1307613243
H  H35  1  0.67230000  0.28200000  0.45220000  1.0 0.1307613243
H  H36  1  0.32770000  0.78200000  0.04780000  1.0 0.1307613243
C  C1  1  0.16838000  0.82912000  0.89288000  1.0 -0.0033846372
C  C2  1  0.83162000  0.32912000  0.60712000  1.0 -0.0033846372
C  C3  1  0.83162000  0.17088000  0.10712000  1.0 -0.0033846372
C  C4  1  0.16838000  0.67088000  0.39288000  1.0 -0.0033846372
C  C5  1  0.15556000  0.74849000  0.90009000  1.0 -0.0931658892
C  C6  1  0.84444000  0.24849000  0.59991000  1.0 -0.0931658892
C  C7  1  0.84444000  0.25151000  0.09991000  1.0 -0.0931658892
C  C8  1  0.15556000  0.75151000  0.40009000  1.0 -0.0931658892
C  C9  1  0.14992000  0.69875000  0.85517000  1.0 -0.0194916057
C  C10  1  0.85008000  0.19875000  0.64483000  1.0 -0.0194916057
C  C11  1  0.85008000  0.30125000  0.14483000  1.0 -0.0194916057
C  C12  1  0.14992000  0.80125000  0.35517000  1.0 -0.0194916057
C  C13  1  0.15856000  0.72942000  0.80290000  1.0 -0.0978252318
C  C14  1  0.84144000  0.22942000  0.69710000  1.0 -0.0978252318
C  C15  1  0.84144000  0.27058000  0.19710000  1.0 -0.0978252318
C  C16  1  0.15856000  0.77058000  0.30290000  1.0 -0.0978252318
C  C17  1  0.16870000  0.81039000  0.79497000  1.0 -0.0112134614
C  C18  1  0.83130000  0.31039000  0.70503000  1.0 -0.0112134614
C  C19  1  0.83130000  0.18961000  0.20503000  1.0 -0.0112134614
C  C20  1  0.16870000  0.68961000  0.29497000  1.0 -0.0112134614
C  C21  1  0.17339000  0.85966000  0.84004000  1.0 -0.0978252318
C  C22  1  0.82661000  0.35966000  0.65996000  1.0 -0.0978252318
C  C23  1  0.82661000  0.14034000  0.15996000  1.0 -0.0978252318
C  C24  1  0.17339000  0.64034000  0.34004000  1.0 -0.0978252318
C  C25  1  0.18739000  0.88234000  0.94145000  1.0 0.5393340801
C  C26  1  0.81261000  0.38234000  0.55855000  1.0 0.5393340801
C  C27  1  0.81261000  0.11766000  0.05855000  1.0 0.5393340801
C  C28  1  0.18739000  0.61766000  0.44145000  1.0 0.5393340801
C  C29  1  0.13961000  0.61076000  0.86353000  1.0 0.5480104103
C  C30  1  0.86039000  0.11076000  0.63647000  1.0 0.5480104103
C  C31  1  0.86039000  0.38924000  0.13647000  1.0 0.5480104103
C  C32  1  0.13961000  0.88924000  0.36353000  1.0 0.5480104103
C  C33  1  0.17800000  0.84236000  0.73802000  1.0 0.5480104103
C  C34  1  0.82200000  0.34236000  0.76198000  1.0 0.5480104103
C  C35  1  0.82200000  0.15764000  0.26198000  1.0 0.5480104103
C  C36  1  0.17800000  0.65764000  0.23802000  1.0 0.5480104103
C  C37  1  0.15551000  0.31682000  0.69062000  1.0 -0.0112134614
C  C38  1  0.84449000  0.81682000  0.80938000  1.0 -0.0112134614
C  C39  1  0.84449000  0.68318000  0.30938000  1.0 -0.0112134614
C  C40  1  0.15551000  0.18318000  0.19062000  1.0 -0.0112134614
C  C41  1  0.17452000  0.36607000  0.64653000  1.0 -0.0978252318
C  C42  1  0.82548000  0.86607000  0.85347000  1.0 -0.0978252318
C  C43  1  0.82548000  0.63393000  0.35347000  1.0 -0.0978252318
C  C44  1  0.17452000  0.13393000  0.14653000  1.0 -0.0978252318
C  C45  1  0.18714000  0.33473000  0.59452000  1.0 -0.0112134614
C  C46  1  0.81286000  0.83473000  0.90548000  1.0 -0.0112134614
C  C47  1  0.81286000  0.66527000  0.40548000  1.0 -0.0112134614
C  C48  1  0.18714000  0.16527000  0.09452000  1.0 -0.0112134614
C  C49  1  0.18453000  0.25321000  0.58725000  1.0 -0.0978252318
C  C50  1  0.81547000  0.75321000  0.91275000  1.0 -0.0978252318
C  C51  1  0.81547000  0.74679000  0.41275000  1.0 -0.0978252318
C  C52  1  0.18453000  0.24679000  0.08725000  1.0 -0.0978252318
C  C53  1  0.16936000  0.20331000  0.63163000  1.0 -0.0277552891
C  C54  1  0.83064000  0.70331000  0.86837000  1.0 -0.0277552891
C  C55  1  0.83064000  0.79669000  0.36837000  1.0 -0.0277552891
C  C56  1  0.16936000  0.29669000  0.13163000  1.0 -0.0277552891
C  C57  1  0.15426000  0.23580000  0.68274000  1.0 -0.0931658892
C  C58  1  0.84574000  0.73580000  0.81726000  1.0 -0.0931658892
C  C59  1  0.84574000  0.76420000  0.31726000  1.0 -0.0931658892
C  C60  1  0.15426000  0.26420000  0.18274000  1.0 -0.0931658892
C  C61  1  0.14271000  0.34974000  0.74820000  1.0 0.5393340801
C  C62  1  0.85729000  0.84974000  0.75180000  1.0 0.5393340801
C  C63  1  0.85729000  0.65026000  0.25180000  1.0 0.5393340801
C  C64  1  0.14271000  0.15026000  0.24820000  1.0 0.5393340801
C  C65  1  0.20830000  0.38696000  0.54655000  1.0 0.5393340801
C  C66  1  0.79170000  0.88696000  0.95345000  1.0 0.5393340801
C  C67  1  0.79170000  0.61304000  0.45345000  1.0 0.5393340801
C  C68  1  0.20830000  0.11304000  0.04655000  1.0 0.5393340801
C  C69  1  0.17286000  0.11593000  0.62383000  1.0 0.5480104103
C  C70  1  0.82714000  0.61593000  0.87617000  1.0 0.5480104103
C  C71  1  0.82714000  0.88407000  0.37617000  1.0 0.5480104103
C  C72  1  0.17286000  0.38407000  0.12383000  1.0 0.5480104103
C  C73  1  0.39840000  0.81913000  0.57796000  1.0 -0.0194916057
C  C74  1  0.60160000  0.31913000  0.92204000  1.0 -0.0194916057
C  C75  1  0.60160000  0.18087000  0.42204000  1.0 -0.0194916057
C  C76  1  0.39840000  0.68087000  0.07796000  1.0 -0.0194916057
C  C77  1  0.50523000  0.85526000  0.59137000  1.0 -0.0838750052
C  C78  1  0.49477000  0.35526000  0.90863000  1.0 -0.0838750052
C  C79  1  0.49477000  0.14474000  0.40863000  1.0 -0.0838750052
C  C80  1  0.50523000  0.64474000  0.09137000  1.0 -0.0838750052
C  C81  1  0.61084000  0.81736000  0.58202000  1.0 -0.0194916057
C  C82  1  0.38916000  0.31736000  0.91798000  1.0 -0.0194916057
C  C83  1  0.38916000  0.18264000  0.41798000  1.0 -0.0194916057
C  C84  1  0.61084000  0.68264000  0.08202000  1.0 -0.0194916057
C  C85  1  0.60976000  0.74056000  0.56246000  1.0 -0.0838750052
C  C86  1  0.39024000  0.24056000  0.93754000  1.0 -0.0838750052
C  C87  1  0.39024000  0.25944000  0.43754000  1.0 -0.0838750052
C  C88  1  0.60976000  0.75944000  0.06246000  1.0 -0.0838750052
C  C89  1  0.50375000  0.70232000  0.55225000  1.0 -0.0467537472
C  C90  1  0.49625000  0.20232000  0.94775000  1.0 -0.0467537472
C  C91  1  0.49625000  0.29768000  0.44775000  1.0 -0.0467537472
C  C92  1  0.50375000  0.79768000  0.05225000  1.0 -0.0467537472
C  C93  1  0.39836000  0.74223000  0.55764000  1.0 -0.0838750052
C  C94  1  0.60164000  0.24223000  0.94236000  1.0 -0.0838750052
C  C95  1  0.60164000  0.25777000  0.44236000  1.0 -0.0838750052
C  C96  1  0.39836000  0.75777000  0.05764000  1.0 -0.0838750052
C  C97  1  0.28340000  0.85985000  0.58750000  1.0 0.5871808047
C  C98  1  0.71660000  0.35985000  0.91250000  1.0 0.5871808047
C  C99  1  0.71660000  0.14015000  0.41250000  1.0 0.5871808047
C  C100  1  0.28340000  0.64015000  0.08750000  1.0 0.5871808047
C  C101  1  0.72771000  0.85583000  0.59574000  1.0 0.5871808047
C  C102  1  0.27229000  0.35583000  0.90426000  1.0 0.5871808047
C  C103  1  0.27229000  0.14417000  0.40426000  1.0 0.5871808047
C  C104  1  0.72771000  0.64417000  0.09574000  1.0 0.5871808047
C  C105  1  0.50208000  0.61734000  0.53674000  1.0 0.6061594898
C  C106  1  0.49792000  0.11734000  0.96326000  1.0 0.6061594898
C  C107  1  0.49792000  0.38266000  0.46326000  1.0 0.6061594898
C  C108  1  0.50208000  0.88266000  0.03674000  1.0 0.6061594898
O  O1  1  0.23529000  0.94861000  0.93080000  1.0 -0.508723178
O  O2  1  0.76471000  0.44861000  0.56920000  1.0 -0.508723178
O  O3  1  0.76471000  0.05139000  0.06920000  1.0 -0.508723178
O  O4  1  0.23529000  0.55139000  0.43080000  1.0 -0.508723178
O  O5  1  0.16347000  0.86102000  0.98767000  1.0 -0.4379161669
O  O6  1  0.83653000  0.36102000  0.51233000  1.0 -0.4379161669
O  O7  1  0.83653000  0.13898000  0.01233000  1.0 -0.4379161669
O  O8  1  0.16347000  0.63898000  0.48767000  1.0 -0.4379161669
O  O9  1  0.12130000  0.58404000  0.90957000  1.0 -0.4307890346
O  O10  1  0.87870000  0.08404000  0.59043000  1.0 -0.4307890346
O  O11  1  0.87870000  0.41596000  0.09043000  1.0 -0.4307890346
O  O12  1  0.12130000  0.91596000  0.40957000  1.0 -0.4307890346
O  O13  1  0.15022000  0.56833000  0.82097000  1.0 -0.5036169028
O  O14  1  0.84978000  0.06833000  0.67903000  1.0 -0.5036169028
O  O15  1  0.84978000  0.43167000  0.17903000  1.0 -0.5036169028
O  O16  1  0.15022000  0.93167000  0.32097000  1.0 -0.5036169028
O  O17  1  0.20219000  0.79576000  0.70046000  1.0 -0.4379161669
O  O18  1  0.79781000  0.29576000  0.79954000  1.0 -0.4379161669
O  O19  1  0.79781000  0.20424000  0.29954000  1.0 -0.4379161669
O  O20  1  0.20219000  0.70424000  0.20046000  1.0 -0.4379161669
O  O21  1  0.16194000  0.91549000  0.73173000  1.0 -0.508723178
O  O22  1  0.83806000  0.41549000  0.76827000  1.0 -0.508723178
O  O23  1  0.83806000  0.08451000  0.26827000  1.0 -0.508723178
O  O24  1  0.16194000  0.58451000  0.23173000  1.0 -0.508723178
O  O25  1  0.13319000  0.30284000  0.78572000  1.0 -0.4237962251
O  O26  1  0.86681000  0.80284000  0.71428000  1.0 -0.4237962251
O  O27  1  0.86681000  0.69716000  0.21428000  1.0 -0.4237962251
O  O28  1  0.13319000  0.19716000  0.28572000  1.0 -0.4237962251
O  O29  1  0.14264000  0.42255000  0.75410000  1.0 -0.4663161447
O  O30  1  0.85736000  0.92255000  0.74590000  1.0 -0.4663161447
O  O31  1  0.85736000  0.57745000  0.24590000  1.0 -0.4663161447
O  O32  1  0.14264000  0.07745000  0.25410000  1.0 -0.4663161447
O  O33  1  0.17847000  0.36588000  0.49995000  1.0 -0.4503746366
O  O34  1  0.82153000  0.86588000  0.00005000  1.0 -0.4503746366
O  O35  1  0.82153000  0.63412000  0.50005000  1.0 -0.4503746366
O  O36  1  0.17847000  0.13412000  0.99995000  1.0 -0.4503746366
O  O37  1  0.26244000  0.45235000  0.55674000  1.0 -0.5377389377
O  O38  1  0.73756000  0.95235000  0.94326000  1.0 -0.5377389377
O  O39  1  0.73756000  0.54765000  0.44326000  1.0 -0.5377389377
O  O40  1  0.26244000  0.04765000  0.05674000  1.0 -0.5377389377
O  O41  1  0.16814000  0.07576000  0.66749000  1.0 -0.508723178
O  O42  1  0.83186000  0.57576000  0.83251000  1.0 -0.508723178
O  O43  1  0.83186000  0.92424000  0.33251000  1.0 -0.508723178
O  O44  1  0.16814000  0.42424000  0.16749000  1.0 -0.508723178
O  O45  1  0.18037000  0.08774000  0.57759000  1.0 -0.4307890346
O  O46  1  0.81963000  0.58774000  0.92241000  1.0 -0.4307890346
O  O47  1  0.81963000  0.91226000  0.42241000  1.0 -0.4307890346
O  O48  1  0.18037000  0.41226000  0.07759000  1.0 -0.4307890346
O  O49  1  0.29150000  0.92180000  0.61631000  1.0 -0.5167687496
O  O50  1  0.70850000  0.42180000  0.88369000  1.0 -0.5167687496
O  O51  1  0.70850000  0.07820000  0.38369000  1.0 -0.5167687496
O  O52  1  0.29150000  0.57820000  0.11631000  1.0 -0.5167687496
O  O53  1  0.19112000  0.83057000  0.56802000  1.0 -0.555857498
O  O54  1  0.80888000  0.33057000  0.93198000  1.0 -0.555857498
O  O55  1  0.80888000  0.16943000  0.43198000  1.0 -0.555857498
O  O56  1  0.19112000  0.66943000  0.06802000  1.0 -0.555857498
O  O57  1  0.81735000  0.82663000  0.57582000  1.0 -0.5466306692
O  O58  1  0.18265000  0.32663000  0.92418000  1.0 -0.5466306692
O  O59  1  0.18265000  0.17337000  0.42418000  1.0 -0.5466306692
O  O60  1  0.81735000  0.67337000  0.07582000  1.0 -0.5466306692
O  O61  1  0.72390000  0.91415000  0.62825000  1.0 -0.5167687496
O  O62  1  0.27610000  0.41415000  0.87175000  1.0 -0.5167687496
O  O63  1  0.27610000  0.08585000  0.37175000  1.0 -0.5167687496
O  O64  1  0.72390000  0.58585000  0.12825000  1.0 -0.5167687496
O  O65  1  0.41205000  0.59140000  0.51656000  1.0 -0.4805644115
O  O66  1  0.58795000  0.09140000  0.98344000  1.0 -0.4805644115
O  O67  1  0.58795000  0.40860000  0.48344000  1.0 -0.4805644115
O  O68  1  0.41205000  0.90860000  0.01656000  1.0 -0.4805644115
O  O69  1  0.59248000  0.57852000  0.54735000  1.0 -0.4891571512
O  O70  1  0.40752000  0.07852000  0.95265000  1.0 -0.4891571512
O  O71  1  0.40752000  0.42148000  0.45265000  1.0 -0.4891571512
O  O72  1  0.59248000  0.92148000  0.04735000  1.0 -0.4891571512
O  O73  1  0.00363000  0.93739000  0.62332000  1.0 -0.837954331
O  O74  1  0.99637000  0.43739000  0.87668000  1.0 -0.837954331
O  O75  1  0.99637000  0.06261000  0.37668000  1.0 -0.837954331
O  O76  1  0.00363000  0.56261000  0.12332000  1.0 -0.837954331
O  O77  1  0.01487000  0.76010000  0.63769000  1.0 -0.0033846372
O  O78  1  0.98513000  0.26010000  0.86231000  1.0 -0.0112134614
O  O79  1  0.98513000  0.23990000  0.36231000  1.0 -0.0112134614
O  O80  1  0.01487000  0.73990000  0.13769000  1.0 -0.0112134614
O  O81  1  0.99755000  0.74193000  0.51886000  1.0 0.0973917285
O  O82  1  0.00245000  0.24193000  0.98114000  1.0 0.0973917285
O  O83  1  0.00245000  0.25807000  0.48114000  1.0 0.0973917285
O  O84  1  0.99755000  0.75807000  0.01886000  1.0 0.0973917285
O  O85  1  0.99005000  0.91059000  0.50553000  1.0 0.2097873466
O  O86  1  0.00995000  0.41059000  0.99447000  1.0 0.2097873466
O  O87  1  0.00995000  0.08941000  0.49447000  1.0 0.2097873466
O  O88  1  0.99005000  0.58941000  0.00553000  1.0 0.2097873466
