# DDEC6 charges by PACMAN v1.1 (https://github.com/mtap-research/PACMAN-charge/)
data_MIRLAB_ASR_pacman
_symmetry_space_group_name_H-M   'P 1'
_cell_length_a   10.56710000
_cell_length_b   10.56710000
_cell_length_c   7.68300000
_cell_angle_alpha   89.30010000
_cell_angle_beta   90.69990000
_cell_angle_gamma   100.54300000
_symmetry_Int_Tables_number   1
_chemical_formula_structural   KU(C4O5)2
_chemical_formula_sum   'K2 U2 C16 O20'
_cell_volume   843.32168863
_cell_formula_units_Z   2
loop_
 _symmetry_equiv_pos_site_id
 _symmetry_equiv_pos_as_xyz
  1  'x, y, z'
loop_
 _atom_site_type_symbol
 _atom_site_label
 _atom_site_symmetry_multiplicity
 _atom_site_fract_x
 _atom_site_fract_y
 _atom_site_fract_z
 _atom_site_occupancy
 _atom_site_charge
K  K1  1  0.13963000  0.13963000  0.25000000  1.0 0.9011694814
K  K2  1  0.86037000  0.86037000  0.75000000  1.0 0.9011694814
U  U1  1  0.23447000  0.23447000  0.75000000  1.0 2.4376344109
U  U2  1  0.76553000  0.76553000  0.25000000  1.0 2.4376344109
C  C1  1  0.17520000  0.45940000  0.46400000  1.0 0.617503109
C  C2  1  0.45940000  0.17520000  0.03600000  1.0 0.617503109
C  C3  1  0.82480000  0.54060000  0.53600000  1.0 0.617503109
C  C4  1  0.54060000  0.82480000  0.96400000  1.0 0.617503109
C  C5  1  0.14430000  0.58590000  0.43370000  1.0 -0.0744563292
C  C6  1  0.58590000  0.14430000  0.06630000  1.0 -0.0760224139
C  C7  1  0.85570000  0.41410000  0.56630000  1.0 -0.0744563292
C  C8  1  0.41410000  0.85570000  0.93370000  1.0 -0.0744563292
C  C9  1  0.11480000  0.68840000  0.40400000  1.0 -0.0266724544
C  C10  1  0.68840000  0.11480000  0.09600000  1.0 -0.0266724544
C  C11  1  0.88520000  0.31160000  0.59600000  1.0 -0.0266724544
C  C12  1  0.31160000  0.88520000  0.90400000  1.0 -0.0266724544
C  C13  1  0.08470000  0.81750000  0.37090000  1.0 0.6311854447
C  C14  1  0.81750000  0.08470000  0.12910000  1.0 0.6311854447
C  C15  1  0.91530000  0.18250000  0.62910000  1.0 0.6311854447
C  C16  1  0.18250000  0.91530000  0.87090000  1.0 0.6311854447
O  O1  1  0.29320000  0.17420000  0.55820000  1.0 -0.6833679949
O  O2  1  0.17420000  0.29320000  0.94180000  1.0 -0.6833679949
O  O3  1  0.70680000  0.82580000  0.44180000  1.0 -0.6833679949
O  O4  1  0.82580000  0.70680000  0.05820000  1.0 -0.6833679949
O  O5  1  0.18550000  0.42830000  0.62110000  1.0 -0.5999560928
O  O6  1  0.42830000  0.18550000  0.87890000  1.0 -0.5999560928
O  O7  1  0.81450000  0.57170000  0.37890000  1.0 -0.5999560928
O  O8  1  0.57170000  0.81450000  0.12110000  1.0 -0.5999560928
O  O9  1  0.19060000  0.39480000  0.33870000  1.0 -0.4226633733
O  O10  1  0.39480000  0.19060000  0.16130000  1.0 -0.4226633733
O  O11  1  0.80940000  0.60520000  0.66130000  1.0 -0.4226633733
O  O12  1  0.60520000  0.80940000  0.83870000  1.0 -0.4226633733
O  O13  1  0.96820000  0.82820000  0.37490000  1.0 -0.6361972963
O  O14  1  0.82820000  0.96820000  0.12510000  1.0 -0.6361972963
O  O15  1  0.03180000  0.17180000  0.62510000  1.0 -0.6361972963
O  O16  1  0.17180000  0.03180000  0.87490000  1.0 -0.6361972963
O  O17  1  0.17440000  0.90500000  0.34340000  1.0 -0.4756178831
O  O18  1  0.90500000  0.17440000  0.15660000  1.0 -0.4731529926
O  O19  1  0.82560000  0.09500000  0.65660000  1.0 -0.4731529926
O  O20  1  0.09500000  0.82560000  0.84340000  1.0 -0.4756178831
