# DDEC6 charges by PACMAN v1.1 (https://github.com/mtap-research/PACMAN-charge/)
data_MIRWIW_FSR_pacman
_symmetry_space_group_name_H-M   'P 1'
_cell_length_a   19.09940000
_cell_length_b   19.09940000
_cell_length_c   6.78800000
_cell_angle_alpha   90.00000000
_cell_angle_beta   90.00000000
_cell_angle_gamma   90.00000000
_symmetry_Int_Tables_number   1
_chemical_formula_structural   CuH5C8(NO)5
_chemical_formula_sum   'Cu8 H40 C64 N40 O40'
_cell_volume   2476.17470148
_cell_formula_units_Z   8
loop_
 _symmetry_equiv_pos_site_id
 _symmetry_equiv_pos_as_xyz
  1  'x, y, z'
loop_
 _atom_site_type_symbol
 _atom_site_label
 _atom_site_symmetry_multiplicity
 _atom_site_fract_x
 _atom_site_fract_y
 _atom_site_fract_z
 _atom_site_occupancy
 _atom_site_charge
Cu  Cu1  1  0.21878000  0.71878000  0.35318000  1.0 0.8308444164
Cu  Cu2  1  0.78122000  0.28122000  0.35318000  1.0 0.8308444164
Cu  Cu3  1  0.21878000  0.28122000  0.35318000  1.0 0.8308444164
Cu  Cu4  1  0.78122000  0.71878000  0.35318000  1.0 0.8308444164
Cu  Cu5  1  0.71878000  0.78122000  0.64682000  1.0 0.8308444164
Cu  Cu6  1  0.28122000  0.21878000  0.64682000  1.0 0.8308444164
Cu  Cu7  1  0.71878000  0.21878000  0.64682000  1.0 0.8308444164
Cu  Cu8  1  0.28122000  0.78122000  0.64682000  1.0 0.8308444164
H  H1  1  0.17460000  0.70560000  0.00210000  1.0 0.3041617266
H  H2  1  0.31030000  0.60590000  0.02100000  1.0 0.1313871286
H  H3  1  0.82540000  0.29440000  0.00210000  1.0 0.3041617266
H  H4  1  0.68970000  0.39410000  0.02100000  1.0 0.1313871286
H  H5  1  0.20560000  0.32540000  0.00210000  1.0 0.3041617266
H  H6  1  0.10590000  0.18970000  0.02100000  1.0 0.1313871286
H  H7  1  0.79440000  0.67460000  0.00210000  1.0 0.3041617266
H  H8  1  0.89410000  0.81030000  0.02100000  1.0 0.1313871286
H  H9  1  0.67460000  0.79440000  0.99790000  1.0 0.3041617266
H  H10  1  0.81030000  0.89410000  0.97900000  1.0 0.1313871286
H  H11  1  0.32540000  0.20560000  0.99790000  1.0 0.3041617266
H  H12  1  0.18970000  0.10590000  0.97900000  1.0 0.1313871286
H  H13  1  0.70560000  0.17460000  0.99790000  1.0 0.3041617266
H  H14  1  0.60590000  0.31030000  0.97900000  1.0 0.1313871286
H  H15  1  0.29440000  0.82540000  0.99790000  1.0 0.3041617266
H  H16  1  0.39410000  0.68970000  0.97900000  1.0 0.1313871286
H  H17  1  0.32540000  0.79440000  0.99790000  1.0 0.3041617266
H  H18  1  0.18970000  0.89410000  0.97900000  1.0 0.1313871286
H  H19  1  0.67460000  0.20560000  0.99790000  1.0 0.3041617266
H  H20  1  0.81030000  0.10590000  0.97900000  1.0 0.1313871286
H  H21  1  0.29440000  0.17460000  0.99790000  1.0 0.3041617266
H  H22  1  0.39410000  0.31030000  0.97900000  1.0 0.1313871286
H  H23  1  0.70560000  0.82540000  0.99790000  1.0 0.3041617266
H  H24  1  0.60590000  0.68970000  0.97900000  1.0 0.1313871286
H  H25  1  0.82540000  0.70560000  0.00210000  1.0 0.3041617266
H  H26  1  0.68970000  0.60590000  0.02100000  1.0 0.1313871286
H  H27  1  0.17460000  0.29440000  0.00210000  1.0 0.3041617266
H  H28  1  0.31030000  0.39410000  0.02100000  1.0 0.1313871286
H  H29  1  0.79440000  0.32540000  0.00210000  1.0 0.3041617266
H  H30  1  0.89410000  0.18970000  0.02100000  1.0 0.1313871286
H  H31  1  0.20560000  0.67460000  0.00210000  1.0 0.3041617266
H  H32  1  0.10590000  0.81030000  0.02100000  1.0 0.1313871286
H  H33  1  0.24180000  0.50000000  0.54020000  1.0 0.1236764035
H  H34  1  0.75820000  0.50000000  0.54020000  1.0 0.1236764035
H  H35  1  0.00000000  0.25820000  0.54020000  1.0 0.1236764035
H  H36  1  0.00000000  0.74180000  0.54020000  1.0 0.1236764035
H  H37  1  0.74180000  0.00000000  0.45980000  1.0 0.1236764035
H  H38  1  0.25820000  0.00000000  0.45980000  1.0 0.1236764035
H  H39  1  0.50000000  0.24180000  0.45980000  1.0 0.1236764035
H  H40  1  0.50000000  0.75820000  0.45980000  1.0 0.1236764035
C  C1  1  0.26392000  0.63116000  0.66250000  1.0 0.5556196562
C  C2  1  0.27488000  0.56272000  0.76350000  1.0 9.25428e-05
C  C3  1  0.30187000  0.56288000  0.95470000  1.0 -0.2228072266
C  C4  1  0.73608000  0.36884000  0.66250000  1.0 0.5556196562
C  C5  1  0.72512000  0.43728000  0.76350000  1.0 9.25428e-05
C  C6  1  0.69813000  0.43712000  0.95470000  1.0 -0.2228072266
C  C7  1  0.13116000  0.23608000  0.66250000  1.0 0.5556196562
C  C8  1  0.06272000  0.22512000  0.76350000  1.0 9.25428e-05
C  C9  1  0.06288000  0.19813000  0.95470000  1.0 -0.2228072266
C  C10  1  0.86884000  0.76392000  0.66250000  1.0 0.5556196562
C  C11  1  0.93728000  0.77488000  0.76350000  1.0 9.25428e-05
C  C12  1  0.93712000  0.80187000  0.95470000  1.0 -0.2228072266
C  C13  1  0.76392000  0.86884000  0.33750000  1.0 0.5556196562
C  C14  1  0.77488000  0.93728000  0.23650000  1.0 9.25428e-05
C  C15  1  0.80187000  0.93712000  0.04530000  1.0 -0.2228072266
C  C16  1  0.23608000  0.13116000  0.33750000  1.0 0.5556196562
C  C17  1  0.22512000  0.06272000  0.23650000  1.0 9.25428e-05
C  C18  1  0.19813000  0.06288000  0.04530000  1.0 -0.2228072266
C  C19  1  0.63116000  0.26392000  0.33750000  1.0 0.5556196562
C  C20  1  0.56272000  0.27488000  0.23650000  1.0 9.25428e-05
C  C21  1  0.56288000  0.30187000  0.04530000  1.0 -0.2228072266
C  C22  1  0.36884000  0.73608000  0.33750000  1.0 0.5556196562
C  C23  1  0.43728000  0.72512000  0.23650000  1.0 -4.68906e-05
C  C24  1  0.43712000  0.69813000  0.04530000  1.0 -0.2228072266
C  C25  1  0.23608000  0.86884000  0.33750000  1.0 0.5556196562
C  C26  1  0.22512000  0.93728000  0.23650000  1.0 9.25428e-05
C  C27  1  0.19813000  0.93712000  0.04530000  1.0 -0.2228072266
C  C28  1  0.76392000  0.13116000  0.33750000  1.0 0.5556196562
C  C29  1  0.77488000  0.06272000  0.23650000  1.0 9.25428e-05
C  C30  1  0.80187000  0.06288000  0.04530000  1.0 -0.2228072266
C  C31  1  0.36884000  0.26392000  0.33750000  1.0 0.5556196562
C  C32  1  0.43728000  0.27488000  0.23650000  1.0 9.25428e-05
C  C33  1  0.43712000  0.30187000  0.04530000  1.0 -0.2228072266
C  C34  1  0.63116000  0.73608000  0.33750000  1.0 0.5556196562
C  C35  1  0.56272000  0.72512000  0.23650000  1.0 -4.68906e-05
C  C36  1  0.56288000  0.69813000  0.04530000  1.0 -0.2228072266
C  C37  1  0.73608000  0.63116000  0.66250000  1.0 0.5556196562
C  C38  1  0.72512000  0.56272000  0.76350000  1.0 -4.68906e-05
C  C39  1  0.69813000  0.56288000  0.95470000  1.0 -0.2228072266
C  C40  1  0.26392000  0.36884000  0.66250000  1.0 0.5556196562
C  C41  1  0.27488000  0.43728000  0.76350000  1.0 9.25428e-05
C  C42  1  0.30187000  0.43712000  0.95470000  1.0 -0.2228072266
C  C43  1  0.86884000  0.23608000  0.66250000  1.0 0.5556196562
C  C44  1  0.93728000  0.22512000  0.76350000  1.0 9.25428e-05
C  C45  1  0.93712000  0.19813000  0.95470000  1.0 -0.2228072266
C  C46  1  0.13116000  0.76392000  0.66250000  1.0 0.5556196562
C  C47  1  0.06272000  0.77488000  0.76350000  1.0 9.25428e-05
C  C48  1  0.06288000  0.80187000  0.95470000  1.0 -0.2228072266
C  C49  1  0.26090000  0.50000000  0.66940000  1.0 -0.1714807496
C  C50  1  0.31610000  0.50000000  0.04660000  1.0 0.0772265997
C  C51  1  0.73910000  0.50000000  0.66940000  1.0 -0.1714807496
C  C52  1  0.68390000  0.50000000  0.04660000  1.0 0.0772265997
C  C53  1  0.00000000  0.23910000  0.66940000  1.0 -0.1714807496
C  C54  1  0.00000000  0.18390000  0.04660000  1.0 0.0772265997
C  C55  1  0.00000000  0.76090000  0.66940000  1.0 -0.1714807496
C  C56  1  0.00000000  0.81610000  0.04660000  1.0 0.0772265997
C  C57  1  0.76090000  0.00000000  0.33060000  1.0 -0.1714807496
C  C58  1  0.81610000  0.00000000  0.95340000  1.0 0.0772265997
C  C59  1  0.23910000  0.00000000  0.33060000  1.0 -0.1714807496
C  C60  1  0.18390000  0.00000000  0.95340000  1.0 0.0772265997
C  C61  1  0.50000000  0.26090000  0.33060000  1.0 -0.1714807496
C  C62  1  0.50000000  0.31610000  0.95340000  1.0 0.0772265997
C  C63  1  0.50000000  0.73910000  0.33060000  1.0 -0.1714807496
C  C64  1  0.50000000  0.68390000  0.95340000  1.0 0.0772265997
N  N1  1  0.37740000  0.53470000  0.30930000  1.0 0.190368441
N  N2  1  0.40800000  0.57430000  0.39920000  1.0 -0.1253975415
N  N3  1  0.62260000  0.46530000  0.30930000  1.0 0.190368441
N  N4  1  0.59200000  0.42570000  0.39920000  1.0 -0.1253975415
N  N5  1  0.03470000  0.12260000  0.30930000  1.0 0.190368441
N  N6  1  0.07430000  0.09200000  0.39920000  1.0 -0.1248503634
N  N7  1  0.96530000  0.87740000  0.30930000  1.0 0.190368441
N  N8  1  0.92570000  0.90800000  0.39920000  1.0 -0.1253975415
N  N9  1  0.87740000  0.96530000  0.69070000  1.0 0.190368441
N  N10  1  0.90800000  0.92570000  0.60080000  1.0 -0.1253975415
N  N11  1  0.12260000  0.03470000  0.69070000  1.0 0.190368441
N  N12  1  0.09200000  0.07430000  0.60080000  1.0 -0.1253975415
N  N13  1  0.53470000  0.37740000  0.69070000  1.0 0.190368441
N  N14  1  0.57430000  0.40800000  0.60080000  1.0 -0.1253975415
N  N15  1  0.46530000  0.62260000  0.69070000  1.0 0.190368441
N  N16  1  0.42570000  0.59200000  0.60080000  1.0 -0.1253975415
N  N17  1  0.12260000  0.96530000  0.69070000  1.0 0.190368441
N  N18  1  0.09200000  0.92570000  0.60080000  1.0 -0.1253975415
N  N19  1  0.87740000  0.03470000  0.69070000  1.0 0.190368441
N  N20  1  0.90800000  0.07430000  0.60080000  1.0 -0.1253975415
N  N21  1  0.46530000  0.37740000  0.69070000  1.0 0.190368441
N  N22  1  0.42570000  0.40800000  0.60080000  1.0 -0.1253975415
N  N23  1  0.53470000  0.62260000  0.69070000  1.0 0.190368441
N  N24  1  0.57430000  0.59200000  0.60080000  1.0 -0.1253975415
N  N25  1  0.62260000  0.53470000  0.30930000  1.0 0.190368441
N  N26  1  0.59200000  0.57430000  0.39920000  1.0 -0.1253975415
N  N27  1  0.37740000  0.46530000  0.30930000  1.0 0.190368441
N  N28  1  0.40800000  0.42570000  0.39920000  1.0 -0.1253975415
N  N29  1  0.96530000  0.12260000  0.30930000  1.0 0.190368441
N  N30  1  0.92570000  0.09200000  0.39920000  1.0 -0.1248503634
N  N31  1  0.03470000  0.87740000  0.30930000  1.0 0.190368441
N  N32  1  0.07430000  0.90800000  0.39920000  1.0 -0.1253975415
N  N33  1  0.34340000  0.50000000  0.24020000  1.0 0.190368441
N  N34  1  0.65660000  0.50000000  0.24020000  1.0 0.190368441
N  N35  1  0.00000000  0.15660000  0.24020000  1.0 0.190368441
N  N36  1  0.00000000  0.84340000  0.24020000  1.0 0.190368441
N  N37  1  0.84340000  0.00000000  0.75980000  1.0 0.190368441
N  N38  1  0.15660000  0.00000000  0.75980000  1.0 0.190368441
N  N39  1  0.50000000  0.34340000  0.75980000  1.0 0.190368441
N  N40  1  0.50000000  0.65660000  0.75980000  1.0 0.190368441
O  O1  1  0.23305000  0.63099000  0.49770000  1.0 -0.4969875151
O  O2  1  0.28594000  0.68478000  0.74690000  1.0 -0.5451962956
O  O3  1  0.76695000  0.36901000  0.49770000  1.0 -0.4969875151
O  O4  1  0.71406000  0.31522000  0.74690000  1.0 -0.5451962956
O  O5  1  0.13099000  0.26695000  0.49770000  1.0 -0.4969875151
O  O6  1  0.18478000  0.21406000  0.74690000  1.0 -0.5451962956
O  O7  1  0.86901000  0.73305000  0.49770000  1.0 -0.4969875151
O  O8  1  0.81522000  0.78594000  0.74690000  1.0 -0.5451962956
O  O9  1  0.73305000  0.86901000  0.50230000  1.0 -0.4969875151
O  O10  1  0.78594000  0.81522000  0.25310000  1.0 -0.5451962956
O  O11  1  0.26695000  0.13099000  0.50230000  1.0 -0.4969875151
O  O12  1  0.21406000  0.18478000  0.25310000  1.0 -0.5449190148
O  O13  1  0.63099000  0.23305000  0.50230000  1.0 -0.4969875151
O  O14  1  0.68478000  0.28594000  0.25310000  1.0 -0.5449190148
O  O15  1  0.36901000  0.76695000  0.50230000  1.0 -0.4969875151
O  O16  1  0.31522000  0.71406000  0.25310000  1.0 -0.5451962956
O  O17  1  0.26695000  0.86901000  0.50230000  1.0 -0.4969875151
O  O18  1  0.21406000  0.81522000  0.25310000  1.0 -0.5451962956
O  O19  1  0.73305000  0.13099000  0.50230000  1.0 -0.4969875151
O  O20  1  0.78594000  0.18478000  0.25310000  1.0 -0.5449190148
O  O21  1  0.36901000  0.23305000  0.50230000  1.0 -0.4969875151
O  O22  1  0.31522000  0.28594000  0.25310000  1.0 -0.5449190148
O  O23  1  0.63099000  0.76695000  0.50230000  1.0 -0.4969875151
O  O24  1  0.68478000  0.71406000  0.25310000  1.0 -0.5451962956
O  O25  1  0.76695000  0.63099000  0.49770000  1.0 -0.4969875151
O  O26  1  0.71406000  0.68478000  0.74690000  1.0 -0.5451962956
O  O27  1  0.23305000  0.36901000  0.49770000  1.0 -0.4969875151
O  O28  1  0.28594000  0.31522000  0.74690000  1.0 -0.5451962956
O  O29  1  0.86901000  0.26695000  0.49770000  1.0 -0.4969875151
O  O30  1  0.81522000  0.21406000  0.74690000  1.0 -0.5449190148
O  O31  1  0.13099000  0.73305000  0.49770000  1.0 -0.4969875151
O  O32  1  0.18478000  0.78594000  0.74690000  1.0 -0.5451962956
O  O33  1  0.17510000  0.67510000  0.09130000  1.0 -0.6333747515
O  O34  1  0.82490000  0.32490000  0.09130000  1.0 -0.6333747515
O  O35  1  0.17510000  0.32490000  0.09130000  1.0 -0.6333747515
O  O36  1  0.82490000  0.67510000  0.09130000  1.0 -0.6333747515
O  O37  1  0.67510000  0.82490000  0.90870000  1.0 -0.6333747515
O  O38  1  0.32490000  0.17510000  0.90870000  1.0 -0.6333747515
O  O39  1  0.67510000  0.17510000  0.90870000  1.0 -0.6333747515
O  O40  1  0.32490000  0.82490000  0.90870000  1.0 -0.6333747515
