# DDEC6 charges by PACMAN v1.1 (https://github.com/mtap-research/PACMAN-charge/)
data_MISQIQ05_FSR_pacman
_symmetry_space_group_name_H-M   'P 1'
_cell_length_a   9.34210000
_cell_length_b   9.34210000
_cell_length_c   6.99600000
_cell_angle_alpha   90.00000000
_cell_angle_beta   90.00000000
_cell_angle_gamma   120.00000000
_symmetry_Int_Tables_number   1
_chemical_formula_structural   Al2PH2(O3F)2
_chemical_formula_sum   'Al6 P3 H6 O18 F6'
_cell_volume   528.77322496
_cell_formula_units_Z   3
loop_
 _symmetry_equiv_pos_site_id
 _symmetry_equiv_pos_as_xyz
  1  'x, y, z'
loop_
 _atom_site_type_symbol
 _atom_site_label
 _atom_site_symmetry_multiplicity
 _atom_site_fract_x
 _atom_site_fract_y
 _atom_site_fract_z
 _atom_site_occupancy
 _atom_site_charge
Al  Al1  1  0.47892000  0.83800000  0.94364000  1.0 1.7836676209
Al  Al2  1  0.16200000  0.64092000  0.27697000  1.0 1.7836676209
Al  Al3  1  0.35908000  0.52108000  0.61031000  1.0 1.7836676209
Al  Al4  1  0.83800000  0.47892000  0.05636000  1.0 1.7836676209
Al  Al5  1  0.64092000  0.16200000  0.72303000  1.0 1.7836676209
Al  Al6  1  0.52108000  0.35908000  0.38969000  1.0 1.7836676209
P  P1  1  0.55059000  0.55059000  0.00000000  1.0 1.5947954028
P  P2  1  0.44941000  0.00000000  0.33333333  1.0 1.5995938747
P  P3  1  0.00000000  0.44941000  0.66666667  1.0 1.5995938747
H  H1  1  0.20400000  0.65200000  0.96800000  1.0 0.4311463206
H  H2  1  0.34800000  0.55200000  0.30133000  1.0 0.4311463206
H  H3  1  0.44800000  0.79600000  0.63467000  1.0 0.4311463206
H  H4  1  0.65200000  0.20400000  0.03200000  1.0 0.4311463206
H  H5  1  0.55200000  0.34800000  0.69867000  1.0 0.4311463206
H  H6  1  0.79600000  0.44800000  0.36533000  1.0 0.4311463206
O  O1  1  0.57340000  0.72160000  0.04090000  1.0 -0.8067415983
O  O2  1  0.27840000  0.85180000  0.37423000  1.0 -0.8067415983
O  O3  1  0.14820000  0.42660000  0.70757000  1.0 -0.8067415983
O  O4  1  0.72160000  0.57340000  0.95910000  1.0 -0.8067415983
O  O5  1  0.85180000  0.27840000  0.62577000  1.0 -0.8067415983
O  O6  1  0.42660000  0.14820000  0.29243000  1.0 -0.8067415983
O  O7  1  0.43450000  0.46750000  0.83020000  1.0 -0.7987570495
O  O8  1  0.53250000  0.96700000  0.16353000  1.0 -0.7987570495
O  O9  1  0.03300000  0.56550000  0.49687000  1.0 -0.7987570495
O  O10  1  0.46750000  0.43450000  0.16980000  1.0 -0.7987570495
O  O11  1  0.96700000  0.53250000  0.83647000  1.0 -0.7987570495
O  O12  1  0.56550000  0.03300000  0.50313000  1.0 -0.7987570495
O  O13  1  0.27010000  0.69860000  0.04040000  1.0 -0.8639320762
O  O14  1  0.30140000  0.57150000  0.37373000  1.0 -0.8639320762
O  O15  1  0.42850000  0.72990000  0.70707000  1.0 -0.8639320762
O  O16  1  0.69860000  0.27010000  0.95960000  1.0 -0.8639320762
O  O17  1  0.57150000  0.30140000  0.62627000  1.0 -0.8639320762
O  O18  1  0.72990000  0.42850000  0.29293000  1.0 -0.8639320762
F  F1  1  0.68180000  0.00000000  0.83333000  1.0 -0.5263084998
F  F2  1  0.00000000  0.68180000  0.16667000  1.0 -0.5263084998
F  F3  1  0.31820000  0.31820000  0.50000000  1.0 -0.5263084998
F  F4  1  0.43170000  0.00000000  0.83333000  1.0 -0.5624523193
F  F5  1  0.00000000  0.43170000  0.16667000  1.0 -0.5624523193
F  F6  1  0.56830000  0.56830000  0.50000000  1.0 -0.5624523193
