# DDEC6 charges by PACMAN v1.1 (https://github.com/mtap-research/PACMAN-charge/)
data_MISQIQ_ASR_pacman
_symmetry_space_group_name_H-M   'P 1'
_cell_length_a   9.34150000
_cell_length_b   9.34150000
_cell_length_c   6.99550000
_cell_angle_alpha   90.00000000
_cell_angle_beta   90.00000000
_cell_angle_gamma   120.00000000
_symmetry_Int_Tables_number   1
_chemical_formula_structural   Al2PH2(O3F)2
_chemical_formula_sum   'Al6 P3 H6 O18 F6'
_cell_volume   528.66751955
_cell_formula_units_Z   3
loop_
 _symmetry_equiv_pos_site_id
 _symmetry_equiv_pos_as_xyz
  1  'x, y, z'
loop_
 _atom_site_type_symbol
 _atom_site_label
 _atom_site_symmetry_multiplicity
 _atom_site_fract_x
 _atom_site_fract_y
 _atom_site_fract_z
 _atom_site_occupancy
 _atom_site_charge
Al  Al1  1  0.16196000  0.52127000  0.05625000  1.0 1.8019922162
Al  Al2  1  0.47873000  0.64069000  0.38958000  1.0 1.8019922162
Al  Al3  1  0.35931000  0.83804000  0.72292000  1.0 1.8019922162
Al  Al4  1  0.52127000  0.16196000  0.94375000  1.0 1.8019922162
Al  Al5  1  0.64069000  0.47873000  0.61042000  1.0 1.8019922162
Al  Al6  1  0.83804000  0.35931000  0.27708000  1.0 1.8019922162
P  P1  1  0.44930000  0.44930000  0.00000000  1.0 1.6025134707
P  P2  1  0.55070000  0.00000000  0.33333333  1.0 1.6025134707
P  P3  1  0.00000000  0.55070000  0.66666667  1.0 1.6025134707
H  H1  1  0.36050000  0.83100000  0.04290000  1.0 0.432969966
H  H2  1  0.16900000  0.52950000  0.37623000  1.0 0.432969966
H  H3  1  0.47050000  0.63950000  0.70957000  1.0 0.432969966
H  H4  1  0.83100000  0.36050000  0.95710000  1.0 0.432969966
H  H5  1  0.52950000  0.16900000  0.62377000  1.0 0.432969966
H  H6  1  0.63950000  0.47050000  0.29043000  1.0 0.432969966
O  O1  1  0.30180000  0.73020000  0.95990000  1.0 -0.9284419433
O  O2  1  0.26980000  0.57160000  0.29323000  1.0 -0.9284419433
O  O3  1  0.42840000  0.69820000  0.62657000  1.0 -0.9284419433
O  O4  1  0.73020000  0.30180000  0.04010000  1.0 -0.9284419433
O  O5  1  0.57160000  0.26980000  0.70677000  1.0 -0.9284419433
O  O6  1  0.69820000  0.42840000  0.37343000  1.0 -0.9284419433
O  O7  1  0.27830000  0.42700000  0.95920000  1.0 -0.7865164096
O  O8  1  0.57300000  0.85130000  0.29253000  1.0 -0.7865164096
O  O9  1  0.14870000  0.72170000  0.62587000  1.0 -0.7865164096
O  O10  1  0.42700000  0.27830000  0.04080000  1.0 -0.7865164096
O  O11  1  0.85130000  0.57300000  0.70747000  1.0 -0.7865164096
O  O12  1  0.72170000  0.14870000  0.37413000  1.0 -0.7865164096
O  O13  1  0.53250000  0.56580000  0.16910000  1.0 -0.782191596
O  O14  1  0.43420000  0.96670000  0.50243000  1.0 -0.782191596
O  O15  1  0.03330000  0.46750000  0.83577000  1.0 -0.782191596
O  O16  1  0.56580000  0.53250000  0.83090000  1.0 -0.782191596
O  O17  1  0.96670000  0.43420000  0.49757000  1.0 -0.782191596
O  O18  1  0.46750000  0.03330000  0.16423000  1.0 -0.782191596
F  F1  1  0.00000000  0.31830000  0.16667000  1.0 -0.5239735161
F  F2  1  0.68170000  0.68170000  0.50000000  1.0 -0.5239735161
F  F3  1  0.31830000  0.00000000  0.83333000  1.0 -0.5250355815
F  F4  1  0.00000000  0.56860000  0.16667000  1.0 -0.5538103993
F  F5  1  0.43140000  0.43140000  0.50000000  1.0 -0.5538103993
F  F6  1  0.56860000  0.00000000  0.83333000  1.0 -0.5538103993
