# DDEC6 charges by PACMAN v1.1 (https://github.com/mtap-research/PACMAN-charge/)
data_MITFON_ASR_pacman
_symmetry_space_group_name_H-M   'P 1'
_cell_length_a   22.56000000
_cell_length_b   22.56000000
_cell_length_c   17.40960000
_cell_angle_alpha   81.05920000
_cell_angle_beta   98.94080000
_cell_angle_gamma   89.24930000
_symmetry_Int_Tables_number   1
_chemical_formula_structural   Th3H48C99N8O21
_chemical_formula_sum   'Th6 H96 C198 N16 O42'
_cell_volume   8640.35884513
_cell_formula_units_Z   2
loop_
 _symmetry_equiv_pos_site_id
 _symmetry_equiv_pos_as_xyz
  1  'x, y, z'
loop_
 _atom_site_type_symbol
 _atom_site_label
 _atom_site_symmetry_multiplicity
 _atom_site_fract_x
 _atom_site_fract_y
 _atom_site_fract_z
 _atom_site_occupancy
 _atom_site_charge
Th  Th1  1  0.11792000  0.88208000  0.02451000  1.0 2.2482764297
Th  Th2  1  0.25384000  0.74616000  0.90621000  1.0 2.1532403999
Th  Th3  1  0.88208000  0.11792000  0.97549000  1.0 2.2422120147
Th  Th4  1  0.74616000  0.25384000  0.09379000  1.0 2.1563927703
Th  Th5  1  0.05747000  0.05747000  0.00000000  1.0 2.0248243385
Th  Th6  1  0.94253000  0.94253000  0.00000000  1.0 2.0294534736
H  H1  1  0.07668000  0.72414000  0.13288000  1.0 0.1194369773
H  H2  1  0.04923000  0.64853000  0.22440000  1.0 0.1194369773
H  H3  1  0.17483000  0.54185000  0.17792000  1.0 0.1194369773
H  H4  1  0.20991000  0.61561000  0.09196000  1.0 0.1286769641
H  H5  1  0.14763000  0.64099000  0.34555000  1.0 0.112716448
H  H6  1  0.15235000  0.63301000  0.49086000  1.0 0.1194369773
H  H7  1  0.07275000  0.63431000  0.59211000  1.0 0.1286769641
H  H8  1  0.10833000  0.69357000  0.68438000  1.0 0.1194369773
H  H9  1  0.24260000  0.56615000  0.77549000  1.0 0.1194369773
H  H10  1  0.19213000  0.50895000  0.68282000  1.0 0.1194369773
H  H11  1  0.08442000  0.47534000  0.71210000  1.0 0.1194369773
H  H12  1  0.03503000  0.37965000  0.71953000  1.0 0.1194369773
H  H13  1  0.93202000  0.27658000  0.61081000  1.0 0.1286769641
H  H14  1  0.91239000  0.21389000  0.72385000  1.0 0.1286769641
H  H15  1  0.08240000  0.21292000  0.81224000  1.0 0.1371162586
H  H16  1  0.10425000  0.26471000  0.70249000  1.0 0.1286769641
H  H17  1  0.00622000  0.22214000  0.52284000  1.0 0.1194369773
H  H18  1  0.00945000  0.22053000  0.38155000  1.0 0.1194369773
H  H19  1  0.11517000  0.25231000  0.27895000  1.0 0.1286769641
H  H20  1  0.11398000  0.19912000  0.17060000  1.0 0.1286769641
H  H21  1  0.94058000  0.24288000  0.10864000  1.0 0.1286769641
H  H22  1  0.94630000  0.29902000  0.20361000  1.0 0.1286769641
H  H23  1  0.05123000  0.39077000  0.14861000  1.0 0.1194369773
H  H24  1  0.08009000  0.49705000  0.13618000  1.0 0.112716448
H  H25  1  0.72414000  0.07668000  0.86712000  1.0 0.1194369773
H  H26  1  0.64853000  0.04923000  0.77560000  1.0 0.1194369773
H  H27  1  0.54185000  0.17483000  0.82208000  1.0 0.1194369773
H  H28  1  0.61561000  0.20991000  0.90804000  1.0 0.1286769641
H  H29  1  0.64099000  0.14763000  0.65445000  1.0 0.112716448
H  H30  1  0.63301000  0.15235000  0.50914000  1.0 0.1194369773
H  H31  1  0.63431000  0.07275000  0.40789000  1.0 0.1286769641
H  H32  1  0.69357000  0.10833000  0.31562000  1.0 0.1194369773
H  H33  1  0.56615000  0.24260000  0.22451000  1.0 0.1194369773
H  H34  1  0.50895000  0.19213000  0.31718000  1.0 0.1194369773
H  H35  1  0.47534000  0.08442000  0.28790000  1.0 0.1194369773
H  H36  1  0.37965000  0.03503000  0.28047000  1.0 0.1194369773
H  H37  1  0.27658000  0.93202000  0.38919000  1.0 0.1286769641
H  H38  1  0.21389000  0.91239000  0.27615000  1.0 0.1286769641
H  H39  1  0.21292000  0.08240000  0.18776000  1.0 0.1371162586
H  H40  1  0.26471000  0.10425000  0.29751000  1.0 0.1286769641
H  H41  1  0.22214000  0.00622000  0.47716000  1.0 0.1194369773
H  H42  1  0.22053000  0.00945000  0.61845000  1.0 0.1194369773
H  H43  1  0.25231000  0.11517000  0.72105000  1.0 0.1286769641
H  H44  1  0.19912000  0.11398000  0.82940000  1.0 0.1286769641
H  H45  1  0.24288000  0.94058000  0.89136000  1.0 0.1371162586
H  H46  1  0.29902000  0.94630000  0.79639000  1.0 0.1286769641
H  H47  1  0.39077000  0.05123000  0.85139000  1.0 0.1194369773
H  H48  1  0.49705000  0.08009000  0.86382000  1.0 0.112716448
H  H49  1  0.92332000  0.27586000  0.86712000  1.0 0.1194369773
H  H50  1  0.95077000  0.35147000  0.77560000  1.0 0.1194369773
H  H51  1  0.82517000  0.45815000  0.82208000  1.0 0.1194369773
H  H52  1  0.79009000  0.38439000  0.90804000  1.0 0.1194369773
H  H53  1  0.85237000  0.35901000  0.65445000  1.0 0.112716448
H  H54  1  0.84765000  0.36699000  0.50914000  1.0 0.1194369773
H  H55  1  0.92725000  0.36569000  0.40789000  1.0 0.1286769641
H  H56  1  0.89167000  0.30643000  0.31562000  1.0 0.1194369773
H  H57  1  0.75739000  0.43386000  0.22451000  1.0 0.1194369773
H  H58  1  0.80787000  0.49105000  0.31718000  1.0 0.1194369773
H  H59  1  0.91558000  0.52466000  0.28790000  1.0 0.1194369773
H  H60  1  0.96497000  0.62035000  0.28047000  1.0 0.1194369773
H  H61  1  0.06798000  0.72342000  0.38919000  1.0 0.1286769641
H  H62  1  0.08761000  0.78611000  0.27615000  1.0 0.1286769641
H  H63  1  0.91760000  0.78708000  0.18776000  1.0 0.1371162586
H  H64  1  0.89575000  0.73529000  0.29751000  1.0 0.1286769641
H  H65  1  0.99378000  0.77786000  0.47716000  1.0 0.1194369773
H  H66  1  0.99055000  0.77947000  0.61845000  1.0 0.1194369773
H  H67  1  0.88483000  0.74769000  0.72105000  1.0 0.1286769641
H  H68  1  0.88602000  0.80088000  0.82940000  1.0 0.1286769641
H  H69  1  0.05942000  0.75712000  0.89136000  1.0 0.1371162586
H  H70  1  0.05370000  0.70098000  0.79639000  1.0 0.1286769641
H  H71  1  0.94877000  0.60923000  0.85139000  1.0 0.1194369773
H  H72  1  0.91991000  0.50295000  0.86382000  1.0 0.112716448
H  H73  1  0.27586000  0.92332000  0.13288000  1.0 0.1194369773
H  H74  1  0.35147000  0.95077000  0.22440000  1.0 0.1194369773
H  H75  1  0.45815000  0.82517000  0.17792000  1.0 0.1194369773
H  H76  1  0.38439000  0.79009000  0.09196000  1.0 0.1286769641
H  H77  1  0.35901000  0.85237000  0.34555000  1.0 0.112716448
H  H78  1  0.36699000  0.84765000  0.49086000  1.0 0.1194369773
H  H79  1  0.36569000  0.92725000  0.59211000  1.0 0.1286769641
H  H80  1  0.30643000  0.89167000  0.68438000  1.0 0.1194369773
H  H81  1  0.43385000  0.75740000  0.77549000  1.0 0.1194369773
H  H82  1  0.49105000  0.80787000  0.68282000  1.0 0.1194369773
H  H83  1  0.52466000  0.91558000  0.71210000  1.0 0.1194369773
H  H84  1  0.62035000  0.96497000  0.71953000  1.0 0.1194369773
H  H85  1  0.72342000  0.06798000  0.61081000  1.0 0.1286769641
H  H86  1  0.78611000  0.08761000  0.72385000  1.0 0.1286769641
H  H87  1  0.78708000  0.91760000  0.81224000  1.0 0.1371162586
H  H88  1  0.73529000  0.89575000  0.70249000  1.0 0.1286769641
H  H89  1  0.77786000  0.99378000  0.52284000  1.0 0.1194369773
H  H90  1  0.77947000  0.99055000  0.38155000  1.0 0.1194369773
H  H91  1  0.74769000  0.88483000  0.27895000  1.0 0.1286769641
H  H92  1  0.80088000  0.88602000  0.17060000  1.0 0.1286769641
H  H93  1  0.75712000  0.05942000  0.10864000  1.0 0.1286769641
H  H94  1  0.70098000  0.05370000  0.20361000  1.0 0.1286769641
H  H95  1  0.60923000  0.94877000  0.14861000  1.0 0.1194369773
H  H96  1  0.50295000  0.91991000  0.13618000  1.0 0.112716448
C  C1  1  0.15440000  0.72740000  0.03280000  1.0 0.6229580067
C  C2  1  0.14030000  0.67910000  0.09840000  1.0 -0.0312537102
C  C3  1  0.09770000  0.68630000  0.14170000  1.0 -0.0974625401
C  C4  1  0.08230000  0.64210000  0.19850000  1.0 -0.1484262063
C  C5  1  0.11550000  0.58770000  0.21760000  1.0 0.0757640251
C  C6  1  0.15680000  0.58100000  0.17140000  1.0 -0.1352275438
C  C7  1  0.17620000  0.62260000  0.11640000  1.0 -0.0974625401
C  C8  1  0.10110000  0.54250000  0.28110000  1.0 -0.0484769582
C  C9  1  0.10790000  0.55550000  0.35610000  1.0 0.1545406752
C  C10  1  0.13430000  0.60850000  0.37950000  1.0 -0.1930981423
C  C11  1  0.13720000  0.60400000  0.45940000  1.0 -0.2002329195
C  C12  1  0.11390000  0.54970000  0.48540000  1.0 0.1871626326
C  C13  1  0.10690000  0.52690000  0.56620000  1.0 -0.0312537102
C  C14  1  0.12850000  0.56710000  0.62340000  1.0 0.0709149345
C  C15  1  0.10700000  0.61920000  0.62940000  1.0 -0.1484262063
C  C16  1  0.12880000  0.65640000  0.68510000  1.0 -0.0718815825
C  C17  1  0.17580000  0.64060000  0.73680000  1.0 -0.0363099198
C  C18  1  0.20340000  0.67920000  0.79000000  1.0 0.5295756631
C  C19  1  0.20740000  0.58060000  0.73980000  1.0 -0.0718815825
C  C20  1  0.17680000  0.54860000  0.68140000  1.0 -0.1790850909
C  C21  1  0.08210000  0.47730000  0.58880000  1.0 0.1608696044
C  C22  1  0.07350000  0.45450000  0.66890000  1.0 -0.1628433946
C  C23  1  0.04900000  0.40160000  0.67520000  1.0 -0.1790850909
C  C24  1  0.04860000  0.38480000  0.59720000  1.0 0.1871626326
C  C25  1  0.03290000  0.32650000  0.57970000  1.0 -0.0182636172
C  C26  1  0.01890000  0.28210000  0.64770000  1.0 0.0709149345
C  C27  1  0.96390000  0.26350000  0.65280000  1.0 -0.1484262063
C  C28  1  0.95250000  0.22470000  0.71990000  1.0 -0.1117156945
C  C29  1  0.99670000  0.20270000  0.77820000  1.0 -0.0182636172
C  C30  1  0.05060000  0.22360000  0.76930000  1.0 -0.1117156945
C  C31  1  0.06350000  0.25730000  0.70700000  1.0 -0.130283875
C  C32  1  0.98590000  0.16370000  0.85460000  1.0 0.6123443418
C  C33  1  0.02920000  0.30940000  0.50510000  1.0 0.1286769641
C  C34  1  0.01580000  0.25520000  0.48660000  1.0 -0.2002329195
C  C35  1  0.01750000  0.25370000  0.40880000  1.0 -0.1930981423
C  C36  1  0.03360000  0.31100000  0.37800000  1.0 0.1371162586
C  C37  1  0.04100000  0.33140000  0.29980000  1.0 -0.0484769582
C  C38  1  0.03190000  0.29150000  0.24390000  1.0 0.0709149345
C  C39  1  0.08010000  0.25370000  0.24040000  1.0 -0.1684942968
C  C40  1  0.07850000  0.21730000  0.18100000  1.0 -0.0909926915
C  C41  1  0.02120000  0.20940000  0.13740000  1.0 -0.0182636172
C  C42  1  0.97750000  0.24330000  0.14330000  1.0 -0.0909926915
C  C43  1  0.98240000  0.27940000  0.19750000  1.0 -0.1628433946
C  C44  1  0.02120000  0.16220000  0.08280000  1.0 0.5775898569
C  C45  1  0.05180000  0.39160000  0.26960000  1.0 0.1702737906
C  C46  1  0.05790000  0.41350000  0.19050000  1.0 -0.2002329195
C  C47  1  0.07430000  0.47110000  0.18270000  1.0 -0.1790850909
C  C48  1  0.08120000  0.48380000  0.26350000  1.0 0.1871626326
C  C49  1  0.72740000  0.15440000  0.96720000  1.0 0.6229580067
C  C50  1  0.67910000  0.14030000  0.90160000  1.0 -0.0312537102
C  C51  1  0.68630000  0.09770000  0.85830000  1.0 -0.0974625401
C  C52  1  0.64210000  0.08230000  0.80150000  1.0 -0.1484262063
C  C53  1  0.58770000  0.11550000  0.78240000  1.0 0.0757640251
C  C54  1  0.58100000  0.15680000  0.82860000  1.0 -0.1352275438
C  C55  1  0.62260000  0.17620000  0.88360000  1.0 -0.0974625401
C  C56  1  0.54250000  0.10110000  0.71890000  1.0 -0.0484769582
C  C57  1  0.55550000  0.10790000  0.64390000  1.0 0.1545406752
C  C58  1  0.60850000  0.13430000  0.62050000  1.0 -0.1930981423
C  C59  1  0.60400000  0.13720000  0.54060000  1.0 -0.2002329195
C  C60  1  0.54970000  0.11390000  0.51460000  1.0 0.1871626326
C  C61  1  0.52690000  0.10690000  0.43380000  1.0 -0.0312537102
C  C62  1  0.56710000  0.12850000  0.37660000  1.0 0.0709149345
C  C63  1  0.61920000  0.10700000  0.37060000  1.0 -0.1484262063
C  C64  1  0.65640000  0.12880000  0.31490000  1.0 -0.0718815825
C  C65  1  0.64060000  0.17580000  0.26320000  1.0 -0.0363099198
C  C66  1  0.67920000  0.20340000  0.21000000  1.0 0.5295756631
C  C67  1  0.58060000  0.20740000  0.26020000  1.0 -0.0718815825
C  C68  1  0.54860000  0.17680000  0.31860000  1.0 -0.1790850909
C  C69  1  0.47730000  0.08210000  0.41120000  1.0 0.1608696044
C  C70  1  0.45450000  0.07350000  0.33110000  1.0 -0.1628433946
C  C71  1  0.40160000  0.04900000  0.32480000  1.0 -0.1790850909
C  C72  1  0.38480000  0.04860000  0.40280000  1.0 0.1871626326
C  C73  1  0.32650000  0.03290000  0.42030000  1.0 -0.0182636172
C  C74  1  0.28210000  0.01890000  0.35230000  1.0 0.0709149345
C  C75  1  0.26350000  0.96390000  0.34720000  1.0 -0.1484262063
C  C76  1  0.22470000  0.95250000  0.28010000  1.0 -0.1117156945
C  C77  1  0.20270000  0.99670000  0.22180000  1.0 -0.0182636172
C  C78  1  0.22360000  0.05060000  0.23070000  1.0 -0.1117156945
C  C79  1  0.25730000  0.06350000  0.29300000  1.0 -0.130283875
C  C80  1  0.16370000  0.98590000  0.14540000  1.0 0.6123443418
C  C81  1  0.30940000  0.02920000  0.49490000  1.0 0.1286769641
C  C82  1  0.25520000  0.01580000  0.51340000  1.0 -0.2002329195
C  C83  1  0.25370000  0.01750000  0.59120000  1.0 -0.1930981423
C  C84  1  0.31100000  0.03360000  0.62200000  1.0 0.1371162586
C  C85  1  0.33140000  0.04100000  0.70020000  1.0 -0.0484769582
C  C86  1  0.29150000  0.03190000  0.75610000  1.0 0.0709149345
C  C87  1  0.25370000  0.08010000  0.75960000  1.0 -0.1684942968
C  C88  1  0.21730000  0.07850000  0.81900000  1.0 -0.0909926915
C  C89  1  0.20940000  0.02120000  0.86260000  1.0 -0.0182636172
C  C90  1  0.24330000  0.97750000  0.85670000  1.0 -0.0909926915
C  C91  1  0.27940000  0.98240000  0.80250000  1.0 -0.1628433946
C  C92  1  0.16220000  0.02120000  0.91720000  1.0 0.5775898569
C  C93  1  0.39160000  0.05180000  0.73040000  1.0 0.1702737906
C  C94  1  0.41350000  0.05790000  0.80950000  1.0 -0.2002329195
C  C95  1  0.47110000  0.07430000  0.81730000  1.0 -0.1790850909
C  C96  1  0.48380000  0.08120000  0.73650000  1.0 0.1871626326
C  C97  1  0.84560000  0.27260000  0.96720000  1.0 0.6229580067
C  C98  1  0.85970000  0.32090000  0.90160000  1.0 -0.0312537102
C  C99  1  0.90230000  0.31370000  0.85830000  1.0 -0.0974625401
C  C100  1  0.91770000  0.35790000  0.80150000  1.0 -0.1484262063
C  C101  1  0.88450000  0.41230000  0.78240000  1.0 0.0757640251
C  C102  1  0.84320000  0.41900000  0.82860000  1.0 -0.1352275438
C  C103  1  0.82380000  0.37740000  0.88360000  1.0 -0.0974625401
C  C104  1  0.89890000  0.45750000  0.71890000  1.0 -0.0484769582
C  C105  1  0.89210000  0.44450000  0.64390000  1.0 0.1545406752
C  C106  1  0.86570000  0.39150000  0.62050000  1.0 -0.1930981423
C  C107  1  0.86280000  0.39600000  0.54060000  1.0 -0.2002329195
C  C108  1  0.88610000  0.45030000  0.51460000  1.0 0.1871626326
C  C109  1  0.89310000  0.47310000  0.43380000  1.0 -0.0312537102
C  C110  1  0.87150000  0.43290000  0.37660000  1.0 0.0709149345
C  C111  1  0.89300000  0.38080000  0.37060000  1.0 -0.1484262063
C  C112  1  0.87120000  0.34360000  0.31490000  1.0 -0.0718815825
C  C113  1  0.82420000  0.35940000  0.26320000  1.0 -0.0312537102
C  C114  1  0.79660000  0.32080000  0.21000000  1.0 0.5295756631
C  C115  1  0.79260000  0.41940000  0.26020000  1.0 -0.0718815825
C  C116  1  0.82320000  0.45140000  0.31860000  1.0 -0.1790850909
C  C117  1  0.91790000  0.52270000  0.41120000  1.0 0.1608696044
C  C118  1  0.92650000  0.54550000  0.33110000  1.0 -0.1628433946
C  C119  1  0.95100000  0.59840000  0.32480000  1.0 -0.1790850909
C  C120  1  0.95140000  0.61520000  0.40280000  1.0 0.1871626326
C  C121  1  0.96710000  0.67350000  0.42030000  1.0 -0.0182636172
C  C122  1  0.98110000  0.71790000  0.35230000  1.0 0.0709149345
C  C123  1  0.03610000  0.73650000  0.34720000  1.0 -0.1484262063
C  C124  1  0.04750000  0.77530000  0.28010000  1.0 -0.1117156945
C  C125  1  0.00330000  0.79730000  0.22180000  1.0 -0.0182636172
C  C126  1  0.94940000  0.77640000  0.23070000  1.0 -0.1117156945
C  C127  1  0.93650000  0.74270000  0.29300000  1.0 -0.130283875
C  C128  1  0.01410000  0.83630000  0.14540000  1.0 0.6123443418
C  C129  1  0.97080000  0.69060000  0.49490000  1.0 0.1286769641
C  C130  1  0.98420000  0.74480000  0.51340000  1.0 -0.2002329195
C  C131  1  0.98250000  0.74630000  0.59120000  1.0 -0.1930981423
C  C132  1  0.96640000  0.68900000  0.62200000  1.0 0.1371162586
C  C133  1  0.95900000  0.66860000  0.70020000  1.0 -0.0484769582
C  C134  1  0.96810000  0.70850000  0.75610000  1.0 0.0709149345
C  C135  1  0.91990000  0.74630000  0.75960000  1.0 -0.1684942968
C  C136  1  0.92150000  0.78270000  0.81900000  1.0 -0.0909926915
C  C137  1  0.97880000  0.79060000  0.86260000  1.0 -0.0182636172
C  C138  1  0.02250000  0.75670000  0.85670000  1.0 -0.0909926915
C  C139  1  0.01760000  0.72060000  0.80250000  1.0 -0.1628433946
C  C140  1  0.97880000  0.83780000  0.91720000  1.0 0.5775898569
C  C141  1  0.94820000  0.60840000  0.73040000  1.0 0.1702737906
C  C142  1  0.94210000  0.58650000  0.80950000  1.0 -0.2002329195
C  C143  1  0.92570000  0.52890000  0.81730000  1.0 -0.1790850909
C  C144  1  0.91880000  0.51620000  0.73650000  1.0 0.1871626326
C  C145  1  0.27260000  0.84560000  0.03280000  1.0 0.6229580067
C  C146  1  0.32090000  0.85970000  0.09840000  1.0 -0.0312537102
C  C147  1  0.31370000  0.90230000  0.14170000  1.0 -0.0974625401
C  C148  1  0.35790000  0.91770000  0.19850000  1.0 -0.1484262063
C  C149  1  0.41230000  0.88450000  0.21760000  1.0 0.0757640251
C  C150  1  0.41900000  0.84320000  0.17140000  1.0 -0.1352275438
C  C151  1  0.37740000  0.82380000  0.11640000  1.0 -0.0974625401
C  C152  1  0.45750000  0.89890000  0.28110000  1.0 -0.0484769582
C  C153  1  0.44450000  0.89210000  0.35610000  1.0 0.1545406752
C  C154  1  0.39150000  0.86570000  0.37950000  1.0 -0.1930981423
C  C155  1  0.39600000  0.86280000  0.45940000  1.0 -0.2002329195
C  C156  1  0.45030000  0.88610000  0.48540000  1.0 0.1871626326
C  C157  1  0.47310000  0.89310000  0.56620000  1.0 -0.0312537102
C  C158  1  0.43290000  0.87150000  0.62340000  1.0 0.0709149345
C  C159  1  0.38080000  0.89300000  0.62940000  1.0 -0.1484262063
C  C160  1  0.34360000  0.87120000  0.68510000  1.0 -0.0718815825
C  C161  1  0.35940000  0.82420000  0.73680000  1.0 -0.0363099198
C  C162  1  0.32080000  0.79660000  0.79000000  1.0 0.5295756631
C  C163  1  0.41940000  0.79260000  0.73980000  1.0 -0.0718815825
C  C164  1  0.45140000  0.82320000  0.68140000  1.0 -0.1790850909
C  C165  1  0.52270000  0.91790000  0.58880000  1.0 0.1608696044
C  C166  1  0.54550000  0.92650000  0.66890000  1.0 -0.1628433946
C  C167  1  0.59840000  0.95100000  0.67520000  1.0 -0.1790850909
C  C168  1  0.61520000  0.95140000  0.59720000  1.0 0.1871626326
C  C169  1  0.67350000  0.96710000  0.57970000  1.0 -0.0182636172
C  C170  1  0.71790000  0.98110000  0.64770000  1.0 0.0709149345
C  C171  1  0.73650000  0.03610000  0.65280000  1.0 -0.1484262063
C  C172  1  0.77530000  0.04750000  0.71990000  1.0 -0.1117156945
C  C173  1  0.79730000  0.00330000  0.77820000  1.0 -0.0182636172
C  C174  1  0.77640000  0.94940000  0.76930000  1.0 -0.1117156945
C  C175  1  0.74270000  0.93650000  0.70700000  1.0 -0.130283875
C  C176  1  0.83630000  0.01410000  0.85460000  1.0 0.6123443418
C  C177  1  0.69060000  0.97080000  0.50510000  1.0 0.1286769641
C  C178  1  0.74480000  0.98420000  0.48660000  1.0 -0.2002329195
C  C179  1  0.74630000  0.98250000  0.40880000  1.0 -0.1930981423
C  C180  1  0.68900000  0.96640000  0.37800000  1.0 0.1371162586
C  C181  1  0.66860000  0.95900000  0.29980000  1.0 -0.0484769582
C  C182  1  0.70850000  0.96810000  0.24390000  1.0 0.0709149345
C  C183  1  0.74630000  0.91990000  0.24040000  1.0 -0.1684942968
C  C184  1  0.78270000  0.92150000  0.18100000  1.0 -0.0909926915
C  C185  1  0.79060000  0.97880000  0.13740000  1.0 -0.0182636172
C  C186  1  0.75670000  0.02250000  0.14330000  1.0 -0.0909926915
C  C187  1  0.72060000  0.01760000  0.19750000  1.0 -0.1628433946
C  C188  1  0.83780000  0.97880000  0.08280000  1.0 0.5775898569
C  C189  1  0.60840000  0.94820000  0.26960000  1.0 0.1702737906
C  C190  1  0.58650000  0.94210000  0.19050000  1.0 -0.2002329195
C  C191  1  0.52890000  0.92570000  0.18270000  1.0 -0.1790850909
C  C192  1  0.51620000  0.91880000  0.26350000  1.0 0.1871626326
C  C193  1  0.14280000  0.85720000  0.84490000  1.0 0.6751784854
C  C194  1  0.85720000  0.14280000  0.15510000  1.0 0.6733105355
C  C195  1  0.00970000  0.99030000  0.82700000  1.0 0.3816868388
C  C196  1  0.98140000  0.01860000  0.82500000  1.0 0.3486036085
C  C197  1  0.99030000  0.00970000  0.17300000  1.0 0.3816868388
C  C198  1  0.01860000  0.98140000  0.17500000  1.0 0.3486036085
N  N1  1  0.09390000  0.52050000  0.42300000  1.0 -0.3079978205
N  N2  1  0.06610000  0.43030000  0.54910000  1.0 -0.2787926994
N  N3  1  0.04020000  0.34720000  0.43870000  1.0 -0.2885498233
N  N4  1  0.06720000  0.43640000  0.31350000  1.0 -0.3218709208
N  N5  1  0.52050000  0.09390000  0.57700000  1.0 -0.3079978205
N  N6  1  0.43030000  0.06610000  0.45090000  1.0 -0.2787926994
N  N7  1  0.34720000  0.04020000  0.56130000  1.0 -0.2885498233
N  N8  1  0.43640000  0.06720000  0.68650000  1.0 -0.3218709208
N  N9  1  0.90610000  0.47950000  0.57700000  1.0 -0.3079978205
N  N10  1  0.93390000  0.56970000  0.45090000  1.0 -0.2787926994
N  N11  1  0.95980000  0.65280000  0.56130000  1.0 -0.2885498233
N  N12  1  0.93280000  0.56360000  0.68650000  1.0 -0.3218709208
N  N13  1  0.47950000  0.90610000  0.42300000  1.0 -0.3079978205
N  N14  1  0.56970000  0.93390000  0.54910000  1.0 -0.2787926994
N  N15  1  0.65280000  0.95980000  0.43870000  1.0 -0.2885498233
N  N16  1  0.56360000  0.93280000  0.31350000  1.0 -0.3218709208
O  O1  1  0.12620000  0.77620000  0.02930000  1.0 -0.6391176856
O  O2  1  0.18930000  0.71310000  0.99060000  1.0 -0.5958589143
O  O3  1  0.17490000  0.72210000  0.80340000  1.0 -0.5305273957
O  O4  1  0.24820000  0.65880000  0.84240000  1.0 -0.5655910797
O  O5  1  0.93190000  0.15670000  0.86340000  1.0 -0.6165418453
O  O6  1  0.03100000  0.14480000  0.89970000  1.0 -0.5612690575
O  O7  1  0.97970000  0.15450000  0.03650000  1.0 -0.4882793627
O  O8  1  0.07030000  0.14350000  0.07610000  1.0 -0.4692239441
O  O9  1  0.03000000  0.02860000  0.86620000  1.0 -0.3079978205
O  O10  1  0.77620000  0.12620000  0.97070000  1.0 -0.6391176856
O  O11  1  0.71310000  0.18930000  0.00940000  1.0 -0.5958589143
O  O12  1  0.72210000  0.17490000  0.19660000  1.0 -0.5305273957
O  O13  1  0.65880000  0.24820000  0.15760000  1.0 -0.5655910797
O  O14  1  0.15670000  0.93190000  0.13660000  1.0 -0.6165418453
O  O15  1  0.14480000  0.03100000  0.10030000  1.0 -0.5612690575
O  O16  1  0.15450000  0.97970000  0.96350000  1.0 -0.4882793627
O  O17  1  0.14350000  0.07030000  0.92390000  1.0 -0.4692239441
O  O18  1  0.02860000  0.03000000  0.13380000  1.0 -0.3079978205
O  O19  1  0.87380000  0.22380000  0.97070000  1.0 -0.6391176856
O  O20  1  0.81070000  0.28690000  0.00940000  1.0 -0.5958589143
O  O21  1  0.82510000  0.27790000  0.19660000  1.0 -0.5305273957
O  O22  1  0.75180000  0.34120000  0.15760000  1.0 -0.5655910797
O  O23  1  0.06810000  0.84330000  0.13660000  1.0 -0.6165418453
O  O24  1  0.96900000  0.85520000  0.10030000  1.0 -0.5612690575
O  O25  1  0.02030000  0.84550000  0.96350000  1.0 -0.4882793627
O  O26  1  0.92970000  0.85650000  0.92390000  1.0 -0.4692239441
O  O27  1  0.97000000  0.97140000  0.13380000  1.0 -0.3079978205
O  O28  1  0.22380000  0.87380000  0.02930000  1.0 -0.6391176856
O  O29  1  0.28690000  0.81070000  0.99060000  1.0 -0.5958589143
O  O30  1  0.27790000  0.82510000  0.80340000  1.0 -0.5305273957
O  O31  1  0.34120000  0.75180000  0.84240000  1.0 -0.5655910797
O  O32  1  0.84330000  0.06810000  0.86340000  1.0 -0.6165418453
O  O33  1  0.85520000  0.96900000  0.89970000  1.0 -0.5612690575
O  O34  1  0.84550000  0.02030000  0.03650000  1.0 -0.4882793627
O  O35  1  0.85650000  0.92970000  0.07610000  1.0 -0.4692239441
O  O36  1  0.97140000  0.97000000  0.86620000  1.0 -0.3079978205
O  O37  1  0.04380000  0.95620000  0.01570000  1.0 -1.0700632758
O  O38  1  0.10730000  0.89270000  0.87340000  1.0 -0.7095693774
O  O39  1  0.18000000  0.82000000  0.87400000  1.0 -0.4632904507
O  O40  1  0.95620000  0.04380000  0.98430000  1.0 -1.0700632758
O  O41  1  0.89270000  0.10730000  0.12660000  1.0 -0.7095693774
O  O42  1  0.82000000  0.18000000  0.12600000  1.0 -0.4632904507
