# DDEC6 charges by PACMAN v1.1 (https://github.com/mtap-research/PACMAN-charge/)
data_MITGIF_ASR_pacman
_symmetry_space_group_name_H-M   'P 1'
_cell_length_a   13.63370000
_cell_length_b   13.63370000
_cell_length_c   5.72520000
_cell_angle_alpha   88.22640000
_cell_angle_beta   91.77360000
_cell_angle_gamma   99.50380000
_symmetry_Int_Tables_number   1
_chemical_formula_structural   Yb2H2(C5O4)3
_chemical_formula_sum   'Yb4 H4 C30 O24'
_cell_volume   1048.71781493
_cell_formula_units_Z   2
loop_
 _symmetry_equiv_pos_site_id
 _symmetry_equiv_pos_as_xyz
  1  'x, y, z'
loop_
 _atom_site_type_symbol
 _atom_site_label
 _atom_site_symmetry_multiplicity
 _atom_site_fract_x
 _atom_site_fract_y
 _atom_site_fract_z
 _atom_site_occupancy
 _atom_site_charge
Yb  Yb1  1  0.62405000  0.89967000  0.58434000  1.0 2.0033721464
Yb  Yb2  1  0.10033000  0.37595000  0.58434000  1.0 2.0033721464
Yb  Yb3  1  0.37595000  0.10033000  0.41566000  1.0 2.0033721464
Yb  Yb4  1  0.89967000  0.62405000  0.41566000  1.0 2.0033721464
H  H1  1  0.37800000  0.62200000  0.78310000  1.0 0.1335078539
H  H2  1  0.62200000  0.37800000  0.21690000  1.0 0.1335078539
H  H3  1  0.23470000  0.76530000  0.38290000  1.0 0.1365456717
H  H4  1  0.76530000  0.23470000  0.61710000  1.0 0.1365456717
C  C1  1  0.34970000  0.65030000  0.90500000  1.0 -0.0956785096
C  C2  1  0.65030000  0.34970000  0.09500000  1.0 -0.0949170081
C  C3  1  0.39740000  0.73960000  0.99420000  1.0 -0.0435447343
C  C4  1  0.26040000  0.60260000  0.99420000  1.0 -0.0435447343
C  C5  1  0.60260000  0.26040000  0.00580000  1.0 -0.0435447343
C  C6  1  0.73960000  0.39740000  0.00580000  1.0 -0.0435447343
C  C7  1  0.35540000  0.78200000  0.17170000  1.0 -0.0108823728
C  C8  1  0.21800000  0.64460000  0.17170000  1.0 -0.0108823728
C  C9  1  0.64460000  0.21800000  0.82830000  1.0 -0.0108823728
C  C10  1  0.78200000  0.35540000  0.82830000  1.0 -0.0108823728
C  C11  1  0.26390000  0.73610000  0.26400000  1.0 -0.1263027838
C  C12  1  0.73610000  0.26390000  0.73600000  1.0 -0.1263027838
C  C13  1  0.48810000  0.79330000  0.87230000  1.0 0.5746290224
C  C14  1  0.20670000  0.51190000  0.87230000  1.0 0.5746290224
C  C15  1  0.51190000  0.20670000  0.12770000  1.0 0.5746290224
C  C16  1  0.79330000  0.48810000  0.12770000  1.0 0.5746290224
C  C17  1  0.39730000  0.88110000  0.27960000  1.0 0.6809933322
C  C18  1  0.11890000  0.60270000  0.27960000  1.0 0.6809933322
C  C19  1  0.60270000  0.11890000  0.72040000  1.0 0.6809933322
C  C20  1  0.88110000  0.39730000  0.72040000  1.0 0.6809933322
C  C21  1  0.80970000  0.91550000  0.78890000  1.0 0.6040373978
C  C22  1  0.08450000  0.19030000  0.78890000  1.0 0.6040373978
C  C23  1  0.19030000  0.08450000  0.21110000  1.0 0.6052373188
C  C24  1  0.91550000  0.80970000  0.21110000  1.0 0.6040373978
C  C25  1  0.90970000  0.95190000  0.90060000  1.0 -0.0606717928
C  C26  1  0.04810000  0.09030000  0.90060000  1.0 -0.0606717928
C  C27  1  0.09030000  0.04810000  0.09940000  1.0 -0.0606717928
C  C28  1  0.95190000  0.90970000  0.09940000  1.0 -0.0606717928
C  C29  1  0.95840000  0.04160000  0.80700000  1.0 0.0699720667
C  C30  1  0.04160000  0.95840000  0.19300000  1.0 0.0699720667
O  O1  1  0.54030000  0.74690000  0.75130000  1.0 -0.6149269802
O  O2  1  0.25310000  0.45970000  0.75130000  1.0 -0.6149269802
O  O3  1  0.45970000  0.25310000  0.24870000  1.0 -0.6149269802
O  O4  1  0.74690000  0.54030000  0.24870000  1.0 -0.6149269802
O  O5  1  0.50740000  0.88700000  0.88670000  1.0 -0.6006405814
O  O6  1  0.11300000  0.49260000  0.88670000  1.0 -0.6006405814
O  O7  1  0.49260000  0.11300000  0.11330000  1.0 -0.6006405814
O  O8  1  0.88700000  0.50740000  0.11330000  1.0 -0.6006405814
O  O9  1  0.47810000  0.88630000  0.39520000  1.0 -0.7241593315
O  O10  1  0.11370000  0.52190000  0.39520000  1.0 -0.7241593315
O  O11  1  0.52190000  0.11370000  0.60480000  1.0 -0.7241593315
O  O12  1  0.88630000  0.47810000  0.60480000  1.0 -0.7241593315
O  O13  1  0.34780000  0.94840000  0.25220000  1.0 -0.6200223503
O  O14  1  0.05160000  0.65220000  0.25220000  1.0 -0.6200223503
O  O15  1  0.65220000  0.05160000  0.74780000  1.0 -0.6200223503
O  O16  1  0.94840000  0.34780000  0.74780000  1.0 -0.6200223503
O  O17  1  0.73610000  0.87030000  0.90520000  1.0 -0.6200223503
O  O18  1  0.12970000  0.26390000  0.90520000  1.0 -0.6200223503
O  O19  1  0.26390000  0.12970000  0.09480000  1.0 -0.6200223503
O  O20  1  0.87030000  0.73610000  0.09480000  1.0 -0.6200223503
O  O21  1  0.79650000  0.93790000  0.57860000  1.0 -0.6276739104
O  O22  1  0.06210000  0.20350000  0.57860000  1.0 -0.6276739104
O  O23  1  0.20350000  0.06210000  0.42140000  1.0 -0.6276739104
O  O24  1  0.93790000  0.79650000  0.42140000  1.0 -0.6276739104
