# DDEC6 charges by PACMAN v1.1 (https://github.com/mtap-research/PACMAN-charge/)
data_MITPAJ_ASR_pacman
_symmetry_space_group_name_H-M   'P 1'
_cell_length_a   9.05400000
_cell_length_b   9.52100000
_cell_length_c   12.52200000
_cell_angle_alpha   97.55300000
_cell_angle_beta   92.72300000
_cell_angle_gamma   101.88100000
_symmetry_Int_Tables_number   1
_chemical_formula_structural   CuH3C7SO5
_chemical_formula_sum   'Cu2 H6 C14 S2 O10'
_cell_volume   1044.04811581
_cell_formula_units_Z   2
loop_
 _symmetry_equiv_pos_site_id
 _symmetry_equiv_pos_as_xyz
  1  'x, y, z'
loop_
 _atom_site_type_symbol
 _atom_site_label
 _atom_site_symmetry_multiplicity
 _atom_site_fract_x
 _atom_site_fract_y
 _atom_site_fract_z
 _atom_site_occupancy
 _atom_site_charge
Cu  Cu1  1  0.00000000  0.00000000  0.00000000  1.0 1.0834276386
Cu  Cu2  1  0.50000000  0.00000000  0.00000000  1.0 0.8875066348
H  H1  1  0.66210000  0.86760000  0.28490000  1.0 0.1367493578
H  H2  1  0.77830000  0.84630000  0.44770000  1.0 0.1301406555
H  H3  1  0.11540000  0.17560000  0.41220000  1.0 0.1301406555
H  H4  1  0.33790000  0.13240000  0.71510000  1.0 0.1367493578
H  H5  1  0.22170000  0.15370000  0.55230000  1.0 0.1301406555
H  H6  1  0.88460000  0.82440000  0.58780000  1.0 0.1301406555
C  C1  1  0.73820000  0.03170000  0.13970000  1.0 0.5998348304
C  C2  1  0.82030000  0.03120000  0.24660000  1.0 -0.0222096369
C  C3  1  0.75470000  0.92900000  0.30930000  1.0 -0.0566653638
C  C4  1  0.82420000  0.91650000  0.40770000  1.0 -0.108070395
C  C5  1  0.96110000  0.00730000  0.44700000  1.0 0.0839111962
C  C6  1  0.02500000  0.11180000  0.38600000  1.0 -0.1025283924
C  C7  1  0.95710000  0.12400000  0.28610000  1.0 -0.0750843204
C  C8  1  0.26180000  0.96830000  0.86030000  1.0 0.5998348304
C  C9  1  0.17970000  0.96880000  0.75340000  1.0 -0.0222096369
C  C10  1  0.24530000  0.07100000  0.69070000  1.0 -0.0548848949
C  C11  1  0.17580000  0.08350000  0.59230000  1.0 -0.108070395
C  C12  1  0.03890000  0.99270000  0.55300000  1.0 0.0839111962
C  C13  1  0.97500000  0.88820000  0.61400000  1.0 -0.1025283924
C  C14  1  0.04290000  0.87600000  0.71390000  1.0 -0.0724887989
S  S1  1  0.04584000  0.26317000  0.21399000  1.0 1.1160171934
S  S2  1  0.95416000  0.73683000  0.78601000  1.0 1.1147366472
O  O1  1  0.79290000  0.00700000  0.05170000  1.0 -0.5968020252
O  O2  1  0.60430000  0.05060000  0.14370000  1.0 -0.5514507881
O  O3  1  0.11330000  0.18960000  0.12540000  1.0 -0.6346360735
O  O4  1  0.15840000  0.36070000  0.28990000  1.0 -0.5180179915
O  O5  1  0.92580000  0.32790000  0.17730000  1.0 -0.5180179915
O  O6  1  0.20710000  0.99300000  0.94830000  1.0 -0.5968020252
O  O7  1  0.39570000  0.94940000  0.85630000  1.0 -0.5514507881
O  O8  1  0.88670000  0.81040000  0.87460000  1.0 -0.6352876119
O  O9  1  0.84160000  0.63930000  0.71010000  1.0 -0.5180179915
O  O10  1  0.07420000  0.67210000  0.82270000  1.0 -0.5180179915
