# DDEC6 charges by PACMAN v1.1 (https://github.com/mtap-research/PACMAN-charge/)
data_MITSAK_FSR_pacman
_symmetry_space_group_name_H-M   'P 1'
_cell_length_a   16.09840000
_cell_length_b   14.60700000
_cell_length_c   16.12570000
_cell_angle_alpha   90.00000000
_cell_angle_beta   101.47900000
_cell_angle_gamma   90.00000000
_symmetry_Int_Tables_number   1
_chemical_formula_structural   CdH3C9O7
_chemical_formula_sum   'Cd8 H24 C72 O56'
_cell_volume   3716.09990090
_cell_formula_units_Z   8
loop_
 _symmetry_equiv_pos_site_id
 _symmetry_equiv_pos_as_xyz
  1  'x, y, z'
loop_
 _atom_site_type_symbol
 _atom_site_label
 _atom_site_symmetry_multiplicity
 _atom_site_fract_x
 _atom_site_fract_y
 _atom_site_fract_z
 _atom_site_occupancy
 _atom_site_charge
Cd  Cd1  1  0.54228000  0.06820000  0.60860000  1.0 1.04644105
Cd  Cd2  1  0.45772000  0.56820000  0.89140000  1.0 1.04644105
Cd  Cd3  1  0.45772000  0.93180000  0.39140000  1.0 1.04644105
Cd  Cd4  1  0.54228000  0.43180000  0.10860000  1.0 1.04644105
Cd  Cd5  1  0.95767000  0.93266000  0.89137000  1.0 1.0232069608
Cd  Cd6  1  0.04233000  0.43266000  0.60863000  1.0 1.0232069608
Cd  Cd7  1  0.04233000  0.06734000  0.10863000  1.0 1.0232069608
Cd  Cd8  1  0.95767000  0.56734000  0.39137000  1.0 1.0253652053
H  H1  1  0.92320000  0.77510000  0.62490000  1.0 0.1244380341
H  H2  1  0.07680000  0.27510000  0.87510000  1.0 0.1244380341
H  H3  1  0.07680000  0.22490000  0.37510000  1.0 0.1244380341
H  H4  1  0.92320000  0.72490000  0.12490000  1.0 0.1244380341
H  H5  1  0.72620000  0.78500000  0.43220000  1.0 0.1289097907
H  H6  1  0.27380000  0.28500000  0.06780000  1.0 0.1289097907
H  H7  1  0.27380000  0.21500000  0.56780000  1.0 0.1289097907
H  H8  1  0.72620000  0.71500000  0.93220000  1.0 0.1289097907
H  H9  1  0.73050000  0.94480000  0.63370000  1.0 0.1357228326
H  H10  1  0.26950000  0.44480000  0.86630000  1.0 0.1357228326
H  H11  1  0.26950000  0.05520000  0.36630000  1.0 0.1357228326
H  H12  1  0.73050000  0.55520000  0.13370000  1.0 0.1357228326
H  H13  1  0.57700000  0.27410000  0.37230000  1.0 0.1289097907
H  H14  1  0.42300000  0.77410000  0.12770000  1.0 0.1289097907
H  H15  1  0.42300000  0.72590000  0.62770000  1.0 0.1289097907
H  H16  1  0.57700000  0.22590000  0.87230000  1.0 0.1289097907
H  H17  1  0.76380000  0.44750000  0.36460000  1.0 0.1289097907
H  H18  1  0.23620000  0.94750000  0.13540000  1.0 0.1289097907
H  H19  1  0.23620000  0.55250000  0.63540000  1.0 0.1289097907
H  H20  1  0.76380000  0.05250000  0.86460000  1.0 0.1289097907
H  H21  1  0.77380000  0.28990000  0.56920000  1.0 0.1357228326
H  H22  1  0.22620000  0.78990000  0.93080000  1.0 0.1357228326
H  H23  1  0.22620000  0.71010000  0.43080000  1.0 0.1357228326
H  H24  1  0.77380000  0.21010000  0.06920000  1.0 0.1357228326
C  C1  1  0.88230000  0.89670000  0.72910000  1.0 0.5288791152
C  C2  1  0.11770000  0.39670000  0.77090000  1.0 0.5288791152
C  C3  1  0.11770000  0.10330000  0.27090000  1.0 0.5288791152
C  C4  1  0.88230000  0.60330000  0.22910000  1.0 0.5288791152
C  C5  1  0.83350000  0.86640000  0.63990000  1.0 -0.0110543139
C  C6  1  0.16650000  0.36640000  0.86010000  1.0 -0.0110543139
C  C7  1  0.16650000  0.13360000  0.36010000  1.0 -0.0110543139
C  C8  1  0.83350000  0.63360000  0.13990000  1.0 -0.0110543139
C  C9  1  0.87110000  0.79960000  0.59910000  1.0 -0.1013511328
C  C10  1  0.12890000  0.29960000  0.90090000  1.0 -0.1013511328
C  C11  1  0.12890000  0.20040000  0.40090000  1.0 -0.1013511328
C  C12  1  0.87110000  0.70040000  0.09910000  1.0 -0.1013511328
C  C13  1  0.83210000  0.76960000  0.52150000  1.0 -0.0110543139
C  C14  1  0.16790000  0.26960000  0.97850000  1.0 -0.0110543139
C  C15  1  0.16790000  0.23040000  0.47850000  1.0 -0.0110543139
C  C16  1  0.83210000  0.73040000  0.02150000  1.0 -0.0110543139
C  C17  1  0.75400000  0.80610000  0.48480000  1.0 -0.0912667292
C  C18  1  0.24600000  0.30610000  0.01520000  1.0 -0.0912667292
C  C19  1  0.24600000  0.19390000  0.51520000  1.0 -0.0912667292
C  C20  1  0.75400000  0.69390000  0.98480000  1.0 -0.0912667292
C  C21  1  0.71640000  0.87410000  0.52560000  1.0 -0.039166094
C  C22  1  0.28360000  0.37410000  0.97440000  1.0 -0.039166094
C  C23  1  0.28360000  0.12590000  0.47440000  1.0 -0.039166094
C  C24  1  0.71640000  0.62590000  0.02560000  1.0 -0.039166094
C  C25  1  0.75610000  0.90190000  0.60430000  1.0 -0.1013511328
C  C26  1  0.24390000  0.40190000  0.89570000  1.0 -0.1013511328
C  C27  1  0.24390000  0.09810000  0.39570000  1.0 -0.1013511328
C  C28  1  0.75610000  0.59810000  0.10430000  1.0 -0.1013511328
C  C29  1  0.87090000  0.70110000  0.46860000  1.0 0.520032179
C  C30  1  0.12910000  0.20110000  0.03140000  1.0 0.520032179
C  C31  1  0.12910000  0.29890000  0.53140000  1.0 0.520032179
C  C32  1  0.87090000  0.79890000  0.96860000  1.0 0.520032179
C  C33  1  0.63020000  0.90790000  0.48730000  1.0 0.5648954825
C  C34  1  0.36980000  0.40790000  0.01270000  1.0 0.5648954825
C  C35  1  0.36980000  0.09210000  0.51270000  1.0 0.5648954825
C  C36  1  0.63020000  0.59210000  0.98730000  1.0 0.5648954825
C  C37  1  0.62830000  0.20160000  0.52790000  1.0 0.5142464654
C  C38  1  0.37170000  0.70160000  0.97210000  1.0 0.520032179
C  C39  1  0.37170000  0.79840000  0.47210000  1.0 0.5142464654
C  C40  1  0.62830000  0.29840000  0.02790000  1.0 0.520032179
C  C41  1  0.67060000  0.26930000  0.48520000  1.0 -0.0207362938
C  C42  1  0.32940000  0.76930000  0.01480000  1.0 -0.0207362938
C  C43  1  0.32940000  0.73070000  0.51480000  1.0 -0.0207362938
C  C44  1  0.67060000  0.23070000  0.98520000  1.0 -0.0207362938
C  C45  1  0.62820000  0.30060000  0.39810000  1.0 -0.0844754486
C  C46  1  0.37180000  0.80060000  0.10190000  1.0 -0.0844754486
C  C47  1  0.37180000  0.69940000  0.60190000  1.0 -0.0844754486
C  C48  1  0.62820000  0.19940000  0.89810000  1.0 -0.0844754486
C  C49  1  0.66120000  0.36360000  0.35820000  1.0 -0.0520479007
C  C50  1  0.33880000  0.86360000  0.14180000  1.0 -0.0520479007
C  C51  1  0.33880000  0.63640000  0.64180000  1.0 -0.0520479007
C  C52  1  0.66120000  0.13640000  0.85820000  1.0 -0.0520479007
C  C53  1  0.74030000  0.40240000  0.39360000  1.0 -0.0565902251
C  C54  1  0.25970000  0.90240000  0.10640000  1.0 -0.0565902251
C  C55  1  0.25970000  0.59760000  0.60640000  1.0 -0.0520479007
C  C56  1  0.74030000  0.09760000  0.89360000  1.0 -0.0565902251
C  C57  1  0.78590000  0.37050000  0.47780000  1.0 -0.0256747652
C  C58  1  0.21410000  0.87050000  0.02220000  1.0 -0.0256747652
C  C59  1  0.21410000  0.62950000  0.52220000  1.0 -0.0256747652
C  C60  1  0.78590000  0.12950000  0.97780000  1.0 -0.0256747652
C  C61  1  0.74630000  0.30850000  0.51560000  1.0 -0.1013511328
C  C62  1  0.25370000  0.80850000  0.98440000  1.0 -0.1013511328
C  C63  1  0.25370000  0.69150000  0.48440000  1.0 -0.1013511328
C  C64  1  0.74630000  0.19150000  0.01560000  1.0 -0.1013511328
C  C65  1  0.61940000  0.39630000  0.26890000  1.0 0.5288791152
C  C66  1  0.38060000  0.89630000  0.23110000  1.0 0.5288791152
C  C67  1  0.38060000  0.60370000  0.73110000  1.0 0.5288791152
C  C68  1  0.61940000  0.10370000  0.76890000  1.0 0.5288791152
C  C69  1  0.87160000  0.40820000  0.51330000  1.0 0.547418
C  C70  1  0.12840000  0.90820000  0.98670000  1.0 0.547418
C  C71  1  0.12840000  0.59180000  0.48670000  1.0 0.547418
C  C72  1  0.87160000  0.09180000  0.01330000  1.0 0.547418
O  O1  1  0.85284000  0.96460000  0.76271000  1.0 -0.471138548
O  O2  1  0.14716000  0.46460000  0.73729000  1.0 -0.471138548
O  O3  1  0.14716000  0.03540000  0.23729000  1.0 -0.4812235128
O  O4  1  0.85284000  0.53540000  0.26271000  1.0 -0.471138548
O  O5  1  0.94627000  0.85510000  0.76408000  1.0 -0.5038736744
O  O6  1  0.05373000  0.35510000  0.73592000  1.0 -0.5038736744
O  O7  1  0.05373000  0.14490000  0.23592000  1.0 -0.5038736744
O  O8  1  0.94627000  0.64490000  0.26408000  1.0 -0.5038736744
O  O9  1  0.59588000  0.96600000  0.52708000  1.0 -0.548681034
O  O10  1  0.40412000  0.46600000  0.97292000  1.0 -0.548681034
O  O11  1  0.40412000  0.03400000  0.47292000  1.0 -0.548681034
O  O12  1  0.59588000  0.53400000  0.02708000  1.0 -0.548681034
O  O13  1  0.59436000  0.87415000  0.41654000  1.0 -0.5136317371
O  O14  1  0.40564000  0.37415000  0.08346000  1.0 -0.5136317371
O  O15  1  0.40564000  0.12585000  0.58346000  1.0 -0.5136317371
O  O16  1  0.59436000  0.62585000  0.91654000  1.0 -0.5136317371
O  O17  1  0.83270000  0.67310000  0.40146000  1.0 -0.4306281937
O  O18  1  0.16730000  0.17310000  0.09854000  1.0 -0.4306281937
O  O19  1  0.16730000  0.32690000  0.59854000  1.0 -0.4363704903
O  O20  1  0.83270000  0.82690000  0.90146000  1.0 -0.4306281937
O  O21  1  0.94637000  0.67260000  0.50344000  1.0 -0.4812235128
O  O22  1  0.05363000  0.17260000  0.99656000  1.0 -0.4812235128
O  O23  1  0.05363000  0.32740000  0.49656000  1.0 -0.4812235128
O  O24  1  0.94637000  0.82740000  0.00344000  1.0 -0.4812235128
O  O25  1  0.55630000  0.17230000  0.49953000  1.0 -0.4812235128
O  O26  1  0.44370000  0.67230000  0.00047000  1.0 -0.4812235128
O  O27  1  0.44370000  0.82770000  0.50047000  1.0 -0.4812235128
O  O28  1  0.55630000  0.32770000  0.99953000  1.0 -0.4812235128
O  O29  1  0.66970000  0.17260000  0.59950000  1.0 -0.471138548
O  O30  1  0.33030000  0.67260000  0.90050000  1.0 -0.471138548
O  O31  1  0.33030000  0.82740000  0.40050000  1.0 -0.471138548
O  O32  1  0.66970000  0.32740000  0.09950000  1.0 -0.471138548
O  O33  1  0.55520000  0.35070000  0.23710000  1.0 -0.4920959381
O  O34  1  0.44480000  0.85070000  0.26290000  1.0 -0.4920959381
O  O35  1  0.44480000  0.64930000  0.76290000  1.0 -0.4920959381
O  O36  1  0.55520000  0.14930000  0.73710000  1.0 -0.4920959381
O  O37  1  0.64710000  0.45950000  0.23532000  1.0 -0.4306281937
O  O38  1  0.35290000  0.95950000  0.26468000  1.0 -0.4247350378
O  O39  1  0.35290000  0.54050000  0.76468000  1.0 -0.4306281937
O  O40  1  0.64710000  0.04050000  0.73532000  1.0 -0.4306281937
O  O41  1  0.90560000  0.37650000  0.58443000  1.0 -0.4812235128
O  O42  1  0.09440000  0.87650000  0.91557000  1.0 -0.4812235128
O  O43  1  0.09440000  0.62350000  0.41557000  1.0 -0.4812235128
O  O44  1  0.90560000  0.12350000  0.08443000  1.0 -0.4812235128
O  O45  1  0.90578000  0.46280000  0.47600000  1.0 -0.5136317371
O  O46  1  0.09422000  0.96280000  0.02400000  1.0 -0.5136317371
O  O47  1  0.09422000  0.53720000  0.52400000  1.0 -0.5136317371
O  O48  1  0.90578000  0.03720000  0.97600000  1.0 -0.5136317371
O  O49  1  0.01390000  0.07230000  0.85290000  1.0 0.2668554948
O  O50  1  0.98610000  0.57230000  0.64710000  1.0 0.2611644285
O  O51  1  0.98610000  0.92770000  0.14710000  1.0 0.2611644285
O  O52  1  0.01390000  0.42770000  0.35290000  1.0 0.2668554948
O  O53  1  0.48880000  0.92910000  0.64940000  1.0 0.1954519616
O  O54  1  0.51120000  0.42910000  0.85060000  1.0 0.1915583478
O  O55  1  0.51120000  0.07090000  0.35060000  1.0 0.1915583478
O  O56  1  0.48880000  0.57090000  0.14940000  1.0 0.1915583478
