# DDEC6 charges by PACMAN v1.1 (https://github.com/mtap-research/PACMAN-charge/)
data_MITTAL_FSR_pacman
_symmetry_space_group_name_H-M   'P 1'
_cell_length_a   10.22350000
_cell_length_b   12.98940000
_cell_length_c   30.48700000
_cell_angle_alpha   90.00000000
_cell_angle_beta   91.99300000
_cell_angle_gamma   90.00000000
_symmetry_Int_Tables_number   1
_chemical_formula_structural   Cd2H6C18O13
_chemical_formula_sum   'Cd8 H24 C72 O52'
_cell_volume   4046.13707254
_cell_formula_units_Z   4
loop_
 _symmetry_equiv_pos_site_id
 _symmetry_equiv_pos_as_xyz
  1  'x, y, z'
loop_
 _atom_site_type_symbol
 _atom_site_label
 _atom_site_symmetry_multiplicity
 _atom_site_fract_x
 _atom_site_fract_y
 _atom_site_fract_z
 _atom_site_occupancy
 _atom_site_charge
Cd  Cd1  1  0.22919000  0.61950000  0.81561000  1.0 1.018545815
Cd  Cd2  1  0.77081000  0.11950000  0.68439000  1.0 1.018545815
Cd  Cd3  1  0.77081000  0.38050000  0.18439000  1.0 1.018545815
Cd  Cd4  1  0.22919000  0.88050000  0.31561000  1.0 1.0140627907
Cd  Cd5  1  0.45517000  0.47676000  0.87020000  1.0 1.0510144916
Cd  Cd6  1  0.54483000  0.97676000  0.62980000  1.0 1.0510144916
Cd  Cd7  1  0.54483000  0.52324000  0.12980000  1.0 1.0510144916
Cd  Cd8  1  0.45517000  0.02324000  0.37020000  1.0 1.0419875668
H  H1  1  0.16920000  0.79580000  0.93890000  1.0 0.1421331535
H  H2  1  0.83080000  0.29580000  0.56110000  1.0 0.1421331535
H  H3  1  0.83080000  0.20420000  0.06110000  1.0 0.1421331535
H  H4  1  0.16920000  0.70420000  0.43890000  1.0 0.1421331535
H  H5  1  0.28220000  0.76270000  0.06480000  1.0 0.1121250154
H  H6  1  0.71780000  0.26270000  0.43520000  1.0 0.1121250154
H  H7  1  0.71780000  0.23730000  0.93520000  1.0 0.1121250154
H  H8  1  0.28220000  0.73730000  0.56480000  1.0 0.1121250154
H  H9  1  0.36100000  0.54130000  0.97770000  1.0 0.1331122206
H  H10  1  0.63900000  0.04130000  0.52230000  1.0 0.1331122206
H  H11  1  0.63900000  0.45870000  0.02230000  1.0 0.1331122206
H  H12  1  0.36100000  0.95870000  0.47770000  1.0 0.1331122206
H  H13  1  0.07880000  0.32150000  0.75980000  1.0 0.1421331535
H  H14  1  0.92120000  0.82150000  0.74020000  1.0 0.1421331535
H  H15  1  0.92120000  0.67850000  0.24020000  1.0 0.1421331535
H  H16  1  0.07880000  0.17850000  0.25980000  1.0 0.1421331535
H  H17  1  0.22800000  0.11150000  0.67880000  1.0 0.1421331535
H  H18  1  0.77200000  0.61150000  0.82120000  1.0 0.1421331535
H  H19  1  0.77200000  0.88850000  0.32120000  1.0 0.1421331535
H  H20  1  0.22800000  0.38850000  0.17880000  1.0 0.1421331535
H  H21  1  0.47010000  0.28580000  0.75520000  1.0 0.1421331535
H  H22  1  0.52990000  0.78580000  0.74480000  1.0 0.1421331535
H  H23  1  0.52990000  0.71420000  0.24480000  1.0 0.1421331535
H  H24  1  0.47010000  0.21420000  0.25520000  1.0 0.1421331535
C  C1  1  0.27240000  0.62380000  0.90483000  1.0 0.5904968069
C  C2  1  0.72760000  0.12380000  0.59517000  1.0 0.5904968069
C  C3  1  0.72760000  0.37620000  0.09517000  1.0 0.5904968069
C  C4  1  0.27240000  0.87620000  0.40483000  1.0 0.5904968069
C  C5  1  0.27110000  0.66430000  0.95162000  1.0 -0.0094542843
C  C6  1  0.72890000  0.16430000  0.54838000  1.0 -0.0094542843
C  C7  1  0.72890000  0.33570000  0.04838000  1.0 -0.0094542843
C  C8  1  0.27110000  0.83570000  0.45162000  1.0 -0.0094542843
C  C9  1  0.21050000  0.75760000  0.96113000  1.0 -0.0897007705
C  C10  1  0.78950000  0.25760000  0.53887000  1.0 -0.0897007705
C  C11  1  0.78950000  0.24240000  0.03887000  1.0 -0.0897007705
C  C12  1  0.21050000  0.74240000  0.46113000  1.0 -0.0897007705
C  C13  1  0.21260000  0.79240000  0.00363000  1.0 -0.068721938
C  C14  1  0.78740000  0.29240000  0.49637000  1.0 -0.068721938
C  C15  1  0.78740000  0.20760000  0.99637000  1.0 -0.068721938
C  C16  1  0.21260000  0.70760000  0.50363000  1.0 -0.068721938
C  C17  1  0.27700000  0.73690000  0.03636000  1.0 -0.0897007705
C  C18  1  0.72300000  0.23690000  0.46364000  1.0 -0.0897007705
C  C19  1  0.72300000  0.26310000  0.96364000  1.0 -0.0897007705
C  C20  1  0.27700000  0.76310000  0.53636000  1.0 -0.0897007705
C  C21  1  0.33440000  0.64230000  0.02702000  1.0 0.0070674769
C  C22  1  0.66560000  0.14230000  0.47298000  1.0 0.0070674769
C  C23  1  0.66560000  0.35770000  0.97298000  1.0 0.0070674769
C  C24  1  0.33440000  0.85770000  0.52702000  1.0 0.0070674769
C  C25  1  0.32730000  0.60580000  0.98417000  1.0 -0.0897007705
C  C26  1  0.67270000  0.10580000  0.51583000  1.0 -0.0897007705
C  C27  1  0.67270000  0.39420000  0.01583000  1.0 -0.0897007705
C  C28  1  0.32730000  0.89420000  0.48417000  1.0 -0.0897007705
C  C29  1  0.14300000  0.88940000  0.01634000  1.0 0.4430987226
C  C30  1  0.85700000  0.38940000  0.48366000  1.0 0.4430987226
C  C31  1  0.85700000  0.11060000  0.98366000  1.0 0.4430987226
C  C32  1  0.14300000  0.61060000  0.51634000  1.0 0.4430987226
C  C33  1  0.40090000  0.57720000  0.06184000  1.0 0.5466996119
C  C34  1  0.59910000  0.07720000  0.43816000  1.0 0.5466996119
C  C35  1  0.59910000  0.42280000  0.93816000  1.0 0.5466996119
C  C36  1  0.40090000  0.92280000  0.56184000  1.0 0.5466996119
C  C37  1  0.29790000  0.40240000  0.79508000  1.0 0.5962147997
C  C38  1  0.70210000  0.90240000  0.70492000  1.0 0.5962147997
C  C39  1  0.70210000  0.59760000  0.20492000  1.0 0.5962147997
C  C40  1  0.29790000  0.09760000  0.29508000  1.0 0.5962147997
C  C41  1  0.27900000  0.31660000  0.76135000  1.0 -0.0214122333
C  C42  1  0.72100000  0.81660000  0.73865000  1.0 -0.0214122333
C  C43  1  0.72100000  0.68340000  0.23865000  1.0 -0.0214122333
C  C44  1  0.27900000  0.18340000  0.26135000  1.0 -0.0214122333
C  C45  1  0.15080000  0.28860000  0.74836000  1.0 -0.0805272725
C  C46  1  0.84920000  0.78860000  0.75164000  1.0 -0.0805272725
C  C47  1  0.84920000  0.71140000  0.25164000  1.0 -0.0805272725
C  C48  1  0.15080000  0.21140000  0.24836000  1.0 -0.0805272725
C  C49  1  0.13480000  0.20820000  0.71711000  1.0 -0.0094542843
C  C50  1  0.86520000  0.70820000  0.78289000  1.0 -0.0094542843
C  C51  1  0.86520000  0.79180000  0.28289000  1.0 -0.0094542843
C  C52  1  0.13480000  0.29180000  0.21711000  1.0 -0.0094542843
C  C53  1  0.24040000  0.16320000  0.69968000  1.0 -0.0805272725
C  C54  1  0.75960000  0.66320000  0.80032000  1.0 -0.0805272725
C  C55  1  0.75960000  0.83680000  0.30032000  1.0 -0.0805272725
C  C56  1  0.24040000  0.33680000  0.19968000  1.0 -0.0805272725
C  C57  1  0.36950000  0.19310000  0.71253000  1.0 -0.0214122333
C  C58  1  0.63050000  0.69310000  0.78747000  1.0 -0.0214122333
C  C59  1  0.63050000  0.80690000  0.28747000  1.0 -0.0214122333
C  C60  1  0.36950000  0.30690000  0.21253000  1.0 -0.0214122333
C  C61  1  0.38640000  0.26840000  0.74486000  1.0 -0.0897007705
C  C62  1  0.61360000  0.76840000  0.75514000  1.0 -0.0897007705
C  C63  1  0.61360000  0.73160000  0.25514000  1.0 -0.0897007705
C  C64  1  0.38640000  0.23160000  0.24486000  1.0 -0.0897007705
C  C65  1  0.99910000  0.17140000  0.70327000  1.0 0.5650056289
C  C66  1  0.00090000  0.67140000  0.79673000  1.0 0.5650056289
C  C67  1  0.00090000  0.82860000  0.29673000  1.0 0.5642126487
C  C68  1  0.99910000  0.32860000  0.20327000  1.0 0.5642126487
C  C69  1  0.48360000  0.14450000  0.69087000  1.0 0.5904968069
C  C70  1  0.51640000  0.64450000  0.80913000  1.0 0.5904968069
C  C71  1  0.51640000  0.85550000  0.30913000  1.0 0.5904968069
C  C72  1  0.48360000  0.35550000  0.19087000  1.0 0.5904968069
O  O1  1  0.24530000  0.68540000  0.87534000  1.0 -0.474314542
O  O2  1  0.75470000  0.18540000  0.62466000  1.0 -0.474314542
O  O3  1  0.75470000  0.31460000  0.12466000  1.0 -0.474314542
O  O4  1  0.24530000  0.81460000  0.37534000  1.0 -0.474314542
O  O5  1  0.30290000  0.53282000  0.89939000  1.0 -0.5099995597
O  O6  1  0.69710000  0.03282000  0.60061000  1.0 -0.5099995597
O  O7  1  0.69710000  0.46718000  0.10061000  1.0 -0.5099995597
O  O8  1  0.30290000  0.96718000  0.39939000  1.0 -0.5099995597
O  O9  1  0.06800000  0.92870000  0.98608000  1.0 -0.4193098485
O  O10  1  0.93200000  0.42870000  0.51392000  1.0 -0.4193098485
O  O11  1  0.93200000  0.07130000  0.01392000  1.0 -0.4193098485
O  O12  1  0.06800000  0.57130000  0.48608000  1.0 -0.4193098485
O  O13  1  0.12280000  0.89850000  0.05810000  1.0 -0.0388768888
O  O14  1  0.87720000  0.39850000  0.44190000  1.0 -0.0388768888
O  O15  1  0.87720000  0.10150000  0.94190000  1.0 -0.0388768888
O  O16  1  0.12280000  0.60150000  0.55810000  1.0 -0.0388768888
O  O17  1  0.41110000  0.48280000  0.05653000  1.0 -0.5037355064
O  O18  1  0.58890000  0.98280000  0.44347000  1.0 -0.5037355064
O  O19  1  0.58890000  0.51720000  0.94347000  1.0 -0.5037355064
O  O20  1  0.41110000  0.01720000  0.55653000  1.0 -0.5037355064
O  O21  1  0.44550000  0.62630000  0.09530000  1.0 -0.4927317812
O  O22  1  0.55450000  0.12630000  0.40470000  1.0 -0.4927317812
O  O23  1  0.55450000  0.37370000  0.90470000  1.0 -0.4927317812
O  O24  1  0.44550000  0.87370000  0.59530000  1.0 -0.4927317812
O  O25  1  0.22090000  0.47525000  0.79327000  1.0 -0.5037355064
O  O26  1  0.77910000  0.97525000  0.70673000  1.0 -0.5037355064
O  O27  1  0.77910000  0.52475000  0.20673000  1.0 -0.5037355064
O  O28  1  0.22090000  0.02475000  0.29327000  1.0 -0.5037355064
O  O29  1  0.39590000  0.39125000  0.82098000  1.0 -0.5099995597
O  O30  1  0.60410000  0.89125000  0.67902000  1.0 -0.5099995597
O  O31  1  0.60410000  0.60875000  0.17902000  1.0 -0.5099995597
O  O32  1  0.39590000  0.10875000  0.32098000  1.0 -0.5099995597
O  O33  1  0.90150000  0.20530000  0.72118000  1.0 -0.4927317812
O  O34  1  0.09850000  0.70530000  0.77882000  1.0 -0.4927317812
O  O35  1  0.09850000  0.79470000  0.27882000  1.0 -0.4927317812
O  O36  1  0.90150000  0.29470000  0.22118000  1.0 -0.4927317812
O  O37  1  0.99160000  0.10530000  0.67311000  1.0 -0.5187694444
O  O38  1  0.00840000  0.60530000  0.82689000  1.0 -0.5187694444
O  O39  1  0.00840000  0.89470000  0.32689000  1.0 -0.5187694444
O  O40  1  0.99160000  0.39470000  0.17311000  1.0 -0.5187694444
O  O41  1  0.45590000  0.08830000  0.65849000  1.0 -0.5187694444
O  O42  1  0.54410000  0.58830000  0.84151000  1.0 -0.5187694444
O  O43  1  0.54410000  0.91170000  0.34151000  1.0 -0.5187694444
O  O44  1  0.45590000  0.41170000  0.15849000  1.0 -0.5187694444
O  O45  1  0.59670000  0.16118000  0.70731000  1.0 -0.5258669271
O  O46  1  0.40330000  0.66118000  0.79269000  1.0 -0.5187694444
O  O47  1  0.40330000  0.83882000  0.29269000  1.0 -0.5187694444
O  O48  1  0.59670000  0.33882000  0.20731000  1.0 -0.5258669271
O  O49  1  0.17930000  0.94070000  0.04910000  1.0 -0.0611345335
O  O50  1  0.82070000  0.44070000  0.45090000  1.0 -0.068721938
O  O51  1  0.82070000  0.05930000  0.95090000  1.0 -0.0611345335
O  O52  1  0.17930000  0.55930000  0.54910000  1.0 -0.0611345335
