# DDEC6 charges by PACMAN v1.1 (https://github.com/mtap-research/PACMAN-charge/)
data_MIXXOI_ion_pacman
_symmetry_space_group_name_H-M   'P 1'
_cell_length_a   10.99600000
_cell_length_b   14.01890000
_cell_length_c   14.02710000
_cell_angle_alpha   61.90000000
_cell_angle_beta   80.58500000
_cell_angle_gamma   85.44100000
_symmetry_Int_Tables_number   1
_chemical_formula_structural   CdH44C31N13O3
_chemical_formula_sum   'Cd2 H88 C62 N26 O6'
_cell_volume   1881.72402259
_cell_formula_units_Z   2
loop_
 _symmetry_equiv_pos_site_id
 _symmetry_equiv_pos_as_xyz
  1  'x, y, z'
loop_
 _atom_site_type_symbol
 _atom_site_label
 _atom_site_symmetry_multiplicity
 _atom_site_fract_x
 _atom_site_fract_y
 _atom_site_fract_z
 _atom_site_occupancy
 _atom_site_charge
Cd  Cd1  1  0.25080000  0.47396000  0.27573000  1.0 0.6988922165
Cd  Cd2  1  0.74920000  0.52604000  0.72427000  1.0 0.6988922165
H  H1  1  0.27140000  0.34380000  0.55790000  1.0 0.1012007636
H  H2  1  0.72860000  0.65620000  0.44210000  1.0 0.1012007636
H  H3  1  0.34520000  0.64780000  0.35940000  1.0 0.1093275091
H  H4  1  0.65480000  0.35220000  0.64060000  1.0 0.1093275091
H  H5  1  0.39380000  0.61030000  0.53730000  1.0 0.1186756765
H  H6  1  0.60620000  0.38970000  0.46270000  1.0 0.1186756765
H  H7  1  0.24890000  0.60050000  0.99040000  1.0 0.1012007636
H  H8  1  0.75110000  0.39950000  0.00960000  1.0 0.1012007636
H  H9  1  0.13680000  0.30470000  0.19130000  1.0 0.1186756765
H  H10  1  0.86320000  0.69530000  0.80870000  1.0 0.1186756765
H  H11  1  0.09290000  0.34640000  0.01210000  1.0 0.1186756765
H  H12  1  0.90710000  0.65360000  0.98790000  1.0 0.1186756765
H  H13  1  0.42930000  0.41130000  0.71520000  1.0 0.1093275091
H  H14  1  0.57070000  0.58870000  0.28480000  1.0 0.1093275091
H  H15  1  0.34720000  0.31820000  0.72870000  1.0 0.1093275091
H  H16  1  0.65280000  0.68180000  0.27130000  1.0 0.1093275091
H  H17  1  0.25470000  0.36800000  0.85370000  1.0 0.0871825011
H  H18  1  0.74530000  0.63200000  0.14630000  1.0 0.0871825011
H  H19  1  0.17080000  0.41420000  0.76160000  1.0 0.0871825011
H  H20  1  0.82920000  0.58580000  0.23840000  1.0 0.0871825011
H  H21  1  0.33790000  0.54020000  0.78660000  1.0 0.0871825011
H  H22  1  0.66210000  0.45980000  0.21340000  1.0 0.0871825011
H  H23  1  0.25430000  0.58640000  0.69420000  1.0 0.0871825011
H  H24  1  0.74570000  0.41360000  0.30580000  1.0 0.0871825011
H  H25  1  0.16220000  0.63470000  0.82140000  1.0 0.1012007636
H  H26  1  0.83780000  0.36530000  0.17860000  1.0 0.1012007636
H  H27  1  0.07900000  0.54430000  0.83050000  1.0 0.1012007636
H  H28  1  0.92100000  0.45570000  0.16950000  1.0 0.1012007636
H  H29  1  0.19850000  0.20060000  0.45730000  1.0 0.1012007636
H  H30  1  0.80150000  0.79940000  0.54270000  1.0 0.1012007636
H  H31  1  0.93980000  0.41910000  0.37880000  1.0 0.1093275091
H  H32  1  0.06020000  0.58090000  0.62120000  1.0 0.1093275091
H  H33  1  0.84240000  0.24740000  0.51000000  1.0 0.1186756765
H  H34  1  0.15760000  0.75260000  0.49000000  1.0 0.1186756765
H  H35  1  0.94290000  0.06300000  0.65350000  1.0 0.1186756765
H  H36  1  0.05710000  0.93700000  0.34650000  1.0 0.1186756765
H  H37  1  0.08020000  0.04090000  0.61710000  1.0 0.1012007636
H  H38  1  0.91980000  0.95910000  0.38290000  1.0 0.1012007636
H  H39  1  0.94430000  0.92900000  0.60310000  1.0 0.1012007636
H  H40  1  0.05570000  0.07100000  0.39690000  1.0 0.1012007636
H  H41  1  0.88000000  0.03090000  0.51980000  1.0 0.1012007636
H  H42  1  0.12000000  0.96910000  0.48020000  1.0 0.1012007636
H  H43  1  0.44570000  0.27230000  0.45240000  1.0 0.1012007636
H  H44  1  0.55430000  0.72770000  0.54760000  1.0 0.1012007636
H  H45  1  0.43270000  0.35000000  0.14790000  1.0 0.1012007636
H  H46  1  0.56730000  0.65000000  0.85210000  1.0 0.1012007636
H  H47  1  0.58010000  0.20190000  0.21470000  1.0 0.1277414144
H  H48  1  0.41990000  0.79810000  0.78530000  1.0 0.1277414144
H  H49  1  0.61320000  0.13070000  0.49960000  1.0 0.1012007636
H  H50  1  0.38680000  0.86930000  0.50040000  1.0 0.1012007636
H  H51  1  0.69770000  0.12760000  0.39960000  1.0 0.1012007636
H  H52  1  0.30230000  0.87240000  0.60040000  1.0 0.1012007636
H  H53  1  0.56650000  0.00080000  0.40510000  1.0 0.1093275091
H  H54  1  0.43350000  0.99920000  0.59490000  1.0 0.1093275091
H  H55  1  0.61890000  0.95600000  0.51580000  1.0 0.1012007636
H  H56  1  0.38110000  0.04400000  0.48420000  1.0 0.1012007636
H  H57  1  0.09000000  0.68710000  0.09220000  1.0 0.1012007636
H  H58  1  0.91000000  0.31290000  0.90780000  1.0 0.1012007636
H  H59  1  0.04860000  0.59660000  0.40520000  1.0 0.1093275091
H  H60  1  0.95140000  0.40340000  0.59480000  1.0 0.1093275091
H  H61  1  0.92780000  0.76180000  0.31950000  1.0 0.1186756765
H  H62  1  0.07220000  0.23820000  0.68050000  1.0 0.1186756765
H  H63  1  0.86140000  0.87310000  0.12080000  1.0 0.1186756765
H  H64  1  0.13860000  0.12690000  0.87920000  1.0 0.1186756765
H  H65  1  0.92610000  0.84020000  0.03210000  1.0 0.1093275091
H  H66  1  0.07390000  0.15980000  0.96790000  1.0 0.1093275091
H  H67  1  0.10520000  0.93200000  0.01370000  1.0 0.1012007636
H  H68  1  0.89480000  0.06800000  0.98630000  1.0 0.1012007636
H  H69  1  0.04040000  0.96490000  0.10230000  1.0 0.1093275091
H  H70  1  0.95960000  0.03510000  0.89770000  1.0 0.1093275091
H  H71  1  0.31500000  0.74520000  0.15990000  1.0 0.1093275091
H  H72  1  0.68500000  0.25480000  0.84010000  1.0 0.1093275091
H  H73  1  0.51550000  0.54770000  0.07550000  1.0 0.1093275091
H  H74  1  0.48450000  0.45230000  0.92450000  1.0 0.1093275091
H  H75  1  0.60770000  0.72600000  0.96580000  1.0 0.1186756765
H  H76  1  0.39230000  0.27400000  0.03420000  1.0 0.1186756765
H  H77  1  0.52440000  0.92000000  0.92500000  1.0 0.1012007636
H  H78  1  0.47560000  0.08000000  0.07500000  1.0 0.1012007636
H  H79  1  0.41410000  0.92910000  0.00630000  1.0 0.0504921743
H  H80  1  0.58590000  0.07090000  0.99370000  1.0 0.0504921743
H  H81  1  0.64890000  0.87480000  0.05920000  1.0 0.1012007636
H  H82  1  0.35110000  0.12520000  0.94080000  1.0 0.1012007636
H  H83  1  0.53720000  0.90180000  0.12750000  1.0 0.1093275091
H  H84  1  0.46280000  0.09820000  0.87250000  1.0 0.1093275091
H  H85  1  0.67830000  0.04760000  0.02840000  1.0 0.0831592636
H  H86  1  0.32170000  0.95240000  0.97160000  1.0 0.0831592636
H  H87  1  0.64620000  0.05710000  0.91920000  1.0 0.0871825011
H  H88  1  0.35380000  0.94290000  0.08080000  1.0 0.0871825011
C  C1  1  0.29600000  0.41510000  0.53000000  1.0 0.0698180453
C  C2  1  0.70400000  0.58490000  0.47000000  1.0 0.0698180453
C  C3  1  0.33670000  0.58110000  0.42180000  1.0 -0.0478727992
C  C4  1  0.66330000  0.41890000  0.57820000  1.0 -0.0478727992
C  C5  1  0.36320000  0.56130000  0.51990000  1.0 -0.1121010621
C  C6  1  0.63680000  0.43870000  0.48010000  1.0 -0.1121010621
C  C7  1  0.21560000  0.53190000  0.01880000  1.0 0.0504921743
C  C8  1  0.78440000  0.46810000  0.98120000  1.0 0.0504921743
C  C9  1  0.15400000  0.37000000  0.12830000  1.0 -0.0622538204
C  C10  1  0.84600000  0.63000000  0.87170000  1.0 -0.0622538204
C  C11  1  0.12960000  0.39240000  0.02980000  1.0 -0.1194881989
C  C12  1  0.87040000  0.60760000  0.97020000  1.0 -0.1194881989
C  C13  1  0.34940000  0.39510000  0.70570000  1.0 -0.1489645025
C  C14  1  0.65060000  0.60490000  0.29430000  1.0 -0.1489645025
C  C15  1  0.25060000  0.42140000  0.77850000  1.0 -0.2091093535
C  C16  1  0.74940000  0.57860000  0.22150000  1.0 -0.2091093535
C  C17  1  0.25830000  0.53300000  0.76940000  1.0 -0.2091093535
C  C18  1  0.74170000  0.46700000  0.23060000  1.0 -0.2091093535
C  C19  1  0.15870000  0.55830000  0.84240000  1.0 -0.1403075053
C  C20  1  0.84130000  0.44170000  0.15760000  1.0 -0.1403075053
C  C21  1  0.12220000  0.23490000  0.45350000  1.0 0.0614194827
C  C22  1  0.87780000  0.76510000  0.54650000  1.0 0.0614194827
C  C23  1  0.98060000  0.35330000  0.41090000  1.0 -0.0667025043
C  C24  1  0.01940000  0.64670000  0.58910000  1.0 -0.0667025043
C  C25  1  0.92610000  0.25910000  0.48370000  1.0 -0.104842086
C  C26  1  0.07390000  0.74090000  0.51630000  1.0 -0.1121010621
C  C27  1  0.00200000  0.06940000  0.59130000  1.0 -0.1403075053
C  C28  1  0.99800000  0.93060000  0.40870000  1.0 -0.1403075053
C  C29  1  0.95850000  0.00220000  0.54480000  1.0 -0.2091093535
C  C30  1  0.04150000  0.99780000  0.45520000  1.0 -0.2091093535
C  C31  1  0.46000000  0.27360000  0.38460000  1.0 0.0504921743
C  C32  1  0.54000000  0.72640000  0.61540000  1.0 0.0504921743
C  C33  1  0.45330000  0.31560000  0.21830000  1.0 -0.0622538204
C  C34  1  0.54670000  0.68440000  0.78170000  1.0 -0.0622538204
C  C35  1  0.53510000  0.23400000  0.25420000  1.0 -0.1121010621
C  C36  1  0.46490000  0.76600000  0.74580000  1.0 -0.1121010621
C  C37  1  0.61320000  0.12160000  0.43530000  1.0 -0.1403075053
C  C38  1  0.38680000  0.87840000  0.56470000  1.0 -0.1403075053
C  C39  1  0.56450000  0.00990000  0.46970000  1.0 -0.1947847052
C  C40  1  0.43550000  0.99010000  0.53030000  1.0 -0.1947847052
C  C41  1  0.06510000  0.68480000  0.15990000  1.0 0.0418769463
C  C42  1  0.93490000  0.31520000  0.84010000  1.0 0.0418769463
C  C43  1  0.04200000  0.63540000  0.33120000  1.0 -0.0478727992
C  C44  1  0.95800000  0.36460000  0.66880000  1.0 -0.0478727992
C  C45  1  0.97550000  0.72680000  0.28410000  1.0 -0.1194881989
C  C46  1  0.02450000  0.27320000  0.71590000  1.0 -0.1194881989
C  C47  1  0.94010000  0.85510000  0.09030000  1.0 -0.1489645025
C  C48  1  0.05990000  0.14490000  0.90970000  1.0 -0.1489645025
C  C49  1  0.02650000  0.95000000  0.04420000  1.0 -0.2091093535
C  C50  1  0.97350000  0.05000000  0.95580000  1.0 -0.2091093535
C  C51  1  0.37630000  0.71730000  0.12580000  1.0 0.0504921743
C  C52  1  0.62370000  0.28270000  0.87420000  1.0 0.0504921743
C  C53  1  0.48650000  0.61020000  0.07920000  1.0 -0.0667025043
C  C54  1  0.51350000  0.38980000  0.92080000  1.0 -0.0667025043
C  C55  1  0.53760000  0.70830000  0.01790000  1.0 -0.1121010621
C  C56  1  0.46240000  0.29170000  0.98210000  1.0 -0.1121010621
C  C57  1  0.49160000  0.89230000  0.00170000  1.0 0.0156361585
C  C58  1  0.50840000  0.10770000  0.99830000  1.0 0.0156361585
C  C59  1  0.57550000  0.91930000  0.05380000  1.0 -0.2911389215
C  C60  1  0.42450000  0.08070000  0.94620000  1.0 -0.2911389215
C  C61  1  0.61360000  0.03730000  0.99470000  1.0 -0.2010146349
C  C62  1  0.38640000  0.96270000  0.00530000  1.0 -0.2010146349
N  N1  1  0.33610000  0.45500000  0.58890000  1.0 0.0418769463
N  N2  1  0.66390000  0.54500000  0.41110000  1.0 0.0418769463
N  N3  1  0.29550000  0.48880000  0.42770000  1.0 -0.2911389215
N  N4  1  0.70450000  0.51120000  0.57230000  1.0 -0.2911389215
N  N5  1  0.16850000  0.49540000  0.95990000  1.0 0.0318810506
N  N6  1  0.83150000  0.50460000  0.04010000  1.0 0.0318810506
N  N7  1  0.20870000  0.45790000  0.12270000  1.0 -0.2976457222
N  N8  1  0.79130000  0.54210000  0.87730000  1.0 -0.2976457222
N  N9  1  0.01720000  0.18460000  0.51100000  1.0 0.0318810506
N  N10  1  0.98280000  0.81540000  0.48900000  1.0 0.0318810506
N  N11  1  0.10570000  0.33870000  0.39060000  1.0 -0.2911389215
N  N12  1  0.89430000  0.66130000  0.60940000  1.0 -0.2911389215
N  N13  1  0.53860000  0.20800000  0.36040000  1.0 0.0418769463
N  N14  1  0.46140000  0.79200000  0.63960000  1.0 0.0418769463
N  N15  1  0.40500000  0.34050000  0.30020000  1.0 -0.2976457222
N  N16  1  0.59500000  0.65950000  0.69980000  1.0 -0.2976457222
N  N17  1  0.99130000  0.75810000  0.17570000  1.0 0.0318810506
N  N18  1  0.00870000  0.24190000  0.82430000  1.0 0.0318810506
N  N19  1  0.09800000  0.60920000  0.25180000  1.0 -0.2911389215
N  N20  1  0.90200000  0.39080000  0.74820000  1.0 -0.2911389215
N  N21  1  0.46640000  0.77660000  0.04720000  1.0 -0.0073921831
N  N22  1  0.53360000  0.22340000  0.95280000  1.0 -0.0073921831
N  N23  1  0.38530000  0.61540000  0.14830000  1.0 -0.3052005067
N  N24  1  0.61470000  0.38460000  0.85170000  1.0 -0.3052005067
N  N25  1  0.37910000  0.88500000  0.30180000  1.0 0.4578219758
N  N26  1  0.62090000  0.11500000  0.69820000  1.0 0.4483347045
O  O1  1  0.40240000  0.97590000  0.28030000  1.0 -0.3858217491
O  O2  1  0.45170000  0.81420000  0.34150000  1.0 -0.3975985988
O  O3  1  0.28620000  0.87060000  0.27600000  1.0 -0.3975985988
O  O4  1  0.59760000  0.02410000  0.71970000  1.0 -0.3845510675
O  O5  1  0.54830000  0.18580000  0.65850000  1.0 -0.3975985988
O  O6  1  0.71380000  0.12940000  0.72400000  1.0 -0.3975985988
