# DDEC6 charges by PACMAN v1.1 (https://github.com/mtap-research/PACMAN-charge/)
data_MIZJUB_ASR_pacman
_symmetry_space_group_name_H-M   'P 1'
_cell_length_a   12.24220000
_cell_length_b   19.39100000
_cell_length_c   23.02350000
_cell_angle_alpha   90.00000000
_cell_angle_beta   110.61800000
_cell_angle_gamma   90.00000000
_symmetry_Int_Tables_number   1
_chemical_formula_structural   ZnH8C8(NO2)2
_chemical_formula_sum   'Zn12 H96 C96 N24 O48'
_cell_volume   5115.44224387
_cell_formula_units_Z   12
loop_
 _symmetry_equiv_pos_site_id
 _symmetry_equiv_pos_as_xyz
  1  'x, y, z'
loop_
 _atom_site_type_symbol
 _atom_site_label
 _atom_site_symmetry_multiplicity
 _atom_site_fract_x
 _atom_site_fract_y
 _atom_site_fract_z
 _atom_site_occupancy
 _atom_site_charge
Zn  Zn1  1  0.94844000  0.72355000  0.62671000  1.0 0.942638911
Zn  Zn2  1  0.05156000  0.22355000  0.87329000  1.0 0.942638911
Zn  Zn3  1  0.05156000  0.27645000  0.37329000  1.0 0.942638911
Zn  Zn4  1  0.94844000  0.77645000  0.12671000  1.0 0.9450127455
Zn  Zn5  1  0.56209000  0.75103000  0.37015000  1.0 0.9263271363
Zn  Zn6  1  0.43791000  0.25103000  0.12985000  1.0 0.9263271363
Zn  Zn7  1  0.43791000  0.24897000  0.62985000  1.0 0.9263271363
Zn  Zn8  1  0.56209000  0.74897000  0.87015000  1.0 0.9263271363
Zn  Zn9  1  0.25242000  0.73709000  0.75266000  1.0 1.0791669758
Zn  Zn10  1  0.74758000  0.23709000  0.74734000  1.0 1.0791669758
Zn  Zn11  1  0.74758000  0.26291000  0.24734000  1.0 1.0791669758
Zn  Zn12  1  0.25242000  0.76291000  0.25266000  1.0 1.0791669758
H  H1  1  0.84140000  0.42020000  0.71450000  1.0 0.12988664
H  H2  1  0.15860000  0.92020000  0.78550000  1.0 0.12988664
H  H3  1  0.15860000  0.57980000  0.28550000  1.0 0.12988664
H  H4  1  0.84140000  0.07980000  0.21450000  1.0 0.12988664
H  H5  1  0.86290000  0.53270000  0.68350000  1.0 0.12988664
H  H6  1  0.13710000  0.03270000  0.81650000  1.0 0.12988664
H  H7  1  0.13710000  0.46730000  0.31650000  1.0 0.12988664
H  H8  1  0.86290000  0.96730000  0.18350000  1.0 0.12988664
H  H9  1  0.33390000  0.07210000  0.20960000  1.0 0.12988664
H  H10  1  0.66610000  0.57210000  0.29040000  1.0 0.12988664
H  H11  1  0.66610000  0.92790000  0.79040000  1.0 0.12988664
H  H12  1  0.33390000  0.42790000  0.70960000  1.0 0.12988664
H  H13  1  0.32540000  0.95790000  0.24020000  1.0 0.12988664
H  H14  1  0.67460000  0.45790000  0.25980000  1.0 0.12988664
H  H15  1  0.67460000  0.04210000  0.75980000  1.0 0.12988664
H  H16  1  0.32540000  0.54210000  0.74020000  1.0 0.12988664
H  H17  1  0.14580000  0.72280000  0.39680000  1.0 0.12988664
H  H18  1  0.85420000  0.22280000  0.10320000  1.0 0.12988664
H  H19  1  0.85420000  0.27720000  0.60320000  1.0 0.12988664
H  H20  1  0.14580000  0.77720000  0.89680000  1.0 0.12988664
H  H21  1  0.05950000  0.71950000  0.47270000  1.0 0.12988664
H  H22  1  0.94050000  0.21950000  0.02730000  1.0 0.12988664
H  H23  1  0.94050000  0.28050000  0.52730000  1.0 0.12988664
H  H24  1  0.05950000  0.78050000  0.97270000  1.0 0.12988664
H  H25  1  0.21250000  0.60290000  0.83320000  1.0 0.2157922161
H  H26  1  0.78750000  0.10290000  0.66680000  1.0 0.2157922161
H  H27  1  0.78750000  0.39710000  0.16680000  1.0 0.2123613048
H  H28  1  0.21250000  0.89710000  0.33320000  1.0 0.2123613048
H  H29  1  0.24840000  0.53980000  0.87210000  1.0 0.1698221735
H  H30  1  0.75160000  0.03980000  0.62790000  1.0 0.1698221735
H  H31  1  0.75160000  0.46020000  0.12790000  1.0 0.1698221735
H  H32  1  0.24840000  0.96020000  0.37210000  1.0 0.1698221735
H  H33  1  0.72310000  0.91440000  0.35590000  1.0 0.2303208699
H  H34  1  0.27690000  0.41440000  0.14410000  1.0 0.2303208699
H  H35  1  0.27690000  0.08560000  0.64410000  1.0 0.2303208699
H  H36  1  0.72310000  0.58560000  0.85590000  1.0 0.2303208699
H  H37  1  0.77710000  0.98210000  0.35160000  1.0 0.1480195122
H  H38  1  0.22290000  0.48210000  0.14840000  1.0 0.1480195122
H  H39  1  0.22290000  0.01790000  0.64840000  1.0 0.1480195122
H  H40  1  0.77710000  0.51790000  0.85160000  1.0 0.1480195122
H  H41  1  0.38180000  0.71000000  0.65690000  1.0 0.2123613048
H  H42  1  0.61820000  0.21000000  0.84310000  1.0 0.2123613048
H  H43  1  0.61820000  0.29000000  0.34310000  1.0 0.2123613048
H  H44  1  0.38180000  0.79000000  0.15690000  1.0 0.2123613048
H  H45  1  0.48460000  0.71790000  0.63710000  1.0 0.180528076
H  H46  1  0.51540000  0.21790000  0.86290000  1.0 0.180528076
H  H47  1  0.51540000  0.28210000  0.36290000  1.0 0.180528076
H  H48  1  0.48460000  0.78210000  0.13710000  1.0 0.180528076
H  H49  1  0.14690000  0.44330000  0.86010000  1.0 0.0837725848
H  H50  1  0.85310000  0.94330000  0.63990000  1.0 0.0837725848
H  H51  1  0.85310000  0.55670000  0.13990000  1.0 0.0837725848
H  H52  1  0.14690000  0.05670000  0.36010000  1.0 0.0837725848
H  H53  1  0.68310000  0.07300000  0.29980000  1.0 0.0891278917
H  H54  1  0.31690000  0.57300000  0.20020000  1.0 0.0891278917
H  H55  1  0.31690000  0.92700000  0.70020000  1.0 0.0891278917
H  H56  1  0.68310000  0.42700000  0.79980000  1.0 0.0891278917
H  H57  1  0.46730000  0.73130000  0.53450000  1.0 0.0708931051
H  H58  1  0.53270000  0.23130000  0.96550000  1.0 0.0708931051
H  H59  1  0.53270000  0.26870000  0.46550000  1.0 0.0708931051
H  H60  1  0.46730000  0.76870000  0.03450000  1.0 0.0708931051
H  H61  1  0.18590000  0.39510000  0.88580000  1.0 0.2303208699
H  H62  1  0.81410000  0.89510000  0.61420000  1.0 0.2303208699
H  H63  1  0.81410000  0.60490000  0.11420000  1.0 0.2303208699
H  H64  1  0.18590000  0.10490000  0.38580000  1.0 0.2303208699
H  H65  1  0.24240000  0.46380000  0.88950000  1.0 0.180528076
H  H66  1  0.75760000  0.96380000  0.61050000  1.0 0.180528076
H  H67  1  0.75760000  0.53620000  0.11050000  1.0 0.1698221735
H  H68  1  0.24240000  0.03620000  0.38950000  1.0 0.180528076
H  H69  1  0.74110000  0.39200000  0.79190000  1.0 0.1921107964
H  H70  1  0.25890000  0.89200000  0.70810000  1.0 0.1921107964
H  H71  1  0.25890000  0.60800000  0.20810000  1.0 0.1921107964
H  H72  1  0.74110000  0.10800000  0.29190000  1.0 0.1921107964
H  H73  1  0.77770000  0.45760000  0.82700000  1.0 0.141065103
H  H74  1  0.22230000  0.95760000  0.67300000  1.0 0.141065103
H  H75  1  0.22230000  0.54240000  0.17300000  1.0 0.141065103
H  H76  1  0.77770000  0.04240000  0.32700000  1.0 0.141065103
H  H77  1  0.53240000  0.72010000  0.58590000  1.0 0.1698221735
H  H78  1  0.46760000  0.22010000  0.91410000  1.0 0.1698221735
H  H79  1  0.46760000  0.27990000  0.41410000  1.0 0.1698221735
H  H80  1  0.53240000  0.77990000  0.08590000  1.0 0.1698221735
H  H81  1  0.54280000  0.72630000  0.52360000  1.0 0.2123613048
H  H82  1  0.45720000  0.22630000  0.97640000  1.0 0.2123613048
H  H83  1  0.45720000  0.27370000  0.47640000  1.0 0.2157922161
H  H84  1  0.54280000  0.77370000  0.02360000  1.0 0.2123613048
H  H85  1  0.17290000  0.55120000  0.82490000  1.0 0.0708931051
H  H86  1  0.82710000  0.05120000  0.67510000  1.0 0.0708931051
H  H87  1  0.82710000  0.44880000  0.17510000  1.0 0.0708931051
H  H88  1  0.17290000  0.94880000  0.32490000  1.0 0.0708931051
H  H89  1  0.67290000  0.54290000  0.83250000  1.0 0.096120066
H  H90  1  0.32710000  0.04290000  0.66750000  1.0 0.096120066
H  H91  1  0.32710000  0.45710000  0.16750000  1.0 0.096120066
H  H92  1  0.67290000  0.95710000  0.33250000  1.0 0.096120066
H  H93  1  0.37740000  0.71540000  0.60830000  1.0 0.0891278917
H  H94  1  0.62260000  0.21540000  0.89170000  1.0 0.0891278917
H  H95  1  0.62260000  0.28460000  0.39170000  1.0 0.0891278917
H  H96  1  0.37740000  0.78460000  0.10830000  1.0 0.0891278917
C  C1  1  0.02990000  0.62490000  0.72630000  1.0 0.5905308866
C  C2  1  0.97010000  0.12490000  0.77370000  1.0 0.5972928139
C  C3  1  0.97010000  0.37510000  0.27370000  1.0 0.5905308866
C  C4  1  0.02990000  0.87510000  0.22630000  1.0 0.5905308866
C  C5  1  0.01710000  0.55400000  0.75020000  1.0 -0.0906912895
C  C6  1  0.98290000  0.05400000  0.74980000  1.0 -0.0906912895
C  C7  1  0.98290000  0.44600000  0.24980000  1.0 -0.0906912895
C  C8  1  0.01710000  0.94600000  0.25020000  1.0 -0.0906912895
C  C9  1  0.10390000  0.52730000  0.80320000  1.0 0.0708931051
C  C10  1  0.89610000  0.02730000  0.69680000  1.0 0.0708931051
C  C11  1  0.89610000  0.47270000  0.19680000  1.0 0.0708931051
C  C12  1  0.10390000  0.97270000  0.30320000  1.0 0.0708931051
C  C13  1  0.09020000  0.45900000  0.82180000  1.0 0.0387004102
C  C14  1  0.90980000  0.95900000  0.67820000  1.0 0.0387004102
C  C15  1  0.90980000  0.54100000  0.17820000  1.0 0.0387004102
C  C16  1  0.09020000  0.04100000  0.32180000  1.0 0.0387004102
C  C17  1  0.99600000  0.41960000  0.78900000  1.0 -0.0906912895
C  C18  1  0.00400000  0.91960000  0.71100000  1.0 -0.0906912895
C  C19  1  0.00400000  0.58040000  0.21100000  1.0 -0.0906912895
C  C20  1  0.99600000  0.08040000  0.28900000  1.0 -0.0906912895
C  C21  1  0.90960000  0.44740000  0.73640000  1.0 -0.1288516866
C  C22  1  0.09040000  0.94740000  0.76360000  1.0 -0.1288516866
C  C23  1  0.09040000  0.55260000  0.26360000  1.0 -0.1288516866
C  C24  1  0.90960000  0.05260000  0.23640000  1.0 -0.1288516866
C  C25  1  0.92330000  0.51350000  0.71880000  1.0 -0.1097165095
C  C26  1  0.07670000  0.01350000  0.78120000  1.0 -0.1097165095
C  C27  1  0.07670000  0.48650000  0.28120000  1.0 -0.1097165095
C  C28  1  0.92330000  0.98650000  0.21880000  1.0 -0.1097165095
C  C29  1  0.98330000  0.34650000  0.80660000  1.0 0.5787117155
C  C30  1  0.01670000  0.84650000  0.69340000  1.0 0.5787117155
C  C31  1  0.01670000  0.65350000  0.19340000  1.0 0.5787117155
C  C32  1  0.98330000  0.15350000  0.30660000  1.0 0.5787117155
C  C33  1  0.48880000  0.87290000  0.30710000  1.0 0.5640989961
C  C34  1  0.51120000  0.37290000  0.19290000  1.0 0.5640989961
C  C35  1  0.51120000  0.12710000  0.69290000  1.0 0.5640989961
C  C36  1  0.48880000  0.62710000  0.80710000  1.0 0.5640989961
C  C37  1  0.49910000  0.94720000  0.29010000  1.0 -0.0718924282
C  C38  1  0.50090000  0.44720000  0.20990000  1.0 -0.0718924282
C  C39  1  0.50090000  0.05280000  0.70990000  1.0 -0.0718924282
C  C40  1  0.49910000  0.55280000  0.79010000  1.0 -0.0718924282
C  C41  1  0.60480000  0.98070000  0.30740000  1.0 0.0287465183
C  C42  1  0.39520000  0.48070000  0.19260000  1.0 0.0287465183
C  C43  1  0.39520000  0.01930000  0.69260000  1.0 0.0287465183
C  C44  1  0.60480000  0.51930000  0.80740000  1.0 0.0287465183
C  C45  1  0.61070000  0.04760000  0.28710000  1.0 0.0708931051
C  C46  1  0.38930000  0.54760000  0.21290000  1.0 0.0708931051
C  C47  1  0.38930000  0.95240000  0.71290000  1.0 0.0708931051
C  C48  1  0.61070000  0.45240000  0.78710000  1.0 0.0708931051
C  C49  1  0.50950000  0.08130000  0.24990000  1.0 -0.0906912895
C  C50  1  0.49050000  0.58130000  0.25010000  1.0 -0.0906912895
C  C51  1  0.49050000  0.91870000  0.75010000  1.0 -0.0906912895
C  C52  1  0.50950000  0.41870000  0.74990000  1.0 -0.0906912895
C  C53  1  0.40400000  0.04850000  0.23390000  1.0 -0.1222673701
C  C54  1  0.59600000  0.54850000  0.26610000  1.0 -0.1222673701
C  C55  1  0.59600000  0.95150000  0.76610000  1.0 -0.1222673701
C  C56  1  0.40400000  0.45150000  0.73390000  1.0 -0.1222673701
C  C57  1  0.39900000  0.98150000  0.25320000  1.0 -0.1399056045
C  C58  1  0.60100000  0.48150000  0.24680000  1.0 -0.1399056045
C  C59  1  0.60100000  0.01850000  0.74680000  1.0 -0.1399056045
C  C60  1  0.39900000  0.51850000  0.75320000  1.0 -0.1399056045
C  C61  1  0.51880000  0.15080000  0.22480000  1.0 0.5905308866
C  C62  1  0.48120000  0.65080000  0.27520000  1.0 0.5905308866
C  C63  1  0.48120000  0.84920000  0.77520000  1.0 0.5905308866
C  C64  1  0.51880000  0.34920000  0.72480000  1.0 0.5905308866
C  C65  1  0.14870000  0.71670000  0.59380000  1.0 0.5972928139
C  C66  1  0.85130000  0.21670000  0.90620000  1.0 0.5972928139
C  C67  1  0.85130000  0.28330000  0.40620000  1.0 0.5972928139
C  C68  1  0.14870000  0.78330000  0.09380000  1.0 0.5972928139
C  C69  1  0.21000000  0.71840000  0.54790000  1.0 -0.0906912895
C  C70  1  0.79000000  0.21840000  0.95210000  1.0 -0.0906912895
C  C71  1  0.79000000  0.28160000  0.45210000  1.0 -0.0906912895
C  C72  1  0.21000000  0.78160000  0.04790000  1.0 -0.0906912895
C  C73  1  0.33060000  0.72070000  0.56660000  1.0 0.0567872198
C  C74  1  0.66940000  0.22070000  0.93340000  1.0 0.0567872198
C  C75  1  0.66940000  0.27930000  0.43340000  1.0 0.0567872198
C  C76  1  0.33060000  0.77930000  0.06660000  1.0 0.0567872198
C  C77  1  0.38370000  0.72700000  0.52040000  1.0 0.0837725848
C  C78  1  0.61630000  0.22700000  0.97960000  1.0 0.0837725848
C  C79  1  0.61630000  0.27300000  0.47960000  1.0 0.0837725848
C  C80  1  0.38370000  0.77300000  0.02040000  1.0 0.0837725848
C  C81  1  0.31430000  0.72850000  0.45820000  1.0 -0.0906912895
C  C82  1  0.68570000  0.22850000  0.04180000  1.0 -0.0906912895
C  C83  1  0.68570000  0.27150000  0.54180000  1.0 -0.0906912895
C  C84  1  0.31430000  0.77150000  0.95820000  1.0 -0.0906912895
C  C85  1  0.19360000  0.72400000  0.44000000  1.0 -0.1288516866
C  C86  1  0.80640000  0.22400000  0.06000000  1.0 -0.1288516866
C  C87  1  0.80640000  0.27600000  0.56000000  1.0 -0.1288516866
C  C88  1  0.19360000  0.77600000  0.94000000  1.0 -0.1288516866
C  C89  1  0.14310000  0.72030000  0.48520000  1.0 -0.1097165095
C  C90  1  0.85690000  0.22030000  0.01480000  1.0 -0.1097165095
C  C91  1  0.85690000  0.27970000  0.51480000  1.0 -0.1097165095
C  C92  1  0.14310000  0.77970000  0.98520000  1.0 -0.1097165095
C  C93  1  0.37050000  0.73560000  0.40980000  1.0 0.5787117155
C  C94  1  0.62950000  0.23560000  0.09020000  1.0 0.5787117155
C  C95  1  0.62950000  0.26440000  0.59020000  1.0 0.5787117155
C  C96  1  0.37050000  0.76440000  0.90980000  1.0 0.5787117155
N  N1  1  0.19960000  0.56090000  0.84090000  1.0 -0.3997628508
N  N2  1  0.80040000  0.06090000  0.65910000  1.0 -0.3997628508
N  N3  1  0.80040000  0.43910000  0.15910000  1.0 -0.3997628508
N  N4  1  0.19960000  0.93910000  0.34090000  1.0 -0.3997628508
N  N5  1  0.71620000  0.95650000  0.34350000  1.0 -0.3997628508
N  N6  1  0.28380000  0.45650000  0.15650000  1.0 -0.3997628508
N  N7  1  0.28380000  0.04350000  0.65650000  1.0 -0.3997628508
N  N8  1  0.71620000  0.54350000  0.84350000  1.0 -0.3997628508
N  N9  1  0.41020000  0.71580000  0.62800000  1.0 -0.4179486064
N  N10  1  0.58980000  0.21580000  0.87200000  1.0 -0.4179486064
N  N11  1  0.58980000  0.28420000  0.37200000  1.0 -0.4179486064
N  N12  1  0.41020000  0.78420000  0.12800000  1.0 -0.4179486064
N  N13  1  0.18600000  0.43610000  0.87150000  1.0 -0.4179486064
N  N14  1  0.81400000  0.93610000  0.62850000  1.0 -0.4179486064
N  N15  1  0.81400000  0.56390000  0.12850000  1.0 -0.4179486064
N  N16  1  0.18600000  0.06390000  0.37150000  1.0 -0.4179486064
N  N17  1  0.72300000  0.43110000  0.80390000  1.0 -0.4056753544
N  N18  1  0.27700000  0.93110000  0.69610000  1.0 -0.3997628508
N  N19  1  0.27700000  0.56890000  0.19610000  1.0 -0.4056753544
N  N20  1  0.72300000  0.06890000  0.30390000  1.0 -0.4056753544
N  N21  1  0.50000000  0.72300000  0.54620000  1.0 -0.3933621573
N  N22  1  0.50000000  0.22300000  0.95380000  1.0 -0.3997628508
N  N23  1  0.50000000  0.27700000  0.45380000  1.0 -0.3933621573
N  N24  1  0.50000000  0.77700000  0.04620000  1.0 -0.3933621573
O  O1  1  0.11550000  0.66010000  0.75650000  1.0 -0.5575943617
O  O2  1  0.88450000  0.16010000  0.74350000  1.0 -0.5575943617
O  O3  1  0.88450000  0.33990000  0.24350000  1.0 -0.5575943617
O  O4  1  0.11550000  0.83990000  0.25650000  1.0 -0.5575943617
O  O5  1  0.95080000  0.64310000  0.67650000  1.0 -0.5794612346
O  O6  1  0.04920000  0.14310000  0.82350000  1.0 -0.5794612346
O  O7  1  0.04920000  0.35690000  0.32350000  1.0 -0.5794612346
O  O8  1  0.95080000  0.85690000  0.17650000  1.0 -0.5794612346
O  O9  1  0.89080000  0.31630000  0.77960000  1.0 -0.539315979
O  O10  1  0.10920000  0.81630000  0.72040000  1.0 -0.539315979
O  O11  1  0.10920000  0.68370000  0.22040000  1.0 -0.539315979
O  O12  1  0.89080000  0.18370000  0.27960000  1.0 -0.539315979
O  O13  1  0.06550000  0.31900000  0.84870000  1.0 -0.5278211934
O  O14  1  0.93450000  0.81900000  0.65130000  1.0 -0.5278211934
O  O15  1  0.93450000  0.68100000  0.15130000  1.0 -0.5278211934
O  O16  1  0.06550000  0.18100000  0.34870000  1.0 -0.5278211934
O  O17  1  0.57680000  0.84570000  0.34600000  1.0 -0.539315979
O  O18  1  0.42320000  0.34570000  0.15400000  1.0 -0.539315979
O  O19  1  0.42320000  0.15430000  0.65400000  1.0 -0.539315979
O  O20  1  0.57680000  0.65430000  0.84600000  1.0 -0.539315979
O  O21  1  0.39310000  0.84390000  0.28370000  1.0 -0.5497667171
O  O22  1  0.60690000  0.34390000  0.21630000  1.0 -0.5497667171
O  O23  1  0.60690000  0.15610000  0.71630000  1.0 -0.5497667171
O  O24  1  0.39310000  0.65610000  0.78370000  1.0 -0.5497667171
O  O25  1  0.60970000  0.18550000  0.25000000  1.0 -0.5794612346
O  O26  1  0.39030000  0.68550000  0.25000000  1.0 -0.5794612346
O  O27  1  0.39030000  0.81450000  0.75000000  1.0 -0.5794612346
O  O28  1  0.60970000  0.31450000  0.75000000  1.0 -0.5794612346
O  O29  1  0.43420000  0.17230000  0.18030000  1.0 -0.5497667171
O  O30  1  0.56580000  0.67230000  0.31970000  1.0 -0.5497667171
O  O31  1  0.56580000  0.82770000  0.81970000  1.0 -0.5497667171
O  O32  1  0.43420000  0.32770000  0.68030000  1.0 -0.5497667171
O  O33  1  0.20870000  0.71090000  0.65050000  1.0 -0.5911907135
O  O34  1  0.79130000  0.21090000  0.84950000  1.0 -0.5911907135
O  O35  1  0.79130000  0.28910000  0.34950000  1.0 -0.5911907135
O  O36  1  0.20870000  0.78910000  0.15050000  1.0 -0.5911907135
O  O37  1  0.04050000  0.72000000  0.57290000  1.0 -0.5497667171
O  O38  1  0.95950000  0.22000000  0.92710000  1.0 -0.5497667171
O  O39  1  0.95950000  0.28000000  0.42710000  1.0 -0.5497667171
O  O40  1  0.04050000  0.78000000  0.07290000  1.0 -0.5497667171
O  O41  1  0.30580000  0.73560000  0.35390000  1.0 -0.5683369218
O  O42  1  0.69420000  0.23560000  0.14610000  1.0 -0.5683369218
O  O43  1  0.69420000  0.26440000  0.64610000  1.0 -0.5683369218
O  O44  1  0.30580000  0.76440000  0.85390000  1.0 -0.5683369218
O  O45  1  0.47870000  0.73860000  0.42710000  1.0 -0.5278211934
O  O46  1  0.52130000  0.23860000  0.07290000  1.0 -0.5278211934
O  O47  1  0.52130000  0.26140000  0.57290000  1.0 -0.5278211934
O  O48  1  0.47870000  0.76140000  0.92710000  1.0 -0.5278211934
