# DDEC6 charges by PACMAN v1.1 (https://github.com/mtap-research/PACMAN-charge/)
data_MOBTUV_ASR_pacman
_symmetry_space_group_name_H-M   'P 1'
_cell_length_a   17.72000000
_cell_length_b   17.72000000
_cell_length_c   16.13590000
_cell_angle_alpha   66.23970000
_cell_angle_beta   113.76000000
_cell_angle_gamma   82.95080000
_symmetry_Int_Tables_number   1
_chemical_formula_structural   Ag6H60C70(SN2)3
_chemical_formula_sum   'Ag12 H120 C140 S6 N12'
_cell_volume   3990.84623562
_cell_formula_units_Z   2
loop_
 _symmetry_equiv_pos_site_id
 _symmetry_equiv_pos_as_xyz
  1  'x, y, z'
loop_
 _atom_site_type_symbol
 _atom_site_label
 _atom_site_symmetry_multiplicity
 _atom_site_fract_x
 _atom_site_fract_y
 _atom_site_fract_z
 _atom_site_occupancy
 _atom_site_charge
Ag  Ag1  1  0.21768000  0.90276000  0.59627000  1.0 0.1724918035
Ag  Ag2  1  0.08537000  0.04683000  0.35728000  1.0 0.3059558679
Ag  Ag3  1  0.90276000  0.21768000  0.40373000  1.0 0.1724918035
Ag  Ag4  1  0.04683000  0.08537000  0.64272000  1.0 0.3048229624
Ag  Ag5  1  0.78232000  0.09724000  0.40373000  1.0 0.1724918035
Ag  Ag6  1  0.91463000  0.95317000  0.64272000  1.0 0.3048229624
Ag  Ag7  1  0.09724000  0.78232000  0.59627000  1.0 0.1724918035
Ag  Ag8  1  0.95317000  0.91463000  0.35728000  1.0 0.3059558679
Ag  Ag9  1  0.12533000  0.12533000  0.50000000  1.0 0.1113758224
Ag  Ag10  1  0.87467000  0.87467000  0.50000000  1.0 0.1113758224
Ag  Ag11  1  0.86443000  0.13557000  0.25827000  1.0 0.1496040036
Ag  Ag12  1  0.13557000  0.86443000  0.74173000  1.0 0.1496040036
H  H1  1  0.51750000  0.90596000  0.17115000  1.0 0.1496040036
H  H2  1  0.43633000  0.90279000  0.08418000  1.0 0.1374582273
H  H3  1  0.95324000  0.37044000  0.25917000  1.0 0.1374582273
H  H4  1  0.91988000  0.41264000  0.13923000  1.0 0.1374582273
H  H5  1  0.87225000  0.35555000  0.18799000  1.0 0.1285986506
H  H6  1  0.10720000  0.74284000  0.40786000  1.0 0.1113758224
H  H7  1  0.19449000  0.71633000  0.40700000  1.0 0.1199125663
H  H8  1  0.19784000  0.71240000  0.50728000  1.0 0.1113758224
H  H9  1  0.91570000  0.24694000  0.12007000  1.0 0.1374582273
H  H10  1  0.94303000  0.32639000  0.06849000  1.0 0.1285986506
H  H11  1  0.01159000  0.23107000  0.13888000  1.0 0.1374582273
H  H12  1  0.11561000  0.22833000  0.27389000  1.0 0.1374582273
H  H13  1  0.07806000  0.32972000  0.19672000  1.0 0.1374582273
H  H14  1  0.09583000  0.29353000  0.31136000  1.0 0.1374582273
H  H15  1  0.28153000  0.62797000  0.80191000  1.0 0.1113758224
H  H16  1  0.10033000  0.60497000  0.57842000  1.0 0.1113758224
H  H17  1  0.34885000  0.96865000  0.31760000  1.0 0.1113758224
H  H18  1  0.45280000  0.95700000  0.25973000  1.0 0.1113758224
H  H19  1  0.25723000  0.12453000  0.96462000  1.0 0.0701668185
H  H20  1  0.16374000  0.14426000  0.02591000  1.0 0.0797715389
H  H21  1  0.36252000  0.33486000  0.98825000  1.0 0.0797715389
H  H22  1  0.41656000  0.18596000  0.06868000  1.0 0.0797715389
H  H23  1  0.23900000  0.95390000  0.18783000  1.0 0.1113758224
H  H24  1  0.32703000  0.93729000  0.11420000  1.0 0.1113758224
H  H25  1  0.39796000  0.14332000  0.11974000  1.0 0.0701668185
H  H26  1  0.32249000  0.15105000  0.21104000  1.0 0.0901446638
H  H27  1  0.20012000  0.32580000  0.80168000  1.0 0.0901446638
H  H28  1  0.26650000  0.17684000  0.89541000  1.0 0.0797715389
H  H29  1  0.42538000  0.36058000  0.84518000  1.0 0.1113758224
H  H30  1  0.49865000  0.21205000  0.95992000  1.0 0.1199125663
H  H31  1  0.90596000  0.51750000  0.82885000  1.0 0.1496040036
H  H32  1  0.90279000  0.43633000  0.91582000  1.0 0.1374582273
H  H33  1  0.37044000  0.95324000  0.74083000  1.0 0.1374582273
H  H34  1  0.41264000  0.91988000  0.86077000  1.0 0.1374582273
H  H35  1  0.35555000  0.87225000  0.81201000  1.0 0.1285986506
H  H36  1  0.74284000  0.10720000  0.59214000  1.0 0.1113758224
H  H37  1  0.71633000  0.19449000  0.59300000  1.0 0.1199125663
H  H38  1  0.71240000  0.19784000  0.49272000  1.0 0.1113758224
H  H39  1  0.24694000  0.91570000  0.87993000  1.0 0.1374582273
H  H40  1  0.32639000  0.94303000  0.93151000  1.0 0.1285986506
H  H41  1  0.23107000  0.01159000  0.86112000  1.0 0.1374582273
H  H42  1  0.22833000  0.11561000  0.72611000  1.0 0.1374582273
H  H43  1  0.32972000  0.07806000  0.80328000  1.0 0.1374582273
H  H44  1  0.29353000  0.09583000  0.68864000  1.0 0.1374582273
H  H45  1  0.62797000  0.28153000  0.19809000  1.0 0.1113758224
H  H46  1  0.60497000  0.10033000  0.42158000  1.0 0.1113758224
H  H47  1  0.96865000  0.34885000  0.68240000  1.0 0.1113758224
H  H48  1  0.95700000  0.45280000  0.74027000  1.0 0.1113758224
H  H49  1  0.12453000  0.25723000  0.03538000  1.0 0.0701668185
H  H50  1  0.14426000  0.16374000  0.97409000  1.0 0.0797715389
H  H51  1  0.33486000  0.36252000  0.01175000  1.0 0.0797715389
H  H52  1  0.18596000  0.41656000  0.93132000  1.0 0.0797715389
H  H53  1  0.95390000  0.23900000  0.81217000  1.0 0.1113758224
H  H54  1  0.93729000  0.32703000  0.88580000  1.0 0.1113758224
H  H55  1  0.14332000  0.39796000  0.88026000  1.0 0.0701668185
H  H56  1  0.15105000  0.32249000  0.78896000  1.0 0.0901446638
H  H57  1  0.32580000  0.20012000  0.19832000  1.0 0.0901446638
H  H58  1  0.17684000  0.26650000  0.10459000  1.0 0.0797715389
H  H59  1  0.36058000  0.42538000  0.15482000  1.0 0.1113758224
H  H60  1  0.21205000  0.49865000  0.04008000  1.0 0.1199125663
H  H61  1  0.48250000  0.09404000  0.82885000  1.0 0.1496040036
H  H62  1  0.56367000  0.09721000  0.91582000  1.0 0.1374582273
H  H63  1  0.04676000  0.62956000  0.74083000  1.0 0.1374582273
H  H64  1  0.08012000  0.58736000  0.86077000  1.0 0.1374582273
H  H65  1  0.12775000  0.64445000  0.81201000  1.0 0.1285986506
H  H66  1  0.89280000  0.25716000  0.59214000  1.0 0.1113758224
H  H67  1  0.80551000  0.28367000  0.59300000  1.0 0.1199125663
H  H68  1  0.80216000  0.28760000  0.49272000  1.0 0.1113758224
H  H69  1  0.08430000  0.75306000  0.87993000  1.0 0.1374582273
H  H70  1  0.05697000  0.67361000  0.93151000  1.0 0.1285986506
H  H71  1  0.98841000  0.76893000  0.86112000  1.0 0.1374582273
H  H72  1  0.88439000  0.77167000  0.72611000  1.0 0.1374582273
H  H73  1  0.92194000  0.67028000  0.80328000  1.0 0.1374582273
H  H74  1  0.90417000  0.70647000  0.68864000  1.0 0.1374582273
H  H75  1  0.71847000  0.37203000  0.19809000  1.0 0.1113758224
H  H76  1  0.89967000  0.39503000  0.42158000  1.0 0.1113758224
H  H77  1  0.65115000  0.03135000  0.68240000  1.0 0.1113758224
H  H78  1  0.54720000  0.04300000  0.74027000  1.0 0.1113758224
H  H79  1  0.74277000  0.87547000  0.03538000  1.0 0.0701668185
H  H80  1  0.83626000  0.85574000  0.97409000  1.0 0.0797715389
H  H81  1  0.63748000  0.66514000  0.01175000  1.0 0.0797715389
H  H82  1  0.58344000  0.81404000  0.93132000  1.0 0.0797715389
H  H83  1  0.76100000  0.04610000  0.81217000  1.0 0.1113758224
H  H84  1  0.67297000  0.06271000  0.88580000  1.0 0.1113758224
H  H85  1  0.60204000  0.85668000  0.88026000  1.0 0.0701668185
H  H86  1  0.67751000  0.84895000  0.78896000  1.0 0.0901446638
H  H87  1  0.79988000  0.67420000  0.19832000  1.0 0.0901446638
H  H88  1  0.73350000  0.82316000  0.10459000  1.0 0.0797715389
H  H89  1  0.57462000  0.63942000  0.15482000  1.0 0.1113758224
H  H90  1  0.50135000  0.78795000  0.04008000  1.0 0.1199125663
H  H91  1  0.09404000  0.48250000  0.17115000  1.0 0.1496040036
H  H92  1  0.09721000  0.56367000  0.08418000  1.0 0.1374582273
H  H93  1  0.62956000  0.04676000  0.25917000  1.0 0.1374582273
H  H94  1  0.58736000  0.08012000  0.13923000  1.0 0.1374582273
H  H95  1  0.64445000  0.12775000  0.18799000  1.0 0.1285986506
H  H96  1  0.25716000  0.89280000  0.40786000  1.0 0.1113758224
H  H97  1  0.28367000  0.80551000  0.40700000  1.0 0.1199125663
H  H98  1  0.28760000  0.80216000  0.50728000  1.0 0.1113758224
H  H99  1  0.75306000  0.08430000  0.12007000  1.0 0.1374582273
H  H100  1  0.67361000  0.05697000  0.06849000  1.0 0.1285986506
H  H101  1  0.76893000  0.98841000  0.13888000  1.0 0.1374582273
H  H102  1  0.77167000  0.88439000  0.27389000  1.0 0.1374582273
H  H103  1  0.67028000  0.92194000  0.19672000  1.0 0.1374582273
H  H104  1  0.70647000  0.90417000  0.31136000  1.0 0.1374582273
H  H105  1  0.37203000  0.71847000  0.80191000  1.0 0.1113758224
H  H106  1  0.39503000  0.89967000  0.57842000  1.0 0.1113758224
H  H107  1  0.03135000  0.65115000  0.31760000  1.0 0.1113758224
H  H108  1  0.04300000  0.54720000  0.25973000  1.0 0.1113758224
H  H109  1  0.87547000  0.74277000  0.96462000  1.0 0.0701668185
H  H110  1  0.85574000  0.83626000  0.02591000  1.0 0.0797715389
H  H111  1  0.66514000  0.63748000  0.98825000  1.0 0.0797715389
H  H112  1  0.81404000  0.58344000  0.06868000  1.0 0.0797715389
H  H113  1  0.04610000  0.76100000  0.18783000  1.0 0.1113758224
H  H114  1  0.06271000  0.67297000  0.11420000  1.0 0.1113758224
H  H115  1  0.85668000  0.60204000  0.11974000  1.0 0.0701668185
H  H116  1  0.84895000  0.67751000  0.21104000  1.0 0.0901446638
H  H117  1  0.67420000  0.79988000  0.80168000  1.0 0.0901446638
H  H118  1  0.82316000  0.73350000  0.89541000  1.0 0.0797715389
H  H119  1  0.63942000  0.57462000  0.84518000  1.0 0.1113758224
H  H120  1  0.78795000  0.50135000  0.95992000  1.0 0.1199125663
C  C1  1  0.42330000  0.02130000  0.06790000  1.0 0.0086321512
C  C2  1  0.47330000  0.93730000  0.09770000  1.0 -0.3397354822
C  C3  1  0.48650000  0.04350000  0.96810000  1.0 0.0302649552
C  C4  1  0.39260000  0.17880000  0.93680000  1.0 0.1113758224
C  C5  1  0.25830000  0.06090000  0.18720000  1.0 0.0500334778
C  C6  1  0.36710000  0.03730000  0.10770000  1.0 0.0407589013
C  C7  1  0.31340000  0.36140000  0.83220000  1.0 0.0407589013
C  C8  1  0.98870000  0.28110000  0.21980000  1.0 0.3330514838
C  C9  1  0.20420000  0.07460000  0.22700000  1.0 0.0086321512
C  C10  1  0.92800000  0.36240000  0.19970000  1.0 -0.4496134857
C  C11  1  0.16610000  0.74370000  0.43230000  1.0 -0.4123505021
C  C12  1  0.96250000  0.27050000  0.12920000  1.0 -0.4308848421
C  C13  1  0.07700000  0.28340000  0.25330000  1.0 -0.4308848421
C  C14  1  0.25940000  0.59500000  0.77180000  1.0 0.0500334778
C  C15  1  0.15250000  0.58390000  0.64050000  1.0 0.0407589013
C  C16  1  0.28280000  0.44860000  0.80260000  1.0 0.0302649552
C  C17  1  0.30410000  0.50590000  0.82270000  1.0 -0.1103530641
C  C18  1  0.20980000  0.49300000  0.70730000  1.0 -0.1851814727
C  C19  1  0.33250000  0.00450000  0.24810000  1.0 -0.0411817378
C  C20  1  0.39490000  0.99350000  0.21200000  1.0 -0.050080838
C  C21  1  0.27740000  0.09540000  0.03600000  1.0 -0.1103530641
C  C22  1  0.22190000  0.10790000  0.07160000  1.0 -0.1568964983
C  C23  1  0.35840000  0.30740000  0.94890000  1.0 -0.1219693621
C  C24  1  0.39270000  0.21970000  0.99680000  1.0 -0.1267417275
C  C25  1  0.32750000  0.31990000  0.78180000  1.0 0.0086321512
C  C26  1  0.35770000  0.23070000  0.82780000  1.0 -0.003734713
C  C27  1  0.26750000  0.99370000  0.17140000  1.0 -0.0602189045
C  C28  1  0.32240000  0.98320000  0.12820000  1.0 -0.0602189045
C  C29  1  0.36700000  0.10580000  0.13420000  1.0 -0.1267417275
C  C30  1  0.31790000  0.11410000  0.18280000  1.0 -0.1438772421
C  C31  1  0.26100000  0.30180000  0.83650000  1.0 -0.1267417275
C  C32  1  0.29960000  0.21360000  0.88970000  1.0 -0.1219693621
C  C33  1  0.39410000  0.32490000  0.86410000  1.0 -0.050080838
C  C34  1  0.43780000  0.23420000  0.92600000  1.0 -0.0411817378
C  C35  1  0.02130000  0.42330000  0.93210000  1.0 0.0086321512
C  C36  1  0.93730000  0.47330000  0.90230000  1.0 -0.3397354822
C  C37  1  0.04350000  0.48650000  0.03190000  1.0 0.0302649552
C  C38  1  0.17880000  0.39260000  0.06320000  1.0 0.1113758224
C  C39  1  0.06090000  0.25830000  0.81280000  1.0 0.0500334778
C  C40  1  0.03730000  0.36710000  0.89230000  1.0 0.0407589013
C  C41  1  0.36140000  0.31340000  0.16780000  1.0 0.0407589013
C  C42  1  0.28110000  0.98870000  0.78020000  1.0 0.3330514838
C  C43  1  0.07460000  0.20420000  0.77300000  1.0 0.0086321512
C  C44  1  0.36240000  0.92800000  0.80030000  1.0 -0.4496134857
C  C45  1  0.74370000  0.16610000  0.56770000  1.0 -0.4123505021
C  C46  1  0.27050000  0.96250000  0.87080000  1.0 -0.4308848421
C  C47  1  0.28340000  0.07700000  0.74670000  1.0 -0.4308848421
C  C48  1  0.59500000  0.25940000  0.22820000  1.0 0.0500334778
C  C49  1  0.58390000  0.15250000  0.35950000  1.0 0.0407589013
C  C50  1  0.44860000  0.28280000  0.19740000  1.0 0.0302649552
C  C51  1  0.50590000  0.30410000  0.17730000  1.0 -0.1103530641
C  C52  1  0.49300000  0.20980000  0.29270000  1.0 -0.1851814727
C  C53  1  0.00450000  0.33250000  0.75190000  1.0 -0.0411817378
C  C54  1  0.99350000  0.39490000  0.78800000  1.0 -0.050080838
C  C55  1  0.09540000  0.27740000  0.96400000  1.0 -0.1103530641
C  C56  1  0.10790000  0.22190000  0.92840000  1.0 -0.1568964983
C  C57  1  0.30740000  0.35840000  0.05110000  1.0 -0.1219693621
C  C58  1  0.21970000  0.39270000  0.00320000  1.0 -0.1267417275
C  C59  1  0.31990000  0.32750000  0.21820000  1.0 0.0086321512
C  C60  1  0.23070000  0.35770000  0.17220000  1.0 -0.003734713
C  C61  1  0.99370000  0.26750000  0.82860000  1.0 -0.0602189045
C  C62  1  0.98320000  0.32240000  0.87180000  1.0 -0.0602189045
C  C63  1  0.10580000  0.36700000  0.86580000  1.0 -0.1267417275
C  C64  1  0.11410000  0.31790000  0.81720000  1.0 -0.1438772421
C  C65  1  0.30180000  0.26100000  0.16350000  1.0 -0.1267417275
C  C66  1  0.21360000  0.29960000  0.11030000  1.0 -0.1219693621
C  C67  1  0.32490000  0.39410000  0.13590000  1.0 -0.050080838
C  C68  1  0.23420000  0.43780000  0.07400000  1.0 -0.0411817378
C  C69  1  0.57670000  0.97870000  0.93210000  1.0 0.0086321512
C  C70  1  0.52670000  0.06270000  0.90230000  1.0 -0.3397354822
C  C71  1  0.51350000  0.95650000  0.03190000  1.0 0.0302649552
C  C72  1  0.60740000  0.82120000  0.06320000  1.0 0.1113758224
C  C73  1  0.74170000  0.93910000  0.81280000  1.0 0.0500334778
C  C74  1  0.63290000  0.96270000  0.89230000  1.0 0.0407589013
C  C75  1  0.68660000  0.63860000  0.16780000  1.0 0.0407589013
C  C76  1  0.01130000  0.71890000  0.78020000  1.0 0.3330514838
C  C77  1  0.79580000  0.92540000  0.77300000  1.0 0.0086321512
C  C78  1  0.07200000  0.63760000  0.80030000  1.0 -0.4496134857
C  C79  1  0.83390000  0.25630000  0.56770000  1.0 -0.4123505021
C  C80  1  0.03750000  0.72950000  0.87080000  1.0 -0.4308848421
C  C81  1  0.92300000  0.71660000  0.74670000  1.0 -0.4308848421
C  C82  1  0.74060000  0.40500000  0.22820000  1.0 0.0500334778
C  C83  1  0.84750000  0.41610000  0.35950000  1.0 0.0407589013
C  C84  1  0.71720000  0.55140000  0.19740000  1.0 0.0302649552
C  C85  1  0.69590000  0.49410000  0.17730000  1.0 -0.1103530641
C  C86  1  0.79020000  0.50700000  0.29270000  1.0 -0.1851814727
C  C87  1  0.66750000  0.99550000  0.75190000  1.0 -0.0411817378
C  C88  1  0.60510000  0.00650000  0.78800000  1.0 -0.050080838
C  C89  1  0.72260000  0.90460000  0.96400000  1.0 -0.1103530641
C  C90  1  0.77810000  0.89210000  0.92840000  1.0 -0.1568964983
C  C91  1  0.64160000  0.69260000  0.05110000  1.0 -0.1219693621
C  C92  1  0.60730000  0.78030000  0.00320000  1.0 -0.1267417275
C  C93  1  0.67250000  0.68010000  0.21820000  1.0 0.0086321512
C  C94  1  0.64230000  0.76930000  0.17220000  1.0 -0.003734713
C  C95  1  0.73250000  0.00630000  0.82860000  1.0 -0.0602189045
C  C96  1  0.67760000  0.01680000  0.87180000  1.0 -0.0602189045
C  C97  1  0.63300000  0.89420000  0.86580000  1.0 -0.1267417275
C  C98  1  0.68210000  0.88590000  0.81720000  1.0 -0.1438772421
C  C99  1  0.73900000  0.69820000  0.16350000  1.0 -0.1267417275
C  C100  1  0.70040000  0.78640000  0.11030000  1.0 -0.1219693621
C  C101  1  0.60590000  0.67510000  0.13590000  1.0 -0.050080838
C  C102  1  0.56220000  0.76580000  0.07400000  1.0 -0.0411817378
C  C103  1  0.97870000  0.57670000  0.06790000  1.0 0.0086321512
C  C104  1  0.06270000  0.52670000  0.09770000  1.0 -0.3397354822
C  C105  1  0.95650000  0.51350000  0.96810000  1.0 0.0302649552
C  C106  1  0.82120000  0.60740000  0.93680000  1.0 0.1113758224
C  C107  1  0.93910000  0.74170000  0.18720000  1.0 0.0500334778
C  C108  1  0.96270000  0.63290000  0.10770000  1.0 0.0407589013
C  C109  1  0.63860000  0.68660000  0.83220000  1.0 0.0407589013
C  C110  1  0.71890000  0.01130000  0.21980000  1.0 0.3330514838
C  C111  1  0.92540000  0.79580000  0.22700000  1.0 0.0086321512
C  C112  1  0.63760000  0.07200000  0.19970000  1.0 -0.4496134857
C  C113  1  0.25630000  0.83390000  0.43230000  1.0 -0.4123505021
C  C114  1  0.72950000  0.03750000  0.12920000  1.0 -0.4308848421
C  C115  1  0.71660000  0.92300000  0.25330000  1.0 -0.4308848421
C  C116  1  0.40500000  0.74060000  0.77180000  1.0 0.0500334778
C  C117  1  0.41610000  0.84750000  0.64050000  1.0 0.0407589013
C  C118  1  0.55140000  0.71720000  0.80260000  1.0 0.0302649552
C  C119  1  0.49410000  0.69590000  0.82270000  1.0 -0.1103530641
C  C120  1  0.50700000  0.79020000  0.70730000  1.0 -0.1851814727
C  C121  1  0.99550000  0.66750000  0.24810000  1.0 -0.0411817378
C  C122  1  0.00650000  0.60510000  0.21200000  1.0 -0.050080838
C  C123  1  0.90460000  0.72260000  0.03600000  1.0 -0.1103530641
C  C124  1  0.89210000  0.77810000  0.07160000  1.0 -0.1568964983
C  C125  1  0.69260000  0.64160000  0.94890000  1.0 -0.1219693621
C  C126  1  0.78030000  0.60730000  0.99680000  1.0 -0.1267417275
C  C127  1  0.68010000  0.67250000  0.78180000  1.0 0.0086321512
C  C128  1  0.76930000  0.64230000  0.82780000  1.0 -0.003734713
C  C129  1  0.00630000  0.73250000  0.17140000  1.0 -0.0602189045
C  C130  1  0.01680000  0.67760000  0.12820000  1.0 -0.0602189045
C  C131  1  0.89420000  0.63300000  0.13420000  1.0 -0.1267417275
C  C132  1  0.88590000  0.68210000  0.18280000  1.0 -0.1438772421
C  C133  1  0.69820000  0.73900000  0.83650000  1.0 -0.1267417275
C  C134  1  0.78640000  0.70040000  0.88970000  1.0 -0.1219693621
C  C135  1  0.67510000  0.60590000  0.86410000  1.0 -0.050080838
C  C136  1  0.76580000  0.56220000  0.92600000  1.0 -0.0411817378
C  C137  1  0.16410000  0.83590000  0.39340000  1.0 0.3048229624
C  C138  1  0.11220000  0.88780000  0.27320000  1.0 -0.0411817378
C  C139  1  0.83590000  0.16410000  0.60660000  1.0 0.3048229624
C  C140  1  0.88780000  0.11220000  0.72680000  1.0 -0.0411817378
S  S1  1  0.98967000  0.18081000  0.32594000  1.0 -0.2219461355
S  S2  1  0.18081000  0.98967000  0.67406000  1.0 -0.2219461355
S  S3  1  0.01033000  0.81919000  0.67406000  1.0 -0.2219461355
S  S4  1  0.81919000  0.01033000  0.32594000  1.0 -0.2219461355
S  S5  1  0.11280000  0.88720000  0.44747000  1.0 -0.3163523565
S  S6  1  0.88720000  0.11280000  0.55253000  1.0 -0.3146893273
N  N1  1  0.43190000  0.08570000  0.98970000  1.0 -0.2219461355
N  N2  1  0.18520000  0.63420000  0.68050000  1.0 -0.203688063
N  N3  1  0.15360000  0.08520000  0.25560000  1.0 -0.3754400204
N  N4  1  0.08570000  0.43190000  0.01030000  1.0 -0.2219461355
N  N5  1  0.63420000  0.18520000  0.31950000  1.0 -0.203688063
N  N6  1  0.08520000  0.15360000  0.74440000  1.0 -0.3754400204
N  N7  1  0.56810000  0.91430000  0.01030000  1.0 -0.2219461355
N  N8  1  0.81480000  0.36580000  0.31950000  1.0 -0.203688063
N  N9  1  0.84640000  0.91480000  0.74440000  1.0 -0.3754400204
N  N10  1  0.91430000  0.56810000  0.98970000  1.0 -0.2219461355
N  N11  1  0.36580000  0.81480000  0.68050000  1.0 -0.203688063
N  N12  1  0.91480000  0.84640000  0.25560000  1.0 -0.3754400204
