# DDEC6 charges by PACMAN v1.1 (https://github.com/mtap-research/PACMAN-charge/)
data_MOCKEV_ASR_pacman
_symmetry_space_group_name_H-M   'P 1'
_cell_length_a   14.89660000
_cell_length_b   14.89660000
_cell_length_c   14.89660000
_cell_angle_alpha   78.24530000
_cell_angle_beta   78.24530000
_cell_angle_gamma   78.24530000
_symmetry_Int_Tables_number   1
_chemical_formula_structural   CuH3C8NO4
_chemical_formula_sum   'Cu6 H18 C48 N6 O24'
_cell_volume   3122.78247404
_cell_formula_units_Z   6
loop_
 _symmetry_equiv_pos_site_id
 _symmetry_equiv_pos_as_xyz
  1  'x, y, z'
loop_
 _atom_site_type_symbol
 _atom_site_label
 _atom_site_symmetry_multiplicity
 _atom_site_fract_x
 _atom_site_fract_y
 _atom_site_fract_z
 _atom_site_occupancy
 _atom_site_charge
Cu  Cu1  1  0.08127000  0.51389000  0.51392000  1.0 0.8822389125
Cu  Cu2  1  0.51389000  0.51392000  0.08127000  1.0 0.8822389125
Cu  Cu3  1  0.51392000  0.08127000  0.51389000  1.0 0.8822389125
Cu  Cu4  1  0.91873000  0.48611000  0.48608000  1.0 0.8822389125
Cu  Cu5  1  0.48611000  0.48608000  0.91873000  1.0 0.8822389125
Cu  Cu6  1  0.48608000  0.91873000  0.48611000  1.0 0.8822389125
H  H1  1  0.23490000  0.22870000  0.52190000  1.0 0.1401457828
H  H2  1  0.22870000  0.52190000  0.23490000  1.0 0.1401457828
H  H3  1  0.52190000  0.23490000  0.22870000  1.0 0.1401457828
H  H4  1  0.76510000  0.77130000  0.47810000  1.0 0.1401457828
H  H5  1  0.77130000  0.47810000  0.76510000  1.0 0.1401457828
H  H6  1  0.47810000  0.76510000  0.77130000  1.0 0.1401457828
H  H7  1  0.02030000  0.80850000  0.49670000  1.0 0.1401457828
H  H8  1  0.80850000  0.49670000  0.02030000  1.0 0.1401457828
H  H9  1  0.49670000  0.02030000  0.80850000  1.0 0.1401457828
H  H10  1  0.97970000  0.19150000  0.50330000  1.0 0.1401457828
H  H11  1  0.19150000  0.50330000  0.97970000  1.0 0.1401457828
H  H12  1  0.50330000  0.97970000  0.19150000  1.0 0.1401457828
H  H13  1  0.81200000  0.02920000  0.48490000  1.0 0.1401457828
H  H14  1  0.02920000  0.48490000  0.81200000  1.0 0.1401457828
H  H15  1  0.48490000  0.81200000  0.02920000  1.0 0.1401457828
H  H16  1  0.18800000  0.97080000  0.51510000  1.0 0.1401457828
H  H17  1  0.97080000  0.51510000  0.18800000  1.0 0.1401457828
H  H18  1  0.51510000  0.18800000  0.97080000  1.0 0.1401457828
C  C1  1  0.90590000  0.77060000  0.48070000  1.0 -0.040793737
C  C2  1  0.77060000  0.48070000  0.90590000  1.0 -0.040793737
C  C3  1  0.48070000  0.90590000  0.77060000  1.0 -0.040793737
C  C4  1  0.09410000  0.22940000  0.51930000  1.0 -0.040793737
C  C5  1  0.22940000  0.51930000  0.09410000  1.0 -0.040793737
C  C6  1  0.51930000  0.09410000  0.22940000  1.0 -0.040793737
C  C7  1  0.77000000  0.90580000  0.48680000  1.0 0.0026046155
C  C8  1  0.90580000  0.48680000  0.77000000  1.0 0.0026046155
C  C9  1  0.48680000  0.77000000  0.90580000  1.0 0.0026046155
C  C10  1  0.23000000  0.09420000  0.51320000  1.0 0.0026046155
C  C11  1  0.09420000  0.51320000  0.23000000  1.0 0.0026046155
C  C12  1  0.51320000  0.23000000  0.09420000  1.0 0.0026046155
C  C13  1  0.80600000  0.81040000  0.48140000  1.0 -0.0865240714
C  C14  1  0.81040000  0.48140000  0.80600000  1.0 -0.0865240714
C  C15  1  0.48140000  0.80600000  0.81040000  1.0 -0.0865240714
C  C16  1  0.19400000  0.18960000  0.51860000  1.0 -0.0865240714
C  C17  1  0.18960000  0.51860000  0.19400000  1.0 -0.0865240714
C  C18  1  0.51860000  0.19400000  0.18960000  1.0 -0.0865240714
C  C19  1  0.95740000  0.83060000  0.49190000  1.0 -0.1145482283
C  C20  1  0.83060000  0.49190000  0.95740000  1.0 -0.1161582242
C  C21  1  0.49190000  0.95740000  0.83060000  1.0 -0.1145482283
C  C22  1  0.04260000  0.16940000  0.50810000  1.0 -0.1145482283
C  C23  1  0.16940000  0.50810000  0.04260000  1.0 -0.1161582242
C  C24  1  0.50810000  0.04260000  0.16940000  1.0 -0.1145482283
C  C25  1  0.93220000  0.67290000  0.48100000  1.0 0.5602729995
C  C26  1  0.67290000  0.48100000  0.93220000  1.0 0.5602729995
C  C27  1  0.48100000  0.93220000  0.67290000  1.0 0.5602729995
C  C28  1  0.06780000  0.32710000  0.51900000  1.0 0.5602729995
C  C29  1  0.32710000  0.51900000  0.06780000  1.0 0.5602729995
C  C30  1  0.51900000  0.06780000  0.32710000  1.0 0.5602729995
C  C31  1  0.83120000  0.96450000  0.48870000  1.0 -0.1545500528
C  C32  1  0.96450000  0.48870000  0.83120000  1.0 -0.1554840546
C  C33  1  0.48870000  0.83120000  0.96450000  1.0 -0.1554840546
C  C34  1  0.16880000  0.03550000  0.51130000  1.0 -0.1554840546
C  C35  1  0.03550000  0.51130000  0.16880000  1.0 -0.1554840546
C  C36  1  0.51130000  0.16880000  0.03550000  1.0 -0.1554840546
C  C37  1  0.92340000  0.92170000  0.49690000  1.0 0.1401457828
C  C38  1  0.92170000  0.49690000  0.92340000  1.0 0.1401457828
C  C39  1  0.49690000  0.92340000  0.92170000  1.0 0.1401457828
C  C40  1  0.07660000  0.07830000  0.50310000  1.0 0.1401457828
C  C41  1  0.07830000  0.50310000  0.07660000  1.0 0.1401457828
C  C42  1  0.50310000  0.07660000  0.07830000  1.0 0.1401457828
C  C43  1  0.33440000  0.06100000  0.51570000  1.0 0.5786324421
C  C44  1  0.06100000  0.51570000  0.33440000  1.0 0.5786324421
C  C45  1  0.51570000  0.33440000  0.06100000  1.0 0.5786324421
C  C46  1  0.66560000  0.93900000  0.48430000  1.0 0.5786324421
C  C47  1  0.93900000  0.48430000  0.66560000  1.0 0.5786324421
C  C48  1  0.48430000  0.66560000  0.93900000  1.0 0.5786324421
N  N1  1  0.98300000  0.98000000  0.49600000  1.0 -0.0669623296
N  N2  1  0.98000000  0.49600000  0.98300000  1.0 -0.0641377937
N  N3  1  0.49600000  0.98300000  0.98000000  1.0 -0.0669623296
N  N4  1  0.01700000  0.02000000  0.50400000  1.0 -0.0669623296
N  N5  1  0.02000000  0.50400000  0.01700000  1.0 -0.0669623296
N  N6  1  0.50400000  0.01700000  0.02000000  1.0 -0.0669623296
O  O1  1  0.87970000  0.61690000  0.47850000  1.0 -0.4872239154
O  O2  1  0.61690000  0.47850000  0.87970000  1.0 -0.4872239154
O  O3  1  0.47850000  0.87970000  0.61690000  1.0 -0.4872239154
O  O4  1  0.12030000  0.38310000  0.52150000  1.0 -0.4872239154
O  O5  1  0.38310000  0.52150000  0.12030000  1.0 -0.4872239154
O  O6  1  0.52150000  0.12030000  0.38310000  1.0 -0.4872239154
O  O7  1  0.38020000  0.12230000  0.52320000  1.0 -0.5225031297
O  O8  1  0.12230000  0.52320000  0.38020000  1.0 -0.5225031297
O  O9  1  0.52320000  0.38020000  0.12230000  1.0 -0.5225031297
O  O10  1  0.61980000  0.87770000  0.47680000  1.0 -0.5225031297
O  O11  1  0.87770000  0.47680000  0.61980000  1.0 -0.5225031297
O  O12  1  0.47680000  0.61980000  0.87770000  1.0 -0.5225031297
O  O13  1  0.35700000  0.97800000  0.49960000  1.0 -0.5311717611
O  O14  1  0.97800000  0.49960000  0.35700000  1.0 -0.5311717611
O  O15  1  0.49960000  0.35700000  0.97800000  1.0 -0.5311717611
O  O16  1  0.64300000  0.02200000  0.50040000  1.0 -0.5311717611
O  O17  1  0.02200000  0.50040000  0.64300000  1.0 -0.5311717611
O  O18  1  0.50040000  0.64300000  0.02200000  1.0 -0.5311717611
O  O19  1  0.02190000  0.64470000  0.49450000  1.0 -0.5792106311
O  O20  1  0.64470000  0.49450000  0.02190000  1.0 -0.5792106311
O  O21  1  0.49450000  0.02190000  0.64470000  1.0 -0.5792106311
O  O22  1  0.97810000  0.35530000  0.50550000  1.0 -0.5792106311
O  O23  1  0.35530000  0.50550000  0.97810000  1.0 -0.5792106311
O  O24  1  0.50550000  0.97810000  0.35530000  1.0 -0.5792106311
