# DDEC6 charges by PACMAN v1.1 (https://github.com/mtap-research/PACMAN-charge/)
data_MODMIB_FSR_pacman
_symmetry_space_group_name_H-M   'P 1'
_cell_length_a   13.07780000
_cell_length_b   13.07780000
_cell_length_c   15.90600000
_cell_angle_alpha   90.00000000
_cell_angle_beta   90.00000000
_cell_angle_gamma   130.40500000
_symmetry_Int_Tables_number   1
_chemical_formula_structural   Cd5H20(C13N6)2
_chemical_formula_sum   'Cd10 H40 C52 N24'
_cell_volume   2071.52346744
_cell_formula_units_Z   2
loop_
 _symmetry_equiv_pos_site_id
 _symmetry_equiv_pos_as_xyz
  1  'x, y, z'
loop_
 _atom_site_type_symbol
 _atom_site_label
 _atom_site_symmetry_multiplicity
 _atom_site_fract_x
 _atom_site_fract_y
 _atom_site_fract_z
 _atom_site_occupancy
 _atom_site_charge
Cd  Cd1  1  0.00000000  0.50000000  0.50000000  1.0 0.9758227749
Cd  Cd2  1  0.50000000  0.00000000  0.00000000  1.0 0.9694606943
Cd  Cd3  1  0.61820000  0.38180000  0.25000000  1.0 0.6636189504
Cd  Cd4  1  0.61820000  0.38180000  0.75000000  1.0 0.6636189504
Cd  Cd5  1  0.38180000  0.61820000  0.75000000  1.0 0.6636189504
Cd  Cd6  1  0.38180000  0.61820000  0.25000000  1.0 0.6636189504
Cd  Cd7  1  0.76169000  0.95871000  0.50000000  1.0 0.4682154142
Cd  Cd8  1  0.95871000  0.76169000  0.00000000  1.0 0.4750087543
Cd  Cd9  1  0.04129000  0.23831000  0.00000000  1.0 0.4682154142
Cd  Cd10  1  0.23831000  0.04129000  0.50000000  1.0 0.4682154142
H  H1  1  0.99860000  0.71920000  0.67490000  1.0 0.1188760681
H  H2  1  0.71920000  0.99860000  0.82510000  1.0 0.1188760681
H  H3  1  0.28080000  0.00140000  0.82510000  1.0 0.1188760681
H  H4  1  0.00140000  0.28080000  0.67490000  1.0 0.1188760681
H  H5  1  0.90080000  0.81720000  0.67170000  1.0 0.1402668787
H  H6  1  0.81720000  0.90080000  0.82830000  1.0 0.1402668787
H  H7  1  0.18280000  0.09920000  0.82830000  1.0 0.1402668787
H  H8  1  0.09920000  0.18280000  0.67170000  1.0 0.1402668787
H  H9  1  0.14210000  0.69730000  0.73700000  1.0 0.1030378155
H  H10  1  0.69730000  0.14210000  0.76300000  1.0 0.1030378155
H  H11  1  0.30270000  0.85790000  0.76300000  1.0 0.1030378155
H  H12  1  0.85790000  0.30270000  0.73700000  1.0 0.1030378155
H  H13  1  0.27880000  0.83400000  0.70850000  1.0 0.1030378155
H  H14  1  0.83400000  0.27880000  0.79150000  1.0 0.1030378155
H  H15  1  0.16600000  0.72120000  0.79150000  1.0 0.1030378155
H  H16  1  0.72120000  0.16600000  0.70850000  1.0 0.1030378155
H  H17  1  0.24630000  0.80150000  0.80450000  1.0 0.1030378155
H  H18  1  0.80150000  0.24630000  0.69550000  1.0 0.1030378155
H  H19  1  0.19850000  0.75370000  0.69550000  1.0 0.1030378155
H  H20  1  0.75370000  0.19850000  0.80450000  1.0 0.1030378155
H  H21  1  0.99860000  0.71920000  0.32510000  1.0 0.1188760681
H  H22  1  0.00140000  0.28080000  0.32510000  1.0 0.1188760681
H  H23  1  0.28080000  0.00140000  0.17490000  1.0 0.1188760681
H  H24  1  0.71920000  0.99860000  0.17490000  1.0 0.1188760681
H  H25  1  0.90080000  0.81720000  0.32830000  1.0 0.1402668787
H  H26  1  0.09920000  0.18280000  0.32830000  1.0 0.1402668787
H  H27  1  0.18280000  0.09920000  0.17170000  1.0 0.1402668787
H  H28  1  0.81720000  0.90080000  0.17170000  1.0 0.1402668787
H  H29  1  0.14210000  0.69730000  0.26300000  1.0 0.1030378155
H  H30  1  0.85790000  0.30270000  0.26300000  1.0 0.1030378155
H  H31  1  0.30270000  0.85790000  0.23700000  1.0 0.1030378155
H  H32  1  0.69730000  0.14210000  0.23700000  1.0 0.1030378155
H  H33  1  0.27880000  0.83400000  0.29150000  1.0 0.1030378155
H  H34  1  0.72120000  0.16600000  0.29150000  1.0 0.1030378155
H  H35  1  0.16600000  0.72120000  0.20850000  1.0 0.1030378155
H  H36  1  0.83400000  0.27880000  0.20850000  1.0 0.1030378155
H  H37  1  0.24630000  0.80150000  0.19550000  1.0 0.1030378155
H  H38  1  0.75370000  0.19850000  0.19550000  1.0 0.1030378155
H  H39  1  0.19850000  0.75370000  0.30450000  1.0 0.1030378155
H  H40  1  0.80150000  0.24630000  0.30450000  1.0 0.1030378155
C  C1  1  0.76860000  0.43480000  0.34810000  1.0 -0.0089244169
C  C2  1  0.76860000  0.43480000  0.65190000  1.0 -0.0089244169
C  C3  1  0.43480000  0.76860000  0.84810000  1.0 -0.0089244169
C  C4  1  0.56520000  0.23140000  0.84810000  1.0 -0.0089244169
C  C5  1  0.23140000  0.56520000  0.65190000  1.0 -0.0089244169
C  C6  1  0.23140000  0.56520000  0.34810000  1.0 -0.0089244169
C  C7  1  0.56520000  0.23140000  0.15190000  1.0 -0.0089244169
C  C8  1  0.43480000  0.76860000  0.15190000  1.0 -0.0089244169
C  C9  1  0.84990000  0.17290000  0.50000000  1.0 -0.0212232652
C  C10  1  0.17290000  0.84990000  0.00000000  1.0 -0.0212232652
C  C11  1  0.82710000  0.15010000  0.00000000  1.0 -0.0212232652
C  C12  1  0.15010000  0.82710000  0.50000000  1.0 -0.0212232652
C  C13  1  0.64270000  0.85550000  0.61480000  1.0 -0.0435318212
C  C14  1  0.64270000  0.85550000  0.38520000  1.0 -0.0435318212
C  C15  1  0.85550000  0.64270000  0.11480000  1.0 -0.0435318212
C  C16  1  0.14450000  0.35730000  0.11480000  1.0 -0.0435318212
C  C17  1  0.35730000  0.14450000  0.38520000  1.0 -0.0435318212
C  C18  1  0.35730000  0.14450000  0.61480000  1.0 -0.0435318212
C  C19  1  0.14450000  0.35730000  0.88520000  1.0 -0.0464660076
C  C20  1  0.85550000  0.64270000  0.88520000  1.0 -0.0464660076
C  C21  1  0.52340000  0.47660000  0.25000000  1.0 -0.1180512549
C  C22  1  0.52340000  0.47660000  0.75000000  1.0 -0.1180512549
C  C23  1  0.47660000  0.52340000  0.75000000  1.0 -0.1180512549
C  C24  1  0.47660000  0.52340000  0.25000000  1.0 -0.1180512549
C  C25  1  0.94910000  0.98990000  0.50000000  1.0 -0.2334185483
C  C26  1  0.98990000  0.94910000  0.00000000  1.0 -0.2334185483
C  C27  1  0.01010000  0.05090000  0.00000000  1.0 -0.2334185483
C  C28  1  0.05090000  0.01010000  0.50000000  1.0 -0.2334185483
C  C29  1  0.03640000  0.79720000  0.70530000  1.0 0.0648904128
C  C30  1  0.79720000  0.03640000  0.79470000  1.0 0.0648904128
C  C31  1  0.20280000  0.96360000  0.79470000  1.0 0.0648904128
C  C32  1  0.96360000  0.20280000  0.70530000  1.0 0.0655993803
C  C33  1  0.97730000  0.85550000  0.70400000  1.0 -0.1814827488
C  C34  1  0.85550000  0.97730000  0.79600000  1.0 -0.1814827488
C  C35  1  0.14450000  0.02270000  0.79600000  1.0 -0.1814827488
C  C36  1  0.02270000  0.14450000  0.70400000  1.0 -0.1814827488
C  C37  1  0.03130000  0.96870000  0.75000000  1.0 0.1030378155
C  C38  1  0.96870000  0.03130000  0.75000000  1.0 0.1030378155
C  C39  1  0.20890000  0.79110000  0.75000000  1.0 -0.2567110451
C  C40  1  0.79110000  0.20890000  0.75000000  1.0 -0.2543272095
C  C41  1  0.03640000  0.79720000  0.29470000  1.0 0.0648904128
C  C42  1  0.96360000  0.20280000  0.29470000  1.0 0.0655993803
C  C43  1  0.20280000  0.96360000  0.20530000  1.0 0.0648904128
C  C44  1  0.79720000  0.03640000  0.20530000  1.0 0.0648904128
C  C45  1  0.97730000  0.85550000  0.29600000  1.0 -0.1814827488
C  C46  1  0.02270000  0.14450000  0.29600000  1.0 -0.1814827488
C  C47  1  0.14450000  0.02270000  0.20400000  1.0 -0.1814827488
C  C48  1  0.85550000  0.97730000  0.20400000  1.0 -0.1814827488
C  C49  1  0.03130000  0.96870000  0.25000000  1.0 0.1030378155
C  C50  1  0.96870000  0.03130000  0.25000000  1.0 0.1030378155
C  C51  1  0.20890000  0.79110000  0.25000000  1.0 -0.2567110451
C  C52  1  0.79110000  0.20890000  0.25000000  1.0 -0.2543272095
N  N1  1  0.84890000  0.46290000  0.39390000  1.0 -0.3567743896
N  N2  1  0.84890000  0.46290000  0.60610000  1.0 -0.3567743896
N  N3  1  0.46290000  0.84890000  0.89390000  1.0 -0.3567743896
N  N4  1  0.53710000  0.15110000  0.89390000  1.0 -0.3567743896
N  N5  1  0.15110000  0.53710000  0.60610000  1.0 -0.3567743896
N  N6  1  0.15110000  0.53710000  0.39390000  1.0 -0.3567743896
N  N7  1  0.53710000  0.15110000  0.10610000  1.0 -0.3567743896
N  N8  1  0.46290000  0.84890000  0.10610000  1.0 -0.3567743896
N  N9  1  0.89420000  0.28000000  0.50000000  1.0 -0.3666570874
N  N10  1  0.28000000  0.89420000  0.00000000  1.0 -0.3666570874
N  N11  1  0.72000000  0.10580000  0.00000000  1.0 -0.3666570874
N  N12  1  0.10580000  0.72000000  0.50000000  1.0 -0.3666570874
N  N13  1  0.79720000  0.57160000  0.16730000  1.0 -0.3567743896
N  N14  1  0.79720000  0.57160000  0.83270000  1.0 -0.3567743896
N  N15  1  0.57160000  0.79720000  0.66730000  1.0 -0.3567743896
N  N16  1  0.42840000  0.20280000  0.66730000  1.0 -0.3567743896
N  N17  1  0.20280000  0.42840000  0.83270000  1.0 -0.3567743896
N  N18  1  0.20280000  0.42840000  0.16730000  1.0 -0.3567743896
N  N19  1  0.42840000  0.20280000  0.33270000  1.0 -0.3567743896
N  N20  1  0.57160000  0.79720000  0.33270000  1.0 -0.3567743896
N  N21  1  0.14650000  0.85350000  0.75000000  1.0 -0.0982275697
N  N22  1  0.85350000  0.14650000  0.75000000  1.0 -0.0982275697
N  N23  1  0.14650000  0.85350000  0.25000000  1.0 -0.0982275697
N  N24  1  0.85350000  0.14650000  0.25000000  1.0 -0.0982275697
