# DDEC6 charges by PACMAN v1.1 (https://github.com/mtap-research/PACMAN-charge/)
data_MODMOH_ASR_pacman
_symmetry_space_group_name_H-M   'P 1'
_cell_length_a   13.19210000
_cell_length_b   13.19210000
_cell_length_c   15.78380000
_cell_angle_alpha   90.00000000
_cell_angle_beta   90.00000000
_cell_angle_gamma   130.40700000
_symmetry_Int_Tables_number   1
_chemical_formula_structural   Cd5H20(C13N6)2
_chemical_formula_sum   'Cd10 H40 C52 N24'
_cell_volume   2091.63562778
_cell_formula_units_Z   2
loop_
 _symmetry_equiv_pos_site_id
 _symmetry_equiv_pos_as_xyz
  1  'x, y, z'
loop_
 _atom_site_type_symbol
 _atom_site_label
 _atom_site_symmetry_multiplicity
 _atom_site_fract_x
 _atom_site_fract_y
 _atom_site_fract_z
 _atom_site_occupancy
 _atom_site_charge
Cd  Cd1  1  0.00000000  0.50000000  0.50000000  1.0 0.9673821545
Cd  Cd2  1  0.50000000  0.00000000  0.00000000  1.0 0.9673821545
Cd  Cd3  1  0.61758000  0.38242000  0.25000000  1.0 0.65903031
Cd  Cd4  1  0.61758000  0.38242000  0.75000000  1.0 0.65903031
Cd  Cd5  1  0.38242000  0.61758000  0.75000000  1.0 0.65903031
Cd  Cd6  1  0.38242000  0.61758000  0.25000000  1.0 0.65903031
Cd  Cd7  1  0.76806000  0.96248000  0.50000000  1.0 0.4549554205
Cd  Cd8  1  0.03752000  0.23194000  0.00000000  1.0 0.4549554205
Cd  Cd9  1  0.96248000  0.76806000  0.00000000  1.0 0.4608653105
Cd  Cd10  1  0.23194000  0.03752000  0.50000000  1.0 0.4608653105
H  H1  1  0.99540000  0.72120000  0.67700000  1.0 0.120775695
H  H2  1  0.27880000  0.00460000  0.82300000  1.0 0.120775695
H  H3  1  0.72120000  0.99540000  0.82300000  1.0 0.120775695
H  H4  1  0.00460000  0.27880000  0.67700000  1.0 0.120775695
H  H5  1  0.89480000  0.81100000  0.67610000  1.0 0.1421332872
H  H6  1  0.18900000  0.10520000  0.82390000  1.0 0.1421332872
H  H7  1  0.81100000  0.89480000  0.82390000  1.0 0.1421332872
H  H8  1  0.10520000  0.18900000  0.67610000  1.0 0.1421332872
H  H9  1  0.19470000  0.75550000  0.69540000  1.0 0.1032392466
H  H10  1  0.24450000  0.80530000  0.80460000  1.0 0.1032392466
H  H11  1  0.75550000  0.19470000  0.80460000  1.0 0.1032392466
H  H12  1  0.80530000  0.24450000  0.69540000  1.0 0.1032392466
H  H13  1  0.29950000  0.86030000  0.76220000  1.0 0.1051348961
H  H14  1  0.13970000  0.70050000  0.73780000  1.0 0.1032392466
H  H15  1  0.86030000  0.29950000  0.73780000  1.0 0.1032392466
H  H16  1  0.70050000  0.13970000  0.76220000  1.0 0.1032392466
H  H17  1  0.16460000  0.72540000  0.79240000  1.0 0.1051348961
H  H18  1  0.27460000  0.83540000  0.70760000  1.0 0.1051348961
H  H19  1  0.72540000  0.16460000  0.70760000  1.0 0.1051348961
H  H20  1  0.83540000  0.27460000  0.79240000  1.0 0.1051348961
H  H21  1  0.99540000  0.72120000  0.32300000  1.0 0.120775695
H  H22  1  0.00460000  0.27880000  0.32300000  1.0 0.120775695
H  H23  1  0.72120000  0.99540000  0.17700000  1.0 0.120775695
H  H24  1  0.27880000  0.00460000  0.17700000  1.0 0.120775695
H  H25  1  0.89480000  0.81100000  0.32390000  1.0 0.1421332872
H  H26  1  0.10520000  0.18900000  0.32390000  1.0 0.1421332872
H  H27  1  0.81100000  0.89480000  0.17610000  1.0 0.1421332872
H  H28  1  0.18900000  0.10520000  0.17610000  1.0 0.1421332872
H  H29  1  0.19470000  0.75550000  0.30460000  1.0 0.1032392466
H  H30  1  0.80530000  0.24450000  0.30460000  1.0 0.1051348961
H  H31  1  0.75550000  0.19470000  0.19540000  1.0 0.1032392466
H  H32  1  0.24450000  0.80530000  0.19540000  1.0 0.1032392466
H  H33  1  0.29950000  0.86030000  0.23780000  1.0 0.1032392466
H  H34  1  0.70050000  0.13970000  0.23780000  1.0 0.1051348961
H  H35  1  0.86030000  0.29950000  0.26220000  1.0 0.1032392466
H  H36  1  0.13970000  0.70050000  0.26220000  1.0 0.1032392466
H  H37  1  0.16460000  0.72540000  0.20760000  1.0 0.1051348961
H  H38  1  0.83540000  0.27460000  0.20760000  1.0 0.1051348961
H  H39  1  0.72540000  0.16460000  0.29240000  1.0 0.1051348961
H  H40  1  0.27460000  0.83540000  0.29240000  1.0 0.1051348961
C  C1  1  0.77079000  0.43461000  0.34610000  1.0 0.0012437704
C  C2  1  0.77079000  0.43461000  0.65390000  1.0 0.0012437704
C  C3  1  0.56539000  0.22921000  0.84610000  1.0 0.0012437704
C  C4  1  0.43461000  0.77079000  0.84610000  1.0 0.0012437704
C  C5  1  0.22921000  0.56539000  0.65390000  1.0 0.0012437704
C  C6  1  0.22921000  0.56539000  0.34610000  1.0 0.0012437704
C  C7  1  0.43461000  0.77079000  0.15390000  1.0 0.0012437704
C  C8  1  0.56539000  0.22921000  0.15390000  1.0 0.0012437704
C  C9  1  0.85190000  0.17170000  0.50000000  1.0 -0.0306607717
C  C10  1  0.82830000  0.14810000  0.00000000  1.0 -0.0231331633
C  C11  1  0.17170000  0.85190000  0.00000000  1.0 -0.0306607717
C  C12  1  0.14810000  0.82830000  0.50000000  1.0 -0.0231331633
C  C13  1  0.64440000  0.85420000  0.61230000  1.0 -0.0306607717
C  C14  1  0.64440000  0.85420000  0.38770000  1.0 -0.0306607717
C  C15  1  0.14580000  0.35560000  0.11230000  1.0 -0.0306607717
C  C16  1  0.85420000  0.64440000  0.11230000  1.0 -0.0306607717
C  C17  1  0.35560000  0.14580000  0.38770000  1.0 -0.0306607717
C  C18  1  0.35560000  0.14580000  0.61230000  1.0 -0.0351366968
C  C19  1  0.85420000  0.64440000  0.88770000  1.0 -0.0351366968
C  C20  1  0.14580000  0.35560000  0.88770000  1.0 -0.0306607717
C  C21  1  0.52400000  0.47600000  0.25000000  1.0 -0.1371906036
C  C22  1  0.52400000  0.47600000  0.75000000  1.0 -0.1371906036
C  C23  1  0.47600000  0.52400000  0.75000000  1.0 -0.1371906036
C  C24  1  0.47600000  0.52400000  0.25000000  1.0 -0.1371906036
C  C25  1  0.94910000  0.98890000  0.50000000  1.0 -0.2420766958
C  C26  1  0.01110000  0.05090000  0.00000000  1.0 -0.2420766958
C  C27  1  0.98890000  0.94910000  0.00000000  1.0 -0.2420766958
C  C28  1  0.05090000  0.01110000  0.50000000  1.0 -0.2420766958
C  C29  1  0.03360000  0.79900000  0.70710000  1.0 0.0506946505
C  C30  1  0.20100000  0.96640000  0.79290000  1.0 0.0506946505
C  C31  1  0.79900000  0.03360000  0.79290000  1.0 0.0506946505
C  C32  1  0.96640000  0.20100000  0.70710000  1.0 0.0506946505
C  C33  1  0.97360000  0.85240000  0.70600000  1.0 -0.183255962
C  C34  1  0.14760000  0.02640000  0.79400000  1.0 -0.183255962
C  C35  1  0.85240000  0.97360000  0.79400000  1.0 -0.183255962
C  C36  1  0.02640000  0.14760000  0.70600000  1.0 -0.183255962
C  C37  1  0.03100000  0.96900000  0.75000000  1.0 0.1032392466
C  C38  1  0.96900000  0.03100000  0.75000000  1.0 0.1032392466
C  C39  1  0.20620000  0.79380000  0.75000000  1.0 -0.2473928453
C  C40  1  0.79380000  0.20620000  0.75000000  1.0 -0.2473928453
C  C41  1  0.03360000  0.79900000  0.29290000  1.0 0.0506946505
C  C42  1  0.96640000  0.20100000  0.29290000  1.0 0.0506946505
C  C43  1  0.79900000  0.03360000  0.20710000  1.0 0.0506946505
C  C44  1  0.20100000  0.96640000  0.20710000  1.0 0.0506946505
C  C45  1  0.97360000  0.85240000  0.29400000  1.0 -0.183255962
C  C46  1  0.02640000  0.14760000  0.29400000  1.0 -0.183255962
C  C47  1  0.85240000  0.97360000  0.20600000  1.0 -0.183255962
C  C48  1  0.14760000  0.02640000  0.20600000  1.0 -0.183255962
C  C49  1  0.03100000  0.96900000  0.25000000  1.0 0.1032392466
C  C50  1  0.96900000  0.03100000  0.25000000  1.0 0.1032392466
C  C51  1  0.20620000  0.79380000  0.25000000  1.0 -0.2473928453
C  C52  1  0.79380000  0.20620000  0.25000000  1.0 -0.2473928453
N  N1  1  0.84972000  0.46048000  0.39290000  1.0 -0.357802238
N  N2  1  0.84972000  0.46048000  0.60710000  1.0 -0.357802238
N  N3  1  0.53952000  0.15028000  0.89290000  1.0 -0.357802238
N  N4  1  0.46048000  0.84972000  0.89290000  1.0 -0.357802238
N  N5  1  0.15028000  0.53952000  0.60710000  1.0 -0.357802238
N  N6  1  0.15028000  0.53952000  0.39290000  1.0 -0.357802238
N  N7  1  0.46048000  0.84972000  0.10710000  1.0 -0.357802238
N  N8  1  0.53952000  0.15028000  0.10710000  1.0 -0.357802238
N  N9  1  0.89830000  0.27990000  0.50000000  1.0 -0.357802238
N  N10  1  0.72010000  0.10170000  0.00000000  1.0 -0.357802238
N  N11  1  0.27990000  0.89830000  0.00000000  1.0 -0.357802238
N  N12  1  0.10170000  0.72010000  0.50000000  1.0 -0.357802238
N  N13  1  0.79020000  0.56820000  0.16200000  1.0 -0.3495473833
N  N14  1  0.79020000  0.56820000  0.83800000  1.0 -0.3495473833
N  N15  1  0.43180000  0.20980000  0.66200000  1.0 -0.3495473833
N  N16  1  0.56820000  0.79020000  0.66200000  1.0 -0.3495473833
N  N17  1  0.20980000  0.43180000  0.83800000  1.0 -0.3495473833
N  N18  1  0.20980000  0.43180000  0.16200000  1.0 -0.3495473833
N  N19  1  0.56820000  0.79020000  0.33800000  1.0 -0.3495473833
N  N20  1  0.43180000  0.20980000  0.33800000  1.0 -0.3495473833
N  N21  1  0.14500000  0.85500000  0.75000000  1.0 -0.1020842985
N  N22  1  0.85500000  0.14500000  0.75000000  1.0 -0.1020842985
N  N23  1  0.14500000  0.85500000  0.25000000  1.0 -0.1020842985
N  N24  1  0.85500000  0.14500000  0.25000000  1.0 -0.1020842985
