# DDEC6 charges by PACMAN v1.1 (https://github.com/mtap-research/PACMAN-charge/)
data_MODMUN_ion_pacman
_symmetry_space_group_name_H-M   'P 1'
_cell_length_a   10.94600000
_cell_length_b   15.84700000
_cell_length_c   23.70500000
_cell_angle_alpha   90.00000000
_cell_angle_beta   90.00000000
_cell_angle_gamma   90.00000000
_symmetry_Int_Tables_number   1
_chemical_formula_structural   Cd5H14C25N13
_chemical_formula_sum   'Cd20 H56 C100 N52'
_cell_volume   4111.89921571
_cell_formula_units_Z   4
loop_
 _symmetry_equiv_pos_site_id
 _symmetry_equiv_pos_as_xyz
  1  'x, y, z'
loop_
 _atom_site_type_symbol
 _atom_site_label
 _atom_site_symmetry_multiplicity
 _atom_site_fract_x
 _atom_site_fract_y
 _atom_site_fract_z
 _atom_site_occupancy
 _atom_site_charge
Cd  Cd1  1  0.50000000  0.50000000  0.50000000  1.0 0.9506247803
Cd  Cd2  1  0.50000000  0.00000000  0.00000000  1.0 0.9506247803
Cd  Cd3  1  0.00000000  0.00000000  0.50000000  1.0 0.9506247803
Cd  Cd4  1  0.00000000  0.50000000  0.00000000  1.0 0.9506247803
Cd  Cd5  1  0.23080000  0.25922000  0.36831000  1.0 0.6954146638
Cd  Cd6  1  0.23080000  0.75922000  0.13169000  1.0 0.6954146638
Cd  Cd7  1  0.76920000  0.75922000  0.86831000  1.0 0.6954146638
Cd  Cd8  1  0.23080000  0.74078000  0.36831000  1.0 0.6954146638
Cd  Cd9  1  0.76920000  0.74078000  0.63169000  1.0 0.6954146638
Cd  Cd10  1  0.76920000  0.24078000  0.86831000  1.0 0.6954146638
Cd  Cd11  1  0.23080000  0.24078000  0.13169000  1.0 0.6954146638
Cd  Cd12  1  0.76920000  0.25922000  0.63169000  1.0 0.6954146638
Cd  Cd13  1  0.58230000  0.00000000  0.36459000  1.0 0.5581606492
Cd  Cd14  1  0.58230000  0.50000000  0.13541000  1.0 0.5581606492
Cd  Cd15  1  0.41770000  0.50000000  0.86459000  1.0 0.5581606492
Cd  Cd16  1  0.41770000  0.00000000  0.63541000  1.0 0.5581606492
Cd  Cd17  1  0.86136000  0.50000000  0.33205000  1.0 0.4473627671
Cd  Cd18  1  0.86136000  0.00000000  0.16795000  1.0 0.4473627671
Cd  Cd19  1  0.13864000  0.00000000  0.83205000  1.0 0.4473627671
Cd  Cd20  1  0.13864000  0.50000000  0.66795000  1.0 0.4473627671
H  H1  1  0.12640000  0.32670000  0.88840000  1.0 0.1217021882
H  H2  1  0.12640000  0.17330000  0.61160000  1.0 0.1217021882
H  H3  1  0.12060000  0.32460000  0.79110000  1.0 0.1499513522
H  H4  1  0.12060000  0.17540000  0.70890000  1.0 0.1499513522
H  H5  1  0.42170000  0.17880000  0.79130000  1.0 0.1499513522
H  H6  1  0.42170000  0.32120000  0.70870000  1.0 0.1499513522
H  H7  1  0.40280000  0.17440000  0.88770000  1.0 0.1217021882
H  H8  1  0.40280000  0.32560000  0.61230000  1.0 0.1217021882
H  H9  1  0.28940000  0.20370000  0.97370000  1.0 0.1499513522
H  H10  1  0.28940000  0.29630000  0.52630000  1.0 0.1499513522
H  H11  1  0.34680000  0.29420000  0.97010000  1.0 0.1499513522
H  H12  1  0.34680000  0.20580000  0.52990000  1.0 0.1499513522
H  H13  1  0.20460000  0.28350000  0.97340000  1.0 0.1499513522
H  H14  1  0.20460000  0.21650000  0.52660000  1.0 0.1499513522
H  H15  1  0.12640000  0.67330000  0.88840000  1.0 0.1217021882
H  H16  1  0.12640000  0.82670000  0.61160000  1.0 0.1217021882
H  H17  1  0.12060000  0.67540000  0.79110000  1.0 0.1499513522
H  H18  1  0.12060000  0.82460000  0.70890000  1.0 0.1499513522
H  H19  1  0.42170000  0.82120000  0.79130000  1.0 0.1499513522
H  H20  1  0.42170000  0.67880000  0.70870000  1.0 0.1499513522
H  H21  1  0.40280000  0.82560000  0.88770000  1.0 0.1217021882
H  H22  1  0.40280000  0.67440000  0.61230000  1.0 0.1217021882
H  H23  1  0.28940000  0.79630000  0.97370000  1.0 0.1499513522
H  H24  1  0.28940000  0.70370000  0.52630000  1.0 0.1499513522
H  H25  1  0.34680000  0.70580000  0.97010000  1.0 0.1499513522
H  H26  1  0.34680000  0.79420000  0.52990000  1.0 0.1499513522
H  H27  1  0.20460000  0.71650000  0.97340000  1.0 0.1499513522
H  H28  1  0.20460000  0.78350000  0.52660000  1.0 0.1499513522
H  H29  1  0.87360000  0.67330000  0.11160000  1.0 0.1217021882
H  H30  1  0.87360000  0.82670000  0.38840000  1.0 0.1217021882
H  H31  1  0.87940000  0.67540000  0.20890000  1.0 0.1499513522
H  H32  1  0.87940000  0.82460000  0.29110000  1.0 0.1499513522
H  H33  1  0.57830000  0.82120000  0.20870000  1.0 0.1499513522
H  H34  1  0.57830000  0.67880000  0.29130000  1.0 0.1499513522
H  H35  1  0.59720000  0.82560000  0.11230000  1.0 0.1217021882
H  H36  1  0.59720000  0.67440000  0.38770000  1.0 0.1217021882
H  H37  1  0.71060000  0.79630000  0.02630000  1.0 0.1499513522
H  H38  1  0.71060000  0.70370000  0.47370000  1.0 0.1499513522
H  H39  1  0.65320000  0.70580000  0.02990000  1.0 0.1499513522
H  H40  1  0.65320000  0.79420000  0.47010000  1.0 0.1499513522
H  H41  1  0.79540000  0.71650000  0.02660000  1.0 0.1499513522
H  H42  1  0.79540000  0.78350000  0.47340000  1.0 0.1499513522
H  H43  1  0.87360000  0.17330000  0.38840000  1.0 0.1217021882
H  H44  1  0.87360000  0.32670000  0.11160000  1.0 0.1217021882
H  H45  1  0.87940000  0.17540000  0.29110000  1.0 0.1499513522
H  H46  1  0.87940000  0.32460000  0.20890000  1.0 0.1499513522
H  H47  1  0.57830000  0.32120000  0.29130000  1.0 0.1499513522
H  H48  1  0.57830000  0.17880000  0.20870000  1.0 0.1499513522
H  H49  1  0.59720000  0.32560000  0.38770000  1.0 0.1217021882
H  H50  1  0.59720000  0.17440000  0.11230000  1.0 0.1217021882
H  H51  1  0.71060000  0.29630000  0.47370000  1.0 0.1499513522
H  H52  1  0.71060000  0.20370000  0.02630000  1.0 0.1499513522
H  H53  1  0.65320000  0.20580000  0.47010000  1.0 0.1499513522
H  H54  1  0.65320000  0.29420000  0.02990000  1.0 0.1499513522
H  H55  1  0.79540000  0.21650000  0.47340000  1.0 0.1499513522
H  H56  1  0.79540000  0.28350000  0.02660000  1.0 0.1499513522
C  C1  1  0.25090000  0.25140000  0.27310000  1.0 -0.135294883
C  C2  1  0.25090000  0.75140000  0.22690000  1.0 -0.135294883
C  C3  1  0.74910000  0.75140000  0.77310000  1.0 -0.135294883
C  C4  1  0.25090000  0.74860000  0.27310000  1.0 -0.135294883
C  C5  1  0.74910000  0.74860000  0.72690000  1.0 -0.135294883
C  C6  1  0.74910000  0.24860000  0.77310000  1.0 -0.135294883
C  C7  1  0.25090000  0.24860000  0.22690000  1.0 -0.135294883
C  C8  1  0.74910000  0.25140000  0.72690000  1.0 -0.135294883
C  C9  1  0.33380000  0.35650000  0.41700000  1.0 -0.0385720529
C  C10  1  0.33380000  0.85650000  0.08300000  1.0 -0.0385720529
C  C11  1  0.66620000  0.85650000  0.91700000  1.0 -0.0385720529
C  C12  1  0.33380000  0.64350000  0.41700000  1.0 -0.0385720529
C  C13  1  0.66620000  0.64350000  0.58300000  1.0 -0.0385720529
C  C14  1  0.66620000  0.14350000  0.91700000  1.0 -0.0385720529
C  C15  1  0.33380000  0.14350000  0.08300000  1.0 -0.0385720529
C  C16  1  0.66620000  0.35650000  0.58300000  1.0 -0.0385720529
C  C17  1  0.72300000  0.50000000  0.39860000  1.0 -0.0655707442
C  C18  1  0.72300000  0.00000000  0.10140000  1.0 -0.0655707442
C  C19  1  0.27700000  0.00000000  0.89860000  1.0 -0.0655707442
C  C20  1  0.27700000  0.50000000  0.60140000  1.0 -0.0655707442
C  C21  1  0.73900000  0.00000000  0.42300000  1.0 -0.061848896
C  C22  1  0.73900000  0.50000000  0.07700000  1.0 -0.061848896
C  C23  1  0.26100000  0.50000000  0.92300000  1.0 -0.061848896
C  C24  1  0.26100000  0.00000000  0.57700000  1.0 -0.061848896
C  C25  1  0.47630000  0.11280000  0.37120000  1.0 -0.061848896
C  C26  1  0.47630000  0.61280000  0.12880000  1.0 -0.061848896
C  C27  1  0.52370000  0.61280000  0.87120000  1.0 -0.061848896
C  C28  1  0.47630000  0.88720000  0.37120000  1.0 -0.061848896
C  C29  1  0.52370000  0.88720000  0.62880000  1.0 -0.061848896
C  C30  1  0.52370000  0.38720000  0.87120000  1.0 -0.061848896
C  C31  1  0.47630000  0.38720000  0.12880000  1.0 -0.061848896
C  C32  1  0.52370000  0.11280000  0.62880000  1.0 -0.061848896
C  C33  1  0.75300000  0.50000000  0.25870000  1.0 -0.0775414169
C  C34  1  0.75300000  0.00000000  0.24130000  1.0 -0.0775414169
C  C35  1  0.24700000  0.00000000  0.75870000  1.0 -0.0775414169
C  C36  1  0.24700000  0.50000000  0.74130000  1.0 -0.0775414169
C  C37  1  0.97910000  0.38740000  0.34050000  1.0 -0.0317619485
C  C38  1  0.97910000  0.88740000  0.15950000  1.0 -0.0317619485
C  C39  1  0.02090000  0.88740000  0.84050000  1.0 -0.0317619485
C  C40  1  0.97910000  0.61260000  0.34050000  1.0 -0.0317619485
C  C41  1  0.02090000  0.61260000  0.65950000  1.0 -0.0317619485
C  C42  1  0.02090000  0.11260000  0.84050000  1.0 -0.0317619485
C  C43  1  0.97910000  0.11260000  0.15950000  1.0 -0.0317619485
C  C44  1  0.02090000  0.38740000  0.65950000  1.0 -0.0317619485
C  C45  1  0.12770000  0.16110000  0.41460000  1.0 -0.0385720529
C  C46  1  0.12770000  0.66110000  0.08540000  1.0 -0.0385720529
C  C47  1  0.87230000  0.66110000  0.91460000  1.0 -0.0385720529
C  C48  1  0.12770000  0.83890000  0.41460000  1.0 -0.0385720529
C  C49  1  0.87230000  0.83890000  0.58540000  1.0 -0.0385720529
C  C50  1  0.87230000  0.33890000  0.91460000  1.0 -0.0385720529
C  C51  1  0.12770000  0.33890000  0.08540000  1.0 -0.0385720529
C  C52  1  0.87230000  0.16110000  0.58540000  1.0 -0.0385720529
C  C53  1  0.18600000  0.29730000  0.86880000  1.0 0.0395448767
C  C54  1  0.18600000  0.20270000  0.63120000  1.0 0.0395448767
C  C55  1  0.18180000  0.29610000  0.81090000  1.0 -0.1805661157
C  C56  1  0.18180000  0.20390000  0.68910000  1.0 -0.1805661157
C  C57  1  0.27060000  0.25060000  0.78170000  1.0 0.109078595
C  C58  1  0.27060000  0.24940000  0.71830000  1.0 0.109078595
C  C59  1  0.35900000  0.20720000  0.81040000  1.0 -0.1894825831
C  C60  1  0.35900000  0.29280000  0.68960000  1.0 -0.1894825831
C  C61  1  0.34900000  0.20910000  0.86790000  1.0 0.0395448767
C  C62  1  0.34900000  0.29090000  0.63210000  1.0 0.0395448767
C  C63  1  0.27900000  0.25970000  0.95900000  1.0 -0.3457894534
C  C64  1  0.27900000  0.24030000  0.54100000  1.0 -0.3457894534
C  C65  1  0.18600000  0.70270000  0.86880000  1.0 0.0395448767
C  C66  1  0.18600000  0.79730000  0.63120000  1.0 0.0395448767
C  C67  1  0.18180000  0.70390000  0.81090000  1.0 -0.1805661157
C  C68  1  0.18180000  0.79610000  0.68910000  1.0 -0.1805661157
C  C69  1  0.27060000  0.74940000  0.78170000  1.0 0.109078595
C  C70  1  0.27060000  0.75060000  0.71830000  1.0 0.109078595
C  C71  1  0.35900000  0.79280000  0.81040000  1.0 -0.1894825831
C  C72  1  0.35900000  0.70720000  0.68960000  1.0 -0.1894825831
C  C73  1  0.34900000  0.79090000  0.86790000  1.0 0.0395448767
C  C74  1  0.34900000  0.70910000  0.63210000  1.0 0.0395448767
C  C75  1  0.27900000  0.74030000  0.95900000  1.0 -0.3457894534
C  C76  1  0.27900000  0.75970000  0.54100000  1.0 -0.3457894534
C  C77  1  0.81400000  0.70270000  0.13120000  1.0 0.0395448767
C  C78  1  0.81400000  0.79730000  0.36880000  1.0 0.0395448767
C  C79  1  0.81820000  0.70390000  0.18910000  1.0 -0.1805661157
C  C80  1  0.81820000  0.79610000  0.31090000  1.0 -0.1805661157
C  C81  1  0.72940000  0.74940000  0.21830000  1.0 0.109078595
C  C82  1  0.72940000  0.75060000  0.28170000  1.0 0.109078595
C  C83  1  0.64100000  0.79280000  0.18960000  1.0 -0.1894825831
C  C84  1  0.64100000  0.70720000  0.31040000  1.0 -0.1894825831
C  C85  1  0.65100000  0.79090000  0.13210000  1.0 0.0395448767
C  C86  1  0.65100000  0.70910000  0.36790000  1.0 0.0395448767
C  C87  1  0.72100000  0.74030000  0.04100000  1.0 -0.3457894534
C  C88  1  0.72100000  0.75970000  0.45900000  1.0 -0.3457894534
C  C89  1  0.81400000  0.20270000  0.36880000  1.0 0.0395448767
C  C90  1  0.81400000  0.29730000  0.13120000  1.0 0.0395448767
C  C91  1  0.81820000  0.20390000  0.31090000  1.0 -0.1805661157
C  C92  1  0.81820000  0.29610000  0.18910000  1.0 -0.1805661157
C  C93  1  0.72940000  0.24940000  0.28170000  1.0 0.109078595
C  C94  1  0.72940000  0.25060000  0.21830000  1.0 0.109078595
C  C95  1  0.64100000  0.29280000  0.31040000  1.0 -0.1894825831
C  C96  1  0.64100000  0.20720000  0.18960000  1.0 -0.1894825831
C  C97  1  0.65100000  0.29090000  0.36790000  1.0 0.0395448767
C  C98  1  0.65100000  0.20910000  0.13210000  1.0 0.0395448767
C  C99  1  0.72100000  0.24030000  0.45900000  1.0 -0.3457894534
C  C100  1  0.72100000  0.25970000  0.04100000  1.0 -0.3457894534
N  N1  1  0.39390000  0.39850000  0.44490000  1.0 -0.3404924073
N  N2  1  0.39390000  0.89850000  0.05510000  1.0 -0.3404924073
N  N3  1  0.60610000  0.89850000  0.94490000  1.0 -0.3404924073
N  N4  1  0.39390000  0.60150000  0.44490000  1.0 -0.3404924073
N  N5  1  0.60610000  0.60150000  0.55510000  1.0 -0.3404924073
N  N6  1  0.60610000  0.10150000  0.94490000  1.0 -0.3404924073
N  N7  1  0.39390000  0.10150000  0.05510000  1.0 -0.3404924073
N  N8  1  0.60610000  0.39850000  0.55510000  1.0 -0.3404924073
N  N9  1  0.65300000  0.50000000  0.43480000  1.0 -0.3457894534
N  N10  1  0.65300000  0.00000000  0.06520000  1.0 -0.3457894534
N  N11  1  0.34700000  0.00000000  0.93480000  1.0 -0.3457894534
N  N12  1  0.34700000  0.50000000  0.56520000  1.0 -0.3457894534
N  N13  1  0.82200000  0.00000000  0.45000000  1.0 -0.3288899869
N  N14  1  0.82200000  0.50000000  0.05000000  1.0 -0.3288899869
N  N15  1  0.17800000  0.50000000  0.95000000  1.0 -0.3288899869
N  N16  1  0.17800000  0.00000000  0.55000000  1.0 -0.3288899869
N  N17  1  0.41480000  0.17050000  0.37340000  1.0 -0.3288899869
N  N18  1  0.41480000  0.67050000  0.12660000  1.0 -0.3288899869
N  N19  1  0.58520000  0.67050000  0.87340000  1.0 -0.3288899869
N  N20  1  0.41480000  0.82950000  0.37340000  1.0 -0.3288899869
N  N21  1  0.58520000  0.82950000  0.62660000  1.0 -0.3288899869
N  N22  1  0.58520000  0.32950000  0.87340000  1.0 -0.3288899869
N  N23  1  0.41480000  0.32950000  0.12660000  1.0 -0.3288899869
N  N24  1  0.58520000  0.17050000  0.62660000  1.0 -0.3288899869
N  N25  1  0.69100000  0.50000000  0.21840000  1.0 -0.3288899869
N  N26  1  0.69100000  0.00000000  0.28160000  1.0 -0.3288899869
N  N27  1  0.30900000  0.00000000  0.71840000  1.0 -0.3288899869
N  N28  1  0.30900000  0.50000000  0.78160000  1.0 -0.3288899869
N  N29  1  0.05060000  0.33940000  0.34730000  1.0 -0.3404924073
N  N30  1  0.05060000  0.83940000  0.15270000  1.0 -0.3404924073
N  N31  1  0.94940000  0.83940000  0.84730000  1.0 -0.3404924073
N  N32  1  0.05060000  0.66060000  0.34730000  1.0 -0.3404924073
N  N33  1  0.94940000  0.66060000  0.65270000  1.0 -0.3404924073
N  N34  1  0.94940000  0.16060000  0.84730000  1.0 -0.3404924073
N  N35  1  0.05060000  0.16060000  0.15270000  1.0 -0.3404924073
N  N36  1  0.94940000  0.33940000  0.65270000  1.0 -0.3404924073
N  N37  1  0.08110000  0.10860000  0.44100000  1.0 -0.3404924073
N  N38  1  0.08110000  0.60860000  0.05900000  1.0 -0.3404924073
N  N39  1  0.91890000  0.60860000  0.94100000  1.0 -0.3404924073
N  N40  1  0.08110000  0.89140000  0.44100000  1.0 -0.3404924073
N  N41  1  0.91890000  0.89140000  0.55900000  1.0 -0.3404924073
N  N42  1  0.91890000  0.39140000  0.94100000  1.0 -0.3404924073
N  N43  1  0.08110000  0.39140000  0.05900000  1.0 -0.3404924073
N  N44  1  0.91890000  0.10860000  0.55900000  1.0 -0.3404924073
N  N45  1  0.27230000  0.25630000  0.89630000  1.0 0.1217021882
N  N46  1  0.27230000  0.24370000  0.60370000  1.0 0.1217021882
N  N47  1  0.27230000  0.74370000  0.89630000  1.0 0.1217021882
N  N48  1  0.27230000  0.75630000  0.60370000  1.0 0.1217021882
N  N49  1  0.72770000  0.74370000  0.10370000  1.0 0.1217021882
N  N50  1  0.72770000  0.75630000  0.39630000  1.0 0.1217021882
N  N51  1  0.72770000  0.24370000  0.39630000  1.0 0.1217021882
N  N52  1  0.72770000  0.25630000  0.10370000  1.0 0.1217021882
