# DDEC6 charges by PACMAN v1.1 (https://github.com/mtap-research/PACMAN-charge/)
data_MODMUN_ASR_pacman
_symmetry_space_group_name_H-M   'P 1'
_cell_length_a   10.94600000
_cell_length_b   23.70500000
_cell_length_c   15.84700000
_cell_angle_alpha   90.00000000
_cell_angle_beta   90.00000000
_cell_angle_gamma   90.00000000
_symmetry_Int_Tables_number   1
_chemical_formula_structural   Cd5C13N11
_chemical_formula_sum   'Cd20 C52 N44'
_cell_volume   4111.89921571
_cell_formula_units_Z   4
loop_
 _symmetry_equiv_pos_site_id
 _symmetry_equiv_pos_as_xyz
  1  'x, y, z'
loop_
 _atom_site_type_symbol
 _atom_site_label
 _atom_site_symmetry_multiplicity
 _atom_site_fract_x
 _atom_site_fract_y
 _atom_site_fract_z
 _atom_site_occupancy
 _atom_site_charge
Cd  Cd1  1  0.50000000  0.50000000  0.50000000  1.0 0.9858517679
Cd  Cd2  1  0.50000000  0.00000000  0.00000000  1.0 0.9858517679
Cd  Cd3  1  0.00000000  0.50000000  0.00000000  1.0 0.9533836278
Cd  Cd4  1  0.00000000  0.00000000  0.50000000  1.0 0.9533836278
Cd  Cd5  1  0.76748000  0.36836000  0.74110000  1.0 0.6621448653
Cd  Cd6  1  0.23252000  0.63164000  0.25890000  1.0 0.6621448653
Cd  Cd7  1  0.23252000  0.86836000  0.75890000  1.0 0.6621448653
Cd  Cd8  1  0.76748000  0.13164000  0.24110000  1.0 0.6621448653
Cd  Cd9  1  0.76748000  0.13164000  0.75890000  1.0 0.6621448653
Cd  Cd10  1  0.23252000  0.86836000  0.24110000  1.0 0.6621448653
Cd  Cd11  1  0.23252000  0.63164000  0.74110000  1.0 0.6621448653
Cd  Cd12  1  0.76748000  0.36836000  0.25890000  1.0 0.6621448653
Cd  Cd13  1  0.41106000  0.36344000  0.00000000  1.0 0.5518567594
Cd  Cd14  1  0.58894000  0.63656000  0.00000000  1.0 0.5518567594
Cd  Cd15  1  0.58894000  0.86344000  0.50000000  1.0 0.5518567594
Cd  Cd16  1  0.41106000  0.13656000  0.50000000  1.0 0.5518567594
Cd  Cd17  1  0.13839000  0.33351000  0.50000000  1.0 0.3122587335
Cd  Cd18  1  0.86161000  0.66649000  0.50000000  1.0 0.3122587335
Cd  Cd19  1  0.86161000  0.83351000  0.00000000  1.0 0.3122587335
Cd  Cd20  1  0.13839000  0.16649000  0.00000000  1.0 0.3158285352
C  C1  1  0.74895000  0.27679000  0.74802000  1.0 -0.1303160754
C  C2  1  0.25105000  0.72321000  0.25198000  1.0 -0.1303160754
C  C3  1  0.25105000  0.77679000  0.75198000  1.0 -0.1303160754
C  C4  1  0.74895000  0.22321000  0.24802000  1.0 -0.1303160754
C  C5  1  0.74895000  0.22321000  0.75198000  1.0 -0.1303160754
C  C6  1  0.25105000  0.77679000  0.24802000  1.0 -0.1303160754
C  C7  1  0.25105000  0.72321000  0.74802000  1.0 -0.1303160754
C  C8  1  0.74895000  0.27679000  0.25198000  1.0 -0.1303160754
C  C9  1  0.66737000  0.41851000  0.64472000  1.0 0.1034315307
C  C10  1  0.33263000  0.58149000  0.35528000  1.0 0.1034315307
C  C11  1  0.33263000  0.91851000  0.85528000  1.0 0.1034315307
C  C12  1  0.66737000  0.08149000  0.14472000  1.0 0.1034315307
C  C13  1  0.66737000  0.08149000  0.85528000  1.0 0.1034315307
C  C14  1  0.33263000  0.91851000  0.14472000  1.0 0.1034315307
C  C15  1  0.33263000  0.58149000  0.64472000  1.0 0.1034315307
C  C16  1  0.66737000  0.41851000  0.35528000  1.0 0.1034315307
C  C17  1  0.27690000  0.40071000  0.50000000  1.0 0.11875271
C  C18  1  0.72310000  0.59929000  0.50000000  1.0 0.11875271
C  C19  1  0.72310000  0.90071000  0.00000000  1.0 0.11875271
C  C20  1  0.27690000  0.09929000  0.00000000  1.0 0.11875271
C  C21  1  0.25995000  0.42296000  0.00000000  1.0 0.0931036319
C  C22  1  0.74005000  0.57704000  0.00000000  1.0 0.0931036319
C  C23  1  0.74005000  0.92296000  0.50000000  1.0 0.0931036319
C  C24  1  0.25995000  0.07704000  0.50000000  1.0 0.0931036319
C  C25  1  0.52653000  0.37027000  0.88570000  1.0 0.0643207463
C  C26  1  0.47347000  0.62973000  0.11430000  1.0 0.0652077528
C  C27  1  0.47347000  0.87027000  0.61430000  1.0 0.0643207463
C  C28  1  0.52653000  0.12973000  0.38570000  1.0 0.0643207463
C  C29  1  0.52653000  0.12973000  0.61430000  1.0 0.0643207463
C  C30  1  0.47347000  0.87027000  0.38570000  1.0 0.0652077528
C  C31  1  0.47347000  0.62973000  0.88570000  1.0 0.0643207463
C  C32  1  0.52653000  0.37027000  0.11430000  1.0 0.0652077528
C  C33  1  0.24921000  0.25560000  0.50000000  1.0 0.1926082927
C  C34  1  0.75079000  0.74440000  0.50000000  1.0 0.1926082927
C  C35  1  0.75079000  0.75560000  0.00000000  1.0 0.1926082927
C  C36  1  0.24921000  0.24440000  0.00000000  1.0 0.1926082927
C  C37  1  0.01823000  0.34065000  0.61126000  1.0 0.081122132
C  C38  1  0.98177000  0.65935000  0.38874000  1.0 0.081122132
C  C39  1  0.98177000  0.84065000  0.88874000  1.0 0.081122132
C  C40  1  0.01823000  0.15935000  0.11126000  1.0 0.081122132
C  C41  1  0.01823000  0.15935000  0.88874000  1.0 0.081122132
C  C42  1  0.98177000  0.84065000  0.11126000  1.0 0.081122132
C  C43  1  0.98177000  0.65935000  0.61126000  1.0 0.081122132
C  C44  1  0.01823000  0.34065000  0.38874000  1.0 0.081122132
C  C45  1  0.87120000  0.41629000  0.83844000  1.0 0.081122132
C  C46  1  0.12880000  0.58371000  0.16156000  1.0 0.081122132
C  C47  1  0.12880000  0.91629000  0.66156000  1.0 0.081122132
C  C48  1  0.87120000  0.08371000  0.33844000  1.0 0.081122132
C  C49  1  0.87120000  0.08371000  0.66156000  1.0 0.081122132
C  C50  1  0.12880000  0.91629000  0.33844000  1.0 0.081122132
C  C51  1  0.12880000  0.58371000  0.83844000  1.0 0.081122132
C  C52  1  0.87120000  0.41629000  0.16156000  1.0 0.081122132
N  N1  1  0.60536000  0.44540000  0.59977000  1.0 -0.3657282261
N  N2  1  0.39464000  0.55460000  0.40023000  1.0 -0.3657282261
N  N3  1  0.39464000  0.94540000  0.90023000  1.0 -0.3657282261
N  N4  1  0.60536000  0.05460000  0.09977000  1.0 -0.3657282261
N  N5  1  0.60536000  0.05460000  0.90023000  1.0 -0.3657282261
N  N6  1  0.39464000  0.94540000  0.09977000  1.0 -0.3657282261
N  N7  1  0.39464000  0.55460000  0.59977000  1.0 -0.3657282261
N  N8  1  0.60536000  0.44540000  0.40023000  1.0 -0.3657282261
N  N9  1  0.35094000  0.43632000  0.50000000  1.0 -0.4042742667
N  N10  1  0.64906000  0.56368000  0.50000000  1.0 -0.4042742667
N  N11  1  0.64906000  0.93632000  0.00000000  1.0 -0.4042742667
N  N12  1  0.35094000  0.06368000  0.00000000  1.0 -0.4042742667
N  N13  1  0.17305000  0.45139000  0.00000000  1.0 -0.4042742667
N  N14  1  0.82695000  0.54861000  0.00000000  1.0 -0.4042742667
N  N15  1  0.82695000  0.95139000  0.50000000  1.0 -0.4042742667
N  N16  1  0.17305000  0.04861000  0.50000000  1.0 -0.4042742667
N  N17  1  0.59029000  0.37230000  0.82622000  1.0 -0.3312404254
N  N18  1  0.40971000  0.62770000  0.17378000  1.0 -0.3312404254
N  N19  1  0.40971000  0.87230000  0.67378000  1.0 -0.3312404254
N  N20  1  0.59029000  0.12770000  0.32622000  1.0 -0.3312404254
N  N21  1  0.59029000  0.12770000  0.67378000  1.0 -0.3312404254
N  N22  1  0.40971000  0.87230000  0.32622000  1.0 -0.3312404254
N  N23  1  0.40971000  0.62770000  0.82622000  1.0 -0.3312404254
N  N24  1  0.59029000  0.37230000  0.17378000  1.0 -0.3312404254
N  N25  1  0.31481000  0.21656000  0.50000000  1.0 -0.4132109997
N  N26  1  0.68519000  0.78344000  0.50000000  1.0 -0.4132109997
N  N27  1  0.68519000  0.71656000  0.00000000  1.0 -0.4132109997
N  N28  1  0.31481000  0.28344000  0.00000000  1.0 -0.4132109997
N  N29  1  0.94440000  0.34802000  0.66387000  1.0 -0.3312404254
N  N30  1  0.05560000  0.65198000  0.33613000  1.0 -0.3312404254
N  N31  1  0.05560000  0.84802000  0.83613000  1.0 -0.3312404254
N  N32  1  0.94440000  0.15198000  0.16387000  1.0 -0.3312404254
N  N33  1  0.94440000  0.15198000  0.83613000  1.0 -0.3312404254
N  N34  1  0.05560000  0.84802000  0.16387000  1.0 -0.3312404254
N  N35  1  0.05560000  0.65198000  0.66387000  1.0 -0.3312404254
N  N36  1  0.94440000  0.34802000  0.33613000  1.0 -0.3312404254
N  N37  1  0.92002000  0.44102000  0.89298000  1.0 -0.3426142527
N  N38  1  0.07998000  0.55898000  0.10702000  1.0 -0.3426142527
N  N39  1  0.07998000  0.94102000  0.60702000  1.0 -0.3426142527
N  N40  1  0.92002000  0.05898000  0.39298000  1.0 -0.3426142527
N  N41  1  0.92002000  0.05898000  0.60702000  1.0 -0.3426142527
N  N42  1  0.07998000  0.94102000  0.39298000  1.0 -0.3426142527
N  N43  1  0.07998000  0.55898000  0.89298000  1.0 -0.3426142527
N  N44  1  0.92002000  0.44102000  0.10702000  1.0 -0.3426142527
