# DDEC6 charges by PACMAN v1.1 (https://github.com/mtap-research/PACMAN-charge/)
data_MODNIC_ASR_pacman
_symmetry_space_group_name_H-M   'P 1'
_cell_length_a   13.72400000
_cell_length_b   27.26900000
_cell_length_c   13.56900000
_cell_angle_alpha   90.00000000
_cell_angle_beta   90.00000000
_cell_angle_gamma   90.00000000
_symmetry_Int_Tables_number   1
_chemical_formula_structural   Cd3(CN)7
_chemical_formula_sum   'Cd24 C56 N56'
_cell_volume   5078.05924916
_cell_formula_units_Z   8
loop_
 _symmetry_equiv_pos_site_id
 _symmetry_equiv_pos_as_xyz
  1  'x, y, z'
loop_
 _atom_site_type_symbol
 _atom_site_label
 _atom_site_symmetry_multiplicity
 _atom_site_fract_x
 _atom_site_fract_y
 _atom_site_fract_z
 _atom_site_occupancy
 _atom_site_charge
Cd  Cd1  1  0.83254000  0.87699000  0.00349000  1.0 0.9916786817
Cd  Cd2  1  0.16746000  0.12301000  0.99651000  1.0 0.9916786817
Cd  Cd3  1  0.66746000  0.12301000  0.50349000  1.0 0.9916786817
Cd  Cd4  1  0.33254000  0.87699000  0.49651000  1.0 0.9916786817
Cd  Cd5  1  0.16746000  0.37699000  0.49651000  1.0 0.9916786817
Cd  Cd6  1  0.83254000  0.62301000  0.50349000  1.0 0.9916786817
Cd  Cd7  1  0.33254000  0.62301000  0.99651000  1.0 0.9916786817
Cd  Cd8  1  0.66746000  0.37699000  0.00349000  1.0 0.9916786817
Cd  Cd9  1  0.46040000  0.81144000  0.12180000  1.0 0.5106520503
Cd  Cd10  1  0.53960000  0.18856000  0.87820000  1.0 0.5106520503
Cd  Cd11  1  0.03960000  0.18856000  0.62180000  1.0 0.5191603494
Cd  Cd12  1  0.96040000  0.81144000  0.37820000  1.0 0.5106520503
Cd  Cd13  1  0.53960000  0.31144000  0.37820000  1.0 0.5106520503
Cd  Cd14  1  0.46040000  0.68856000  0.62180000  1.0 0.5106520503
Cd  Cd15  1  0.96040000  0.68856000  0.87820000  1.0 0.5106520503
Cd  Cd16  1  0.03960000  0.31144000  0.12180000  1.0 0.5106520503
Cd  Cd17  1  0.71784000  0.92535000  0.61471000  1.0 0.3003894331
Cd  Cd18  1  0.28216000  0.07465000  0.38529000  1.0 0.3003894331
Cd  Cd19  1  0.78216000  0.07465000  0.11471000  1.0 0.29463606
Cd  Cd20  1  0.21784000  0.92535000  0.88529000  1.0 0.3003894331
Cd  Cd21  1  0.28216000  0.42535000  0.88529000  1.0 0.3003894331
Cd  Cd22  1  0.71784000  0.57465000  0.11471000  1.0 0.29463606
Cd  Cd23  1  0.21784000  0.57465000  0.38529000  1.0 0.3003894331
Cd  Cd24  1  0.78216000  0.42535000  0.61471000  1.0 0.3003894331
C  C1  1  0.60626000  0.83363000  0.07582000  1.0 0.0981837478
C  C2  1  0.39374000  0.16637000  0.92418000  1.0 0.0981837478
C  C3  1  0.89374000  0.16637000  0.57582000  1.0 0.0872277529
C  C4  1  0.10626000  0.83363000  0.42418000  1.0 0.0981837478
C  C5  1  0.39374000  0.33363000  0.42418000  1.0 0.0981837478
C  C6  1  0.60626000  0.66637000  0.57582000  1.0 0.0981837478
C  C7  1  0.10626000  0.66637000  0.92418000  1.0 0.0981837478
C  C8  1  0.89374000  0.33363000  0.07582000  1.0 0.0981837478
C  C9  1  0.91737000  0.84205000  0.23313000  1.0 0.1195593711
C  C10  1  0.08263000  0.15795000  0.76687000  1.0 0.1102599031
C  C11  1  0.58263000  0.15795000  0.73313000  1.0 0.1195593711
C  C12  1  0.41737000  0.84205000  0.26687000  1.0 0.1102599031
C  C13  1  0.08263000  0.34205000  0.26687000  1.0 0.1102599031
C  C14  1  0.91737000  0.65795000  0.73313000  1.0 0.1195593711
C  C15  1  0.41737000  0.65795000  0.76687000  1.0 0.1102599031
C  C16  1  0.58263000  0.34205000  0.23313000  1.0 0.1195593711
C  C17  1  0.06442000  0.90434000  0.92577000  1.0 0.1195593711
C  C18  1  0.93558000  0.09566000  0.07423000  1.0 0.1195593711
C  C19  1  0.43558000  0.09566000  0.42577000  1.0 0.1195593711
C  C20  1  0.56442000  0.90434000  0.57423000  1.0 0.1195593711
C  C21  1  0.93558000  0.40434000  0.57423000  1.0 0.1195593711
C  C22  1  0.06442000  0.59566000  0.42577000  1.0 0.1195593711
C  C23  1  0.56442000  0.59566000  0.07423000  1.0 0.1195593711
C  C24  1  0.43558000  0.40434000  0.92577000  1.0 0.1195593711
C  C25  1  0.75213000  0.91189000  0.77237000  1.0 0.1102599031
C  C26  1  0.24787000  0.08811000  0.22763000  1.0 0.1102599031
C  C27  1  0.74787000  0.08811000  0.27237000  1.0 0.1102599031
C  C28  1  0.25213000  0.91189000  0.72763000  1.0 0.0981837478
C  C29  1  0.24787000  0.41189000  0.72763000  1.0 0.0981837478
C  C30  1  0.75213000  0.58811000  0.27237000  1.0 0.1102599031
C  C31  1  0.25213000  0.58811000  0.22763000  1.0 0.1102599031
C  C32  1  0.74787000  0.41189000  0.77237000  1.0 0.1102599031
C  C33  1  0.32172000  0.88581000  0.97849000  1.0 0.1195593711
C  C34  1  0.67828000  0.11419000  0.02151000  1.0 0.1195593711
C  C35  1  0.17828000  0.11419000  0.47849000  1.0 0.1195593711
C  C36  1  0.82172000  0.88581000  0.52151000  1.0 0.1195593711
C  C37  1  0.67828000  0.38581000  0.52151000  1.0 0.1195593711
C  C38  1  0.32172000  0.61419000  0.47849000  1.0 0.1195593711
C  C39  1  0.82172000  0.61419000  0.02151000  1.0 0.1195593711
C  C40  1  0.17828000  0.38581000  0.97849000  1.0 0.1195593711
C  C41  1  0.79147000  0.99495000  0.08437000  1.0 0.1195593711
C  C42  1  0.20853000  0.00505000  0.91563000  1.0 0.1102599031
C  C43  1  0.70853000  0.00505000  0.58437000  1.0 0.1102599031
C  C44  1  0.29147000  0.99495000  0.41563000  1.0 0.1102599031
C  C45  1  0.20853000  0.49495000  0.41563000  1.0 0.1102599031
C  C46  1  0.79147000  0.50505000  0.58437000  1.0 0.1102599031
C  C47  1  0.29147000  0.50505000  0.91563000  1.0 0.1102599031
C  C48  1  0.70853000  0.49495000  0.08437000  1.0 0.1195593711
C  C49  1  0.90177000  0.76030000  0.92387000  1.0 0.0872277529
C  C50  1  0.09823000  0.23970000  0.07613000  1.0 0.0872277529
C  C51  1  0.59823000  0.23970000  0.42387000  1.0 0.0872277529
C  C52  1  0.40177000  0.76030000  0.57613000  1.0 0.0872277529
C  C53  1  0.09823000  0.26030000  0.57613000  1.0 0.0810958189
C  C54  1  0.90177000  0.73970000  0.42387000  1.0 0.0872277529
C  C55  1  0.40177000  0.73970000  0.07613000  1.0 0.0872277529
C  C56  1  0.59823000  0.26030000  0.92387000  1.0 0.0872277529
N  N1  1  0.68004000  0.85051000  0.04869000  1.0 -0.3770771134
N  N2  1  0.31996000  0.14949000  0.95131000  1.0 -0.3709406215
N  N3  1  0.81996000  0.14949000  0.54869000  1.0 -0.3709406215
N  N4  1  0.18004000  0.85051000  0.45131000  1.0 -0.3709406215
N  N5  1  0.31996000  0.35051000  0.45131000  1.0 -0.3709406215
N  N6  1  0.68004000  0.64949000  0.54869000  1.0 -0.3709406215
N  N7  1  0.18004000  0.64949000  0.95131000  1.0 -0.3709406215
N  N8  1  0.81996000  0.35051000  0.04869000  1.0 -0.3709406215
N  N9  1  0.89058000  0.85889000  0.15834000  1.0 -0.3770771134
N  N10  1  0.10942000  0.14111000  0.84166000  1.0 -0.3709406215
N  N11  1  0.60942000  0.14111000  0.65834000  1.0 -0.3770771134
N  N12  1  0.39058000  0.85889000  0.34166000  1.0 -0.3770771134
N  N13  1  0.10942000  0.35889000  0.34166000  1.0 -0.3770771134
N  N14  1  0.89058000  0.64111000  0.65834000  1.0 -0.3770771134
N  N15  1  0.39058000  0.64111000  0.84166000  1.0 -0.3770771134
N  N16  1  0.60942000  0.35889000  0.15834000  1.0 -0.3770771134
N  N17  1  0.98412000  0.89697000  0.95136000  1.0 -0.3709406215
N  N18  1  0.01588000  0.10303000  0.04864000  1.0 -0.3709406215
N  N19  1  0.51588000  0.10303000  0.45136000  1.0 -0.3709406215
N  N20  1  0.48412000  0.89697000  0.54864000  1.0 -0.3709406215
N  N21  1  0.01588000  0.39697000  0.54864000  1.0 -0.3709406215
N  N22  1  0.98412000  0.60303000  0.45136000  1.0 -0.3709406215
N  N23  1  0.48412000  0.60303000  0.04864000  1.0 -0.3709406215
N  N24  1  0.51588000  0.39697000  0.95136000  1.0 -0.3709406215
N  N25  1  0.77488000  0.90090000  0.85271000  1.0 -0.361356857
N  N26  1  0.22512000  0.09910000  0.14729000  1.0 -0.361356857
N  N27  1  0.72512000  0.09910000  0.35271000  1.0 -0.361356857
N  N28  1  0.27488000  0.90090000  0.64729000  1.0 -0.361356857
N  N29  1  0.22512000  0.40090000  0.64729000  1.0 -0.361356857
N  N30  1  0.77488000  0.59910000  0.35271000  1.0 -0.361356857
N  N31  1  0.27488000  0.59910000  0.14729000  1.0 -0.361356857
N  N32  1  0.72512000  0.40090000  0.85271000  1.0 -0.361356857
N  N33  1  0.37524000  0.86383000  0.02895000  1.0 -0.3524370622
N  N34  1  0.62476000  0.13617000  0.97105000  1.0 -0.361356857
N  N35  1  0.12476000  0.13617000  0.52895000  1.0 -0.3524370622
N  N36  1  0.87524000  0.86383000  0.47105000  1.0 -0.3524370622
N  N37  1  0.62476000  0.36383000  0.47105000  1.0 -0.3524370622
N  N38  1  0.37524000  0.63617000  0.52895000  1.0 -0.3524370622
N  N39  1  0.87524000  0.63617000  0.97105000  1.0 -0.361356857
N  N40  1  0.12476000  0.36383000  0.02895000  1.0 -0.361356857
N  N41  1  0.80144000  0.95401000  0.06013000  1.0 -0.3709406215
N  N42  1  0.19856000  0.04599000  0.93987000  1.0 -0.3709406215
N  N43  1  0.69856000  0.04599000  0.56013000  1.0 -0.3709406215
N  N44  1  0.30144000  0.95401000  0.43987000  1.0 -0.3709406215
N  N45  1  0.19856000  0.45401000  0.43987000  1.0 -0.3709406215
N  N46  1  0.80144000  0.54599000  0.56013000  1.0 -0.3709406215
N  N47  1  0.30144000  0.54599000  0.93987000  1.0 -0.3709406215
N  N48  1  0.69856000  0.45401000  0.06013000  1.0 -0.3709406215
N  N49  1  0.86807000  0.79730000  0.95203000  1.0 -0.3524370622
N  N50  1  0.13193000  0.20270000  0.04797000  1.0 -0.3524370622
N  N51  1  0.63193000  0.20270000  0.45203000  1.0 -0.3524370622
N  N52  1  0.36807000  0.79730000  0.54797000  1.0 -0.3524370622
N  N53  1  0.13193000  0.29730000  0.54797000  1.0 -0.3524370622
N  N54  1  0.86807000  0.70270000  0.45203000  1.0 -0.3524370622
N  N55  1  0.36807000  0.70270000  0.04797000  1.0 -0.3524370622
N  N56  1  0.63193000  0.29730000  0.95203000  1.0 -0.3524370622
