# DDEC6 charges by PACMAN v1.1 (https://github.com/mtap-research/PACMAN-charge/)
data_MODNEY_ion_pacman
_symmetry_space_group_name_H-M   'P 1'
_cell_length_a   13.66500000
_cell_length_b   13.79400000
_cell_length_c   26.99000000
_cell_angle_alpha   90.00000000
_cell_angle_beta   90.00000000
_cell_angle_gamma   90.00000000
_symmetry_Int_Tables_number   1
_chemical_formula_structural   Cd3H7C13N8
_chemical_formula_sum   'Cd24 H56 C104 N64'
_cell_volume   5087.48031990
_cell_formula_units_Z   8
loop_
 _symmetry_equiv_pos_site_id
 _symmetry_equiv_pos_as_xyz
  1  'x, y, z'
loop_
 _atom_site_type_symbol
 _atom_site_label
 _atom_site_symmetry_multiplicity
 _atom_site_fract_x
 _atom_site_fract_y
 _atom_site_fract_z
 _atom_site_occupancy
 _atom_site_charge
Cd  Cd1  1  0.00156000  0.83317000  0.87191000  1.0 0.955720237
Cd  Cd2  1  0.49844000  0.33317000  0.87191000  1.0 0.955720237
Cd  Cd3  1  0.50156000  0.83317000  0.62809000  1.0 0.955720237
Cd  Cd4  1  0.00156000  0.66683000  0.37191000  1.0 0.955720237
Cd  Cd5  1  0.99844000  0.16683000  0.12809000  1.0 0.955720237
Cd  Cd6  1  0.50156000  0.66683000  0.12809000  1.0 0.955720237
Cd  Cd7  1  0.49844000  0.16683000  0.37191000  1.0 0.955720237
Cd  Cd8  1  0.99844000  0.33317000  0.62809000  1.0 0.955720237
Cd  Cd9  1  0.12199000  0.45748000  0.81575000  1.0 0.5473125042
Cd  Cd10  1  0.37801000  0.95748000  0.81575000  1.0 0.5473125042
Cd  Cd11  1  0.62199000  0.45748000  0.68425000  1.0 0.5473125042
Cd  Cd12  1  0.12199000  0.04252000  0.31575000  1.0 0.5473125042
Cd  Cd13  1  0.87801000  0.54252000  0.18425000  1.0 0.5473125042
Cd  Cd14  1  0.62199000  0.04252000  0.18425000  1.0 0.5473125042
Cd  Cd15  1  0.37801000  0.54252000  0.31575000  1.0 0.5473125042
Cd  Cd16  1  0.87801000  0.95748000  0.68425000  1.0 0.5473125042
Cd  Cd17  1  0.88067000  0.21253000  0.92696000  1.0 0.4196070941
Cd  Cd18  1  0.61933000  0.71253000  0.92696000  1.0 0.4196070941
Cd  Cd19  1  0.38067000  0.21253000  0.57304000  1.0 0.4196070941
Cd  Cd20  1  0.88067000  0.28747000  0.42696000  1.0 0.4196070941
Cd  Cd21  1  0.11933000  0.78747000  0.07304000  1.0 0.4196070941
Cd  Cd22  1  0.38067000  0.28747000  0.07304000  1.0 0.4196070941
Cd  Cd23  1  0.61933000  0.78747000  0.42696000  1.0 0.4196070941
Cd  Cd24  1  0.11933000  0.71253000  0.57304000  1.0 0.4196070941
H  H1  1  0.19830000  0.89180000  0.42000000  1.0 0.1265292974
H  H2  1  0.80170000  0.10820000  0.58000000  1.0 0.1265292974
H  H3  1  0.03750000  0.93130000  0.43010000  1.0 0.1392972232
H  H4  1  0.96250000  0.06870000  0.56990000  1.0 0.1392972232
H  H5  1  0.10010000  0.04180000  0.56000000  1.0 0.1392972232
H  H6  1  0.89990000  0.95820000  0.44000000  1.0 0.1392972232
H  H7  1  0.26090000  0.98340000  0.55570000  1.0 0.1213342758
H  H8  1  0.73910000  0.01660000  0.44430000  1.0 0.1213342758
H  H9  1  0.37070000  0.91050000  0.44360000  1.0 0.1517078239
H  H10  1  0.62930000  0.08950000  0.55640000  1.0 0.1517078239
H  H11  1  0.39290000  0.98000000  0.48820000  1.0 0.1517078239
H  H12  1  0.60710000  0.02000000  0.51180000  1.0 0.1517078239
H  H13  1  0.37530000  0.86930000  0.49770000  1.0 0.1517078239
H  H14  1  0.62470000  0.13070000  0.50230000  1.0 0.1517078239
H  H15  1  0.69830000  0.60820000  0.58000000  1.0 0.1265292974
H  H16  1  0.30170000  0.39180000  0.42000000  1.0 0.1265292974
H  H17  1  0.53750000  0.56870000  0.56990000  1.0 0.1392972232
H  H18  1  0.46250000  0.43130000  0.43010000  1.0 0.1392972232
H  H19  1  0.60010000  0.45820000  0.44000000  1.0 0.1392972232
H  H20  1  0.39990000  0.54180000  0.56000000  1.0 0.1392972232
H  H21  1  0.76090000  0.51660000  0.44430000  1.0 0.1213342758
H  H22  1  0.23910000  0.48340000  0.55570000  1.0 0.1213342758
H  H23  1  0.87070000  0.58950000  0.55640000  1.0 0.1517078239
H  H24  1  0.12930000  0.41050000  0.44360000  1.0 0.1517078239
H  H25  1  0.89290000  0.52000000  0.51180000  1.0 0.1517078239
H  H26  1  0.10710000  0.48000000  0.48820000  1.0 0.1517078239
H  H27  1  0.87530000  0.63070000  0.50230000  1.0 0.1517078239
H  H28  1  0.12470000  0.36930000  0.49770000  1.0 0.1517078239
H  H29  1  0.30170000  0.10820000  0.92000000  1.0 0.1265292974
H  H30  1  0.69830000  0.89180000  0.08000000  1.0 0.1265292974
H  H31  1  0.46250000  0.06870000  0.93010000  1.0 0.1392972232
H  H32  1  0.53750000  0.93130000  0.06990000  1.0 0.1392972232
H  H33  1  0.39990000  0.95820000  0.06000000  1.0 0.1392972232
H  H34  1  0.60010000  0.04180000  0.94000000  1.0 0.1392972232
H  H35  1  0.23910000  0.01660000  0.05570000  1.0 0.1213342758
H  H36  1  0.76090000  0.98340000  0.94430000  1.0 0.1213342758
H  H37  1  0.12930000  0.08950000  0.94360000  1.0 0.1517078239
H  H38  1  0.87070000  0.91050000  0.05640000  1.0 0.1517078239
H  H39  1  0.10710000  0.02000000  0.98820000  1.0 0.1517078239
H  H40  1  0.89290000  0.98000000  0.01180000  1.0 0.1517078239
H  H41  1  0.12470000  0.13070000  0.99770000  1.0 0.1517078239
H  H42  1  0.87530000  0.86930000  0.00230000  1.0 0.1517078239
H  H43  1  0.19830000  0.60820000  0.92000000  1.0 0.1265292974
H  H44  1  0.80170000  0.39180000  0.08000000  1.0 0.1265292974
H  H45  1  0.03750000  0.56870000  0.93010000  1.0 0.1392972232
H  H46  1  0.96250000  0.43130000  0.06990000  1.0 0.1392972232
H  H47  1  0.10010000  0.45820000  0.06000000  1.0 0.1392972232
H  H48  1  0.89990000  0.54180000  0.94000000  1.0 0.1392972232
H  H49  1  0.26090000  0.51660000  0.05570000  1.0 0.1213342758
H  H50  1  0.73910000  0.48340000  0.94430000  1.0 0.1213342758
H  H51  1  0.37070000  0.58950000  0.94360000  1.0 0.1517078239
H  H52  1  0.62930000  0.41050000  0.05640000  1.0 0.1517078239
H  H53  1  0.39290000  0.52000000  0.98820000  1.0 0.1517078239
H  H54  1  0.60710000  0.48000000  0.01180000  1.0 0.1517078239
H  H55  1  0.37530000  0.63070000  0.99770000  1.0 0.1517078239
H  H56  1  0.62470000  0.36930000  0.00230000  1.0 0.1517078239
C  C1  1  0.07270000  0.60900000  0.83350000  1.0 -0.0070889815
C  C2  1  0.42730000  0.10900000  0.83350000  1.0 -0.0070889815
C  C3  1  0.57270000  0.60900000  0.66650000  1.0 -0.0070889815
C  C4  1  0.07270000  0.89100000  0.33350000  1.0 -0.0070889815
C  C5  1  0.92730000  0.39100000  0.16650000  1.0 -0.0070889815
C  C6  1  0.57270000  0.89100000  0.16650000  1.0 -0.0070889815
C  C7  1  0.42730000  0.39100000  0.33350000  1.0 -0.0070889815
C  C8  1  0.92730000  0.10900000  0.66650000  1.0 -0.0070889815
C  C9  1  0.22960000  0.91890000  0.84110000  1.0 -0.0293238931
C  C10  1  0.27040000  0.41890000  0.84110000  1.0 -0.0293238931
C  C11  1  0.72960000  0.91890000  0.65890000  1.0 -0.0293238931
C  C12  1  0.22960000  0.58110000  0.34110000  1.0 -0.0293238931
C  C13  1  0.77040000  0.08110000  0.15890000  1.0 -0.0293238931
C  C14  1  0.72960000  0.58110000  0.15890000  1.0 -0.0293238931
C  C15  1  0.27040000  0.08110000  0.34110000  1.0 -0.0293238931
C  C16  1  0.77040000  0.41890000  0.65890000  1.0 -0.0293238931
C  C17  1  0.92430000  0.06420000  0.90370000  1.0 -0.0415689996
C  C18  1  0.57570000  0.56420000  0.90370000  1.0 -0.0415689996
C  C19  1  0.42430000  0.06420000  0.59630000  1.0 -0.0415689996
C  C20  1  0.92430000  0.43580000  0.40370000  1.0 -0.0415689996
C  C21  1  0.07570000  0.93580000  0.09630000  1.0 -0.0415689996
C  C22  1  0.42430000  0.43580000  0.09630000  1.0 -0.0415689996
C  C23  1  0.57570000  0.93580000  0.40370000  1.0 -0.0415689996
C  C24  1  0.07570000  0.56420000  0.59630000  1.0 -0.0415689996
C  C25  1  0.77560000  0.74930000  0.91060000  1.0 -0.0496374829
C  C26  1  0.72440000  0.24930000  0.91060000  1.0 -0.0496374829
C  C27  1  0.27560000  0.74930000  0.58940000  1.0 -0.0496374829
C  C28  1  0.77560000  0.75070000  0.41060000  1.0 -0.0496374829
C  C29  1  0.22440000  0.25070000  0.08940000  1.0 -0.0496374829
C  C30  1  0.27560000  0.75070000  0.08940000  1.0 -0.0496374829
C  C31  1  0.72440000  0.25070000  0.41060000  1.0 -0.0496374829
C  C32  1  0.22440000  0.24930000  0.58940000  1.0 -0.0496374829
C  C33  1  0.97740000  0.32080000  0.89200000  1.0 -0.0293238931
C  C34  1  0.52260000  0.82080000  0.89200000  1.0 -0.0293238931
C  C35  1  0.47740000  0.32080000  0.60800000  1.0 -0.0293238931
C  C36  1  0.97740000  0.17920000  0.39200000  1.0 -0.0293238931
C  C37  1  0.02260000  0.67920000  0.10800000  1.0 -0.0293238931
C  C38  1  0.47740000  0.17920000  0.10800000  1.0 -0.0293238931
C  C39  1  0.52260000  0.67920000  0.39200000  1.0 -0.0293238931
C  C40  1  0.02260000  0.82080000  0.60800000  1.0 -0.0293238931
C  C41  1  0.08370000  0.79460000  0.99290000  1.0 -0.0659239478
C  C42  1  0.41630000  0.29460000  0.99290000  1.0 -0.0659239478
C  C43  1  0.58370000  0.79460000  0.50710000  1.0 -0.0659239478
C  C44  1  0.08370000  0.70540000  0.49290000  1.0 -0.0659239478
C  C45  1  0.91630000  0.20540000  0.00710000  1.0 -0.0659239478
C  C46  1  0.58370000  0.70540000  0.00710000  1.0 -0.0659239478
C  C47  1  0.41630000  0.20540000  0.49290000  1.0 -0.0659239478
C  C48  1  0.91630000  0.29460000  0.50710000  1.0 -0.0659239478
C  C49  1  0.92080000  0.89810000  0.75700000  1.0 0.0554108805
C  C50  1  0.57920000  0.39810000  0.75700000  1.0 0.0554108805
C  C51  1  0.42080000  0.89810000  0.74300000  1.0 0.0554108805
C  C52  1  0.92080000  0.60190000  0.25700000  1.0 0.0554108805
C  C53  1  0.07920000  0.10190000  0.24300000  1.0 0.0541198762
C  C54  1  0.42080000  0.60190000  0.24300000  1.0 0.0554108805
C  C55  1  0.57920000  0.10190000  0.25700000  1.0 0.0541198762
C  C56  1  0.07920000  0.39810000  0.74300000  1.0 0.0554108805
C  C57  1  0.17800000  0.92240000  0.44890000  1.0 -0.0021372359
C  C58  1  0.82200000  0.07760000  0.55110000  1.0 -0.0021372359
C  C59  1  0.08220000  0.94520000  0.45510000  1.0 -0.1709811477
C  C60  1  0.91780000  0.05480000  0.54490000  1.0 -0.1709811477
C  C61  1  0.05190000  0.98720000  0.49660000  1.0 0.099800034
C  C62  1  0.94810000  0.01280000  0.50340000  1.0 0.099800034
C  C63  1  0.12000000  0.00700000  0.53220000  1.0 -0.197838792
C  C64  1  0.88000000  0.99300000  0.46780000  1.0 -0.197838792
C  C65  1  0.21790000  0.97900000  0.52910000  1.0 0.0066534188
C  C66  1  0.78210000  0.02100000  0.47090000  1.0 0.0066534188
C  C67  1  0.35670000  0.92400000  0.47780000  1.0 -0.3632540493
C  C68  1  0.64330000  0.07600000  0.52220000  1.0 -0.3632540493
C  C69  1  0.67800000  0.57760000  0.55110000  1.0 -0.0021372359
C  C70  1  0.32200000  0.42240000  0.44890000  1.0 -0.0021372359
C  C71  1  0.58220000  0.55480000  0.54490000  1.0 -0.1709811477
C  C72  1  0.41780000  0.44520000  0.45510000  1.0 -0.1709811477
C  C73  1  0.55190000  0.51280000  0.50340000  1.0 0.099800034
C  C74  1  0.44810000  0.48720000  0.49660000  1.0 0.099800034
C  C75  1  0.62000000  0.49300000  0.46780000  1.0 -0.197838792
C  C76  1  0.38000000  0.50700000  0.53220000  1.0 -0.197838792
C  C77  1  0.71790000  0.52100000  0.47090000  1.0 0.0066534188
C  C78  1  0.28210000  0.47900000  0.52910000  1.0 0.0066534188
C  C79  1  0.85670000  0.57600000  0.52220000  1.0 -0.3632540493
C  C80  1  0.14330000  0.42400000  0.47780000  1.0 -0.3632540493
C  C81  1  0.32200000  0.07760000  0.94890000  1.0 -0.0021372359
C  C82  1  0.67800000  0.92240000  0.05110000  1.0 -0.0021372359
C  C83  1  0.41780000  0.05480000  0.95510000  1.0 -0.1709811477
C  C84  1  0.58220000  0.94520000  0.04490000  1.0 -0.1709811477
C  C85  1  0.44810000  0.01280000  0.99660000  1.0 0.099800034
C  C86  1  0.55190000  0.98720000  0.00340000  1.0 0.099800034
C  C87  1  0.38000000  0.99300000  0.03220000  1.0 -0.197838792
C  C88  1  0.62000000  0.00700000  0.96780000  1.0 -0.197838792
C  C89  1  0.28210000  0.02100000  0.02910000  1.0 0.0066534188
C  C90  1  0.71790000  0.97900000  0.97090000  1.0 0.0066534188
C  C91  1  0.14330000  0.07600000  0.97780000  1.0 -0.3632540493
C  C92  1  0.85670000  0.92400000  0.02220000  1.0 -0.3632540493
C  C93  1  0.17800000  0.57760000  0.94890000  1.0 -0.0021372359
C  C94  1  0.82200000  0.42240000  0.05110000  1.0 -0.0021372359
C  C95  1  0.08220000  0.55480000  0.95510000  1.0 -0.1709811477
C  C96  1  0.91780000  0.44520000  0.04490000  1.0 -0.1709811477
C  C97  1  0.05190000  0.51280000  0.99660000  1.0 0.099800034
C  C98  1  0.94810000  0.48720000  0.00340000  1.0 0.099800034
C  C99  1  0.12000000  0.49300000  0.03220000  1.0 -0.197838792
C  C100  1  0.88000000  0.50700000  0.96780000  1.0 -0.197838792
C  C101  1  0.21790000  0.52100000  0.02910000  1.0 0.0066534188
C  C102  1  0.78210000  0.47900000  0.97090000  1.0 0.0066534188
C  C103  1  0.35670000  0.57600000  0.97780000  1.0 -0.3632540493
C  C104  1  0.64330000  0.42400000  0.02220000  1.0 -0.3632540493
N  N1  1  0.04430000  0.68030000  0.84580000  1.0 -0.3293002125
N  N2  1  0.45570000  0.18030000  0.84580000  1.0 -0.3293002125
N  N3  1  0.54430000  0.68030000  0.65420000  1.0 -0.3293002125
N  N4  1  0.04430000  0.81970000  0.34580000  1.0 -0.3293002125
N  N5  1  0.95570000  0.31970000  0.15420000  1.0 -0.3293002125
N  N6  1  0.54430000  0.81970000  0.15420000  1.0 -0.3293002125
N  N7  1  0.45570000  0.31970000  0.34580000  1.0 -0.3293002125
N  N8  1  0.95570000  0.18030000  0.65420000  1.0 -0.3293002125
N  N9  1  0.15640000  0.89700000  0.85350000  1.0 -0.3122555329
N  N10  1  0.34360000  0.39700000  0.85350000  1.0 -0.3122555329
N  N11  1  0.65640000  0.89700000  0.64650000  1.0 -0.3122555329
N  N12  1  0.15640000  0.60300000  0.35350000  1.0 -0.3122555329
N  N13  1  0.84360000  0.10300000  0.14650000  1.0 -0.3122555329
N  N14  1  0.65640000  0.60300000  0.14650000  1.0 -0.3122555329
N  N15  1  0.34360000  0.10300000  0.35350000  1.0 -0.3122555329
N  N16  1  0.84360000  0.39700000  0.64650000  1.0 -0.3122555329
N  N17  1  0.94640000  0.98750000  0.89760000  1.0 -0.3248875527
N  N18  1  0.55360000  0.48750000  0.89760000  1.0 -0.3248875527
N  N19  1  0.44640000  0.98750000  0.60240000  1.0 -0.3293002125
N  N20  1  0.94640000  0.51250000  0.39760000  1.0 -0.3248875527
N  N21  1  0.05360000  0.01250000  0.10240000  1.0 -0.3248875527
N  N22  1  0.44640000  0.51250000  0.10240000  1.0 -0.3248875527
N  N23  1  0.55360000  0.01250000  0.39760000  1.0 -0.3248875527
N  N24  1  0.05360000  0.48750000  0.60240000  1.0 -0.3293002125
N  N25  1  0.85060000  0.77230000  0.90050000  1.0 -0.3293002125
N  N26  1  0.64940000  0.27230000  0.90050000  1.0 -0.3293002125
N  N27  1  0.35060000  0.77230000  0.59950000  1.0 -0.3293002125
N  N28  1  0.85060000  0.72770000  0.40050000  1.0 -0.3293002125
N  N29  1  0.14940000  0.22770000  0.09950000  1.0 -0.3293002125
N  N30  1  0.35060000  0.72770000  0.09950000  1.0 -0.3293002125
N  N31  1  0.64940000  0.22770000  0.40050000  1.0 -0.3293002125
N  N32  1  0.14940000  0.27230000  0.59950000  1.0 -0.3293002125
N  N33  1  0.02240000  0.37220000  0.87050000  1.0 -0.3049452095
N  N34  1  0.47760000  0.87220000  0.87050000  1.0 -0.3049452095
N  N35  1  0.52240000  0.37220000  0.62950000  1.0 -0.3049452095
N  N36  1  0.02240000  0.12780000  0.37050000  1.0 -0.3049452095
N  N37  1  0.97760000  0.62780000  0.12950000  1.0 -0.3049452095
N  N38  1  0.52240000  0.12780000  0.12950000  1.0 -0.3049452095
N  N39  1  0.47760000  0.62780000  0.37050000  1.0 -0.3049452095
N  N40  1  0.97760000  0.87220000  0.62950000  1.0 -0.3049452095
N  N41  1  0.05920000  0.80540000  0.95360000  1.0 -0.3293002125
N  N42  1  0.44080000  0.30540000  0.95360000  1.0 -0.3293002125
N  N43  1  0.55920000  0.80540000  0.54640000  1.0 -0.3293002125
N  N44  1  0.05920000  0.69460000  0.45360000  1.0 -0.3293002125
N  N45  1  0.94080000  0.19460000  0.04640000  1.0 -0.3293002125
N  N46  1  0.55920000  0.69460000  0.04640000  1.0 -0.3293002125
N  N47  1  0.44080000  0.19460000  0.45360000  1.0 -0.3293002125
N  N48  1  0.94080000  0.30540000  0.54640000  1.0 -0.3293002125
N  N49  1  0.94550000  0.86790000  0.79360000  1.0 -0.3293002125
N  N50  1  0.55450000  0.36790000  0.79360000  1.0 -0.3293002125
N  N51  1  0.44550000  0.86790000  0.70640000  1.0 -0.3293002125
N  N52  1  0.94550000  0.63210000  0.29360000  1.0 -0.3293002125
N  N53  1  0.05450000  0.13210000  0.20640000  1.0 -0.3293002125
N  N54  1  0.44550000  0.63210000  0.20640000  1.0 -0.3293002125
N  N55  1  0.55450000  0.13210000  0.29360000  1.0 -0.3293002125
N  N56  1  0.05450000  0.36790000  0.70640000  1.0 -0.3293002125
N  N57  1  0.24540000  0.94340000  0.48410000  1.0 0.1517078239
N  N58  1  0.75460000  0.05660000  0.51590000  1.0 0.1517078239
N  N59  1  0.74540000  0.55660000  0.51590000  1.0 0.1517078239
N  N60  1  0.25460000  0.44340000  0.48410000  1.0 0.1517078239
N  N61  1  0.25460000  0.05660000  0.98410000  1.0 0.1517078239
N  N62  1  0.74540000  0.94340000  0.01590000  1.0 0.1517078239
N  N63  1  0.24540000  0.55660000  0.98410000  1.0 0.1517078239
N  N64  1  0.75460000  0.44340000  0.01590000  1.0 0.1517078239
