# DDEC6 charges by PACMAN v1.1 (https://github.com/mtap-research/PACMAN-charge/)
data_MODPAW_FSR_pacman
_symmetry_space_group_name_H-M   'P 1'
_cell_length_a   15.27740000
_cell_length_b   15.27740000
_cell_length_c   15.27740000
_cell_angle_alpha   137.27900000
_cell_angle_beta   117.92500000
_cell_angle_gamma   78.28800000
_symmetry_Int_Tables_number   1
_chemical_formula_structural   Cd5H20(C13N6)2
_chemical_formula_sum   'Cd10 H40 C52 N24'
_cell_volume   2077.39123080
_cell_formula_units_Z   2
loop_
 _symmetry_equiv_pos_site_id
 _symmetry_equiv_pos_as_xyz
  1  'x, y, z'
loop_
 _atom_site_type_symbol
 _atom_site_label
 _atom_site_symmetry_multiplicity
 _atom_site_fract_x
 _atom_site_fract_y
 _atom_site_fract_z
 _atom_site_occupancy
 _atom_site_charge
Cd  Cd1  1  0.50000000  0.50000000  0.00000000  1.0 0.9607529614
Cd  Cd2  1  0.00000000  0.00000000  0.00000000  1.0 0.9607529614
Cd  Cd3  1  0.88272000  0.38272000  0.00000000  1.0 0.6783132378
Cd  Cd4  1  0.38272000  0.38272000  0.50000000  1.0 0.6783132378
Cd  Cd5  1  0.11728000  0.61728000  0.00000000  1.0 0.6783132378
Cd  Cd6  1  0.61728000  0.61728000  0.50000000  1.0 0.6783132378
Cd  Cd7  1  0.35876000  0.95711000  0.59835000  1.0 0.4784509662
Cd  Cd8  1  0.85876000  0.26041000  0.40165000  1.0 0.4784509662
Cd  Cd9  1  0.14124000  0.73959000  0.59835000  1.0 0.4784509662
Cd  Cd10  1  0.64124000  0.04289000  0.40165000  1.0 0.4784509662
H  H1  1  0.43520000  0.72170000  0.93530000  1.0 0.1165722918
H  H2  1  0.28640000  0.99990000  0.06470000  1.0 0.1165722918
H  H3  1  0.56480000  0.27830000  0.06470000  1.0 0.1165722918
H  H4  1  0.71360000  0.00010000  0.93530000  1.0 0.1165722918
H  H5  1  0.53350000  0.81440000  0.93350000  1.0 0.1282739874
H  H6  1  0.38090000  0.10000000  0.06650000  1.0 0.1282739874
H  H7  1  0.46650000  0.18560000  0.06650000  1.0 0.1282739874
H  H8  1  0.61910000  0.90000000  0.93350000  1.0 0.1282739874
H  H9  1  0.25890000  0.70040000  0.90450000  1.0 0.0978175862
H  H10  1  0.29590000  0.85440000  0.09550000  1.0 0.0978175862
H  H11  1  0.74110000  0.29960000  0.09550000  1.0 0.0978175862
H  H12  1  0.70410000  0.14560000  0.90450000  1.0 0.0978175862
H  H13  1  0.33380000  0.79320000  0.07220000  1.0 0.0978175862
H  H14  1  0.22100000  0.76160000  0.92780000  1.0 0.0978175862
H  H15  1  0.66620000  0.20680000  0.92780000  1.0 0.0978175862
H  H16  1  0.77900000  0.23840000  0.07220000  1.0 0.0978175862
H  H17  1  0.23950000  0.83860000  0.02330000  1.0 0.0978175862
H  H18  1  0.31530000  0.71620000  0.97670000  1.0 0.0978175862
H  H19  1  0.76050000  0.16140000  0.97670000  1.0 0.0978175862
H  H20  1  0.68470000  0.28380000  0.02330000  1.0 0.0978175862
H  H21  1  0.93520000  0.99990000  0.71350000  1.0 0.1165722918
H  H22  1  0.21360000  0.27830000  0.71350000  1.0 0.1165722918
H  H23  1  0.06480000  0.00010000  0.28650000  1.0 0.1165722918
H  H24  1  0.78640000  0.72170000  0.28650000  1.0 0.1165722918
H  H25  1  0.03350000  0.10000000  0.71910000  1.0 0.1282739874
H  H26  1  0.11910000  0.18560000  0.71910000  1.0 0.1282739874
H  H27  1  0.96650000  0.90000000  0.28090000  1.0 0.1282739874
H  H28  1  0.88090000  0.81440000  0.28090000  1.0 0.1282739874
H  H29  1  0.75890000  0.85440000  0.55850000  1.0 0.0978175862
H  H30  1  0.20410000  0.29960000  0.55850000  1.0 0.0978175862
H  H31  1  0.24110000  0.14560000  0.44150000  1.0 0.0978175862
H  H32  1  0.79590000  0.70040000  0.44150000  1.0 0.0978175862
H  H33  1  0.83380000  0.76160000  0.54060000  1.0 0.0978175862
H  H34  1  0.27900000  0.20680000  0.54060000  1.0 0.0978175862
H  H35  1  0.16620000  0.23840000  0.45940000  1.0 0.0978175862
H  H36  1  0.72100000  0.79320000  0.45940000  1.0 0.0978175862
H  H37  1  0.73950000  0.71620000  0.40090000  1.0 0.0978175862
H  H38  1  0.18470000  0.16140000  0.40090000  1.0 0.0978175862
H  H39  1  0.26050000  0.28380000  0.59910000  1.0 0.0978175862
H  H40  1  0.81530000  0.83860000  0.59910000  1.0 0.0978175862
C  C1  1  0.73470000  0.43410000  0.00400000  1.0 0.0026721518
C  C2  1  0.23470000  0.23070000  0.30060000  1.0 0.0050821353
C  C3  1  0.43010000  0.43410000  0.69940000  1.0 0.0026721518
C  C4  1  0.06990000  0.76930000  0.00400000  1.0 0.0026721518
C  C5  1  0.26530000  0.56590000  0.99600000  1.0 0.0026721518
C  C6  1  0.76530000  0.76930000  0.69940000  1.0 0.0026721518
C  C7  1  0.56990000  0.56590000  0.30060000  1.0 0.0050821353
C  C8  1  0.93010000  0.23070000  0.99600000  1.0 0.0026721518
C  C9  1  0.41240000  0.17110000  0.75870000  1.0 -0.0340678225
C  C10  1  0.91240000  0.15370000  0.24130000  1.0 -0.0340678225
C  C11  1  0.08760000  0.84630000  0.75870000  1.0 -0.0340678225
C  C12  1  0.58760000  0.82890000  0.24130000  1.0 -0.0340678225
C  C13  1  0.25240000  0.85620000  0.37800000  1.0 -0.0010971963
C  C14  1  0.75240000  0.37440000  0.39620000  1.0 -0.0010971963
C  C15  1  0.47820000  0.85620000  0.60380000  1.0 -0.0010971963
C  C16  1  0.02180000  0.62560000  0.37800000  1.0 -0.0010971963
C  C17  1  0.74760000  0.14380000  0.62200000  1.0 -0.0010971963
C  C18  1  0.24760000  0.62560000  0.60380000  1.0 -0.0010971963
C  C19  1  0.52180000  0.14380000  0.39620000  1.0 -0.0010971963
C  C20  1  0.97820000  0.37440000  0.62200000  1.0 -0.0010971963
C  C21  1  0.97570000  0.47570000  0.00000000  1.0 -0.1509593826
C  C22  1  0.47570000  0.47570000  0.50000000  1.0 -0.1509593826
C  C23  1  0.02430000  0.52430000  0.00000000  1.0 -0.1509593826
C  C24  1  0.52430000  0.52430000  0.50000000  1.0 -0.1509593826
C  C25  1  0.26750000  0.94350000  0.67600000  1.0 -0.1848507252
C  C26  1  0.76750000  0.09150000  0.32400000  1.0 -0.1848507252
C  C27  1  0.23250000  0.90850000  0.67600000  1.0 -0.1848507252
C  C28  1  0.73250000  0.05650000  0.32400000  1.0 -0.1924257984
C  C29  1  0.42420000  0.79900000  0.96200000  1.0 0.0438410585
C  C30  1  0.33700000  0.96220000  0.03800000  1.0 0.0459881399
C  C31  1  0.57580000  0.20100000  0.03800000  1.0 0.0438410585
C  C32  1  0.66300000  0.03780000  0.96200000  1.0 0.0438410585
C  C33  1  0.48340000  0.85390000  0.96070000  1.0 -0.1924257984
C  C34  1  0.39320000  0.02270000  0.03930000  1.0 -0.1924257984
C  C35  1  0.51660000  0.14610000  0.03930000  1.0 -0.1924257984
C  C36  1  0.60680000  0.97730000  0.96070000  1.0 -0.1924257984
C  C37  1  0.46790000  0.96790000  0.00000000  1.0 0.0978175862
C  C38  1  0.53210000  0.03210000  0.00000000  1.0 0.0978175862
C  C39  1  0.29090000  0.79090000  0.00000000  1.0 -0.2571533386
C  C40  1  0.70910000  0.20910000  0.00000000  1.0 -0.2571533386
C  C41  1  0.92420000  0.96220000  0.62520000  1.0 0.0459881399
C  C42  1  0.16300000  0.20100000  0.62520000  1.0 0.0459881399
C  C43  1  0.07580000  0.03780000  0.37480000  1.0 0.0459881399
C  C44  1  0.83700000  0.79900000  0.37480000  1.0 0.0438410585
C  C45  1  0.98340000  0.02270000  0.62950000  1.0 -0.1924257984
C  C46  1  0.10680000  0.14610000  0.62950000  1.0 -0.1924257984
C  C47  1  0.01660000  0.97730000  0.37050000  1.0 -0.1924257984
C  C48  1  0.89320000  0.85390000  0.37050000  1.0 -0.1924257984
C  C49  1  0.96790000  0.96790000  0.50000000  1.0 0.0978175862
C  C50  1  0.03210000  0.03210000  0.50000000  1.0 0.0978175862
C  C51  1  0.79090000  0.79090000  0.50000000  1.0 -0.2571533386
C  C52  1  0.20910000  0.20910000  0.50000000  1.0 -0.2571533386
N  N1  1  0.66190000  0.46000000  0.01050000  1.0 -0.3606205277
N  N2  1  0.16190000  0.15140000  0.20190000  1.0 -0.3606205277
N  N3  1  0.44950000  0.46000000  0.79810000  1.0 -0.3606205277
N  N4  1  0.05050000  0.84860000  0.01050000  1.0 -0.3606205277
N  N5  1  0.33810000  0.54000000  0.98950000  1.0 -0.3606205277
N  N6  1  0.83810000  0.84860000  0.79810000  1.0 -0.3606205277
N  N7  1  0.55050000  0.54000000  0.20190000  1.0 -0.3606205277
N  N8  1  0.94950000  0.15140000  0.98950000  1.0 -0.3606205277
N  N9  1  0.43920000  0.28170000  0.84250000  1.0 -0.3665611919
N  N10  1  0.93920000  0.09670000  0.15750000  1.0 -0.3665611919
N  N11  1  0.06080000  0.90330000  0.84250000  1.0 -0.3665611919
N  N12  1  0.56080000  0.71830000  0.15750000  1.0 -0.3665611919
N  N13  1  0.79980000  0.20100000  0.73540000  1.0 -0.3545269694
N  N14  1  0.29980000  0.56440000  0.59880000  1.0 -0.3545269694
N  N15  1  0.46560000  0.20100000  0.40120000  1.0 -0.3545269694
N  N16  1  0.03440000  0.43560000  0.73540000  1.0 -0.3545269694
N  N17  1  0.20020000  0.79900000  0.26460000  1.0 -0.3545269694
N  N18  1  0.70020000  0.43560000  0.40120000  1.0 -0.3545269694
N  N19  1  0.53440000  0.79900000  0.59880000  1.0 -0.3606205277
N  N20  1  0.96560000  0.56440000  0.26460000  1.0 -0.3545269694
N  N21  1  0.35170000  0.85170000  0.00000000  1.0 -0.0935842384
N  N22  1  0.64830000  0.14830000  0.00000000  1.0 -0.0935842384
N  N23  1  0.85170000  0.85170000  0.50000000  1.0 -0.0935842384
N  N24  1  0.14830000  0.14830000  0.50000000  1.0 -0.0935842384
