# DDEC6 charges by PACMAN v1.1 (https://github.com/mtap-research/PACMAN-charge/)
data_MODPEA_FSR_pacman
_symmetry_space_group_name_H-M   'P 1'
_cell_length_a   15.18630000
_cell_length_b   15.18630000
_cell_length_c   15.18630000
_cell_angle_alpha   135.90900000
_cell_angle_beta   117.98800000
_cell_angle_gamma   79.19190000
_symmetry_Int_Tables_number   1
_chemical_formula_structural   Cd5H20(C13N6)2
_chemical_formula_sum   'Cd10 H40 C52 N24'
_cell_volume   2087.20206277
_cell_formula_units_Z   2
loop_
 _symmetry_equiv_pos_site_id
 _symmetry_equiv_pos_as_xyz
  1  'x, y, z'
loop_
 _atom_site_type_symbol
 _atom_site_label
 _atom_site_symmetry_multiplicity
 _atom_site_fract_x
 _atom_site_fract_y
 _atom_site_fract_z
 _atom_site_occupancy
 _atom_site_charge
Cd  Cd1  1  0.50000000  0.50000000  0.00000000  1.0 0.9585960962
Cd  Cd2  1  0.00000000  0.00000000  0.00000000  1.0 0.9585960962
Cd  Cd3  1  0.88090000  0.38090000  0.00000000  1.0 0.6875496961
Cd  Cd4  1  0.38090000  0.38090000  0.50000000  1.0 0.6875496961
Cd  Cd5  1  0.11910000  0.61910000  0.00000000  1.0 0.6875496961
Cd  Cd6  1  0.61910000  0.61910000  0.50000000  1.0 0.6875496961
Cd  Cd7  1  0.36501000  0.96147000  0.59646000  1.0 0.4516015433
Cd  Cd8  1  0.86501000  0.26855000  0.40354000  1.0 0.4516015433
Cd  Cd9  1  0.13499000  0.73145000  0.59646000  1.0 0.4516015433
Cd  Cd10  1  0.63499000  0.03853000  0.40354000  1.0 0.4516015433
H  H1  1  0.42780000  0.71950000  0.93010000  1.0 0.1171252307
H  H2  1  0.28940000  0.99770000  0.06990000  1.0 0.1171252307
H  H3  1  0.57220000  0.28050000  0.06990000  1.0 0.1171252307
H  H4  1  0.71060000  0.00230000  0.93010000  1.0 0.1171252307
H  H5  1  0.52680000  0.81020000  0.92360000  1.0 0.1290374033
H  H6  1  0.38660000  0.10320000  0.07640000  1.0 0.1290374033
H  H7  1  0.47320000  0.18980000  0.07640000  1.0 0.1290374033
H  H8  1  0.61340000  0.89680000  0.92360000  1.0 0.1290374033
H  H9  1  0.21940000  0.75160000  0.92160000  1.0 0.0991477993
H  H10  1  0.33000000  0.79780000  0.07840000  1.0 0.0991477993
H  H11  1  0.78060000  0.24840000  0.07840000  1.0 0.0991477993
H  H12  1  0.67000000  0.20220000  0.92160000  1.0 0.0991477993
H  H13  1  0.31700000  0.72050000  0.98810000  1.0 0.0991477993
H  H14  1  0.23240000  0.82890000  0.01190000  1.0 0.0991477993
H  H15  1  0.68300000  0.27950000  0.01190000  1.0 0.0991477993
H  H16  1  0.76760000  0.17110000  0.98810000  1.0 0.0991477993
H  H17  1  0.28780000  0.85200000  0.09040000  1.0 0.0991477993
H  H18  1  0.26160000  0.69740000  0.90960000  1.0 0.0991477993
H  H19  1  0.71220000  0.14800000  0.90960000  1.0 0.0991477993
H  H20  1  0.73840000  0.30260000  0.09040000  1.0 0.0991477993
H  H21  1  0.92780000  0.99770000  0.70830000  1.0 0.1171252307
H  H22  1  0.21060000  0.28050000  0.70830000  1.0 0.1171252307
H  H23  1  0.07220000  0.00230000  0.29170000  1.0 0.1171252307
H  H24  1  0.78940000  0.71950000  0.29170000  1.0 0.1171252307
H  H25  1  0.02680000  0.10320000  0.71660000  1.0 0.1290374033
H  H26  1  0.11340000  0.18980000  0.71660000  1.0 0.1290374033
H  H27  1  0.97320000  0.89680000  0.28340000  1.0 0.1290374033
H  H28  1  0.88660000  0.81020000  0.28340000  1.0 0.1290374033
H  H29  1  0.71940000  0.79780000  0.46780000  1.0 0.0991477993
H  H30  1  0.17000000  0.24840000  0.46780000  1.0 0.0991477993
H  H31  1  0.28060000  0.20220000  0.53220000  1.0 0.0991477993
H  H32  1  0.83000000  0.75160000  0.53220000  1.0 0.0991477993
H  H33  1  0.81700000  0.82890000  0.59650000  1.0 0.0991477993
H  H34  1  0.26760000  0.27950000  0.59650000  1.0 0.0991477993
H  H35  1  0.18300000  0.17110000  0.40350000  1.0 0.0991477993
H  H36  1  0.73240000  0.72050000  0.40350000  1.0 0.0991477993
H  H37  1  0.78780000  0.69740000  0.43580000  1.0 0.0991477993
H  H38  1  0.23840000  0.14800000  0.43580000  1.0 0.0991477993
H  H39  1  0.21220000  0.30260000  0.56420000  1.0 0.0991477993
H  H40  1  0.76160000  0.85200000  0.56420000  1.0 0.0991477993
C  C1  1  0.73348000  0.43471000  0.00337000  1.0 0.0111733722
C  C2  1  0.23348000  0.23011000  0.29877000  1.0 0.0111733722
C  C3  1  0.43134000  0.43471000  0.70123000  1.0 0.0111733722
C  C4  1  0.06866000  0.76989000  0.00337000  1.0 0.0111733722
C  C5  1  0.26652000  0.56529000  0.99663000  1.0 0.0111733722
C  C6  1  0.76652000  0.76989000  0.70123000  1.0 0.0111733722
C  C7  1  0.56866000  0.56529000  0.29877000  1.0 0.0111733722
C  C8  1  0.93134000  0.23011000  0.99663000  1.0 0.0111733722
C  C9  1  0.41398000  0.17278000  0.75880000  1.0 -0.0444750858
C  C10  1  0.91398000  0.15518000  0.24120000  1.0 -0.0444750858
C  C11  1  0.08602000  0.84482000  0.75880000  1.0 -0.0444750858
C  C12  1  0.58602000  0.82722000  0.24120000  1.0 -0.0444750858
C  C13  1  0.25914000  0.86424000  0.37570000  1.0 0.0111733722
C  C14  1  0.75914000  0.38344000  0.39490000  1.0 0.0111733722
C  C15  1  0.48854000  0.86424000  0.60510000  1.0 0.0111733722
C  C16  1  0.01146000  0.61656000  0.37570000  1.0 0.0111733722
C  C17  1  0.74086000  0.13576000  0.62430000  1.0 0.0111733722
C  C18  1  0.24086000  0.61656000  0.60510000  1.0 0.0111733722
C  C19  1  0.51146000  0.13576000  0.39490000  1.0 0.0111733722
C  C20  1  0.98854000  0.38344000  0.62430000  1.0 0.0111733722
C  C21  1  0.97587000  0.47587000  0.00000000  1.0 -0.1701722138
C  C22  1  0.47587000  0.47587000  0.50000000  1.0 -0.1701722138
C  C23  1  0.02413000  0.52413000  0.00000000  1.0 -0.1701722138
C  C24  1  0.52413000  0.52413000  0.50000000  1.0 -0.1701722138
C  C25  1  0.27410000  0.92280000  0.64870000  1.0 -0.2397121333
C  C26  1  0.77410000  0.12540000  0.35130000  1.0 -0.2397121333
C  C27  1  0.22590000  0.87460000  0.64870000  1.0 -0.2397121333
C  C28  1  0.72590000  0.07720000  0.35130000  1.0 -0.2397121333
C  C29  1  0.41945000  0.79745000  0.95860000  1.0 0.0611580431
C  C30  1  0.33885000  0.96085000  0.04140000  1.0 0.0611580431
C  C31  1  0.58055000  0.20255000  0.04140000  1.0 0.0611580431
C  C32  1  0.66115000  0.03915000  0.95860000  1.0 0.0611580431
C  C33  1  0.47956000  0.85176000  0.95540000  1.0 -0.1840433769
C  C34  1  0.39636000  0.02416000  0.04460000  1.0 -0.1840433769
C  C35  1  0.52044000  0.14824000  0.04460000  1.0 -0.1840433769
C  C36  1  0.60364000  0.97584000  0.95540000  1.0 -0.1840433769
C  C37  1  0.46882000  0.96882000  0.00000000  1.0 0.0991477993
C  C38  1  0.53118000  0.03118000  0.00000000  1.0 0.0991477993
C  C39  1  0.28840000  0.78840000  0.00000000  1.0 -0.2572084695
C  C40  1  0.71160000  0.21160000  0.00000000  1.0 -0.2572084695
C  C41  1  0.91945000  0.96085000  0.62200000  1.0 0.0611580431
C  C42  1  0.16115000  0.20255000  0.62200000  1.0 0.0611580431
C  C43  1  0.08055000  0.03915000  0.37800000  1.0 0.0611580431
C  C44  1  0.83885000  0.79745000  0.37800000  1.0 0.0611580431
C  C45  1  0.97956000  0.02416000  0.62780000  1.0 -0.1840433769
C  C46  1  0.10364000  0.14824000  0.62780000  1.0 -0.1840433769
C  C47  1  0.02044000  0.97584000  0.37220000  1.0 -0.1840433769
C  C48  1  0.89636000  0.85176000  0.37220000  1.0 -0.1840433769
C  C49  1  0.96882000  0.96882000  0.50000000  1.0 0.0991477993
C  C50  1  0.03118000  0.03118000  0.50000000  1.0 0.0991477993
C  C51  1  0.78840000  0.78840000  0.50000000  1.0 -0.2572084695
C  C52  1  0.21160000  0.21160000  0.50000000  1.0 -0.2572084695
N  N1  1  0.66168000  0.46363000  0.01305000  1.0 -0.3576019011
N  N2  1  0.16168000  0.14863000  0.19805000  1.0 -0.3576019011
N  N3  1  0.45058000  0.46363000  0.80195000  1.0 -0.3576019011
N  N4  1  0.04942000  0.85137000  0.01305000  1.0 -0.3576019011
N  N5  1  0.33832000  0.53637000  0.98695000  1.0 -0.3576019011
N  N6  1  0.83832000  0.85137000  0.80195000  1.0 -0.3576019011
N  N7  1  0.54942000  0.53637000  0.19805000  1.0 -0.3576019011
N  N8  1  0.95058000  0.14863000  0.98695000  1.0 -0.3576019011
N  N9  1  0.43992000  0.28132000  0.84140000  1.0 -0.3576019011
N  N10  1  0.93992000  0.09852000  0.15860000  1.0 -0.3576019011
N  N11  1  0.06008000  0.90148000  0.84140000  1.0 -0.3576019011
N  N12  1  0.56008000  0.71868000  0.15860000  1.0 -0.3576019011
N  N13  1  0.79285000  0.20065000  0.73960000  1.0 -0.3576019011
N  N14  1  0.29285000  0.55325000  0.59220000  1.0 -0.3576019011
N  N15  1  0.46105000  0.20065000  0.40780000  1.0 -0.3576019011
N  N16  1  0.03895000  0.44675000  0.73960000  1.0 -0.3576019011
N  N17  1  0.20715000  0.79935000  0.26040000  1.0 -0.3576019011
N  N18  1  0.70715000  0.44675000  0.40780000  1.0 -0.3576019011
N  N19  1  0.53895000  0.79935000  0.59220000  1.0 -0.3576019011
N  N20  1  0.96105000  0.55325000  0.26040000  1.0 -0.3576019011
N  N21  1  0.35166000  0.85166000  0.00000000  1.0 -0.1041545637
N  N22  1  0.64834000  0.14834000  0.00000000  1.0 -0.1041545637
N  N23  1  0.85166000  0.85166000  0.50000000  1.0 -0.1041545637
N  N24  1  0.14834000  0.14834000  0.50000000  1.0 -0.1041545637
