# DDEC6 charges by PACMAN v1.1 (https://github.com/mtap-research/PACMAN-charge/)
data_MODPAW_ASR_pacman
_symmetry_space_group_name_H-M   'P 1'
_cell_length_a   11.12900000
_cell_length_b   23.69710000
_cell_length_c   15.75390000
_cell_angle_alpha   90.00000000
_cell_angle_beta   90.00000000
_cell_angle_gamma   90.00000000
_symmetry_Int_Tables_number   1
_chemical_formula_structural   Cd5(C7N5)2
_chemical_formula_sum   'Cd20 C56 N40'
_cell_volume   4154.69768553
_cell_formula_units_Z   4
loop_
 _symmetry_equiv_pos_site_id
 _symmetry_equiv_pos_as_xyz
  1  'x, y, z'
loop_
 _atom_site_type_symbol
 _atom_site_label
 _atom_site_symmetry_multiplicity
 _atom_site_fract_x
 _atom_site_fract_y
 _atom_site_fract_z
 _atom_site_occupancy
 _atom_site_charge
Cd  Cd1  1  0.00000000  0.00000000  0.00000000  1.0 0.8997614608
Cd  Cd2  1  0.00000000  0.50000000  0.00000000  1.0 0.8997614608
Cd  Cd3  1  0.50000000  0.50000000  0.50000000  1.0 0.8997614608
Cd  Cd4  1  0.50000000  0.00000000  0.50000000  1.0 0.8997614608
Cd  Cd5  1  0.25000000  0.13001000  0.25000000  1.0 0.6385924445
Cd  Cd6  1  0.75000000  0.86999000  0.75000000  1.0 0.6385924445
Cd  Cd7  1  0.25000000  0.36999000  0.75000000  1.0 0.6385924445
Cd  Cd8  1  0.75000000  0.63001000  0.25000000  1.0 0.6331911014
Cd  Cd9  1  0.75000000  0.63001000  0.75000000  1.0 0.6331911014
Cd  Cd10  1  0.25000000  0.36999000  0.25000000  1.0 0.6385924445
Cd  Cd11  1  0.75000000  0.86999000  0.25000000  1.0 0.6385924445
Cd  Cd12  1  0.25000000  0.13001000  0.75000000  1.0 0.6385924445
Cd  Cd13  1  0.41436000  0.85727000  0.00000000  1.0 0.3338633628
Cd  Cd14  1  0.58564000  0.14273000  0.00000000  1.0 0.3338633628
Cd  Cd15  1  0.41436000  0.64273000  0.00000000  1.0 0.3338633628
Cd  Cd16  1  0.58564000  0.35727000  0.00000000  1.0 0.3338633628
Cd  Cd17  1  0.91436000  0.35727000  0.50000000  1.0 0.3338633628
Cd  Cd18  1  0.08564000  0.64273000  0.50000000  1.0 0.3338633628
Cd  Cd19  1  0.91436000  0.14273000  0.50000000  1.0 0.3338633628
Cd  Cd20  1  0.08564000  0.85727000  0.50000000  1.0 0.3338633628
C  C1  1  0.15158000  0.07946000  0.15103000  1.0 0.0916482644
C  C2  1  0.84842000  0.92054000  0.84897000  1.0 0.0916482644
C  C3  1  0.15158000  0.42054000  0.84897000  1.0 0.0916482644
C  C4  1  0.84842000  0.57946000  0.15103000  1.0 0.0916482644
C  C5  1  0.84842000  0.57946000  0.84897000  1.0 0.0916482644
C  C6  1  0.15158000  0.42054000  0.15103000  1.0 0.0916482644
C  C7  1  0.84842000  0.92054000  0.15103000  1.0 0.0916482644
C  C8  1  0.15158000  0.07946000  0.84897000  1.0 0.0916482644
C  C9  1  0.65158000  0.57946000  0.65103000  1.0 0.0916482644
C  C10  1  0.34842000  0.42054000  0.34897000  1.0 0.0916482644
C  C11  1  0.65158000  0.92054000  0.34897000  1.0 0.0954603852
C  C12  1  0.34842000  0.07946000  0.65103000  1.0 0.0916482644
C  C13  1  0.34842000  0.07946000  0.34897000  1.0 0.0916482644
C  C14  1  0.65158000  0.92054000  0.65103000  1.0 0.0916482644
C  C15  1  0.34842000  0.42054000  0.65103000  1.0 0.0916482644
C  C16  1  0.65158000  0.57946000  0.34897000  1.0 0.0916482644
C  C17  1  0.24537000  0.90483000  0.00000000  1.0 0.0267757837
C  C18  1  0.75463000  0.09517000  0.00000000  1.0 0.0267757837
C  C19  1  0.24537000  0.59517000  0.00000000  1.0 0.0242589583
C  C20  1  0.75463000  0.40483000  0.00000000  1.0 0.0267757837
C  C21  1  0.74537000  0.40483000  0.50000000  1.0 0.0267757837
C  C22  1  0.25463000  0.59517000  0.50000000  1.0 0.0242589583
C  C23  1  0.74537000  0.09517000  0.50000000  1.0 0.0267757837
C  C24  1  0.25463000  0.90483000  0.50000000  1.0 0.0267757837
C  C25  1  0.50120000  0.14439000  0.11873000  1.0 0.0094655272
C  C26  1  0.49880000  0.85561000  0.88127000  1.0 0.0094655272
C  C27  1  0.50120000  0.35561000  0.88127000  1.0 0.0094655272
C  C28  1  0.49880000  0.64439000  0.11873000  1.0 0.0094655272
C  C29  1  0.49880000  0.64439000  0.88127000  1.0 0.0094655272
C  C30  1  0.50120000  0.35561000  0.11873000  1.0 0.0094655272
C  C31  1  0.49880000  0.85561000  0.11873000  1.0 0.0094655272
C  C32  1  0.50120000  0.14439000  0.88127000  1.0 0.0094655272
C  C33  1  0.00120000  0.64439000  0.61873000  1.0 0.0094655272
C  C34  1  0.99880000  0.35561000  0.38127000  1.0 0.0094655272
C  C35  1  0.00120000  0.85561000  0.38127000  1.0 0.0094655272
C  C36  1  0.99880000  0.14439000  0.61873000  1.0 0.0094655272
C  C37  1  0.99880000  0.14439000  0.38127000  1.0 0.0094655272
C  C38  1  0.00120000  0.85561000  0.61873000  1.0 0.0094655272
C  C39  1  0.99880000  0.35561000  0.61873000  1.0 0.0094655272
C  C40  1  0.00120000  0.64439000  0.38127000  1.0 0.0094655272
C  C41  1  0.25000000  0.22284000  0.25000000  1.0 -0.150569784
C  C42  1  0.75000000  0.77716000  0.75000000  1.0 -0.1597923284
C  C43  1  0.25000000  0.27716000  0.75000000  1.0 -0.1597923284
C  C44  1  0.75000000  0.72284000  0.25000000  1.0 -0.1597923284
C  C45  1  0.75000000  0.72284000  0.75000000  1.0 -0.150569784
C  C46  1  0.25000000  0.27716000  0.25000000  1.0 -0.1597923284
C  C47  1  0.75000000  0.77716000  0.25000000  1.0 -0.1597923284
C  C48  1  0.25000000  0.22284000  0.75000000  1.0 -0.150569784
C  C49  1  0.29352000  0.96497000  0.00000000  1.0 -0.0369636653
C  C50  1  0.70648000  0.03503000  0.00000000  1.0 -0.0262362062
C  C51  1  0.29352000  0.53503000  0.00000000  1.0 -0.0262362062
C  C52  1  0.70648000  0.46497000  0.00000000  1.0 -0.0369636653
C  C53  1  0.79352000  0.46497000  0.50000000  1.0 -0.0369636653
C  C54  1  0.20648000  0.53503000  0.50000000  1.0 -0.0262362062
C  C55  1  0.79352000  0.03503000  0.50000000  1.0 -0.0262362062
C  C56  1  0.20648000  0.96497000  0.50000000  1.0 -0.0369636653
N  N1  1  0.09184000  0.05449000  0.10214000  1.0 -0.3354925326
N  N2  1  0.90816000  0.94551000  0.89786000  1.0 -0.3354925326
N  N3  1  0.09184000  0.44551000  0.89786000  1.0 -0.3354925326
N  N4  1  0.90816000  0.55449000  0.10214000  1.0 -0.3342030197
N  N5  1  0.90816000  0.55449000  0.89786000  1.0 -0.3342030197
N  N6  1  0.09184000  0.44551000  0.10214000  1.0 -0.3342030197
N  N7  1  0.90816000  0.94551000  0.10214000  1.0 -0.3342030197
N  N8  1  0.09184000  0.05449000  0.89786000  1.0 -0.3354925326
N  N9  1  0.59184000  0.55449000  0.60214000  1.0 -0.3342030197
N  N10  1  0.40816000  0.44551000  0.39786000  1.0 -0.3354925326
N  N11  1  0.59184000  0.94551000  0.39786000  1.0 -0.3354925326
N  N12  1  0.40816000  0.05449000  0.60214000  1.0 -0.3354925326
N  N13  1  0.40816000  0.05449000  0.39786000  1.0 -0.3354925326
N  N14  1  0.59184000  0.94551000  0.60214000  1.0 -0.3342030197
N  N15  1  0.40816000  0.44551000  0.60214000  1.0 -0.3342030197
N  N16  1  0.59184000  0.55449000  0.39786000  1.0 -0.3342030197
N  N17  1  0.17599000  0.95026000  0.00000000  1.0 -0.1597923284
N  N18  1  0.82401000  0.04974000  0.00000000  1.0 -0.1755790188
N  N19  1  0.17599000  0.54974000  0.00000000  1.0 -0.1695321226
N  N20  1  0.82401000  0.45026000  0.00000000  1.0 -0.1695321226
N  N21  1  0.67599000  0.45026000  0.50000000  1.0 -0.1695321226
N  N22  1  0.32401000  0.54974000  0.50000000  1.0 -0.1755790188
N  N23  1  0.67599000  0.04974000  0.50000000  1.0 -0.1755790188
N  N24  1  0.32401000  0.95026000  0.50000000  1.0 -0.1597923284
N  N25  1  0.43702000  0.13130000  0.17408000  1.0 -0.3114213775
N  N26  1  0.56298000  0.86870000  0.82592000  1.0 -0.3114213775
N  N27  1  0.43702000  0.36870000  0.82592000  1.0 -0.3114213775
N  N28  1  0.56298000  0.63130000  0.17408000  1.0 -0.3114213775
N  N29  1  0.56298000  0.63130000  0.82592000  1.0 -0.3114213775
N  N30  1  0.43702000  0.36870000  0.17408000  1.0 -0.3114213775
N  N31  1  0.56298000  0.86870000  0.17408000  1.0 -0.3114213775
N  N32  1  0.43702000  0.13130000  0.82592000  1.0 -0.3114213775
N  N33  1  0.93702000  0.63130000  0.67408000  1.0 -0.3114213775
N  N34  1  0.06298000  0.36870000  0.32592000  1.0 -0.3114213775
N  N35  1  0.93702000  0.86870000  0.32592000  1.0 -0.3114213775
N  N36  1  0.06298000  0.13130000  0.67408000  1.0 -0.3114213775
N  N37  1  0.06298000  0.13130000  0.32592000  1.0 -0.3114213775
N  N38  1  0.93702000  0.86870000  0.67408000  1.0 -0.3114213775
N  N39  1  0.06298000  0.36870000  0.67408000  1.0 -0.3114213775
N  N40  1  0.93702000  0.63130000  0.32592000  1.0 -0.3114213775
