# DDEC6 charges by PACMAN v1.1 (https://github.com/mtap-research/PACMAN-charge/)
data_MORZID_ASR_pacman
_symmetry_space_group_name_H-M   'P 1'
_cell_length_a   8.23190000
_cell_length_b   9.16500000
_cell_length_c   17.58000000
_cell_angle_alpha   90.00000000
_cell_angle_beta   90.00000000
_cell_angle_gamma   90.00000000
_symmetry_Int_Tables_number   1
_chemical_formula_structural   AlPO4
_chemical_formula_sum   'Al12 P12 O48'
_cell_volume   1326.32949033
_cell_formula_units_Z   12
loop_
 _symmetry_equiv_pos_site_id
 _symmetry_equiv_pos_as_xyz
  1  'x, y, z'
loop_
 _atom_site_type_symbol
 _atom_site_label
 _atom_site_symmetry_multiplicity
 _atom_site_fract_x
 _atom_site_fract_y
 _atom_site_fract_z
 _atom_site_occupancy
 _atom_site_charge
Al  Al1  1  0.86130000  0.86880000  0.56605000  1.0 1.7713875166
Al  Al2  1  0.63870000  0.13120000  0.06605000  1.0 1.7713875166
Al  Al3  1  0.13870000  0.36880000  0.93395000  1.0 1.7713875166
Al  Al4  1  0.36130000  0.63120000  0.43395000  1.0 1.7713875166
Al  Al5  1  0.93970000  0.41220000  0.46845000  1.0 1.739714726
Al  Al6  1  0.56030000  0.58780000  0.96845000  1.0 1.739714726
Al  Al7  1  0.06030000  0.91220000  0.03155000  1.0 1.739714726
Al  Al8  1  0.43970000  0.08780000  0.53155000  1.0 1.739714726
Al  Al9  1  0.44260000  0.58530000  0.66700000  1.0 1.739714726
Al  Al10  1  0.05740000  0.41470000  0.16700000  1.0 1.739714726
Al  Al11  1  0.55740000  0.08530000  0.83300000  1.0 1.739714726
Al  Al12  1  0.94260000  0.91470000  0.33300000  1.0 1.739714726
P  P1  1  0.13350000  0.63110000  0.57117000  1.0 1.5377833239
P  P2  1  0.36650000  0.36890000  0.07117000  1.0 1.5321999865
P  P3  1  0.86650000  0.13110000  0.92883000  1.0 1.5321999865
P  P4  1  0.63350000  0.86890000  0.42883000  1.0 1.5321999865
P  P5  1  0.07070000  0.09050000  0.47317000  1.0 1.5321999865
P  P6  1  0.42930000  0.90950000  0.97317000  1.0 1.5321999865
P  P7  1  0.92930000  0.59050000  0.02683000  1.0 1.5321999865
P  P8  1  0.57070000  0.40950000  0.52683000  1.0 1.5321999865
P  P9  1  0.56410000  0.91540000  0.67268000  1.0 1.4981164328
P  P10  1  0.93590000  0.08460000  0.17268000  1.0 1.4946666352
P  P11  1  0.43590000  0.41540000  0.82732000  1.0 1.4981164328
P  P12  1  0.06410000  0.58460000  0.32732000  1.0 1.4981164328
O  O1  1  0.96430000  0.03310000  0.53600000  1.0 -0.8454367378
O  O2  1  0.53570000  0.96690000  0.03600000  1.0 -0.8454367378
O  O3  1  0.03570000  0.53310000  0.96400000  1.0 -0.8454367378
O  O4  1  0.46430000  0.46690000  0.46400000  1.0 -0.8454367378
O  O5  1  0.01430000  0.24200000  0.45050000  1.0 -0.8036265481
O  O6  1  0.48570000  0.75800000  0.95050000  1.0 -0.8036265481
O  O7  1  0.98570000  0.74200000  0.04950000  1.0 -0.8036265481
O  O8  1  0.51430000  0.25800000  0.54950000  1.0 -0.8036265481
O  O9  1  0.24460000  0.09790000  0.50110000  1.0 -0.7731043406
O  O10  1  0.25540000  0.90210000  0.00110000  1.0 -0.7731043406
O  O11  1  0.75540000  0.59790000  0.99890000  1.0 -0.7731043406
O  O12  1  0.74460000  0.40210000  0.49890000  1.0 -0.7731043406
O  O13  1  0.45140000  0.98770000  0.61460000  1.0 -0.8242217013
O  O14  1  0.04860000  0.01230000  0.11460000  1.0 -0.8242217013
O  O15  1  0.54860000  0.48770000  0.88540000  1.0 -0.8242217013
O  O16  1  0.95140000  0.51230000  0.38540000  1.0 -0.8242217013
O  O17  1  0.50750000  0.75870000  0.68260000  1.0 -0.8036265481
O  O18  1  0.99250000  0.24130000  0.18260000  1.0 -0.8036265481
O  O19  1  0.49250000  0.25870000  0.81740000  1.0 -0.8036265481
O  O20  1  0.00750000  0.74130000  0.31740000  1.0 -0.8036265481
O  O21  1  0.73840000  0.92110000  0.64590000  1.0 -0.8242217013
O  O22  1  0.76160000  0.07890000  0.14590000  1.0 -0.8242217013
O  O23  1  0.26160000  0.42110000  0.85410000  1.0 -0.8242217013
O  O24  1  0.23840000  0.57890000  0.35410000  1.0 -0.8242217013
O  O25  1  0.54810000  0.98920000  0.74830000  1.0 -0.7848477372
O  O26  1  0.95190000  0.01080000  0.24830000  1.0 -0.7848477372
O  O27  1  0.45190000  0.48920000  0.75170000  1.0 -0.7848477372
O  O28  1  0.04810000  0.51080000  0.25170000  1.0 -0.7848477372
O  O29  1  0.06620000  0.99490000  0.40240000  1.0 -0.8406574883
O  O30  1  0.43380000  0.00510000  0.90240000  1.0 -0.8406574883
O  O31  1  0.93380000  0.49490000  0.09760000  1.0 -0.8406574883
O  O32  1  0.56620000  0.50510000  0.59760000  1.0 -0.8406574883
O  O33  1  0.23480000  0.58700000  0.64020000  1.0 -0.8072488912
O  O34  1  0.26520000  0.41300000  0.14020000  1.0 -0.8072488912
O  O35  1  0.76520000  0.08700000  0.85980000  1.0 -0.8072488912
O  O36  1  0.73480000  0.91300000  0.35980000  1.0 -0.8072488912
O  O37  1  0.05550000  0.49430000  0.53860000  1.0 -0.8294581928
O  O38  1  0.44450000  0.50570000  0.03860000  1.0 -0.8294581928
O  O39  1  0.94450000  0.99430000  0.96140000  1.0 -0.8294581928
O  O40  1  0.55550000  0.00570000  0.46140000  1.0 -0.8294581928
O  O41  1  0.23850000  0.70500000  0.51120000  1.0 -0.8737903245
O  O42  1  0.26150000  0.29500000  0.01120000  1.0 -0.8737903245
O  O43  1  0.76150000  0.20500000  0.98880000  1.0 -0.8737903245
O  O44  1  0.73850000  0.79500000  0.48880000  1.0 -0.8737903245
O  O45  1  0.00180000  0.73320000  0.59990000  1.0 -0.8036265481
O  O46  1  0.49820000  0.26680000  0.09990000  1.0 -0.8036265481
O  O47  1  0.99820000  0.23320000  0.90010000  1.0 -0.8036265481
O  O48  1  0.50180000  0.76680000  0.40010000  1.0 -0.8036265481
