# DDEC6 charges by PACMAN v1.1 (https://github.com/mtap-research/PACMAN-charge/)
data_MOSBIG_FSR_pacman
_symmetry_space_group_name_H-M   'P 1'
_cell_length_a   8.01540000
_cell_length_b   15.32200000
_cell_length_c   30.17500000
_cell_angle_alpha   90.00000000
_cell_angle_beta   90.00000000
_cell_angle_gamma   90.00000000
_symmetry_Int_Tables_number   1
_chemical_formula_structural   Eu2H29C29N5O16
_chemical_formula_sum   'Eu8 H116 C116 N20 O64'
_cell_volume   3705.85085679
_cell_formula_units_Z   4
loop_
 _symmetry_equiv_pos_site_id
 _symmetry_equiv_pos_as_xyz
  1  'x, y, z'
loop_
 _atom_site_type_symbol
 _atom_site_label
 _atom_site_symmetry_multiplicity
 _atom_site_fract_x
 _atom_site_fract_y
 _atom_site_fract_z
 _atom_site_occupancy
 _atom_site_charge
Eu  Eu1  1  0.43541000  0.70442000  0.90717000  1.0 2.0854919015
Eu  Eu2  1  0.06459000  0.20442000  0.09283000  1.0 2.0854919015
Eu  Eu3  1  0.93541000  0.79558000  0.59283000  1.0 2.0854919015
Eu  Eu4  1  0.56459000  0.29558000  0.40717000  1.0 2.0854919015
Eu  Eu5  1  0.56459000  0.29558000  0.09283000  1.0 2.0854919015
Eu  Eu6  1  0.93541000  0.79558000  0.90717000  1.0 2.0854919015
Eu  Eu7  1  0.06459000  0.20442000  0.40717000  1.0 2.0854919015
Eu  Eu8  1  0.43541000  0.70442000  0.59283000  1.0 2.0854919015
H  H1  1  0.88540000  0.65900000  0.04320000  1.0 0.1177876044
H  H2  1  0.61460000  0.15900000  0.95680000  1.0 0.1177876044
H  H3  1  0.38540000  0.84100000  0.45680000  1.0 0.1177876044
H  H4  1  0.11460000  0.34100000  0.54320000  1.0 0.1177876044
H  H5  1  0.11460000  0.34100000  0.95680000  1.0 0.1177876044
H  H6  1  0.38540000  0.84100000  0.04320000  1.0 0.1177876044
H  H7  1  0.61460000  0.15900000  0.54320000  1.0 0.1177876044
H  H8  1  0.88540000  0.65900000  0.45680000  1.0 0.1177876044
H  H9  1  0.00000000  0.45110000  0.11060000  1.0 0.1314252017
H  H10  1  0.50000000  0.95110000  0.88940000  1.0 0.1314252017
H  H11  1  0.50000000  0.04890000  0.38940000  1.0 0.1314252017
H  H12  1  0.00000000  0.54890000  0.61060000  1.0 0.1314252017
H  H13  1  0.00000000  0.54890000  0.88940000  1.0 0.1314252017
H  H14  1  0.50000000  0.04890000  0.11060000  1.0 0.1314252017
H  H15  1  0.50000000  0.95110000  0.61060000  1.0 0.1314252017
H  H16  1  0.00000000  0.45110000  0.38940000  1.0 0.1314252017
H  H17  1  0.29290000  0.52110000  0.00860000  1.0 0.1387420434
H  H18  1  0.20710000  0.02110000  0.99140000  1.0 0.1314252017
H  H19  1  0.79290000  0.97890000  0.49140000  1.0 0.1387420434
H  H20  1  0.70710000  0.47890000  0.50860000  1.0 0.1387420434
H  H21  1  0.70710000  0.47890000  0.99140000  1.0 0.1314252017
H  H22  1  0.79290000  0.97890000  0.00860000  1.0 0.1387420434
H  H23  1  0.20710000  0.02110000  0.50860000  1.0 0.1387420434
H  H24  1  0.29290000  0.52110000  0.49140000  1.0 0.1387420434
H  H25  1  0.27300000  0.56500000  0.81490000  1.0 0.1177876044
H  H26  1  0.22700000  0.06500000  0.18510000  1.0 0.1177876044
H  H27  1  0.77300000  0.93500000  0.68510000  1.0 0.1177876044
H  H28  1  0.72700000  0.43500000  0.31490000  1.0 0.1177876044
H  H29  1  0.72700000  0.43500000  0.18510000  1.0 0.1177876044
H  H30  1  0.77300000  0.93500000  0.81490000  1.0 0.1177876044
H  H31  1  0.22700000  0.06500000  0.31490000  1.0 0.1177876044
H  H32  1  0.27300000  0.56500000  0.68510000  1.0 0.1177876044
H  H33  1  0.03180000  0.75540000  0.75000000  1.0 0.1387420434
H  H34  1  0.46820000  0.25540000  0.25000000  1.0 0.1387420434
H  H35  1  0.53180000  0.74460000  0.75000000  1.0 0.1387420434
H  H36  1  0.96820000  0.24460000  0.25000000  1.0 0.1387420434
H  H37  1  0.40680000  0.49410000  0.93600000  1.0 0.1081393196
H  H38  1  0.09320000  0.99410000  0.06400000  1.0 0.1081393196
H  H39  1  0.90680000  0.00590000  0.56400000  1.0 0.1081393196
H  H40  1  0.59320000  0.50590000  0.43600000  1.0 0.1081393196
H  H41  1  0.59320000  0.50590000  0.06400000  1.0 0.1081393196
H  H42  1  0.90680000  0.00590000  0.93600000  1.0 0.1081393196
H  H43  1  0.09320000  0.99410000  0.43600000  1.0 0.1081393196
H  H44  1  0.40680000  0.49410000  0.56400000  1.0 0.1081393196
H  H45  1  0.43610000  0.35630000  0.95530000  1.0 0.1387420434
H  H46  1  0.06390000  0.85630000  0.04470000  1.0 0.1450737326
H  H47  1  0.93610000  0.14370000  0.54470000  1.0 0.1450737326
H  H48  1  0.56390000  0.64370000  0.45530000  1.0 0.1450737326
H  H49  1  0.56390000  0.64370000  0.04470000  1.0 0.1450737326
H  H50  1  0.93610000  0.14370000  0.95530000  1.0 0.1387420434
H  H51  1  0.06390000  0.85630000  0.45530000  1.0 0.1450737326
H  H52  1  0.43610000  0.35630000  0.54470000  1.0 0.1450737326
H  H53  1  0.59210000  0.31360000  0.93030000  1.0 0.1387420434
H  H54  1  0.90790000  0.81360000  0.06970000  1.0 0.1387420434
H  H55  1  0.09210000  0.18640000  0.56970000  1.0 0.1387420434
H  H56  1  0.40790000  0.68640000  0.43030000  1.0 0.1387420434
H  H57  1  0.40790000  0.68640000  0.06970000  1.0 0.1387420434
H  H58  1  0.09210000  0.18640000  0.93030000  1.0 0.1387420434
H  H59  1  0.90790000  0.81360000  0.43030000  1.0 0.1387420434
H  H60  1  0.59210000  0.31360000  0.56970000  1.0 0.1387420434
H  H61  1  0.40610000  0.28940000  0.91540000  1.0 0.1387420434
H  H62  1  0.09390000  0.78940000  0.08460000  1.0 0.1387420434
H  H63  1  0.90610000  0.21060000  0.58460000  1.0 0.1387420434
H  H64  1  0.59390000  0.71060000  0.41540000  1.0 0.1387420434
H  H65  1  0.59390000  0.71060000  0.08460000  1.0 0.1387420434
H  H66  1  0.90610000  0.21060000  0.91540000  1.0 0.1387420434
H  H67  1  0.09390000  0.78940000  0.41540000  1.0 0.1387420434
H  H68  1  0.40610000  0.28940000  0.58460000  1.0 0.1387420434
H  H69  1  0.58900000  0.44340000  0.83610000  1.0 0.0951724185
H  H70  1  0.91100000  0.94340000  0.16390000  1.0 0.0951724185
H  H71  1  0.08900000  0.05660000  0.66390000  1.0 0.0902403055
H  H72  1  0.41100000  0.55660000  0.33610000  1.0 0.0951724185
H  H73  1  0.41100000  0.55660000  0.16390000  1.0 0.0951724185
H  H74  1  0.08900000  0.05660000  0.83610000  1.0 0.0902403055
H  H75  1  0.91100000  0.94340000  0.33610000  1.0 0.0951724185
H  H76  1  0.58900000  0.44340000  0.66390000  1.0 0.0951724185
H  H77  1  0.55270000  0.34100000  0.84040000  1.0 0.0615667078
H  H78  1  0.94730000  0.84100000  0.15960000  1.0 0.0615667078
H  H79  1  0.05270000  0.15900000  0.65960000  1.0 0.0615667078
H  H80  1  0.44730000  0.65900000  0.34040000  1.0 0.0615667078
H  H81  1  0.44730000  0.65900000  0.15960000  1.0 0.0615667078
H  H82  1  0.05270000  0.15900000  0.84040000  1.0 0.0615667078
H  H83  1  0.94730000  0.84100000  0.34040000  1.0 0.0615667078
H  H84  1  0.55270000  0.34100000  0.65960000  1.0 0.0615667078
H  H85  1  0.70520000  0.38390000  0.86680000  1.0 0.1081393196
H  H86  1  0.79480000  0.88390000  0.13320000  1.0 0.1081393196
H  H87  1  0.20520000  0.11610000  0.63320000  1.0 0.1081393196
H  H88  1  0.29480000  0.61610000  0.36680000  1.0 0.1081393196
H  H89  1  0.29480000  0.61610000  0.13320000  1.0 0.1081393196
H  H90  1  0.20520000  0.11610000  0.86680000  1.0 0.1081393196
H  H91  1  0.79480000  0.88390000  0.36680000  1.0 0.1081393196
H  H92  1  0.70520000  0.38390000  0.63320000  1.0 0.1081393196
H  H93  1  0.30520000  0.37720000  0.66060000  1.0 0.2980518883
H  H94  1  0.19480000  0.87720000  0.33940000  1.0 0.2980518883
H  H95  1  0.80520000  0.12280000  0.83940000  1.0 0.2980518883
H  H96  1  0.69480000  0.62280000  0.16060000  1.0 0.2980518883
H  H97  1  0.69480000  0.62280000  0.33940000  1.0 0.2980518883
H  H98  1  0.80520000  0.12280000  0.66060000  1.0 0.2980518883
H  H99  1  0.19480000  0.87720000  0.16060000  1.0 0.2980518883
H  H100  1  0.30520000  0.37720000  0.83940000  1.0 0.2980518883
H  H101  1  0.48640000  0.33680000  0.66930000  1.0 0.077901998
H  H102  1  0.01360000  0.83680000  0.33070000  1.0 0.077901998
H  H103  1  0.98640000  0.16320000  0.83070000  1.0 0.077901998
H  H104  1  0.51360000  0.66320000  0.16930000  1.0 0.077901998
H  H105  1  0.51360000  0.66320000  0.33070000  1.0 0.077901998
H  H106  1  0.98640000  0.16320000  0.66930000  1.0 0.077901998
H  H107  1  0.01360000  0.83680000  0.16930000  1.0 0.077901998
H  H108  1  0.48640000  0.33680000  0.83070000  1.0 0.077901998
H  H109  1  0.45340000  0.43850000  0.67770000  1.0 0.077901998
H  H110  1  0.04660000  0.93850000  0.32230000  1.0 0.077901998
H  H111  1  0.95340000  0.06150000  0.82230000  1.0 0.077901998
H  H112  1  0.54660000  0.56150000  0.17770000  1.0 0.077901998
H  H113  1  0.54660000  0.56150000  0.32230000  1.0 0.077901998
H  H114  1  0.95340000  0.06150000  0.67770000  1.0 0.077901998
H  H115  1  0.04660000  0.93850000  0.17770000  1.0 0.077901998
H  H116  1  0.45340000  0.43850000  0.82230000  1.0 0.077901998
C  C1  1  0.11710000  0.65820000  0.98000000  1.0 0.6380313022
C  C2  1  0.38290000  0.15820000  0.02000000  1.0 0.6380313022
C  C3  1  0.61710000  0.84180000  0.52000000  1.0 0.6380313022
C  C4  1  0.88290000  0.34180000  0.48000000  1.0 0.6380313022
C  C5  1  0.88290000  0.34180000  0.02000000  1.0 0.6380313022
C  C6  1  0.61710000  0.84180000  0.98000000  1.0 0.6380313022
C  C7  1  0.38290000  0.15820000  0.48000000  1.0 0.6380313022
C  C8  1  0.11710000  0.65820000  0.52000000  1.0 0.6380313022
C  C9  1  0.09260000  0.60020000  0.01950000  1.0 -0.077738975
C  C10  1  0.40740000  0.10020000  0.98050000  1.0 -0.077738975
C  C11  1  0.59260000  0.89980000  0.48050000  1.0 -0.077738975
C  C12  1  0.90740000  0.39980000  0.51950000  1.0 -0.077738975
C  C13  1  0.90740000  0.39980000  0.98050000  1.0 -0.077738975
C  C14  1  0.59260000  0.89980000  0.01950000  1.0 -0.077738975
C  C15  1  0.40740000  0.10020000  0.51950000  1.0 -0.077738975
C  C16  1  0.09260000  0.60020000  0.48050000  1.0 -0.077738975
C  C17  1  0.95860000  0.61140000  0.04840000  1.0 0.066080576
C  C18  1  0.54140000  0.11140000  0.95160000  1.0 0.066080576
C  C19  1  0.45860000  0.88860000  0.45160000  1.0 0.066080576
C  C20  1  0.04140000  0.38860000  0.54840000  1.0 0.066080576
C  C21  1  0.04140000  0.38860000  0.95160000  1.0 0.066080576
C  C22  1  0.45860000  0.88860000  0.04840000  1.0 0.066080576
C  C23  1  0.54140000  0.11140000  0.54840000  1.0 0.066080576
C  C24  1  0.95860000  0.61140000  0.45160000  1.0 0.066080576
C  C25  1  0.02520000  0.49080000  0.08740000  1.0 0.077901998
C  C26  1  0.47480000  0.99080000  0.91260000  1.0 0.077901998
C  C27  1  0.52520000  0.00920000  0.41260000  1.0 0.077901998
C  C28  1  0.97480000  0.50920000  0.58740000  1.0 0.077901998
C  C29  1  0.97480000  0.50920000  0.91260000  1.0 0.077901998
C  C30  1  0.52520000  0.00920000  0.08740000  1.0 0.077901998
C  C31  1  0.47480000  0.99080000  0.58740000  1.0 0.077901998
C  C32  1  0.02520000  0.49080000  0.41260000  1.0 0.077901998
C  C33  1  0.16220000  0.47270000  0.06060000  1.0 -0.0709697602
C  C34  1  0.33780000  0.97270000  0.93940000  1.0 -0.0709697602
C  C35  1  0.66220000  0.02730000  0.43940000  1.0 -0.0709697602
C  C36  1  0.83780000  0.52730000  0.56060000  1.0 -0.0709697602
C  C37  1  0.83780000  0.52730000  0.93940000  1.0 -0.0709697602
C  C38  1  0.66220000  0.02730000  0.06060000  1.0 -0.0709697602
C  C39  1  0.33780000  0.97270000  0.56060000  1.0 -0.0709697602
C  C40  1  0.16220000  0.47270000  0.43940000  1.0 -0.0709697602
C  C41  1  0.19750000  0.52980000  0.02680000  1.0 -0.077738975
C  C42  1  0.30250000  0.02980000  0.97320000  1.0 -0.077738975
C  C43  1  0.69750000  0.97020000  0.47320000  1.0 -0.077738975
C  C44  1  0.80250000  0.47020000  0.52680000  1.0 -0.077738975
C  C45  1  0.80250000  0.47020000  0.97320000  1.0 -0.077738975
C  C46  1  0.69750000  0.97020000  0.02680000  1.0 -0.077738975
C  C47  1  0.30250000  0.02980000  0.52680000  1.0 -0.077738975
C  C48  1  0.19750000  0.52980000  0.47320000  1.0 -0.077738975
C  C49  1  0.26820000  0.39410000  0.06620000  1.0 0.6039591639
C  C50  1  0.23180000  0.89410000  0.93380000  1.0 0.6039591639
C  C51  1  0.76820000  0.10590000  0.43380000  1.0 0.6039591639
C  C52  1  0.73180000  0.60590000  0.56620000  1.0 0.6039591639
C  C53  1  0.73180000  0.60590000  0.93380000  1.0 0.6039591639
C  C54  1  0.76820000  0.10590000  0.06620000  1.0 0.6039591639
C  C55  1  0.23180000  0.89410000  0.56620000  1.0 0.6039591639
C  C56  1  0.26820000  0.39410000  0.43380000  1.0 0.6039591639
C  C57  1  0.09430000  0.71000000  0.83200000  1.0 0.619123107
C  C58  1  0.40570000  0.21000000  0.16800000  1.0 0.619123107
C  C59  1  0.59430000  0.79000000  0.66800000  1.0 0.619123107
C  C60  1  0.90570000  0.29000000  0.33200000  1.0 0.619123107
C  C61  1  0.90570000  0.29000000  0.16800000  1.0 0.619123107
C  C62  1  0.59430000  0.79000000  0.83200000  1.0 0.619123107
C  C63  1  0.40570000  0.21000000  0.33200000  1.0 0.619123107
C  C64  1  0.09430000  0.71000000  0.66800000  1.0 0.619123107
C  C65  1  0.14800000  0.66860000  0.78960000  1.0 -0.0709697602
C  C66  1  0.35200000  0.16860000  0.21040000  1.0 -0.0709697602
C  C67  1  0.64800000  0.83140000  0.71040000  1.0 -0.0709697602
C  C68  1  0.85200000  0.33140000  0.28960000  1.0 -0.0709697602
C  C69  1  0.85200000  0.33140000  0.21040000  1.0 -0.0709697602
C  C70  1  0.64800000  0.83140000  0.78960000  1.0 -0.0709697602
C  C71  1  0.35200000  0.16860000  0.28960000  1.0 -0.0709697602
C  C72  1  0.14800000  0.66860000  0.71040000  1.0 -0.0709697602
C  C73  1  0.24200000  0.59170000  0.78770000  1.0 0.0902403055
C  C74  1  0.25800000  0.09170000  0.21230000  1.0 0.0902403055
C  C75  1  0.74200000  0.90830000  0.71230000  1.0 0.0902403055
C  C76  1  0.75800000  0.40830000  0.28770000  1.0 0.0902403055
C  C77  1  0.75800000  0.40830000  0.21230000  1.0 0.0902403055
C  C78  1  0.74200000  0.90830000  0.78770000  1.0 0.0902403055
C  C79  1  0.25800000  0.09170000  0.28770000  1.0 0.0902403055
C  C80  1  0.24200000  0.59170000  0.71230000  1.0 0.0902403055
C  C81  1  0.09970000  0.70460000  0.75000000  1.0 -0.062112578
C  C82  1  0.40030000  0.20460000  0.25000000  1.0 -0.062112578
C  C83  1  0.59970000  0.79540000  0.75000000  1.0 -0.062112578
C  C84  1  0.90030000  0.29540000  0.25000000  1.0 -0.062112578
C  C85  1  0.43920000  0.48690000  0.90590000  1.0 0.2565857826
C  C86  1  0.06080000  0.98690000  0.09410000  1.0 0.2565857826
C  C87  1  0.93920000  0.01310000  0.59410000  1.0 0.2565857826
C  C88  1  0.56080000  0.51310000  0.40590000  1.0 0.2565857826
C  C89  1  0.56080000  0.51310000  0.09410000  1.0 0.2565857826
C  C90  1  0.93920000  0.01310000  0.90590000  1.0 0.2565857826
C  C91  1  0.06080000  0.98690000  0.40590000  1.0 0.2565857826
C  C92  1  0.43920000  0.48690000  0.59410000  1.0 0.2565857826
C  C93  1  0.47840000  0.33600000  0.92660000  1.0 -0.3576396646
C  C94  1  0.02160000  0.83600000  0.07340000  1.0 -0.3576396646
C  C95  1  0.97840000  0.16400000  0.57340000  1.0 -0.3576396646
C  C96  1  0.52160000  0.66400000  0.42660000  1.0 -0.3576396646
C  C97  1  0.52160000  0.66400000  0.07340000  1.0 -0.3576396646
C  C98  1  0.97840000  0.16400000  0.92660000  1.0 -0.3576396646
C  C99  1  0.02160000  0.83600000  0.42660000  1.0 -0.3576396646
C  C100  1  0.47840000  0.33600000  0.57340000  1.0 -0.3576396646
C  C101  1  0.59100000  0.39320000  0.85620000  1.0 -0.1592589658
C  C102  1  0.90900000  0.89320000  0.14380000  1.0 -0.1592589658
C  C103  1  0.09100000  0.10680000  0.64380000  1.0 -0.1592589658
C  C104  1  0.40900000  0.60680000  0.35620000  1.0 -0.1592589658
C  C105  1  0.40900000  0.60680000  0.14380000  1.0 -0.1592589658
C  C106  1  0.09100000  0.10680000  0.85620000  1.0 -0.1592589658
C  C107  1  0.90900000  0.89320000  0.35620000  1.0 -0.1592589658
C  C108  1  0.59100000  0.39320000  0.64380000  1.0 -0.1592589658
C  C109  1  0.42500000  0.38800000  0.65900000  1.0 -0.1657292487
C  C110  1  0.07500000  0.88800000  0.34100000  1.0 -0.1657292487
C  C111  1  0.92500000  0.11200000  0.84100000  1.0 -0.1592589658
C  C112  1  0.57500000  0.61200000  0.15900000  1.0 -0.1592589658
C  C113  1  0.57500000  0.61200000  0.34100000  1.0 -0.1592589658
C  C114  1  0.92500000  0.11200000  0.65900000  1.0 -0.1592589658
C  C115  1  0.07500000  0.88800000  0.15900000  1.0 -0.1657292487
C  C116  1  0.42500000  0.38800000  0.84100000  1.0 -0.1657292487
N  N1  1  0.92700000  0.56030000  0.08240000  1.0 -0.2140764461
N  N2  1  0.57300000  0.06030000  0.91760000  1.0 -0.2140764461
N  N3  1  0.42700000  0.93970000  0.41760000  1.0 -0.2140764461
N  N4  1  0.07300000  0.43970000  0.58240000  1.0 -0.2140764461
N  N5  1  0.07300000  0.43970000  0.91760000  1.0 -0.2140764461
N  N6  1  0.42700000  0.93970000  0.08240000  1.0 -0.2140764461
N  N7  1  0.57300000  0.06030000  0.58240000  1.0 -0.2140764461
N  N8  1  0.92700000  0.56030000  0.41760000  1.0 -0.2140764461
N  N9  1  0.29150000  0.55310000  0.75000000  1.0 -0.2647693397
N  N10  1  0.20850000  0.05310000  0.25000000  1.0 -0.2654085996
N  N11  1  0.79150000  0.94690000  0.75000000  1.0 -0.2647693397
N  N12  1  0.70850000  0.44690000  0.25000000  1.0 -0.2647693397
N  N13  1  0.47960000  0.41040000  0.89440000  1.0 0.077901998
N  N14  1  0.02040000  0.91040000  0.10560000  1.0 0.077901998
N  N15  1  0.97960000  0.08960000  0.60560000  1.0 0.077901998
N  N16  1  0.52040000  0.58960000  0.39440000  1.0 0.077901998
N  N17  1  0.52040000  0.58960000  0.10560000  1.0 0.077901998
N  N18  1  0.97960000  0.08960000  0.89440000  1.0 0.077901998
N  N19  1  0.02040000  0.91040000  0.39440000  1.0 0.077901998
N  N20  1  0.47960000  0.41040000  0.60560000  1.0 0.077901998
O  O1  1  0.66800000  0.16640000  0.84070000  1.0 -0.4632959308
O  O2  1  0.83200000  0.66640000  0.15930000  1.0 -0.4655728878
O  O3  1  0.16800000  0.33360000  0.65930000  1.0 -0.4655728878
O  O4  1  0.33200000  0.83360000  0.34070000  1.0 -0.4655728878
O  O5  1  0.33200000  0.83360000  0.15930000  1.0 -0.4655728878
O  O6  1  0.16800000  0.33360000  0.84070000  1.0 -0.4632959308
O  O7  1  0.83200000  0.66640000  0.34070000  1.0 -0.4632959308
O  O8  1  0.66800000  0.16640000  0.65930000  1.0 -0.4632959308
O  O9  1  0.25420000  0.65000000  0.95990000  1.0 -0.6785050573
O  O10  1  0.24580000  0.15000000  0.04010000  1.0 -0.6785050573
O  O11  1  0.75420000  0.85000000  0.54010000  1.0 -0.6785050573
O  O12  1  0.74580000  0.35000000  0.45990000  1.0 -0.6785050573
O  O13  1  0.74580000  0.35000000  0.04010000  1.0 -0.6785050573
O  O14  1  0.75420000  0.85000000  0.95990000  1.0 -0.6785050573
O  O15  1  0.24580000  0.15000000  0.45990000  1.0 -0.6785050573
O  O16  1  0.25420000  0.65000000  0.54010000  1.0 -0.6785050573
O  O17  1  0.00120000  0.70880000  0.96990000  1.0 -0.6400762888
O  O18  1  0.49880000  0.20880000  0.03010000  1.0 -0.6400762888
O  O19  1  0.50120000  0.79120000  0.53010000  1.0 -0.6400762888
O  O20  1  0.99880000  0.29120000  0.46990000  1.0 -0.6400762888
O  O21  1  0.99880000  0.29120000  0.03010000  1.0 -0.6400762888
O  O22  1  0.50120000  0.79120000  0.96990000  1.0 -0.6400762888
O  O23  1  0.49880000  0.20880000  0.46990000  1.0 -0.6400762888
O  O24  1  0.00120000  0.70880000  0.53010000  1.0 -0.6400762888
O  O25  1  0.39190000  0.38500000  0.04200000  1.0 -0.5813440176
O  O26  1  0.10810000  0.88500000  0.95800000  1.0 -0.5813440176
O  O27  1  0.89190000  0.11500000  0.45800000  1.0 -0.5813440176
O  O28  1  0.60810000  0.61500000  0.54200000  1.0 -0.5813440176
O  O29  1  0.60810000  0.61500000  0.95800000  1.0 -0.5813440176
O  O30  1  0.89190000  0.11500000  0.04200000  1.0 -0.5813440176
O  O31  1  0.10810000  0.88500000  0.54200000  1.0 -0.5813440176
O  O32  1  0.39190000  0.38500000  0.45800000  1.0 -0.5813440176
O  O33  1  0.23600000  0.33720000  0.09690000  1.0 -0.7461823689
O  O34  1  0.26400000  0.83720000  0.90310000  1.0 -0.7461823689
O  O35  1  0.73600000  0.16280000  0.40310000  1.0 -0.7461823689
O  O36  1  0.76400000  0.66280000  0.59690000  1.0 -0.7461823689
O  O37  1  0.76400000  0.66280000  0.90310000  1.0 -0.7461823689
O  O38  1  0.73600000  0.16280000  0.09690000  1.0 -0.7461823689
O  O39  1  0.26400000  0.83720000  0.59690000  1.0 -0.7461823689
O  O40  1  0.23600000  0.33720000  0.40310000  1.0 -0.7461823689
O  O41  1  0.15680000  0.68310000  0.86920000  1.0 -0.7386343421
O  O42  1  0.34320000  0.18310000  0.13080000  1.0 -0.7386343421
O  O43  1  0.65680000  0.81690000  0.63080000  1.0 -0.7386343421
O  O44  1  0.84320000  0.31690000  0.36920000  1.0 -0.7386343421
O  O45  1  0.84320000  0.31690000  0.13080000  1.0 -0.7386343421
O  O46  1  0.65680000  0.81690000  0.86920000  1.0 -0.7386343421
O  O47  1  0.34320000  0.18310000  0.36920000  1.0 -0.7386343421
O  O48  1  0.15680000  0.68310000  0.63080000  1.0 -0.7386343421
O  O49  1  0.98770000  0.76950000  0.83050000  1.0 -0.595576057
O  O50  1  0.51230000  0.26950000  0.16950000  1.0 -0.595576057
O  O51  1  0.48770000  0.73050000  0.66950000  1.0 -0.595576057
O  O52  1  0.01230000  0.23050000  0.33050000  1.0 -0.595576057
O  O53  1  0.01230000  0.23050000  0.16950000  1.0 -0.595576057
O  O54  1  0.48770000  0.73050000  0.83050000  1.0 -0.595576057
O  O55  1  0.51230000  0.26950000  0.33050000  1.0 -0.595576057
O  O56  1  0.98770000  0.76950000  0.66950000  1.0 -0.595576057
O  O57  1  0.43690000  0.55410000  0.88250000  1.0 -0.5360558571
O  O58  1  0.06310000  0.05410000  0.11750000  1.0 -0.5360558571
O  O59  1  0.93690000  0.94590000  0.61750000  1.0 -0.5360558571
O  O60  1  0.56310000  0.44590000  0.38250000  1.0 -0.5360558571
O  O61  1  0.56310000  0.44590000  0.11750000  1.0 -0.5360558571
O  O62  1  0.93690000  0.94590000  0.88250000  1.0 -0.5360558571
O  O63  1  0.06310000  0.05410000  0.38250000  1.0 -0.5360558571
O  O64  1  0.43690000  0.55410000  0.61750000  1.0 -0.5360558571
