# DDEC6 charges by PACMAN v1.1 (https://github.com/mtap-research/PACMAN-charge/)
data_MOSDUT_ASR_pacman
_symmetry_space_group_name_H-M   'P 1'
_cell_length_a   13.65500000
_cell_length_b   15.18900000
_cell_length_c   22.36700000
_cell_angle_alpha   90.00000000
_cell_angle_beta   114.10000000
_cell_angle_gamma   90.00000000
_symmetry_Int_Tables_number   1
_chemical_formula_structural   CoH2(CN)7
_chemical_formula_sum   'Co12 H24 C84 N84'
_cell_volume   4234.67920616
_cell_formula_units_Z   12
loop_
 _symmetry_equiv_pos_site_id
 _symmetry_equiv_pos_as_xyz
  1  'x, y, z'
loop_
 _atom_site_type_symbol
 _atom_site_label
 _atom_site_symmetry_multiplicity
 _atom_site_fract_x
 _atom_site_fract_y
 _atom_site_fract_z
 _atom_site_occupancy
 _atom_site_charge
Co  Co1  1  0.78365000  0.25907000  0.53891000  1.0 0.8279178178
Co  Co2  1  0.78365000  0.24093000  0.03891000  1.0 0.8200696317
Co  Co3  1  0.21635000  0.74093000  0.46109000  1.0 0.8200696317
Co  Co4  1  0.21635000  0.75907000  0.96109000  1.0 0.8200696317
Co  Co5  1  0.21584000  0.25703000  0.39695000  1.0 0.8200696317
Co  Co6  1  0.21584000  0.24297000  0.89695000  1.0 0.8200696317
Co  Co7  1  0.78416000  0.74297000  0.60305000  1.0 0.8200696317
Co  Co8  1  0.78416000  0.75703000  0.10305000  1.0 0.8200696317
Co  Co9  1  0.49876000  0.36575000  0.20019000  1.0 0.8937599496
Co  Co10  1  0.49876000  0.13425000  0.70019000  1.0 0.8937599496
Co  Co11  1  0.50124000  0.63425000  0.79981000  1.0 0.8937599496
Co  Co12  1  0.50124000  0.86575000  0.29981000  1.0 0.8990766442
H  H1  1  0.75390000  0.34950000  0.30360000  1.0 0.1213939449
H  H2  1  0.75390000  0.15050000  0.80360000  1.0 0.1213939449
H  H3  1  0.24610000  0.65050000  0.69640000  1.0 0.1213939449
H  H4  1  0.24610000  0.84950000  0.19640000  1.0 0.1213939449
H  H5  1  0.84740000  0.31980000  0.41410000  1.0 0.1213939449
H  H6  1  0.84740000  0.18020000  0.91410000  1.0 0.1213939449
H  H7  1  0.15260000  0.68020000  0.58590000  1.0 0.1213939449
H  H8  1  0.15260000  0.81980000  0.08590000  1.0 0.1213939449
H  H9  1  0.59350000  0.23010000  0.58990000  1.0 0.1289642241
H  H10  1  0.59350000  0.26990000  0.08990000  1.0 0.1289642241
H  H11  1  0.40650000  0.76990000  0.41010000  1.0 0.1289642241
H  H12  1  0.40650000  0.73010000  0.91010000  1.0 0.1289642241
H  H13  1  0.40660000  0.23270000  0.54360000  1.0 0.1289642241
H  H14  1  0.40660000  0.26730000  0.04360000  1.0 0.1289642241
H  H15  1  0.59340000  0.76730000  0.45640000  1.0 0.1289642241
H  H16  1  0.59340000  0.73270000  0.95640000  1.0 0.1289642241
H  H17  1  0.15340000  0.30550000  0.23930000  1.0 0.1289642241
H  H18  1  0.15340000  0.19450000  0.73930000  1.0 0.1289642241
H  H19  1  0.84660000  0.69450000  0.76070000  1.0 0.1289642241
H  H20  1  0.84660000  0.80550000  0.26070000  1.0 0.1289642241
H  H21  1  0.24650000  0.33720000  0.17620000  1.0 0.1031718587
H  H22  1  0.24650000  0.16280000  0.67620000  1.0 0.1031718587
H  H23  1  0.75350000  0.66280000  0.82380000  1.0 0.1031718587
H  H24  1  0.75350000  0.83720000  0.32380000  1.0 0.1031718587
C  C1  1  0.50600000  0.14320000  0.18820000  1.0 0.4769670138
C  C2  1  0.50600000  0.35680000  0.68820000  1.0 0.472875092
C  C3  1  0.49400000  0.85680000  0.81180000  1.0 0.472875092
C  C4  1  0.49400000  0.64320000  0.31180000  1.0 0.472875092
C  C5  1  0.61320000  0.29720000  0.40550000  1.0 0.0894857519
C  C6  1  0.61320000  0.20280000  0.90550000  1.0 0.0894857519
C  C7  1  0.38680000  0.70280000  0.59450000  1.0 0.0894857519
C  C8  1  0.38680000  0.79720000  0.09450000  1.0 0.0894857519
C  C9  1  0.55320000  0.27520000  0.44510000  1.0 0.0707218385
C  C10  1  0.55320000  0.22480000  0.94510000  1.0 0.0707218385
C  C11  1  0.44680000  0.72480000  0.55490000  1.0 0.0707218385
C  C12  1  0.44680000  0.77520000  0.05490000  1.0 0.0707218385
C  C13  1  0.44420000  0.27480000  0.41780000  1.0 0.0894857519
C  C14  1  0.44420000  0.22520000  0.91780000  1.0 0.0894857519
C  C15  1  0.55580000  0.72520000  0.58220000  1.0 0.0894857519
C  C16  1  0.55580000  0.77480000  0.08220000  1.0 0.0894857519
C  C17  1  0.38560000  0.29530000  0.34860000  1.0 0.0802602847
C  C18  1  0.38560000  0.20470000  0.84860000  1.0 0.0802602847
C  C19  1  0.61440000  0.70470000  0.65140000  1.0 0.0802602847
C  C20  1  0.61440000  0.79530000  0.15140000  1.0 0.0802602847
C  C21  1  0.43960000  0.31550000  0.30950000  1.0 0.0894857519
C  C22  1  0.43960000  0.18450000  0.80950000  1.0 0.0894857519
C  C23  1  0.56040000  0.68450000  0.69050000  1.0 0.0894857519
C  C24  1  0.56040000  0.81550000  0.19050000  1.0 0.0894857519
C  C25  1  0.55910000  0.31660000  0.33970000  1.0 0.0802602847
C  C26  1  0.55910000  0.18340000  0.83970000  1.0 0.0802602847
C  C27  1  0.44090000  0.68340000  0.66030000  1.0 0.0802602847
C  C28  1  0.44090000  0.81660000  0.16030000  1.0 0.0802602847
C  C29  1  0.71510000  0.33580000  0.32930000  1.0 0.031286924
C  C30  1  0.71510000  0.16420000  0.82930000  1.0 0.031286924
C  C31  1  0.28490000  0.66420000  0.67070000  1.0 0.031286924
C  C32  1  0.28490000  0.83580000  0.17070000  1.0 0.031286924
C  C33  1  0.77120000  0.31690000  0.39540000  1.0 0.0127546202
C  C34  1  0.77120000  0.18310000  0.89540000  1.0 0.0127546202
C  C35  1  0.22880000  0.68310000  0.60460000  1.0 0.0127546202
C  C36  1  0.22880000  0.81690000  0.10460000  1.0 0.0127546202
C  C37  1  0.55660000  0.24260000  0.54450000  1.0 0.0802602847
C  C38  1  0.55660000  0.25740000  0.04450000  1.0 0.0802602847
C  C39  1  0.44340000  0.75740000  0.45550000  1.0 0.0802602847
C  C40  1  0.44340000  0.74260000  0.95550000  1.0 0.0802602847
C  C41  1  0.44350000  0.24280000  0.51630000  1.0 0.0548061503
C  C42  1  0.44350000  0.25720000  0.01630000  1.0 0.0548061503
C  C43  1  0.55650000  0.75720000  0.48370000  1.0 0.0553803181
C  C44  1  0.55650000  0.74280000  0.98370000  1.0 0.0548061503
C  C45  1  0.22950000  0.30790000  0.25970000  1.0 0.031286924
C  C46  1  0.22950000  0.19210000  0.75970000  1.0 0.031286924
C  C47  1  0.77050000  0.69210000  0.74030000  1.0 0.031286924
C  C48  1  0.77050000  0.80790000  0.24030000  1.0 0.031286924
C  C49  1  0.28550000  0.32690000  0.22170000  1.0 0.004296546
C  C50  1  0.28550000  0.17310000  0.72170000  1.0 0.004296546
C  C51  1  0.71450000  0.67310000  0.77830000  1.0 0.0127546202
C  C52  1  0.71450000  0.82690000  0.27830000  1.0 0.004296546
C  C53  1  0.76270000  0.05830000  0.49070000  1.0 0.4490858351
C  C54  1  0.76270000  0.44170000  0.99070000  1.0 0.4490858351
C  C55  1  0.23730000  0.94170000  0.50930000  1.0 0.4490858351
C  C56  1  0.23730000  0.55830000  0.00930000  1.0 0.4490858351
C  C57  1  0.31500000  0.43930000  0.07260000  1.0 0.4329026898
C  C58  1  0.31500000  0.06070000  0.57260000  1.0 0.4329026898
C  C59  1  0.68500000  0.56070000  0.92740000  1.0 0.4329026898
C  C60  1  0.68500000  0.93930000  0.42740000  1.0 0.4329026898
C  C61  1  0.84520000  0.23540000  0.69000000  1.0 0.4769670138
C  C62  1  0.84520000  0.26460000  0.19000000  1.0 0.4769670138
C  C63  1  0.15480000  0.76460000  0.31000000  1.0 0.4769670138
C  C64  1  0.15480000  0.73540000  0.81000000  1.0 0.4769670138
C  C65  1  0.97390000  0.26910000  0.29380000  1.0 0.4769670138
C  C66  1  0.97390000  0.23090000  0.79380000  1.0 0.4769670138
C  C67  1  0.02610000  0.73090000  0.70620000  1.0 0.4769670138
C  C68  1  0.02610000  0.76910000  0.20620000  1.0 0.4769670138
C  C69  1  0.02700000  0.25330000  0.55780000  1.0 0.3375699071
C  C70  1  0.02700000  0.24670000  0.05780000  1.0 0.3375699071
C  C71  1  0.97300000  0.74670000  0.44220000  1.0 0.3375699071
C  C72  1  0.97300000  0.75330000  0.94220000  1.0 0.3375699071
C  C73  1  0.15490000  0.23920000  0.51810000  1.0 0.3375699071
C  C74  1  0.15490000  0.26080000  0.01810000  1.0 0.3375699071
C  C75  1  0.84510000  0.76080000  0.48190000  1.0 0.3375699071
C  C76  1  0.84510000  0.73920000  0.98190000  1.0 0.3375699071
C  C77  1  0.23610000  0.05600000  0.36000000  1.0 0.4395846685
C  C78  1  0.23610000  0.44400000  0.86000000  1.0 0.4395846685
C  C79  1  0.76390000  0.94400000  0.64000000  1.0 0.4395846685
C  C80  1  0.76390000  0.55600000  0.14000000  1.0 0.4395846685
C  C81  1  0.68680000  0.44220000  0.16430000  1.0 0.4137169158
C  C82  1  0.68680000  0.05780000  0.66430000  1.0 0.4137169158
C  C83  1  0.31320000  0.55780000  0.83570000  1.0 0.4137169158
C  C84  1  0.31320000  0.94220000  0.33570000  1.0 0.4162663257
N  N1  1  0.72050000  0.29460000  0.43380000  1.0 -0.2180675332
N  N2  1  0.72050000  0.20540000  0.93380000  1.0 -0.2180675332
N  N3  1  0.27950000  0.70540000  0.56620000  1.0 -0.2180675332
N  N4  1  0.27950000  0.79460000  0.06620000  1.0 -0.2180675332
N  N5  1  0.61250000  0.25910000  0.51020000  1.0 -0.2180675332
N  N6  1  0.61250000  0.24090000  0.01020000  1.0 -0.2180675332
N  N7  1  0.38750000  0.74090000  0.48980000  1.0 -0.2180675332
N  N8  1  0.38750000  0.75910000  0.98980000  1.0 -0.2180675332
N  N9  1  0.38740000  0.25670000  0.45330000  1.0 -0.2180675332
N  N10  1  0.38740000  0.24330000  0.95330000  1.0 -0.2180675332
N  N11  1  0.61260000  0.74330000  0.54670000  1.0 -0.2180675332
N  N12  1  0.61260000  0.75670000  0.04670000  1.0 -0.2180675332
N  N13  1  0.27810000  0.29300000  0.32310000  1.0 -0.2071039418
N  N14  1  0.27810000  0.20700000  0.82310000  1.0 -0.2071039418
N  N15  1  0.72190000  0.70700000  0.67690000  1.0 -0.2071039418
N  N16  1  0.72190000  0.79300000  0.17690000  1.0 -0.2071039418
N  N17  1  0.39130000  0.33110000  0.24670000  1.0 -0.1812093967
N  N18  1  0.39130000  0.16890000  0.74670000  1.0 -0.1812093967
N  N19  1  0.60870000  0.66890000  0.75330000  1.0 -0.1812093967
N  N20  1  0.60870000  0.83110000  0.25330000  1.0 -0.1812093967
N  N21  1  0.60830000  0.33510000  0.30090000  1.0 -0.1906961689
N  N22  1  0.60830000  0.16490000  0.80090000  1.0 -0.1906961689
N  N23  1  0.39170000  0.66490000  0.69910000  1.0 -0.1906961689
N  N24  1  0.39170000  0.83510000  0.19910000  1.0 -0.1906961689
N  N25  1  0.77130000  0.12890000  0.51110000  1.0 -0.5276789779
N  N26  1  0.77130000  0.37110000  0.01110000  1.0 -0.5276789779
N  N27  1  0.22870000  0.87110000  0.48890000  1.0 -0.5276789779
N  N28  1  0.22870000  0.62890000  0.98890000  1.0 -0.5276789779
N  N29  1  0.76470000  0.97950000  0.47630000  1.0 -0.3993823578
N  N30  1  0.76470000  0.52050000  0.97630000  1.0 -0.3938938642
N  N31  1  0.23530000  0.02050000  0.52370000  1.0 -0.3993823578
N  N32  1  0.23530000  0.47950000  0.02370000  1.0 -0.3993823578
N  N33  1  0.37580000  0.39910000  0.11320000  1.0 -0.4954231644
N  N34  1  0.37580000  0.10090000  0.61320000  1.0 -0.4954231644
N  N35  1  0.62420000  0.60090000  0.88680000  1.0 -0.4897640809
N  N36  1  0.62420000  0.89910000  0.38680000  1.0 -0.4897640809
N  N37  1  0.81560000  0.24360000  0.63640000  1.0 -0.5090146327
N  N38  1  0.81560000  0.25640000  0.13640000  1.0 -0.5090146327
N  N39  1  0.18440000  0.75640000  0.36360000  1.0 -0.5090146327
N  N40  1  0.18440000  0.74360000  0.86360000  1.0 -0.5090146327
N  N41  1  0.87170000  0.22330000  0.75340000  1.0 -0.4303013111
N  N42  1  0.87170000  0.27670000  0.25340000  1.0 -0.4303013111
N  N43  1  0.12830000  0.77670000  0.24660000  1.0 -0.4241182173
N  N44  1  0.12830000  0.72330000  0.74660000  1.0 -0.4241182173
N  N45  1  0.05910000  0.26580000  0.33320000  1.0 -0.5276789779
N  N46  1  0.05910000  0.23420000  0.83320000  1.0 -0.5276789779
N  N47  1  0.94090000  0.73420000  0.66680000  1.0 -0.5276789779
N  N48  1  0.94090000  0.76580000  0.16680000  1.0 -0.5276789779
N  N49  1  0.94190000  0.26500000  0.55390000  1.0 -0.5090146327
N  N50  1  0.94190000  0.23500000  0.05390000  1.0 -0.5090146327
N  N51  1  0.05810000  0.73500000  0.44610000  1.0 -0.5090146327
N  N52  1  0.05810000  0.76500000  0.94610000  1.0 -0.5090146327
N  N53  1  0.13140000  0.26500000  0.56970000  1.0 -0.1011028366
N  N54  1  0.13140000  0.23500000  0.06970000  1.0 -0.1011028366
N  N55  1  0.86860000  0.73500000  0.43030000  1.0 -0.1011028366
N  N56  1  0.86860000  0.76500000  0.93030000  1.0 -0.1011028366
N  N57  1  0.18460000  0.24260000  0.47930000  1.0 -0.4897640809
N  N58  1  0.18460000  0.25740000  0.97930000  1.0 -0.4897640809
N  N59  1  0.81540000  0.75740000  0.52070000  1.0 -0.4897640809
N  N60  1  0.81540000  0.74260000  0.02070000  1.0 -0.4897640809
N  N61  1  0.22420000  0.12630000  0.37660000  1.0 -0.5213361124
N  N62  1  0.22420000  0.37370000  0.87660000  1.0 -0.5213361124
N  N63  1  0.77580000  0.87370000  0.62340000  1.0 -0.5213361124
N  N64  1  0.77580000  0.62630000  0.12340000  1.0 -0.5213361124
N  N65  1  0.23590000  0.97620000  0.34450000  1.0 -0.3993823578
N  N66  1  0.23590000  0.52380000  0.84450000  1.0 -0.3993823578
N  N67  1  0.76410000  0.02380000  0.65550000  1.0 -0.3993823578
N  N68  1  0.76410000  0.47620000  0.15550000  1.0 -0.3993823578
N  N69  1  0.62480000  0.40130000  0.17510000  1.0 -0.5213361124
N  N70  1  0.62480000  0.09870000  0.67510000  1.0 -0.5213361124
N  N71  1  0.37520000  0.59870000  0.82490000  1.0 -0.5213361124
N  N72  1  0.37520000  0.90130000  0.32490000  1.0 -0.5213361124
N  N73  1  0.50090000  0.23730000  0.17520000  1.0 -0.6716758573
N  N74  1  0.50090000  0.26270000  0.67520000  1.0 -0.6716758573
N  N75  1  0.49910000  0.76270000  0.82480000  1.0 -0.6716758573
N  N76  1  0.49910000  0.73730000  0.32480000  1.0 -0.6716758573
N  N77  1  0.48990000  0.49150000  0.23540000  1.0 -0.4303013111
N  N78  1  0.48990000  0.00850000  0.73540000  1.0 -0.4303013111
N  N79  1  0.51010000  0.50850000  0.76460000  1.0 -0.4303013111
N  N80  1  0.51010000  0.99150000  0.26460000  1.0 -0.4378308022
N  N81  1  0.12490000  0.21410000  0.56680000  1.0 -0.0633476925
N  N82  1  0.12490000  0.28590000  0.06680000  1.0 -0.0633476925
N  N83  1  0.87510000  0.78590000  0.43320000  1.0 -0.0633476925
N  N84  1  0.87510000  0.71410000  0.93320000  1.0 -0.0675465727
