# DDEC6 charges by PACMAN v1.1 (https://github.com/mtap-research/PACMAN-charge/)
data_MOSJAI_FSR_pacman
_symmetry_space_group_name_H-M   'P 1'
_cell_length_a   25.51710000
_cell_length_b   25.51710000
_cell_length_c   25.51710000
_cell_angle_alpha   90.00000000
_cell_angle_beta   90.00000000
_cell_angle_gamma   90.00000000
_symmetry_Int_Tables_number   1
_chemical_formula_structural   Zn3H24C54(N3O7)2
_chemical_formula_sum   'Zn12 H96 C216 N24 O56'
_cell_volume   16614.75519937
_cell_formula_units_Z   4
loop_
 _symmetry_equiv_pos_site_id
 _symmetry_equiv_pos_as_xyz
  1  'x, y, z'
loop_
 _atom_site_type_symbol
 _atom_site_label
 _atom_site_symmetry_multiplicity
 _atom_site_fract_x
 _atom_site_fract_y
 _atom_site_fract_z
 _atom_site_occupancy
 _atom_site_charge
Zn  Zn1  1  0.37500000  0.87500000  0.62500000  1.0 1.0872839144
Zn  Zn2  1  0.12500000  0.12500000  0.12500000  1.0 1.0872839144
Zn  Zn3  1  0.62500000  0.37500000  0.87500000  1.0 1.0872839144
Zn  Zn4  1  0.87500000  0.62500000  0.37500000  1.0 1.0872839144
Zn  Zn5  1  0.45391000  0.95391000  0.54609000  1.0 1.010660713
Zn  Zn6  1  0.04609000  0.04609000  0.04609000  1.0 1.010660713
Zn  Zn7  1  0.54609000  0.45391000  0.95391000  1.0 1.010660713
Zn  Zn8  1  0.95391000  0.54609000  0.45391000  1.0 1.010660713
Zn  Zn9  1  0.20391000  0.20391000  0.20391000  1.0 1.010660713
Zn  Zn10  1  0.29609000  0.79609000  0.70391000  1.0 1.010660713
Zn  Zn11  1  0.70391000  0.29609000  0.79609000  1.0 1.010660713
Zn  Zn12  1  0.79609000  0.70391000  0.29609000  1.0 1.010660713
H  H1  1  0.30360000  0.82410000  0.49420000  1.0 0.1535576185
H  H2  1  0.28090000  0.94050000  0.35630000  1.0 0.119838973
H  H3  1  0.34530000  0.95590000  0.41870000  1.0 0.1291574141
H  H4  1  0.21380000  0.78340000  0.43750000  1.0 0.3063713078
H  H5  1  0.19640000  0.17590000  0.99420000  1.0 0.1535576185
H  H6  1  0.21910000  0.05950000  0.85630000  1.0 0.119838973
H  H7  1  0.15470000  0.04410000  0.91870000  1.0 0.1291574141
H  H8  1  0.28620000  0.21660000  0.93750000  1.0 0.3063713078
H  H9  1  0.69640000  0.32410000  0.00580000  1.0 0.1535576185
H  H10  1  0.71910000  0.44050000  0.14370000  1.0 0.119838973
H  H11  1  0.65470000  0.45590000  0.08130000  1.0 0.1291574141
H  H12  1  0.78620000  0.28340000  0.06250000  1.0 0.3063713078
H  H13  1  0.80360000  0.67590000  0.50580000  1.0 0.1535576185
H  H14  1  0.78090000  0.55950000  0.64370000  1.0 0.119838973
H  H15  1  0.84530000  0.54410000  0.58130000  1.0 0.1291574141
H  H16  1  0.71380000  0.71660000  0.56250000  1.0 0.3063713078
H  H17  1  0.49420000  0.30360000  0.82410000  1.0 0.1535576185
H  H18  1  0.35630000  0.28090000  0.94050000  1.0 0.119838973
H  H19  1  0.41870000  0.34530000  0.95590000  1.0 0.1291574141
H  H20  1  0.43750000  0.21380000  0.78340000  1.0 0.3063713078
H  H21  1  0.99420000  0.19640000  0.17590000  1.0 0.1535576185
H  H22  1  0.85630000  0.21910000  0.05950000  1.0 0.119838973
H  H23  1  0.91870000  0.15470000  0.04410000  1.0 0.1291574141
H  H24  1  0.93750000  0.28620000  0.21660000  1.0 0.3063713078
H  H25  1  0.00580000  0.69640000  0.32410000  1.0 0.1535576185
H  H26  1  0.14370000  0.71910000  0.44050000  1.0 0.119838973
H  H27  1  0.08130000  0.65470000  0.45590000  1.0 0.1291574141
H  H28  1  0.06250000  0.78620000  0.28340000  1.0 0.3063713078
H  H29  1  0.50580000  0.80360000  0.67590000  1.0 0.1535576185
H  H30  1  0.64370000  0.78090000  0.55950000  1.0 0.119838973
H  H31  1  0.58130000  0.84530000  0.54410000  1.0 0.1291574141
H  H32  1  0.56250000  0.71380000  0.71660000  1.0 0.3063713078
H  H33  1  0.82410000  0.49420000  0.30360000  1.0 0.1535576185
H  H34  1  0.94050000  0.35630000  0.28090000  1.0 0.119838973
H  H35  1  0.95590000  0.41870000  0.34530000  1.0 0.1291574141
H  H36  1  0.78340000  0.43750000  0.21380000  1.0 0.3063713078
H  H37  1  0.17590000  0.99420000  0.19640000  1.0 0.1535576185
H  H38  1  0.05950000  0.85630000  0.21910000  1.0 0.119838973
H  H39  1  0.04410000  0.91870000  0.15470000  1.0 0.1291574141
H  H40  1  0.21660000  0.93750000  0.28620000  1.0 0.3063713078
H  H41  1  0.32410000  0.00580000  0.69640000  1.0 0.1535576185
H  H42  1  0.44050000  0.14370000  0.71910000  1.0 0.119838973
H  H43  1  0.45590000  0.08130000  0.65470000  1.0 0.1291574141
H  H44  1  0.28340000  0.06250000  0.78620000  1.0 0.3063713078
H  H45  1  0.67590000  0.50580000  0.80360000  1.0 0.1535576185
H  H46  1  0.55950000  0.64370000  0.78090000  1.0 0.119838973
H  H47  1  0.54410000  0.58130000  0.84530000  1.0 0.1291574141
H  H48  1  0.71660000  0.56250000  0.71380000  1.0 0.3063713078
H  H49  1  0.07410000  0.05360000  0.25580000  1.0 0.1535576185
H  H50  1  0.19050000  0.03090000  0.39370000  1.0 0.119838973
H  H51  1  0.20590000  0.09530000  0.33130000  1.0 0.1291574141
H  H52  1  0.03340000  0.96380000  0.31250000  1.0 0.3063713078
H  H53  1  0.42590000  0.94640000  0.75580000  1.0 0.1535576185
H  H54  1  0.30950000  0.96910000  0.89370000  1.0 0.119838973
H  H55  1  0.29410000  0.90470000  0.83130000  1.0 0.1291574141
H  H56  1  0.46660000  0.03620000  0.81250000  1.0 0.3063713078
H  H57  1  0.57410000  0.44640000  0.74420000  1.0 0.1535576185
H  H58  1  0.69050000  0.46910000  0.60630000  1.0 0.119838973
H  H59  1  0.70590000  0.40470000  0.66870000  1.0 0.1291574141
H  H60  1  0.53340000  0.53620000  0.68750000  1.0 0.3063713078
H  H61  1  0.92590000  0.55360000  0.24420000  1.0 0.1535576185
H  H62  1  0.80950000  0.53090000  0.10630000  1.0 0.119838973
H  H63  1  0.79410000  0.59530000  0.16870000  1.0 0.1291574141
H  H64  1  0.96660000  0.46380000  0.18750000  1.0 0.3063713078
H  H65  1  0.55360000  0.24420000  0.92590000  1.0 0.1535576185
H  H66  1  0.53090000  0.10630000  0.80950000  1.0 0.119838973
H  H67  1  0.59530000  0.16870000  0.79410000  1.0 0.1291574141
H  H68  1  0.46380000  0.18750000  0.96660000  1.0 0.3063713078
H  H69  1  0.44640000  0.74420000  0.57410000  1.0 0.1535576185
H  H70  1  0.46910000  0.60630000  0.69050000  1.0 0.119838973
H  H71  1  0.40470000  0.66870000  0.70590000  1.0 0.1291574141
H  H72  1  0.53620000  0.68750000  0.53340000  1.0 0.3063713078
H  H73  1  0.94640000  0.75580000  0.42590000  1.0 0.1535576185
H  H74  1  0.96910000  0.89370000  0.30950000  1.0 0.119838973
H  H75  1  0.90470000  0.83130000  0.29410000  1.0 0.1291574141
H  H76  1  0.03620000  0.81250000  0.46660000  1.0 0.3063713078
H  H77  1  0.05360000  0.25580000  0.07410000  1.0 0.1535576185
H  H78  1  0.03090000  0.39370000  0.19050000  1.0 0.119838973
H  H79  1  0.09530000  0.33130000  0.20590000  1.0 0.1291574141
H  H80  1  0.96380000  0.31250000  0.03340000  1.0 0.3063713078
H  H81  1  0.74420000  0.57410000  0.44640000  1.0 0.1535576185
H  H82  1  0.60630000  0.69050000  0.46910000  1.0 0.119838973
H  H83  1  0.66870000  0.70590000  0.40470000  1.0 0.1291574141
H  H84  1  0.68750000  0.53340000  0.53620000  1.0 0.3063713078
H  H85  1  0.24420000  0.92590000  0.55360000  1.0 0.1535576185
H  H86  1  0.10630000  0.80950000  0.53090000  1.0 0.119838973
H  H87  1  0.16870000  0.79410000  0.59530000  1.0 0.1291574141
H  H88  1  0.18750000  0.96660000  0.46380000  1.0 0.3063713078
H  H89  1  0.25580000  0.07410000  0.05360000  1.0 0.1535576185
H  H90  1  0.39370000  0.19050000  0.03090000  1.0 0.119838973
H  H91  1  0.33130000  0.20590000  0.09530000  1.0 0.1291574141
H  H92  1  0.31250000  0.03340000  0.96380000  1.0 0.3063713078
H  H93  1  0.75580000  0.42590000  0.94640000  1.0 0.1535576185
H  H94  1  0.89370000  0.30950000  0.96910000  1.0 0.119838973
H  H95  1  0.83130000  0.29410000  0.90470000  1.0 0.1291574141
H  H96  1  0.81250000  0.46660000  0.03620000  1.0 0.3063713078
C  C1  1  0.37070000  0.90350000  0.50260000  1.0 0.5975873521
C  C2  1  0.29910000  0.84740000  0.46660000  1.0 -0.2125712564
C  C3  1  0.26050000  0.83820000  0.42920000  1.0 0.1740422672
C  C4  1  0.25370000  0.87310000  0.38790000  1.0 0.04256943
C  C5  1  0.28550000  0.91720000  0.38400000  1.0 -0.2125712564
C  C6  1  0.32400000  0.92640000  0.42130000  1.0 -0.0959965611
C  C7  1  0.33080000  0.89150000  0.46260000  1.0 -0.0261896742
C  C8  1  0.19280000  0.82230000  0.37750000  1.0 0.1563617662
C  C9  1  0.14900000  0.79470000  0.36500000  1.0 -0.2163073966
C  C10  1  0.12930000  0.09650000  0.00260000  1.0 0.5975873521
C  C11  1  0.20090000  0.15260000  0.96660000  1.0 -0.2125712564
C  C12  1  0.23950000  0.16180000  0.92920000  1.0 0.1740422672
C  C13  1  0.24630000  0.12690000  0.88790000  1.0 0.04256943
C  C14  1  0.21450000  0.08280000  0.88400000  1.0 -0.2125712564
C  C15  1  0.17600000  0.07360000  0.92130000  1.0 -0.0959965611
C  C16  1  0.16920000  0.10850000  0.96260000  1.0 -0.0261896742
C  C17  1  0.30720000  0.17770000  0.87750000  1.0 0.1563617662
C  C18  1  0.35100000  0.20530000  0.86500000  1.0 -0.2163073966
C  C19  1  0.62930000  0.40350000  0.99740000  1.0 0.5975873521
C  C20  1  0.70090000  0.34740000  0.03340000  1.0 -0.2125712564
C  C21  1  0.73950000  0.33820000  0.07080000  1.0 0.1740422672
C  C22  1  0.74630000  0.37310000  0.11210000  1.0 0.04256943
C  C23  1  0.71450000  0.41720000  0.11600000  1.0 -0.2125712564
C  C24  1  0.67600000  0.42640000  0.07870000  1.0 -0.0959965611
C  C25  1  0.66920000  0.39150000  0.03740000  1.0 -0.0261896742
C  C26  1  0.80720000  0.32230000  0.12250000  1.0 0.1563617662
C  C27  1  0.85100000  0.29470000  0.13500000  1.0 -0.2163073966
C  C28  1  0.87070000  0.59650000  0.49740000  1.0 0.5975873521
C  C29  1  0.79910000  0.65260000  0.53340000  1.0 -0.2125712564
C  C30  1  0.76050000  0.66180000  0.57080000  1.0 0.1740422672
C  C31  1  0.75370000  0.62690000  0.61210000  1.0 0.04256943
C  C32  1  0.78550000  0.58280000  0.61600000  1.0 -0.2125712564
C  C33  1  0.82400000  0.57360000  0.57870000  1.0 -0.0959965611
C  C34  1  0.83080000  0.60850000  0.53740000  1.0 -0.0261896742
C  C35  1  0.69280000  0.67770000  0.62250000  1.0 0.1563617662
C  C36  1  0.64900000  0.70530000  0.63500000  1.0 -0.2163073966
C  C37  1  0.50260000  0.37070000  0.90350000  1.0 0.5975873521
C  C38  1  0.46660000  0.29910000  0.84740000  1.0 -0.2125712564
C  C39  1  0.42920000  0.26050000  0.83820000  1.0 0.1740422672
C  C40  1  0.38790000  0.25370000  0.87310000  1.0 0.04256943
C  C41  1  0.38400000  0.28550000  0.91720000  1.0 -0.2125712564
C  C42  1  0.42130000  0.32400000  0.92640000  1.0 -0.0959965611
C  C43  1  0.46260000  0.33080000  0.89150000  1.0 -0.0261896742
C  C44  1  0.37750000  0.19280000  0.82230000  1.0 0.1563617662
C  C45  1  0.36500000  0.14900000  0.79470000  1.0 -0.2163073966
C  C46  1  0.00260000  0.12930000  0.09650000  1.0 0.5975873521
C  C47  1  0.96660000  0.20090000  0.15260000  1.0 -0.2125712564
C  C48  1  0.92920000  0.23950000  0.16180000  1.0 0.1740422672
C  C49  1  0.88790000  0.24630000  0.12690000  1.0 0.04256943
C  C50  1  0.88400000  0.21450000  0.08280000  1.0 -0.2125712564
C  C51  1  0.92130000  0.17600000  0.07360000  1.0 -0.0959965611
C  C52  1  0.96260000  0.16920000  0.10850000  1.0 -0.0261896742
C  C53  1  0.87750000  0.30720000  0.17770000  1.0 0.1563617662
C  C54  1  0.86500000  0.35100000  0.20530000  1.0 -0.2163073966
C  C55  1  0.99740000  0.62930000  0.40350000  1.0 0.5975873521
C  C56  1  0.03340000  0.70090000  0.34740000  1.0 -0.2125712564
C  C57  1  0.07080000  0.73950000  0.33820000  1.0 0.1740422672
C  C58  1  0.11210000  0.74630000  0.37310000  1.0 0.04256943
C  C59  1  0.11600000  0.71450000  0.41720000  1.0 -0.2125712564
C  C60  1  0.07870000  0.67600000  0.42640000  1.0 -0.0959965611
C  C61  1  0.03740000  0.66920000  0.39150000  1.0 -0.0261896742
C  C62  1  0.12250000  0.80720000  0.32230000  1.0 0.1563617662
C  C63  1  0.13500000  0.85100000  0.29470000  1.0 -0.2163073966
C  C64  1  0.49740000  0.87070000  0.59650000  1.0 0.5975873521
C  C65  1  0.53340000  0.79910000  0.65260000  1.0 -0.2125712564
C  C66  1  0.57080000  0.76050000  0.66180000  1.0 0.1740422672
C  C67  1  0.61210000  0.75370000  0.62690000  1.0 0.04256943
C  C68  1  0.61600000  0.78550000  0.58280000  1.0 -0.2125712564
C  C69  1  0.57870000  0.82400000  0.57360000  1.0 -0.0959965611
C  C70  1  0.53740000  0.83080000  0.60850000  1.0 -0.0261896742
C  C71  1  0.62250000  0.69280000  0.67770000  1.0 0.1563617662
C  C72  1  0.63500000  0.64900000  0.70530000  1.0 -0.2163073966
C  C73  1  0.90350000  0.50260000  0.37070000  1.0 0.5975873521
C  C74  1  0.84740000  0.46660000  0.29910000  1.0 -0.2125712564
C  C75  1  0.83820000  0.42920000  0.26050000  1.0 0.1740422672
C  C76  1  0.87310000  0.38790000  0.25370000  1.0 0.04256943
C  C77  1  0.91720000  0.38400000  0.28550000  1.0 -0.2125712564
C  C78  1  0.92640000  0.42130000  0.32400000  1.0 -0.0959965611
C  C79  1  0.89150000  0.46260000  0.33080000  1.0 -0.0261896742
C  C80  1  0.82230000  0.37750000  0.19280000  1.0 0.1563617662
C  C81  1  0.79470000  0.36500000  0.14900000  1.0 -0.2163073966
C  C82  1  0.09650000  0.00260000  0.12930000  1.0 0.5975873521
C  C83  1  0.15260000  0.96660000  0.20090000  1.0 -0.2125712564
C  C84  1  0.16180000  0.92920000  0.23950000  1.0 0.1740422672
C  C85  1  0.12690000  0.88790000  0.24630000  1.0 0.04256943
C  C86  1  0.08280000  0.88400000  0.21450000  1.0 -0.2125712564
C  C87  1  0.07360000  0.92130000  0.17600000  1.0 -0.0959965611
C  C88  1  0.10850000  0.96260000  0.16920000  1.0 -0.0261896742
C  C89  1  0.17770000  0.87750000  0.30720000  1.0 0.1563617662
C  C90  1  0.20530000  0.86500000  0.35100000  1.0 -0.2163073966
C  C91  1  0.40350000  0.99740000  0.62930000  1.0 0.5975873521
C  C92  1  0.34740000  0.03340000  0.70090000  1.0 -0.2125712564
C  C93  1  0.33820000  0.07080000  0.73950000  1.0 0.1740422672
C  C94  1  0.37310000  0.11210000  0.74630000  1.0 0.04256943
C  C95  1  0.41720000  0.11600000  0.71450000  1.0 -0.2125712564
C  C96  1  0.42640000  0.07870000  0.67600000  1.0 -0.0959965611
C  C97  1  0.39150000  0.03740000  0.66920000  1.0 -0.0261896742
C  C98  1  0.32230000  0.12250000  0.80720000  1.0 0.1563617662
C  C99  1  0.29470000  0.13500000  0.85100000  1.0 -0.2163073966
C  C100  1  0.59650000  0.49740000  0.87070000  1.0 0.5975873521
C  C101  1  0.65260000  0.53340000  0.79910000  1.0 -0.2125712564
C  C102  1  0.66180000  0.57080000  0.76050000  1.0 0.1740422672
C  C103  1  0.62690000  0.61210000  0.75370000  1.0 0.04256943
C  C104  1  0.58280000  0.61600000  0.78550000  1.0 -0.2125712564
C  C105  1  0.57360000  0.57870000  0.82400000  1.0 -0.0959965611
C  C106  1  0.60850000  0.53740000  0.83080000  1.0 -0.0261896742
C  C107  1  0.67770000  0.62250000  0.69280000  1.0 0.1563617662
C  C108  1  0.70530000  0.63500000  0.64900000  1.0 -0.2163073966
C  C109  1  0.15350000  0.12070000  0.24740000  1.0 0.5975873521
C  C110  1  0.09740000  0.04910000  0.28340000  1.0 -0.2125712564
C  C111  1  0.08820000  0.01050000  0.32080000  1.0 0.1740422672
C  C112  1  0.12310000  0.00370000  0.36210000  1.0 0.04256943
C  C113  1  0.16720000  0.03550000  0.36600000  1.0 -0.2125712564
C  C114  1  0.17640000  0.07400000  0.32870000  1.0 -0.0959965611
C  C115  1  0.14150000  0.08080000  0.28740000  1.0 -0.0261896742
C  C116  1  0.07230000  0.94280000  0.37250000  1.0 0.1563617662
C  C117  1  0.04470000  0.89900000  0.38500000  1.0 -0.2163073966
C  C118  1  0.34650000  0.87930000  0.74740000  1.0 0.5975873521
C  C119  1  0.40260000  0.95090000  0.78340000  1.0 -0.2125712564
C  C120  1  0.41180000  0.98950000  0.82080000  1.0 0.1740422672
C  C121  1  0.37690000  0.99630000  0.86210000  1.0 0.04256943
C  C122  1  0.33280000  0.96450000  0.86600000  1.0 -0.2125712564
C  C123  1  0.32360000  0.92600000  0.82870000  1.0 -0.0959965611
C  C124  1  0.35850000  0.91920000  0.78740000  1.0 -0.0261896742
C  C125  1  0.42770000  0.05720000  0.87250000  1.0 0.1563617662
C  C126  1  0.45530000  0.10100000  0.88500000  1.0 -0.2163073966
C  C127  1  0.65350000  0.37930000  0.75260000  1.0 0.5975873521
C  C128  1  0.59740000  0.45090000  0.71660000  1.0 -0.2125712564
C  C129  1  0.58820000  0.48950000  0.67920000  1.0 0.1740422672
C  C130  1  0.62310000  0.49630000  0.63790000  1.0 0.04256943
C  C131  1  0.66720000  0.46450000  0.63400000  1.0 -0.2125712564
C  C132  1  0.67640000  0.42600000  0.67130000  1.0 -0.0959965611
C  C133  1  0.64150000  0.41920000  0.71260000  1.0 -0.0261896742
C  C134  1  0.57230000  0.55720000  0.62750000  1.0 0.1563617662
C  C135  1  0.54470000  0.60100000  0.61500000  1.0 -0.2163073966
C  C136  1  0.84650000  0.62070000  0.25260000  1.0 0.5975873521
C  C137  1  0.90260000  0.54910000  0.21660000  1.0 -0.2125712564
C  C138  1  0.91180000  0.51050000  0.17920000  1.0 0.1740422672
C  C139  1  0.87690000  0.50370000  0.13790000  1.0 0.04256943
C  C140  1  0.83280000  0.53550000  0.13400000  1.0 -0.2125712564
C  C141  1  0.82360000  0.57400000  0.17130000  1.0 -0.0959965611
C  C142  1  0.85850000  0.58080000  0.21260000  1.0 -0.0261896742
C  C143  1  0.92770000  0.44280000  0.12750000  1.0 0.1563617662
C  C144  1  0.95530000  0.39900000  0.11500000  1.0 -0.2163073966
C  C145  1  0.62070000  0.25260000  0.84650000  1.0 0.5975873521
C  C146  1  0.54910000  0.21660000  0.90260000  1.0 -0.2125712564
C  C147  1  0.51050000  0.17920000  0.91180000  1.0 0.1740422672
C  C148  1  0.50370000  0.13790000  0.87690000  1.0 0.04256943
C  C149  1  0.53550000  0.13400000  0.83280000  1.0 -0.2125712564
C  C150  1  0.57400000  0.17130000  0.82360000  1.0 -0.0959965611
C  C151  1  0.58080000  0.21260000  0.85850000  1.0 -0.0261896742
C  C152  1  0.44280000  0.12750000  0.92770000  1.0 0.1563617662
C  C153  1  0.39900000  0.11500000  0.95530000  1.0 -0.2163073966
C  C154  1  0.37930000  0.75260000  0.65350000  1.0 0.5975873521
C  C155  1  0.45090000  0.71660000  0.59740000  1.0 -0.2125712564
C  C156  1  0.48950000  0.67920000  0.58820000  1.0 0.1740422672
C  C157  1  0.49630000  0.63790000  0.62310000  1.0 0.04256943
C  C158  1  0.46450000  0.63400000  0.66720000  1.0 -0.2125712564
C  C159  1  0.42600000  0.67130000  0.67640000  1.0 -0.0959965611
C  C160  1  0.41920000  0.71260000  0.64150000  1.0 -0.0261896742
C  C161  1  0.55720000  0.62750000  0.57230000  1.0 0.1563617662
C  C162  1  0.60100000  0.61500000  0.54470000  1.0 -0.2163073966
C  C163  1  0.87930000  0.74740000  0.34650000  1.0 0.5975873521
C  C164  1  0.95090000  0.78340000  0.40260000  1.0 -0.2125712564
C  C165  1  0.98950000  0.82080000  0.41180000  1.0 0.1740422672
C  C166  1  0.99630000  0.86210000  0.37690000  1.0 0.04256943
C  C167  1  0.96450000  0.86600000  0.33280000  1.0 -0.2125712564
C  C168  1  0.92600000  0.82870000  0.32360000  1.0 -0.0959965611
C  C169  1  0.91920000  0.78740000  0.35850000  1.0 -0.0261896742
C  C170  1  0.05720000  0.87250000  0.42770000  1.0 0.1563617662
C  C171  1  0.10100000  0.88500000  0.45530000  1.0 -0.2163073966
C  C172  1  0.12070000  0.24740000  0.15350000  1.0 0.5975873521
C  C173  1  0.04910000  0.28340000  0.09740000  1.0 -0.2125712564
C  C174  1  0.01050000  0.32080000  0.08820000  1.0 0.1740422672
C  C175  1  0.00370000  0.36210000  0.12310000  1.0 0.04256943
C  C176  1  0.03550000  0.36600000  0.16720000  1.0 -0.2125712564
C  C177  1  0.07400000  0.32870000  0.17640000  1.0 -0.0959965611
C  C178  1  0.08080000  0.28740000  0.14150000  1.0 -0.0261896742
C  C179  1  0.94280000  0.37250000  0.07230000  1.0 0.1563617662
C  C180  1  0.89900000  0.38500000  0.04470000  1.0 -0.2163073966
C  C181  1  0.75260000  0.65350000  0.37930000  1.0 0.5975873521
C  C182  1  0.71660000  0.59740000  0.45090000  1.0 -0.2125712564
C  C183  1  0.67920000  0.58820000  0.48950000  1.0 0.1740422672
C  C184  1  0.63790000  0.62310000  0.49630000  1.0 0.04256943
C  C185  1  0.63400000  0.66720000  0.46450000  1.0 -0.2125712564
C  C186  1  0.67130000  0.67640000  0.42600000  1.0 -0.0959965611
C  C187  1  0.71260000  0.64150000  0.41920000  1.0 -0.0261896742
C  C188  1  0.62750000  0.57230000  0.55720000  1.0 0.1563617662
C  C189  1  0.61500000  0.54470000  0.60100000  1.0 -0.2163073966
C  C190  1  0.25260000  0.84650000  0.62070000  1.0 0.5975873521
C  C191  1  0.21660000  0.90260000  0.54910000  1.0 -0.2125712564
C  C192  1  0.17920000  0.91180000  0.51050000  1.0 0.1740422672
C  C193  1  0.13790000  0.87690000  0.50370000  1.0 0.04256943
C  C194  1  0.13400000  0.83280000  0.53550000  1.0 -0.2125712564
C  C195  1  0.17130000  0.82360000  0.57400000  1.0 -0.0959965611
C  C196  1  0.21260000  0.85850000  0.58080000  1.0 -0.0261896742
C  C197  1  0.12750000  0.92770000  0.44280000  1.0 0.1563617662
C  C198  1  0.11500000  0.95530000  0.39900000  1.0 -0.2163073966
C  C199  1  0.24740000  0.15350000  0.12070000  1.0 0.5975873521
C  C200  1  0.28340000  0.09740000  0.04910000  1.0 -0.2125712564
C  C201  1  0.32080000  0.08820000  0.01050000  1.0 0.1740422672
C  C202  1  0.36210000  0.12310000  0.00370000  1.0 0.04256943
C  C203  1  0.36600000  0.16720000  0.03550000  1.0 -0.2125712564
C  C204  1  0.32870000  0.17640000  0.07400000  1.0 -0.0959965611
C  C205  1  0.28740000  0.14150000  0.08080000  1.0 -0.0261896742
C  C206  1  0.37250000  0.07230000  0.94280000  1.0 0.1563617662
C  C207  1  0.38500000  0.04470000  0.89900000  1.0 -0.2163073966
C  C208  1  0.74740000  0.34650000  0.87930000  1.0 0.5975873521
C  C209  1  0.78340000  0.40260000  0.95090000  1.0 -0.2125712564
C  C210  1  0.82080000  0.41180000  0.98950000  1.0 0.1740422672
C  C211  1  0.86210000  0.37690000  0.99630000  1.0 0.04256943
C  C212  1  0.86600000  0.33280000  0.96450000  1.0 -0.2125712564
C  C213  1  0.82870000  0.32360000  0.92600000  1.0 -0.0959965611
C  C214  1  0.78740000  0.35850000  0.91920000  1.0 -0.0261896742
C  C215  1  0.87250000  0.42770000  0.05720000  1.0 0.1563617662
C  C216  1  0.88500000  0.45530000  0.10100000  1.0 -0.2163073966
N  N1  1  0.22130000  0.81230000  0.41660000  1.0 -0.1667465691
N  N2  1  0.27870000  0.18770000  0.91660000  1.0 -0.1667465691
N  N3  1  0.77870000  0.31230000  0.08340000  1.0 -0.1667465691
N  N4  1  0.72130000  0.68770000  0.58340000  1.0 -0.1667465691
N  N5  1  0.41660000  0.22130000  0.81230000  1.0 -0.1667465691
N  N6  1  0.91660000  0.27870000  0.18770000  1.0 -0.1667465691
N  N7  1  0.08340000  0.77870000  0.31230000  1.0 -0.1667465691
N  N8  1  0.58340000  0.72130000  0.68770000  1.0 -0.1667465691
N  N9  1  0.81230000  0.41660000  0.22130000  1.0 -0.1667465691
N  N10  1  0.18770000  0.91660000  0.27870000  1.0 -0.1667465691
N  N11  1  0.31230000  0.08340000  0.77870000  1.0 -0.1667465691
N  N12  1  0.68770000  0.58340000  0.72130000  1.0 -0.1667465691
N  N13  1  0.06230000  0.97130000  0.33340000  1.0 -0.1667465691
N  N14  1  0.43770000  0.02870000  0.83340000  1.0 -0.1667465691
N  N15  1  0.56230000  0.52870000  0.66666667  1.0 -0.1667465691
N  N16  1  0.93770000  0.47130000  0.16660000  1.0 -0.1667465691
N  N17  1  0.47130000  0.16660000  0.93770000  1.0 -0.1667465691
N  N18  1  0.52870000  0.66666667  0.56230000  1.0 -0.1667465691
N  N19  1  0.02870000  0.83340000  0.43770000  1.0 -0.1667465691
N  N20  1  0.97130000  0.33340000  0.06230000  1.0 -0.1667465691
N  N21  1  0.66666667  0.56230000  0.52870000  1.0 -0.1667465691
N  N22  1  0.16660000  0.93770000  0.47130000  1.0 -0.1667465691
N  N23  1  0.33340000  0.06230000  0.97130000  1.0 -0.1667465691
N  N24  1  0.83340000  0.43770000  0.02870000  1.0 -0.1667465691
O  O1  1  0.40010000  0.94030000  0.49730000  1.0 -0.4737776691
O  O2  1  0.37600000  0.87250000  0.54280000  1.0 -0.5895761797
O  O3  1  0.09990000  0.05970000  0.99730000  1.0 -0.4737776691
O  O4  1  0.12400000  0.12750000  0.04280000  1.0 -0.5895761797
O  O5  1  0.59990000  0.44030000  0.00270000  1.0 -0.4737776691
O  O6  1  0.62400000  0.37250000  0.95720000  1.0 -0.5895761797
O  O7  1  0.90010000  0.55970000  0.50270000  1.0 -0.4737776691
O  O8  1  0.87600000  0.62750000  0.45720000  1.0 -0.5895761797
O  O9  1  0.49730000  0.40010000  0.94030000  1.0 -0.4737776691
O  O10  1  0.54280000  0.37600000  0.87250000  1.0 -0.5895761797
O  O11  1  0.99730000  0.09990000  0.05970000  1.0 -0.4737776691
O  O12  1  0.04280000  0.12400000  0.12750000  1.0 -0.5895761797
O  O13  1  0.00270000  0.59990000  0.44030000  1.0 -0.4737776691
O  O14  1  0.95720000  0.62400000  0.37250000  1.0 -0.5895761797
O  O15  1  0.50270000  0.90010000  0.55970000  1.0 -0.4737776691
O  O16  1  0.45720000  0.87600000  0.62750000  1.0 -0.5895761797
O  O17  1  0.94030000  0.49730000  0.40010000  1.0 -0.4737776691
O  O18  1  0.87250000  0.54280000  0.37600000  1.0 -0.5895761797
O  O19  1  0.05970000  0.99730000  0.09990000  1.0 -0.4737776691
O  O20  1  0.12750000  0.04280000  0.12400000  1.0 -0.5895761797
O  O21  1  0.44030000  0.00270000  0.59990000  1.0 -0.4737776691
O  O22  1  0.37250000  0.95720000  0.62400000  1.0 -0.5895761797
O  O23  1  0.55970000  0.50270000  0.90010000  1.0 -0.4737776691
O  O24  1  0.62750000  0.45720000  0.87600000  1.0 -0.5895761797
O  O25  1  0.19030000  0.15010000  0.25270000  1.0 -0.4737776691
O  O26  1  0.12250000  0.12600000  0.20720000  1.0 -0.5895761797
O  O27  1  0.30970000  0.84990000  0.75270000  1.0 -0.4737776691
O  O28  1  0.37750000  0.87400000  0.70720000  1.0 -0.5895761797
O  O29  1  0.69030000  0.34990000  0.74730000  1.0 -0.4737776691
O  O30  1  0.62250000  0.37400000  0.79280000  1.0 -0.5895761797
O  O31  1  0.80970000  0.65010000  0.24730000  1.0 -0.4737776691
O  O32  1  0.87750000  0.62600000  0.29280000  1.0 -0.5895761797
O  O33  1  0.65010000  0.24730000  0.80970000  1.0 -0.4737776691
O  O34  1  0.62600000  0.29280000  0.87750000  1.0 -0.5895761797
O  O35  1  0.34990000  0.74730000  0.69030000  1.0 -0.4737776691
O  O36  1  0.37400000  0.79280000  0.62250000  1.0 -0.5895761797
O  O37  1  0.84990000  0.75270000  0.30970000  1.0 -0.4737776691
O  O38  1  0.87400000  0.70720000  0.37750000  1.0 -0.5895761797
O  O39  1  0.15010000  0.25270000  0.19030000  1.0 -0.4737776691
O  O40  1  0.12600000  0.20720000  0.12250000  1.0 -0.5895761797
O  O41  1  0.74730000  0.69030000  0.34990000  1.0 -0.4737776691
O  O42  1  0.79280000  0.62250000  0.37400000  1.0 -0.5895761797
O  O43  1  0.24730000  0.80970000  0.65010000  1.0 -0.4737776691
O  O44  1  0.29280000  0.87750000  0.62600000  1.0 -0.5895761797
O  O45  1  0.25270000  0.19030000  0.15010000  1.0 -0.4737776691
O  O46  1  0.20720000  0.12250000  0.12600000  1.0 -0.5895761797
O  O47  1  0.75270000  0.30970000  0.84990000  1.0 -0.4737776691
O  O48  1  0.70720000  0.37750000  0.87400000  1.0 -0.5895761797
O  O49  1  0.50050000  0.00050000  0.49950000  1.0 -0.6115513692
O  O50  1  0.99950000  0.99950000  0.99950000  1.0 -0.6115513692
O  O51  1  0.49950000  0.50050000  0.00050000  1.0 -0.6115513692
O  O52  1  0.00050000  0.49950000  0.50050000  1.0 -0.6115513692
O  O53  1  0.25050000  0.25050000  0.25050000  1.0 -0.6115513692
O  O54  1  0.24950000  0.74950000  0.75050000  1.0 -0.6115513692
O  O55  1  0.75050000  0.24950000  0.74950000  1.0 -0.6115513692
O  O56  1  0.74950000  0.75050000  0.24950000  1.0 -0.6115513692
