# DDEC6 charges by PACMAN v1.1 (https://github.com/mtap-research/PACMAN-charge/)
data_MOSKIR_ion_pacman
_symmetry_space_group_name_H-M   'P 1'
_cell_length_a   9.38940000
_cell_length_b   15.53600000
_cell_length_c   34.20100000
_cell_angle_alpha   90.00000000
_cell_angle_beta   90.00000000
_cell_angle_gamma   90.00000000
_symmetry_Int_Tables_number   1
_chemical_formula_structural   In3H60C78Br2NO20
_chemical_formula_sum   'In6 H120 C156 Br4 N2 O40'
_cell_volume   4989.02704300
_cell_formula_units_Z   2
loop_
 _symmetry_equiv_pos_site_id
 _symmetry_equiv_pos_as_xyz
  1  'x, y, z'
loop_
 _atom_site_type_symbol
 _atom_site_label
 _atom_site_symmetry_multiplicity
 _atom_site_fract_x
 _atom_site_fract_y
 _atom_site_fract_z
 _atom_site_occupancy
 _atom_site_charge
In  In1  1  0.33435000  0.43698000  0.12050000  1.0 1.2159895105
In  In2  1  0.66565000  0.56302000  0.62050000  1.0 1.2159895105
In  In3  1  0.66565000  0.43698000  0.37950000  1.0 1.2159895105
In  In4  1  0.33435000  0.56302000  0.87950000  1.0 1.2159895105
In  In5  1  0.00000000  0.93856000  0.25000000  1.0 1.247620563
In  In6  1  0.00000000  0.06144000  0.75000000  1.0 1.247620563
H  H1  1  0.07790000  0.71410000  0.34370000  1.0 0.1193143545
H  H2  1  0.22200000  0.65150000  0.39630000  1.0 0.1193143545
H  H3  1  0.33530000  0.88800000  0.43150000  1.0 0.1193143545
H  H4  1  0.21780000  0.95270000  0.37790000  1.0 0.1193143545
H  H5  1  0.54610000  0.57180000  0.48340000  1.0 0.1295353814
H  H6  1  0.43770000  0.62150000  0.42950000  1.0 0.1295353814
H  H7  1  0.28570000  0.82390000  0.49380000  1.0 0.1193143545
H  H8  1  0.40580000  0.76900000  0.54760000  1.0 0.1295353814
H  H9  1  0.26650000  0.17140000  0.20740000  1.0 0.1193143545
H  H10  1  0.46450000  0.26180000  0.18550000  1.0 0.1401388344
H  H11  1  0.70400000  0.03650000  0.18570000  1.0 0.1193143545
H  H12  1  0.49830000  0.95460000  0.20610000  1.0 0.1074777962
H  H13  1  0.83460000  0.34330000  0.10550000  1.0 0.1193143545
H  H14  1  0.64800000  0.25240000  0.12060000  1.0 0.1295353814
H  H15  1  0.87130000  0.15630000  0.21240000  1.0 0.1295353814
H  H16  1  0.05390000  0.23600000  0.19380000  1.0 0.1193143545
H  H17  1  0.84490000  0.52180000  0.14860000  1.0 0.1193143545
H  H18  1  0.03400000  0.52430000  0.19070000  1.0 0.1193143545
H  H19  1  0.79590000  0.42130000  0.27640000  1.0 0.1295353814
H  H20  1  0.60800000  0.40360000  0.23230000  1.0 0.1193143545
H  H21  1  0.92210000  0.28590000  0.84370000  1.0 0.1193143545
H  H22  1  0.77800000  0.34850000  0.89630000  1.0 0.1193143545
H  H23  1  0.66470000  0.11200000  0.93150000  1.0 0.1193143545
H  H24  1  0.78220000  0.04730000  0.87790000  1.0 0.1193143545
H  H25  1  0.45390000  0.42820000  0.98340000  1.0 0.1295353814
H  H26  1  0.56230000  0.37850000  0.92950000  1.0 0.1295353814
H  H27  1  0.71430000  0.17610000  0.99380000  1.0 0.1193143545
H  H28  1  0.59420000  0.23100000  0.04760000  1.0 0.1295353814
H  H29  1  0.73350000  0.82860000  0.70740000  1.0 0.1193143545
H  H30  1  0.53550000  0.73820000  0.68550000  1.0 0.1401388344
H  H31  1  0.29600000  0.96350000  0.68570000  1.0 0.1193143545
H  H32  1  0.50170000  0.04540000  0.70610000  1.0 0.1074777962
H  H33  1  0.16540000  0.65670000  0.60550000  1.0 0.1193143545
H  H34  1  0.35200000  0.74760000  0.62060000  1.0 0.1295353814
H  H35  1  0.12870000  0.84370000  0.71240000  1.0 0.1295353814
H  H36  1  0.94610000  0.76400000  0.69380000  1.0 0.1193143545
H  H37  1  0.15510000  0.47820000  0.64860000  1.0 0.1193143545
H  H38  1  0.96600000  0.47570000  0.69070000  1.0 0.1193143545
H  H39  1  0.20410000  0.57870000  0.77640000  1.0 0.1295353814
H  H40  1  0.39200000  0.59640000  0.73230000  1.0 0.1193143545
H  H41  1  0.92210000  0.71410000  0.15630000  1.0 0.1193143545
H  H42  1  0.77800000  0.65150000  0.10370000  1.0 0.1193143545
H  H43  1  0.66470000  0.88800000  0.06850000  1.0 0.1193143545
H  H44  1  0.78220000  0.95270000  0.12210000  1.0 0.1193143545
H  H45  1  0.45390000  0.57180000  0.01660000  1.0 0.1295353814
H  H46  1  0.56230000  0.62150000  0.07050000  1.0 0.1295353814
H  H47  1  0.71430000  0.82390000  0.00620000  1.0 0.1193143545
H  H48  1  0.59420000  0.76900000  0.95240000  1.0 0.1295353814
H  H49  1  0.73350000  0.17140000  0.29260000  1.0 0.1193143545
H  H50  1  0.53550000  0.26180000  0.31450000  1.0 0.1401388344
H  H51  1  0.29600000  0.03650000  0.31430000  1.0 0.1193143545
H  H52  1  0.50170000  0.95460000  0.29390000  1.0 0.1074777962
H  H53  1  0.16540000  0.34330000  0.39450000  1.0 0.1193143545
H  H54  1  0.35200000  0.25240000  0.37940000  1.0 0.1295353814
H  H55  1  0.12870000  0.15630000  0.28760000  1.0 0.1295353814
H  H56  1  0.94610000  0.23600000  0.30620000  1.0 0.1193143545
H  H57  1  0.15510000  0.52180000  0.35140000  1.0 0.1193143545
H  H58  1  0.96600000  0.52430000  0.30930000  1.0 0.1193143545
H  H59  1  0.20410000  0.42130000  0.22360000  1.0 0.1295353814
H  H60  1  0.39200000  0.40360000  0.26770000  1.0 0.1193143545
H  H61  1  0.07790000  0.28590000  0.65630000  1.0 0.1193143545
H  H62  1  0.22200000  0.34850000  0.60370000  1.0 0.1193143545
H  H63  1  0.33530000  0.11200000  0.56850000  1.0 0.1193143545
H  H64  1  0.21780000  0.04730000  0.62210000  1.0 0.1193143545
H  H65  1  0.54610000  0.42820000  0.51660000  1.0 0.1295353814
H  H66  1  0.43770000  0.37850000  0.57050000  1.0 0.1295353814
H  H67  1  0.28570000  0.17610000  0.50620000  1.0 0.1193143545
H  H68  1  0.40580000  0.23100000  0.45240000  1.0 0.1295353814
H  H69  1  0.26650000  0.82860000  0.79260000  1.0 0.1193143545
H  H70  1  0.46450000  0.73820000  0.81450000  1.0 0.1401388344
H  H71  1  0.70400000  0.96350000  0.81430000  1.0 0.1193143545
H  H72  1  0.49830000  0.04540000  0.79390000  1.0 0.1074777962
H  H73  1  0.83460000  0.65670000  0.89450000  1.0 0.1193143545
H  H74  1  0.64800000  0.74760000  0.87940000  1.0 0.1295353814
H  H75  1  0.87130000  0.84370000  0.78760000  1.0 0.1295353814
H  H76  1  0.05390000  0.76400000  0.80620000  1.0 0.1193143545
H  H77  1  0.84490000  0.47820000  0.85140000  1.0 0.1193143545
H  H78  1  0.03400000  0.47570000  0.80930000  1.0 0.1193143545
H  H79  1  0.79590000  0.57870000  0.72360000  1.0 0.1295353814
H  H80  1  0.60800000  0.59640000  0.76770000  1.0 0.1193143545
H  H81  1  0.60900000  0.39160000  0.72150000  1.0 0.1074777962
H  H82  1  0.64240000  0.38870000  0.76720000  1.0 0.1074777962
H  H83  1  0.75630000  0.26960000  0.71350000  1.0 0.1401388344
H  H84  1  0.79870000  0.27770000  0.75870000  1.0 0.1401388344
H  H85  1  0.83960000  0.35290000  0.72880000  1.0 0.1401388344
H  H86  1  0.56350000  0.20190000  0.71250000  1.0 0.0983490897
H  H87  1  0.39640000  0.20260000  0.71950000  1.0 0.1074777962
H  H88  1  0.50740000  0.24230000  0.65590000  1.0 0.1401388344
H  H89  1  0.49670000  0.33620000  0.67490000  1.0 0.1401388344
H  H90  1  0.35620000  0.27920000  0.66940000  1.0 0.1295353814
H  H91  1  0.39100000  0.39160000  0.77850000  1.0 0.1074777962
H  H92  1  0.35760000  0.38870000  0.73280000  1.0 0.1074777962
H  H93  1  0.24370000  0.26960000  0.78650000  1.0 0.1401388344
H  H94  1  0.20130000  0.27770000  0.74130000  1.0 0.1401388344
H  H95  1  0.16040000  0.35290000  0.77120000  1.0 0.1401388344
H  H96  1  0.43650000  0.20190000  0.78750000  1.0 0.0983490897
H  H97  1  0.60360000  0.20260000  0.78050000  1.0 0.1074777962
H  H98  1  0.49260000  0.24230000  0.84410000  1.0 0.1401388344
H  H99  1  0.50330000  0.33620000  0.82510000  1.0 0.1401388344
H  H100  1  0.64380000  0.27920000  0.83060000  1.0 0.1295353814
H  H101  1  0.39100000  0.60840000  0.22150000  1.0 0.1074777962
H  H102  1  0.35760000  0.61130000  0.26720000  1.0 0.1074777962
H  H103  1  0.24370000  0.73040000  0.21350000  1.0 0.1401388344
H  H104  1  0.20130000  0.72230000  0.25870000  1.0 0.1401388344
H  H105  1  0.16040000  0.64710000  0.22880000  1.0 0.1401388344
H  H106  1  0.43650000  0.79810000  0.21250000  1.0 0.0983490897
H  H107  1  0.60360000  0.79740000  0.21950000  1.0 0.1074777962
H  H108  1  0.49260000  0.75770000  0.15590000  1.0 0.1401388344
H  H109  1  0.50330000  0.66380000  0.17490000  1.0 0.1401388344
H  H110  1  0.64380000  0.72080000  0.16940000  1.0 0.1295353814
H  H111  1  0.60900000  0.60840000  0.27850000  1.0 0.1074777962
H  H112  1  0.64240000  0.61130000  0.23280000  1.0 0.1074777962
H  H113  1  0.75630000  0.73040000  0.28650000  1.0 0.1401388344
H  H114  1  0.79870000  0.72230000  0.24130000  1.0 0.1401388344
H  H115  1  0.83960000  0.64710000  0.27120000  1.0 0.1401388344
H  H116  1  0.56350000  0.79810000  0.28750000  1.0 0.0983490897
H  H117  1  0.39640000  0.79740000  0.28050000  1.0 0.1074777962
H  H118  1  0.50740000  0.75770000  0.34410000  1.0 0.1401388344
H  H119  1  0.49670000  0.66380000  0.32510000  1.0 0.1401388344
H  H120  1  0.35620000  0.72080000  0.33060000  1.0 0.1295353814
C  C1  1  0.09400000  0.87540000  0.31700000  1.0 0.5270006014
C  C2  1  0.14700000  0.83740000  0.35280000  1.0 -0.0596570342
C  C3  1  0.13500000  0.74940000  0.36000000  1.0 -0.0889196903
C  C4  1  0.21300000  0.71200000  0.39340000  1.0 -0.1389823407
C  C5  1  0.27300000  0.76850000  0.42070000  1.0 0.0719714416
C  C6  1  0.28300000  0.85310000  0.41390000  1.0 -0.1504615145
C  C7  1  0.21700000  0.89200000  0.38110000  1.0 -0.0889196903
C  C8  1  0.55590000  0.63120000  0.55680000  1.0 0.5521357608
C  C9  1  0.48500000  0.66360000  0.52210000  1.0 -0.0495463341
C  C10  1  0.49300000  0.62350000  0.48540000  1.0 -0.068896384
C  C11  1  0.43000000  0.65280000  0.45330000  1.0 -0.1306128102
C  C12  1  0.35200000  0.72940000  0.45440000  1.0 0.0867891805
C  C13  1  0.34000000  0.77270000  0.49140000  1.0 -0.161753838
C  C14  1  0.41000000  0.73870000  0.52360000  1.0 -0.0889196903
C  C15  1  0.24140000  0.00630000  0.22350000  1.0 0.4906908376
C  C16  1  0.36220000  0.05390000  0.20830000  1.0 -0.0596570342
C  C17  1  0.35600000  0.14460000  0.20240000  1.0 -0.0789908032
C  C18  1  0.47200000  0.20140000  0.18930000  1.0 -0.1139306473
C  C19  1  0.60460000  0.14940000  0.18280000  1.0 0.0867891805
C  C20  1  0.61520000  0.06480000  0.18930000  1.0 -0.1389823407
C  C21  1  0.49000000  0.01490000  0.20210000  1.0 -0.0889196903
C  C22  1  0.11610000  0.33830000  0.13160000  1.0 0.5205429001
C  C23  1  0.98590000  0.29670000  0.14440000  1.0 -0.0495463341
C  C24  1  0.84710000  0.30260000  0.12590000  1.0 -0.0789908032
C  C25  1  0.73100000  0.25130000  0.13660000  1.0 -0.1504615145
C  C26  1  0.73140000  0.19860000  0.16960000  1.0 0.0825963719
C  C27  1  0.86210000  0.19290000  0.19030000  1.0 -0.1306128102
C  C28  1  0.97120000  0.24000000  0.17790000  1.0 -0.0889196903
C  C29  1  0.57430000  0.46690000  0.15960000  1.0 0.5026712222
C  C30  1  0.69650000  0.46410000  0.18550000  1.0 -0.0495463341
C  C31  1  0.83360000  0.49880000  0.17420000  1.0 -0.0889196903
C  C32  1  0.94690000  0.49930000  0.19900000  1.0 -0.1389823407
C  C33  1  0.93850000  0.46430000  0.23650000  1.0 0.0719714416
C  C34  1  0.80810000  0.43660000  0.24970000  1.0 -0.1389823407
C  C35  1  0.69270000  0.43110000  0.22360000  1.0 -0.0889196903
C  C36  1  0.90600000  0.12460000  0.81700000  1.0 0.5270006014
C  C37  1  0.85300000  0.16260000  0.85280000  1.0 -0.0596570342
C  C38  1  0.86500000  0.25060000  0.86000000  1.0 -0.0889196903
C  C39  1  0.78700000  0.28800000  0.89340000  1.0 -0.1389823407
C  C40  1  0.72700000  0.23150000  0.92070000  1.0 0.0719714416
C  C41  1  0.71700000  0.14690000  0.91390000  1.0 -0.1504615145
C  C42  1  0.78300000  0.10800000  0.88110000  1.0 -0.0889196903
C  C43  1  0.44410000  0.36880000  0.05680000  1.0 0.5521357608
C  C44  1  0.51500000  0.33640000  0.02210000  1.0 -0.0447239997
C  C45  1  0.50700000  0.37650000  0.98540000  1.0 -0.068896384
C  C46  1  0.57000000  0.34720000  0.95330000  1.0 -0.1306128102
C  C47  1  0.64800000  0.27060000  0.95440000  1.0 0.0867891805
C  C48  1  0.66000000  0.22730000  0.99140000  1.0 -0.161753838
C  C49  1  0.59000000  0.26130000  0.02360000  1.0 -0.0889196903
C  C50  1  0.75860000  0.99370000  0.72350000  1.0 0.4906908376
C  C51  1  0.63780000  0.94610000  0.70830000  1.0 -0.0596570342
C  C52  1  0.64400000  0.85540000  0.70240000  1.0 -0.0789908032
C  C53  1  0.52800000  0.79860000  0.68930000  1.0 -0.1139306473
C  C54  1  0.39540000  0.85060000  0.68280000  1.0 0.0867891805
C  C55  1  0.38480000  0.93520000  0.68930000  1.0 -0.1389823407
C  C56  1  0.51000000  0.98510000  0.70210000  1.0 -0.0889196903
C  C57  1  0.88390000  0.66170000  0.63160000  1.0 0.5205429001
C  C58  1  0.01410000  0.70330000  0.64440000  1.0 -0.0495463341
C  C59  1  0.15290000  0.69740000  0.62590000  1.0 -0.0789908032
C  C60  1  0.26900000  0.74870000  0.63660000  1.0 -0.1504615145
C  C61  1  0.26860000  0.80140000  0.66960000  1.0 0.0825963719
C  C62  1  0.13790000  0.80710000  0.69030000  1.0 -0.1306128102
C  C63  1  0.02880000  0.76000000  0.67790000  1.0 -0.0889196903
C  C64  1  0.42570000  0.53310000  0.65960000  1.0 0.5026712222
C  C65  1  0.30350000  0.53590000  0.68550000  1.0 -0.0495463341
C  C66  1  0.16640000  0.50120000  0.67420000  1.0 -0.0889196903
C  C67  1  0.05310000  0.50070000  0.69900000  1.0 -0.1389823407
C  C68  1  0.06150000  0.53570000  0.73650000  1.0 0.0719714416
C  C69  1  0.19190000  0.56340000  0.74970000  1.0 -0.1389823407
C  C70  1  0.30730000  0.56890000  0.72360000  1.0 -0.0889196903
C  C71  1  0.90600000  0.87540000  0.18300000  1.0 0.5270006014
C  C72  1  0.85300000  0.83740000  0.14720000  1.0 -0.0596570342
C  C73  1  0.86500000  0.74940000  0.14000000  1.0 -0.0889196903
C  C74  1  0.78700000  0.71200000  0.10660000  1.0 -0.1389823407
C  C75  1  0.72700000  0.76850000  0.07930000  1.0 0.0719714416
C  C76  1  0.71700000  0.85310000  0.08610000  1.0 -0.1504615145
C  C77  1  0.78300000  0.89200000  0.11890000  1.0 -0.0889196903
C  C78  1  0.44410000  0.63120000  0.94320000  1.0 0.5521357608
C  C79  1  0.51500000  0.66360000  0.97790000  1.0 -0.0495463341
C  C80  1  0.50700000  0.62350000  0.01460000  1.0 -0.068896384
C  C81  1  0.57000000  0.65280000  0.04670000  1.0 -0.1306128102
C  C82  1  0.64800000  0.72940000  0.04560000  1.0 0.0867891805
C  C83  1  0.66000000  0.77270000  0.00860000  1.0 -0.161753838
C  C84  1  0.59000000  0.73870000  0.97640000  1.0 -0.0889196903
C  C85  1  0.75860000  0.00630000  0.27650000  1.0 0.4906908376
C  C86  1  0.63780000  0.05390000  0.29170000  1.0 -0.0596570342
C  C87  1  0.64400000  0.14460000  0.29760000  1.0 -0.0789908032
C  C88  1  0.52800000  0.20140000  0.31070000  1.0 -0.1139306473
C  C89  1  0.39540000  0.14940000  0.31720000  1.0 0.0867891805
C  C90  1  0.38480000  0.06480000  0.31070000  1.0 -0.1389823407
C  C91  1  0.51000000  0.01490000  0.29790000  1.0 -0.0889196903
C  C92  1  0.88390000  0.33830000  0.36840000  1.0 0.5205429001
C  C93  1  0.01410000  0.29670000  0.35560000  1.0 -0.0495463341
C  C94  1  0.15290000  0.30260000  0.37410000  1.0 -0.0789908032
C  C95  1  0.26900000  0.25130000  0.36340000  1.0 -0.1504615145
C  C96  1  0.26860000  0.19860000  0.33040000  1.0 0.0825963719
C  C97  1  0.13790000  0.19290000  0.30970000  1.0 -0.1306128102
C  C98  1  0.02880000  0.24000000  0.32210000  1.0 -0.0889196903
C  C99  1  0.42570000  0.46690000  0.34040000  1.0 0.5026712222
C  C100  1  0.30350000  0.46410000  0.31450000  1.0 -0.0495463341
C  C101  1  0.16640000  0.49880000  0.32580000  1.0 -0.0889196903
C  C102  1  0.05310000  0.49930000  0.30100000  1.0 -0.1389823407
C  C103  1  0.06150000  0.46430000  0.26350000  1.0 0.0719714416
C  C104  1  0.19190000  0.43660000  0.25030000  1.0 -0.1389823407
C  C105  1  0.30730000  0.43110000  0.27640000  1.0 -0.0889196903
C  C106  1  0.09400000  0.12460000  0.68300000  1.0 0.5270006014
C  C107  1  0.14700000  0.16260000  0.64720000  1.0 -0.0596570342
C  C108  1  0.13500000  0.25060000  0.64000000  1.0 -0.0889196903
C  C109  1  0.21300000  0.28800000  0.60660000  1.0 -0.1389823407
C  C110  1  0.27300000  0.23150000  0.57930000  1.0 0.0719714416
C  C111  1  0.28300000  0.14690000  0.58610000  1.0 -0.1504615145
C  C112  1  0.21700000  0.10800000  0.61890000  1.0 -0.0889196903
C  C113  1  0.55590000  0.36880000  0.44320000  1.0 0.5521357608
C  C114  1  0.48500000  0.33640000  0.47790000  1.0 -0.0495463341
C  C115  1  0.49300000  0.37650000  0.51460000  1.0 -0.068896384
C  C116  1  0.43000000  0.34720000  0.54670000  1.0 -0.1306128102
C  C117  1  0.35200000  0.27060000  0.54560000  1.0 0.0867891805
C  C118  1  0.34000000  0.22730000  0.50860000  1.0 -0.161753838
C  C119  1  0.41000000  0.26130000  0.47640000  1.0 -0.0889196903
C  C120  1  0.24140000  0.99370000  0.77650000  1.0 0.4906908376
C  C121  1  0.36220000  0.94610000  0.79170000  1.0 -0.0596570342
C  C122  1  0.35600000  0.85540000  0.79760000  1.0 -0.0789908032
C  C123  1  0.47200000  0.79860000  0.81070000  1.0 -0.1139306473
C  C124  1  0.60460000  0.85060000  0.81720000  1.0 0.0867891805
C  C125  1  0.61520000  0.93520000  0.81070000  1.0 -0.1389823407
C  C126  1  0.49000000  0.98510000  0.79790000  1.0 -0.0889196903
C  C127  1  0.11610000  0.66170000  0.86840000  1.0 0.5205429001
C  C128  1  0.98590000  0.70330000  0.85560000  1.0 -0.0495463341
C  C129  1  0.84710000  0.69740000  0.87410000  1.0 -0.0789908032
C  C130  1  0.73100000  0.74870000  0.86340000  1.0 -0.1504615145
C  C131  1  0.73140000  0.80140000  0.83040000  1.0 0.0825963719
C  C132  1  0.86210000  0.80710000  0.80970000  1.0 -0.1306128102
C  C133  1  0.97120000  0.76000000  0.82210000  1.0 -0.0889196903
C  C134  1  0.57430000  0.53310000  0.84040000  1.0 0.5026712222
C  C135  1  0.69650000  0.53590000  0.81450000  1.0 -0.0495463341
C  C136  1  0.83360000  0.50120000  0.82580000  1.0 -0.0889196903
C  C137  1  0.94690000  0.50070000  0.80100000  1.0 -0.1389823407
C  C138  1  0.93850000  0.53570000  0.76350000  1.0 0.0719714416
C  C139  1  0.80810000  0.56340000  0.75030000  1.0 -0.1389823407
C  C140  1  0.69270000  0.56890000  0.77640000  1.0 -0.0889196903
C  C141  1  0.63000000  0.35250000  0.74360000  1.0 -0.0495463341
C  C142  1  0.76790000  0.30960000  0.73550000  1.0 -0.4108867245
C  C143  1  0.47900000  0.24020000  0.71440000  1.0 -0.0596570342
C  C144  1  0.45800000  0.27760000  0.67540000  1.0 -0.4108867245
C  C145  1  0.37000000  0.35250000  0.75640000  1.0 -0.0495463341
C  C146  1  0.23210000  0.30960000  0.76450000  1.0 -0.4108867245
C  C147  1  0.52100000  0.24020000  0.78560000  1.0 -0.0596570342
C  C148  1  0.54200000  0.27760000  0.82460000  1.0 -0.4108867245
C  C149  1  0.37000000  0.64750000  0.24360000  1.0 -0.0495463341
C  C150  1  0.23210000  0.69040000  0.23550000  1.0 -0.4108867245
C  C151  1  0.52100000  0.75980000  0.21440000  1.0 -0.0596570342
C  C152  1  0.54200000  0.72240000  0.17540000  1.0 -0.4108867245
C  C153  1  0.63000000  0.64750000  0.25640000  1.0 -0.0495463341
C  C154  1  0.76790000  0.69040000  0.26450000  1.0 -0.4108867245
C  C155  1  0.47900000  0.75980000  0.28560000  1.0 -0.0596570342
C  C156  1  0.45800000  0.72240000  0.32460000  1.0 -0.4108867245
Br  Br1  1  0.22444000  0.58507000  0.12604000  1.0 -0.4768988202
Br  Br2  1  0.77556000  0.41493000  0.62604000  1.0 -0.4768988202
Br  Br3  1  0.77556000  0.58507000  0.37396000  1.0 -0.4768988202
Br  Br4  1  0.22444000  0.41493000  0.87396000  1.0 -0.4768988202
N  N1  1  0.50000000  0.29410000  0.75000000  1.0 0.14791591
N  N2  1  0.50000000  0.70590000  0.25000000  1.0 0.14791591
O  O1  1  0.08490000  0.95650000  0.31290000  1.0 -0.5430955338
O  O2  1  0.04640000  0.82590000  0.29060000  1.0 -0.5245427685
O  O3  1  0.62000000  0.55840000  0.55550000  1.0 -0.5111033814
O  O4  1  0.55490000  0.66960000  0.58860000  1.0 -0.4918978783
O  O5  1  0.23390000  0.94170000  0.22570000  1.0 -0.2426007884
O  O6  1  0.13160000  0.04990000  0.23260000  1.0 -0.4167335229
O  O7  1  0.10320000  0.37830000  0.09980000  1.0 -0.5111033814
O  O8  1  0.20140000  0.35150000  0.15650000  1.0 -0.4768988202
O  O9  1  0.57720000  0.49260000  0.12730000  1.0 -0.4521853524
O  O10  1  0.46440000  0.42520000  0.17260000  1.0 -0.5266670184
O  O11  1  0.91510000  0.04350000  0.81290000  1.0 -0.5430955338
O  O12  1  0.95360000  0.17410000  0.79060000  1.0 -0.5245427685
O  O13  1  0.38000000  0.44160000  0.05550000  1.0 -0.5111033814
O  O14  1  0.44510000  0.33040000  0.08860000  1.0 -0.4918978783
O  O15  1  0.76610000  0.05830000  0.72570000  1.0 -0.2426007884
O  O16  1  0.86840000  0.95010000  0.73260000  1.0 -0.4167335229
O  O17  1  0.89680000  0.62170000  0.59980000  1.0 -0.5111033814
O  O18  1  0.79860000  0.64850000  0.65650000  1.0 -0.4768988202
O  O19  1  0.42280000  0.50740000  0.62730000  1.0 -0.4521853524
O  O20  1  0.53560000  0.57480000  0.67260000  1.0 -0.5266670184
O  O21  1  0.91510000  0.95650000  0.18710000  1.0 -0.5430955338
O  O22  1  0.95360000  0.82590000  0.20940000  1.0 -0.5245427685
O  O23  1  0.38000000  0.55840000  0.94450000  1.0 -0.5111033814
O  O24  1  0.44510000  0.66960000  0.91140000  1.0 -0.4918978783
O  O25  1  0.76610000  0.94170000  0.27430000  1.0 -0.2426007884
O  O26  1  0.86840000  0.04990000  0.26740000  1.0 -0.4167335229
O  O27  1  0.89680000  0.37830000  0.40020000  1.0 -0.5111033814
O  O28  1  0.79860000  0.35150000  0.34350000  1.0 -0.4768988202
O  O29  1  0.42280000  0.49260000  0.37270000  1.0 -0.4521853524
O  O30  1  0.53560000  0.42520000  0.32740000  1.0 -0.5266670184
O  O31  1  0.08490000  0.04350000  0.68710000  1.0 -0.5430955338
O  O32  1  0.04640000  0.17410000  0.70940000  1.0 -0.5245427685
O  O33  1  0.62000000  0.44160000  0.44450000  1.0 -0.5111033814
O  O34  1  0.55490000  0.33040000  0.41140000  1.0 -0.4918978783
O  O35  1  0.23390000  0.05830000  0.77430000  1.0 -0.2426007884
O  O36  1  0.13160000  0.95010000  0.76740000  1.0 -0.4167335229
O  O37  1  0.10320000  0.62170000  0.90020000  1.0 -0.5111033814
O  O38  1  0.20140000  0.64850000  0.84350000  1.0 -0.4768988202
O  O39  1  0.57720000  0.50740000  0.87270000  1.0 -0.4521853524
O  O40  1  0.46440000  0.57480000  0.82740000  1.0 -0.5266670184
