# DDEC6 charges by PACMAN v1.1 (https://github.com/mtap-research/PACMAN-charge/)
data_MOVFOU_ASR_pacman
_symmetry_space_group_name_H-M   'P 1'
_cell_length_a   12.29300000
_cell_length_b   18.58300000
_cell_length_c   14.53800000
_cell_angle_alpha   90.00000000
_cell_angle_beta   97.06300000
_cell_angle_gamma   90.00000000
_symmetry_Int_Tables_number   1
_chemical_formula_structural   CoH22C35(NO3)2
_chemical_formula_sum   'Co4 H88 C140 N8 O24'
_cell_volume   3295.87083079
_cell_formula_units_Z   4
loop_
 _symmetry_equiv_pos_site_id
 _symmetry_equiv_pos_as_xyz
  1  'x, y, z'
loop_
 _atom_site_type_symbol
 _atom_site_label
 _atom_site_symmetry_multiplicity
 _atom_site_fract_x
 _atom_site_fract_y
 _atom_site_fract_z
 _atom_site_occupancy
 _atom_site_charge
Co  Co1  1  0.50000000  0.00000000  0.00000000  1.0 0.8499106178
Co  Co2  1  0.50000000  0.50000000  0.50000000  1.0 0.8499106178
Co  Co3  1  0.00000000  0.50000000  0.50000000  1.0 0.839246274
Co  Co4  1  0.00000000  0.00000000  0.00000000  1.0 0.839246274
H  H1  1  0.56030000  0.82300000  0.70190000  1.0 0.1366875542
H  H2  1  0.43970000  0.32300000  0.79810000  1.0 0.1366875542
H  H3  1  0.43970000  0.17700000  0.29810000  1.0 0.1366875542
H  H4  1  0.56030000  0.67700000  0.20190000  1.0 0.1366875542
H  H5  1  0.38630000  0.94590000  0.39130000  1.0 0.1183094872
H  H6  1  0.61370000  0.44590000  0.10870000  1.0 0.1183094872
H  H7  1  0.61370000  0.05410000  0.60870000  1.0 0.1183094872
H  H8  1  0.38630000  0.55410000  0.89130000  1.0 0.1183094872
H  H9  1  0.48150000  0.86400000  0.31570000  1.0 0.1183094872
H  H10  1  0.51850000  0.36400000  0.18430000  1.0 0.1183094872
H  H11  1  0.51850000  0.13600000  0.68430000  1.0 0.1183094872
H  H12  1  0.48150000  0.63600000  0.81570000  1.0 0.1183094872
H  H13  1  0.58320000  0.77270000  0.39530000  1.0 0.1292003593
H  H14  1  0.41680000  0.27270000  0.10470000  1.0 0.1292003593
H  H15  1  0.41680000  0.22730000  0.60470000  1.0 0.1292003593
H  H16  1  0.58320000  0.72730000  0.89530000  1.0 0.1292003593
H  H17  1  0.60060000  0.77060000  0.55380000  1.0 0.1292003593
H  H18  1  0.39940000  0.27060000  0.94620000  1.0 0.1292003593
H  H19  1  0.39940000  0.22940000  0.44620000  1.0 0.1292003593
H  H20  1  0.60060000  0.72940000  0.05380000  1.0 0.1292003593
H  H21  1  0.26260000  0.04100000  0.57080000  1.0 0.1134951232
H  H22  1  0.73740000  0.54100000  0.92920000  1.0 0.1134951232
H  H23  1  0.73740000  0.95900000  0.42920000  1.0 0.1134951232
H  H24  1  0.26260000  0.45900000  0.07080000  1.0 0.1134951232
H  H25  1  0.33870000  0.04690000  0.49260000  1.0 0.1183094872
H  H26  1  0.66130000  0.54690000  0.00740000  1.0 0.1183094872
H  H27  1  0.66130000  0.95310000  0.50740000  1.0 0.1183094872
H  H28  1  0.33870000  0.45310000  0.99260000  1.0 0.1183094872
H  H29  1  0.97790000  0.92090000  0.27380000  1.0 0.1292003593
H  H30  1  0.02210000  0.42090000  0.22620000  1.0 0.1292003593
H  H31  1  0.02210000  0.07910000  0.72620000  1.0 0.1292003593
H  H32  1  0.97790000  0.57910000  0.77380000  1.0 0.1292003593
H  H33  1  0.16700000  0.93470000  0.61890000  1.0 0.1183094872
H  H34  1  0.83300000  0.43470000  0.88110000  1.0 0.1183094872
H  H35  1  0.83300000  0.06530000  0.38110000  1.0 0.1134951232
H  H36  1  0.16700000  0.56530000  0.11890000  1.0 0.1183094872
H  H37  1  0.02410000  0.86720000  0.65880000  1.0 0.1183094872
H  H38  1  0.97590000  0.36720000  0.84120000  1.0 0.1183094872
H  H39  1  0.97590000  0.13280000  0.34120000  1.0 0.1183094872
H  H40  1  0.02410000  0.63280000  0.15880000  1.0 0.1183094872
H  H41  1  0.88370000  0.82890000  0.54590000  1.0 0.1183094872
H  H42  1  0.11630000  0.32890000  0.95410000  1.0 0.1183094872
H  H43  1  0.11630000  0.17110000  0.45410000  1.0 0.1183094872
H  H44  1  0.88370000  0.67110000  0.04590000  1.0 0.1183094872
H  H45  1  0.88770000  0.86060000  0.39420000  1.0 0.1292003593
H  H46  1  0.11230000  0.36060000  0.10580000  1.0 0.1292003593
H  H47  1  0.11230000  0.13940000  0.60580000  1.0 0.1292003593
H  H48  1  0.88770000  0.63940000  0.89420000  1.0 0.1292003593
H  H49  1  0.35200000  0.98480000  0.15730000  1.0 0.1292003593
H  H50  1  0.64800000  0.48480000  0.34270000  1.0 0.1292003593
H  H51  1  0.64800000  0.01520000  0.84270000  1.0 0.1292003593
H  H52  1  0.35200000  0.51520000  0.65730000  1.0 0.1292003593
H  H53  1  0.26850000  0.90050000  0.23820000  1.0 0.1292003593
H  H54  1  0.73150000  0.40050000  0.26180000  1.0 0.1292003593
H  H55  1  0.73150000  0.09950000  0.76180000  1.0 0.1292003593
H  H56  1  0.26850000  0.59950000  0.73820000  1.0 0.1292003593
H  H57  1  0.34140000  0.75230000  0.05560000  1.0 0.1292003593
H  H58  1  0.65860000  0.25230000  0.44440000  1.0 0.1292003593
H  H59  1  0.65860000  0.24770000  0.94440000  1.0 0.1292003593
H  H60  1  0.34140000  0.74770000  0.55560000  1.0 0.1292003593
H  H61  1  0.42370000  0.84080000  0.97930000  1.0 0.1134951232
H  H62  1  0.57630000  0.34080000  0.52070000  1.0 0.1134951232
H  H63  1  0.57630000  0.15920000  0.02070000  1.0 0.1134951232
H  H64  1  0.42370000  0.65920000  0.47930000  1.0 0.1134951232
H  H65  1  0.25160000  0.71110000  0.18520000  1.0 0.1292003593
H  H66  1  0.74840000  0.21110000  0.31480000  1.0 0.1292003593
H  H67  1  0.74840000  0.28890000  0.81480000  1.0 0.1292003593
H  H68  1  0.25160000  0.78890000  0.68520000  1.0 0.1292003593
H  H69  1  0.21330000  0.80830000  0.31910000  1.0 0.1292003593
H  H70  1  0.78670000  0.30830000  0.18090000  1.0 0.1292003593
H  H71  1  0.78670000  0.19170000  0.68090000  1.0 0.1292003593
H  H72  1  0.21330000  0.69170000  0.81910000  1.0 0.1292003593
H  H73  1  0.10690000  0.76330000  0.44040000  1.0 0.1366875542
H  H74  1  0.89310000  0.26330000  0.05960000  1.0 0.1366875542
H  H75  1  0.89310000  0.23670000  0.55960000  1.0 0.1366875542
H  H76  1  0.10690000  0.73670000  0.94040000  1.0 0.1366875542
H  H77  1  0.03960000  0.66980000  0.51980000  1.0 0.1183094872
H  H78  1  0.96040000  0.16980000  0.98020000  1.0 0.1183094872
H  H79  1  0.96040000  0.33020000  0.48020000  1.0 0.1183094872
H  H80  1  0.03960000  0.83020000  0.01980000  1.0 0.1183094872
H  H81  1  0.15570000  0.52990000  0.35720000  1.0 0.1292003593
H  H82  1  0.84430000  0.02990000  0.14280000  1.0 0.1292003593
H  H83  1  0.84430000  0.47010000  0.64280000  1.0 0.1292003593
H  H84  1  0.15570000  0.97010000  0.85720000  1.0 0.1292003593
H  H85  1  0.22880000  0.61870000  0.27550000  1.0 0.1366875542
H  H86  1  0.77120000  0.11870000  0.22450000  1.0 0.1366875542
H  H87  1  0.77120000  0.38130000  0.72450000  1.0 0.1366875542
H  H88  1  0.22880000  0.88130000  0.77550000  1.0 0.1366875542
C  C1  1  0.46236000  0.90632000  0.71857000  1.0 -0.1062161094
C  C2  1  0.53764000  0.40632000  0.78143000  1.0 -0.1062161094
C  C3  1  0.53764000  0.09368000  0.28143000  1.0 -0.1062161094
C  C4  1  0.46236000  0.59368000  0.21857000  1.0 -0.1062161094
C  C5  1  0.51467000  0.85689000  0.66977000  1.0 -0.1292103408
C  C6  1  0.48533000  0.35689000  0.83023000  1.0 -0.1292103408
C  C7  1  0.48533000  0.14311000  0.33023000  1.0 -0.1292103408
C  C8  1  0.51467000  0.64311000  0.16977000  1.0 -0.1292103408
C  C9  1  0.50111000  0.85594000  0.57163000  1.0 0.0602913657
C  C10  1  0.49889000  0.35594000  0.92837000  1.0 0.0602913657
C  C11  1  0.49889000  0.14406000  0.42837000  1.0 0.0602913657
C  C12  1  0.50111000  0.64406000  0.07163000  1.0 0.0602913657
C  C13  1  0.43073000  0.90866000  0.52337000  1.0 0.0384776928
C  C14  1  0.56927000  0.40866000  0.97663000  1.0 0.0384776928
C  C15  1  0.56927000  0.09134000  0.47663000  1.0 0.0384776928
C  C16  1  0.43073000  0.59134000  0.02337000  1.0 0.0384776928
C  C17  1  0.37121000  0.95750000  0.57328000  1.0 -0.0068496773
C  C18  1  0.62879000  0.45750000  0.92672000  1.0 -0.0068496773
C  C19  1  0.62879000  0.04250000  0.42672000  1.0 -0.0068496773
C  C20  1  0.37121000  0.54250000  0.07328000  1.0 -0.0068496773
C  C21  1  0.38873000  0.95637000  0.66916000  1.0 0.222184063
C  C22  1  0.61127000  0.45637000  0.83084000  1.0 0.222184063
C  C23  1  0.61127000  0.04363000  0.33084000  1.0 0.222184063
C  C24  1  0.38873000  0.54363000  0.16916000  1.0 0.222184063
C  C25  1  0.42757000  0.91074000  0.42507000  1.0 -0.118323938
C  C26  1  0.57243000  0.41074000  0.07493000  1.0 -0.118323938
C  C27  1  0.57243000  0.08926000  0.57493000  1.0 -0.118323938
C  C28  1  0.42757000  0.58926000  0.92507000  1.0 -0.118323938
C  C29  1  0.48473000  0.86140000  0.37985000  1.0 -0.0704076951
C  C30  1  0.51527000  0.36140000  0.12015000  1.0 -0.0704076951
C  C31  1  0.51527000  0.13860000  0.62015000  1.0 -0.0704076951
C  C32  1  0.48473000  0.63860000  0.87985000  1.0 -0.0704076951
C  C33  1  0.54802000  0.80708000  0.42760000  1.0 -0.0849873637
C  C34  1  0.45198000  0.30708000  0.07240000  1.0 -0.0849873637
C  C35  1  0.45198000  0.19292000  0.57240000  1.0 -0.0849873637
C  C36  1  0.54802000  0.69292000  0.92760000  1.0 -0.0849873637
C  C37  1  0.55697000  0.80549000  0.52168000  1.0 -0.1292103408
C  C38  1  0.44303000  0.30549000  0.97832000  1.0 -0.1292103408
C  C39  1  0.44303000  0.19451000  0.47832000  1.0 -0.1292103408
C  C40  1  0.55697000  0.69451000  0.02168000  1.0 -0.1292103408
C  C41  1  0.29483000  0.01372000  0.52406000  1.0 -0.2583233556
C  C42  1  0.70517000  0.51372000  0.97594000  1.0 -0.2583233556
C  C43  1  0.70517000  0.98628000  0.47594000  1.0 -0.2583233556
C  C44  1  0.29483000  0.48628000  0.02406000  1.0 -0.2583233556
C  C45  1  0.20210000  0.98605000  0.45364000  1.0 -0.0043705078
C  C46  1  0.79790000  0.48605000  0.04636000  1.0 -0.0043705078
C  C47  1  0.79790000  0.01395000  0.54636000  1.0 -0.0043705078
C  C48  1  0.20210000  0.51395000  0.95364000  1.0 -0.0043705078
C  C49  1  0.19500000  0.00922000  0.36205000  1.0 0.222184063
C  C50  1  0.80500000  0.50922000  0.13795000  1.0 0.222184063
C  C51  1  0.80500000  0.99078000  0.63795000  1.0 0.222184063
C  C52  1  0.19500000  0.49078000  0.86205000  1.0 0.222184063
C  C53  1  0.11046000  0.98375000  0.29309000  1.0 -0.118323938
C  C54  1  0.88954000  0.48375000  0.20691000  1.0 -0.118323938
C  C55  1  0.88954000  0.01625000  0.70691000  1.0 -0.118323938
C  C56  1  0.11046000  0.51625000  0.79309000  1.0 -0.118323938
C  C57  1  0.03171000  0.93830000  0.31882000  1.0 -0.1592982402
C  C58  1  0.96829000  0.43830000  0.18118000  1.0 -0.1592982402
C  C59  1  0.96829000  0.06170000  0.68118000  1.0 -0.1592982402
C  C60  1  0.03171000  0.56170000  0.81882000  1.0 -0.1592982402
C  C61  1  0.03036000  0.91738000  0.41160000  1.0 0.0602913657
C  C62  1  0.96964000  0.41738000  0.08840000  1.0 0.0602913657
C  C63  1  0.96964000  0.08262000  0.58840000  1.0 0.0602913657
C  C64  1  0.03036000  0.58262000  0.91160000  1.0 0.0602913657
C  C65  1  0.11741000  0.94097000  0.48030000  1.0 0.0384776928
C  C66  1  0.88259000  0.44097000  0.01970000  1.0 0.0384776928
C  C67  1  0.88259000  0.05903000  0.51970000  1.0 0.0384776928
C  C68  1  0.11741000  0.55903000  0.98030000  1.0 0.0384776928
C  C69  1  0.11174000  0.92043000  0.57305000  1.0 -0.1292103408
C  C70  1  0.88826000  0.42043000  0.92695000  1.0 -0.1292103408
C  C71  1  0.88826000  0.07957000  0.42695000  1.0 -0.1292103408
C  C72  1  0.11174000  0.57957000  0.07305000  1.0 -0.1292103408
C  C73  1  0.02603000  0.87970000  0.59710000  1.0 -0.0886655152
C  C74  1  0.97397000  0.37970000  0.90290000  1.0 -0.0886655152
C  C75  1  0.97397000  0.12030000  0.40290000  1.0 -0.0886655152
C  C76  1  0.02603000  0.62030000  0.09710000  1.0 -0.0886655152
C  C77  1  0.94105000  0.85667000  0.52922000  1.0 -0.0886655152
C  C78  1  0.05895000  0.35667000  0.97078000  1.0 -0.0886655152
C  C79  1  0.05895000  0.14333000  0.47078000  1.0 -0.0886655152
C  C80  1  0.94105000  0.64333000  0.02922000  1.0 -0.0886655152
C  C81  1  0.94391000  0.87559000  0.43883000  1.0 -0.1292103408
C  C82  1  0.05609000  0.37559000  0.06117000  1.0 -0.1292103408
C  C83  1  0.05609000  0.12441000  0.56117000  1.0 -0.1292103408
C  C84  1  0.94391000  0.62441000  0.93883000  1.0 -0.1292103408
C  C85  1  0.49230000  0.90917000  0.82196000  1.0 0.5691893259
C  C86  1  0.50770000  0.40917000  0.67804000  1.0 0.5691893259
C  C87  1  0.50770000  0.09083000  0.17804000  1.0 0.5691893259
C  C88  1  0.49230000  0.59083000  0.32196000  1.0 0.5691893259
C  C89  1  0.10662000  0.00648000  0.19378000  1.0 0.5691893259
C  C90  1  0.89338000  0.50648000  0.30622000  1.0 0.5691893259
C  C91  1  0.89338000  0.99352000  0.80622000  1.0 0.5691893259
C  C92  1  0.10662000  0.49352000  0.69378000  1.0 0.5691893259
C  C93  1  0.35097000  0.93730000  0.13706000  1.0 0.0986000989
C  C94  1  0.64903000  0.43730000  0.36294000  1.0 0.0986000989
C  C95  1  0.64903000  0.06270000  0.86294000  1.0 0.0986000989
C  C96  1  0.35097000  0.56270000  0.63706000  1.0 0.0986000989
C  C97  1  0.30083000  0.88662000  0.18644000  1.0 -0.1690603187
C  C98  1  0.69917000  0.38662000  0.31356000  1.0 -0.1690603187
C  C99  1  0.69917000  0.11338000  0.81356000  1.0 -0.1690603187
C  C100  1  0.30083000  0.61338000  0.68644000  1.0 -0.1690603187
C  C101  1  0.29812000  0.81482000  0.15963000  1.0 0.1626577908
C  C102  1  0.70188000  0.31482000  0.34037000  1.0 0.1626577908
C  C103  1  0.70188000  0.18518000  0.84037000  1.0 0.1626577908
C  C104  1  0.29812000  0.68518000  0.65963000  1.0 0.1626577908
C  C105  1  0.34391000  0.79901000  0.07858000  1.0 -0.1911320751
C  C106  1  0.65609000  0.29901000  0.42142000  1.0 -0.1911320751
C  C107  1  0.65609000  0.20099000  0.92142000  1.0 -0.1911320751
C  C108  1  0.34391000  0.70099000  0.57858000  1.0 -0.1911320751
C  C109  1  0.39302000  0.85297000  0.03259000  1.0 0.0986000989
C  C110  1  0.60698000  0.35297000  0.46741000  1.0 0.0986000989
C  C111  1  0.60698000  0.14703000  0.96741000  1.0 0.0947202156
C  C112  1  0.39302000  0.64703000  0.53259000  1.0 0.0986000989
C  C113  1  0.25321000  0.75669000  0.21164000  1.0 -0.1292103408
C  C114  1  0.74679000  0.25669000  0.28836000  1.0 -0.1292103408
C  C115  1  0.74679000  0.24331000  0.78836000  1.0 -0.1292103408
C  C116  1  0.25321000  0.74331000  0.71164000  1.0 -0.1292103408
C  C117  1  0.21427000  0.76250000  0.29330000  1.0 -0.1292103408
C  C118  1  0.78573000  0.26250000  0.20670000  1.0 -0.1292103408
C  C119  1  0.78573000  0.23750000  0.70670000  1.0 -0.1292103408
C  C120  1  0.21427000  0.73750000  0.79330000  1.0 -0.1292103408
C  C121  1  0.17318000  0.70337000  0.34548000  1.0 0.1626577908
C  C122  1  0.82682000  0.20337000  0.15452000  1.0 0.1626577908
C  C123  1  0.82682000  0.29663000  0.65452000  1.0 0.1626577908
C  C124  1  0.17318000  0.79663000  0.84548000  1.0 0.1626577908
C  C125  1  0.11709000  0.71622000  0.42137000  1.0 -0.1911320751
C  C126  1  0.88291000  0.21622000  0.07863000  1.0 -0.1911320751
C  C127  1  0.88291000  0.28378000  0.57863000  1.0 -0.1911320751
C  C128  1  0.11709000  0.78378000  0.92137000  1.0 -0.1911320751
C  C129  1  0.07617000  0.65933000  0.46905000  1.0 0.0986000989
C  C130  1  0.92383000  0.15933000  0.03095000  1.0 0.0986000989
C  C131  1  0.92383000  0.34067000  0.53095000  1.0 0.0986000989
C  C132  1  0.07617000  0.84067000  0.96905000  1.0 0.0986000989
C  C133  1  0.14488000  0.57744000  0.37363000  1.0 0.0986000989
C  C134  1  0.85512000  0.07744000  0.12637000  1.0 0.0986000989
C  C135  1  0.85512000  0.42256000  0.62637000  1.0 0.0986000989
C  C136  1  0.14488000  0.92256000  0.87363000  1.0 0.0986000989
C  C137  1  0.18884000  0.63074000  0.32359000  1.0 -0.1690603187
C  C138  1  0.81116000  0.13074000  0.17641000  1.0 -0.1690603187
C  C139  1  0.81116000  0.36926000  0.67641000  1.0 -0.1690603187
C  C140  1  0.18884000  0.86926000  0.82359000  1.0 -0.1690603187
N  N1  1  0.39889000  0.92172000  0.06052000  1.0 -0.2240951462
N  N2  1  0.60111000  0.42172000  0.43948000  1.0 -0.2240951462
N  N3  1  0.60111000  0.07828000  0.93948000  1.0 -0.2240951462
N  N4  1  0.39889000  0.57828000  0.56052000  1.0 -0.2240951462
N  N5  1  0.08694000  0.59019000  0.44530000  1.0 -0.2432998484
N  N6  1  0.91306000  0.09019000  0.05470000  1.0 -0.2432998484
N  N7  1  0.91306000  0.40981000  0.55470000  1.0 -0.2432998484
N  N8  1  0.08694000  0.90981000  0.94530000  1.0 -0.2432998484
O  O1  1  0.44679000  0.95817000  0.86611000  1.0 -0.5394914141
O  O2  1  0.55321000  0.45817000  0.63389000  1.0 -0.5394914141
O  O3  1  0.55321000  0.04183000  0.13389000  1.0 -0.5394914141
O  O4  1  0.44679000  0.54183000  0.36611000  1.0 -0.5394914141
O  O5  1  0.56159000  0.86559000  0.85913000  1.0 -0.5394914141
O  O6  1  0.43841000  0.36559000  0.64087000  1.0 -0.5394914141
O  O7  1  0.43841000  0.13441000  0.14087000  1.0 -0.5394914141
O  O8  1  0.56159000  0.63441000  0.35913000  1.0 -0.5394914141
O  O9  1  0.16545000  0.05981000  0.17615000  1.0 -0.4819666883
O  O10  1  0.83455000  0.55981000  0.32385000  1.0 -0.4819666883
O  O11  1  0.83455000  0.94019000  0.82385000  1.0 -0.4819666883
O  O12  1  0.16545000  0.44019000  0.67615000  1.0 -0.4819666883
O  O13  1  0.04591000  0.97120000  0.13437000  1.0 -0.5906661143
O  O14  1  0.95409000  0.47120000  0.36563000  1.0 -0.5906661143
O  O15  1  0.95409000  0.02880000  0.86563000  1.0 -0.5906661143
O  O16  1  0.04591000  0.52880000  0.63437000  1.0 -0.5906661143
O  O17  1  0.33364000  0.00460000  0.71843000  1.0 -0.4593335679
O  O18  1  0.66636000  0.50460000  0.78157000  1.0 -0.4593335679
O  O19  1  0.66636000  0.99540000  0.28157000  1.0 -0.4593335679
O  O20  1  0.33364000  0.49540000  0.21843000  1.0 -0.4593335679
O  O21  1  0.27201000  0.05591000  0.33797000  1.0 -0.4212057879
O  O22  1  0.72799000  0.55591000  0.16203000  1.0 -0.4212057879
O  O23  1  0.72799000  0.94409000  0.66203000  1.0 -0.4212057879
O  O24  1  0.27201000  0.44409000  0.83797000  1.0 -0.4212057879
