# DDEC6 charges by PACMAN v1.1 (https://github.com/mtap-research/PACMAN-charge/)
data_MOWFIQ_ASR_pacman
_symmetry_space_group_name_H-M   'P 1'
_cell_length_a   23.04490000
_cell_length_b   23.04490000
_cell_length_c   20.70800000
_cell_angle_alpha   90.00000000
_cell_angle_beta   90.00000000
_cell_angle_gamma   93.46920000
_symmetry_Int_Tables_number   1
_chemical_formula_structural   Zn5H54(C48O11)2
_chemical_formula_sum   'Zn10 H108 C192 O44'
_cell_volume   10977.19110481
_cell_formula_units_Z   2
loop_
 _symmetry_equiv_pos_site_id
 _symmetry_equiv_pos_as_xyz
  1  'x, y, z'
loop_
 _atom_site_type_symbol
 _atom_site_label
 _atom_site_symmetry_multiplicity
 _atom_site_fract_x
 _atom_site_fract_y
 _atom_site_fract_z
 _atom_site_occupancy
 _atom_site_charge
Zn  Zn1  1  0.30750000  0.72694000  0.63237000  1.0 0.9282731807
Zn  Zn2  1  0.16601000  0.70373000  0.62498000  1.0 1.0224904811
Zn  Zn3  1  0.69250000  0.27306000  0.13237000  1.0 0.9282731807
Zn  Zn4  1  0.83399000  0.29627000  0.12498000  1.0 1.0224904811
Zn  Zn5  1  0.27306000  0.69250000  0.86763000  1.0 0.9282731807
Zn  Zn6  1  0.29627000  0.83399000  0.87502000  1.0 1.0224904811
Zn  Zn7  1  0.72694000  0.30750000  0.36763000  1.0 0.9282731807
Zn  Zn8  1  0.70373000  0.16601000  0.37502000  1.0 1.0224904811
Zn  Zn9  1  0.22410000  0.77590000  0.75000000  1.0 0.9736156559
Zn  Zn10  1  0.77590000  0.22410000  0.25000000  1.0 0.9736156559
H  H1  1  0.13950000  0.27010000  0.27700000  1.0 0.3285396492
H  H2  1  0.29840000  0.16040000  0.28310000  1.0 0.343921055
H  H3  1  0.23760000  0.67820000  0.71260000  1.0 0.38714535
H  H4  1  0.15100000  0.86400000  0.53010000  1.0 0.1205493775
H  H5  1  0.14600000  0.95480000  0.48270000  1.0 0.112473985
H  H6  1  0.31980000  0.97960000  0.49370000  1.0 0.1205493775
H  H7  1  0.32490000  0.88890000  0.54100000  1.0 0.1282860447
H  H8  1  0.14100000  0.02880000  0.43280000  1.0 0.112473985
H  H9  1  0.30930000  0.16030000  0.43290000  1.0 0.112473985
H  H10  1  0.30590000  0.06970000  0.48450000  1.0 0.112473985
H  H11  1  0.09260000  0.10040000  0.37430000  1.0 0.1205493775
H  H12  1  0.08900000  0.22040000  0.21290000  1.0 0.1282860447
H  H13  1  0.99780000  0.24500000  0.17900000  1.0 0.1205493775
H  H14  1  0.93310000  0.20570000  0.35490000  1.0 0.112473985
H  H15  1  0.02430000  0.18110000  0.38880000  1.0 0.112473985
H  H16  1  0.41040000  0.34480000  0.35850000  1.0 0.1205493775
H  H17  1  0.19400000  0.27520000  0.43200000  1.0 0.112473985
H  H18  1  0.19840000  0.36460000  0.48920000  1.0 0.1009578509
H  H19  1  0.36000000  0.40820000  0.42840000  1.0 0.112473985
H  H20  1  0.39640000  0.25040000  0.19830000  1.0 0.1205493775
H  H21  1  0.48290000  0.24270000  0.14260000  1.0 0.1282860447
H  H22  1  0.57190000  0.26390000  0.30870000  1.0 0.112473985
H  H23  1  0.48530000  0.27170000  0.36430000  1.0 0.1009578509
H  H24  1  0.18650000  0.46410000  0.47260000  1.0 0.1205493775
H  H25  1  0.18010000  0.55530000  0.51850000  1.0 0.1282860447
H  H26  1  0.35290000  0.56630000  0.54680000  1.0 0.1282860447
H  H27  1  0.35930000  0.47510000  0.50080000  1.0 0.1205493775
H  H28  1  0.86050000  0.72990000  0.77700000  1.0 0.3285396492
H  H29  1  0.70160000  0.83960000  0.78310000  1.0 0.3450291252
H  H30  1  0.76240000  0.32180000  0.21260000  1.0 0.38714535
H  H31  1  0.84900000  0.13600000  0.03010000  1.0 0.1282860447
H  H32  1  0.85400000  0.04520000  0.98270000  1.0 0.112473985
H  H33  1  0.68020000  0.02040000  0.99370000  1.0 0.1205493775
H  H34  1  0.67510000  0.11110000  0.04100000  1.0 0.1282860447
H  H35  1  0.85900000  0.97120000  0.93280000  1.0 0.112473985
H  H36  1  0.69070000  0.83970000  0.93290000  1.0 0.112473985
H  H37  1  0.69410000  0.93030000  0.98450000  1.0 0.112473985
H  H38  1  0.90740000  0.89960000  0.87430000  1.0 0.1205493775
H  H39  1  0.91100000  0.77960000  0.71290000  1.0 0.1282860447
H  H40  1  0.00220000  0.75500000  0.67900000  1.0 0.1205493775
H  H41  1  0.06690000  0.79430000  0.85490000  1.0 0.112473985
H  H42  1  0.97570000  0.81890000  0.88880000  1.0 0.112473985
H  H43  1  0.58960000  0.65520000  0.85850000  1.0 0.1205493775
H  H44  1  0.80600000  0.72480000  0.93200000  1.0 0.112473985
H  H45  1  0.80160000  0.63540000  0.98920000  1.0 0.1009578509
H  H46  1  0.64000000  0.59180000  0.92840000  1.0 0.112473985
H  H47  1  0.60360000  0.74960000  0.69830000  1.0 0.1205493775
H  H48  1  0.51710000  0.75730000  0.64260000  1.0 0.1282860447
H  H49  1  0.42810000  0.73610000  0.80870000  1.0 0.112473985
H  H50  1  0.51470000  0.72830000  0.86430000  1.0 0.1009578509
H  H51  1  0.81350000  0.53590000  0.97260000  1.0 0.1205493775
H  H52  1  0.81990000  0.44470000  0.01850000  1.0 0.1282860447
H  H53  1  0.64710000  0.43370000  0.04680000  1.0 0.1282860447
H  H54  1  0.64070000  0.52490000  0.00080000  1.0 0.1205493775
H  H55  1  0.72990000  0.86050000  0.22300000  1.0 0.3285396492
H  H56  1  0.83960000  0.70160000  0.21690000  1.0 0.343921055
H  H57  1  0.32180000  0.76240000  0.78740000  1.0 0.38714535
H  H58  1  0.13600000  0.84900000  0.96990000  1.0 0.1282860447
H  H59  1  0.04520000  0.85400000  0.01730000  1.0 0.112473985
H  H60  1  0.02040000  0.68020000  0.00630000  1.0 0.1205493775
H  H61  1  0.11110000  0.67510000  0.95900000  1.0 0.1282860447
H  H62  1  0.97120000  0.85900000  0.06720000  1.0 0.112473985
H  H63  1  0.83970000  0.69070000  0.06710000  1.0 0.112473985
H  H64  1  0.93030000  0.69410000  0.01550000  1.0 0.112473985
H  H65  1  0.89960000  0.90740000  0.12570000  1.0 0.1205493775
H  H66  1  0.77960000  0.91100000  0.28710000  1.0 0.1282860447
H  H67  1  0.75500000  0.00220000  0.32100000  1.0 0.1205493775
H  H68  1  0.79430000  0.06690000  0.14510000  1.0 0.112473985
H  H69  1  0.81890000  0.97570000  0.11120000  1.0 0.112473985
H  H70  1  0.65520000  0.58960000  0.14150000  1.0 0.1205493775
H  H71  1  0.72480000  0.80600000  0.06800000  1.0 0.112473985
H  H72  1  0.63540000  0.80160000  0.01080000  1.0 0.1009578509
H  H73  1  0.59180000  0.64000000  0.07160000  1.0 0.112473985
H  H74  1  0.74960000  0.60360000  0.30170000  1.0 0.1205493775
H  H75  1  0.75730000  0.51710000  0.35740000  1.0 0.1282860447
H  H76  1  0.73610000  0.42810000  0.19130000  1.0 0.112473985
H  H77  1  0.72830000  0.51470000  0.13570000  1.0 0.1009578509
H  H78  1  0.53590000  0.81350000  0.02740000  1.0 0.1205493775
H  H79  1  0.44470000  0.81990000  0.98150000  1.0 0.1282860447
H  H80  1  0.43370000  0.64710000  0.95320000  1.0 0.1282860447
H  H81  1  0.52490000  0.64070000  0.99920000  1.0 0.1205493775
H  H82  1  0.27010000  0.13950000  0.72300000  1.0 0.3285396492
H  H83  1  0.16040000  0.29840000  0.71690000  1.0 0.343921055
H  H84  1  0.67820000  0.23760000  0.28740000  1.0 0.38714535
H  H85  1  0.86400000  0.15100000  0.46990000  1.0 0.1282860447
H  H86  1  0.95480000  0.14600000  0.51730000  1.0 0.112473985
H  H87  1  0.97960000  0.31980000  0.50630000  1.0 0.1205493775
H  H88  1  0.88890000  0.32490000  0.45900000  1.0 0.1282860447
H  H89  1  0.02880000  0.14100000  0.56720000  1.0 0.112473985
H  H90  1  0.16030000  0.30930000  0.56710000  1.0 0.112473985
H  H91  1  0.06970000  0.30590000  0.51550000  1.0 0.112473985
H  H92  1  0.10040000  0.09260000  0.62570000  1.0 0.1205493775
H  H93  1  0.22040000  0.08900000  0.78710000  1.0 0.1282860447
H  H94  1  0.24500000  0.99780000  0.82100000  1.0 0.1205493775
H  H95  1  0.20570000  0.93310000  0.64510000  1.0 0.112473985
H  H96  1  0.18110000  0.02430000  0.61120000  1.0 0.112473985
H  H97  1  0.34480000  0.41040000  0.64150000  1.0 0.1205493775
H  H98  1  0.27520000  0.19400000  0.56800000  1.0 0.112473985
H  H99  1  0.36460000  0.19840000  0.51080000  1.0 0.1009578509
H  H100  1  0.40820000  0.36000000  0.57160000  1.0 0.112473985
H  H101  1  0.25040000  0.39640000  0.80170000  1.0 0.1205493775
H  H102  1  0.24270000  0.48290000  0.85740000  1.0 0.1282860447
H  H103  1  0.26390000  0.57190000  0.69130000  1.0 0.112473985
H  H104  1  0.27170000  0.48530000  0.63570000  1.0 0.1009578509
H  H105  1  0.46410000  0.18650000  0.52740000  1.0 0.1205493775
H  H106  1  0.55530000  0.18010000  0.48150000  1.0 0.1282860447
H  H107  1  0.56630000  0.35290000  0.45320000  1.0 0.1282860447
H  H108  1  0.47510000  0.35930000  0.49920000  1.0 0.1205493775
C  C1  1  0.23760000  0.80700000  0.57250000  1.0 0.5911190009
C  C2  1  0.23850000  0.86750000  0.54030000  1.0 -0.0126633474
C  C3  1  0.18480000  0.88720000  0.52280000  1.0 -0.1021552723
C  C4  1  0.18180000  0.94160000  0.49440000  1.0 -0.158660616
C  C5  1  0.23240000  0.97620000  0.48350000  1.0 0.0705505486
C  C6  1  0.28590000  0.95650000  0.50100000  1.0 -0.158660616
C  C7  1  0.28900000  0.90200000  0.52930000  1.0 -0.0883187714
C  C8  1  0.23020000  0.03760000  0.45290000  1.0 0.0705505486
C  C9  1  0.17490000  0.05250000  0.42790000  1.0 -0.2041841352
C  C10  1  0.17680000  0.10700000  0.39480000  1.0 0.0817339776
C  C11  1  0.22750000  0.14470000  0.39070000  1.0 0.0312463205
C  C12  1  0.27770000  0.13370000  0.42850000  1.0 -0.1522684939
C  C13  1  0.27470000  0.07870000  0.45860000  1.0 -0.1522684939
C  C14  1  0.12650000  0.12390000  0.36940000  1.0 -0.1881317252
C  C15  1  0.12460000  0.17880000  0.33430000  1.0 -0.0719670719
C  C16  1  0.17510000  0.21770000  0.32380000  1.0 0.2236428356
C  C17  1  0.22520000  0.19880000  0.35670000  1.0 -0.1021552723
C  C18  1  0.06570000  0.19830000  0.30420000  1.0 0.1009578509
C  C19  1  0.05780000  0.21740000  0.24130000  1.0 -0.1837328466
C  C20  1  0.00310000  0.23230000  0.22100000  1.0 -0.0719670719
C  C21  1  0.95640000  0.22780000  0.26360000  1.0 -0.0377708764
C  C22  1  0.96430000  0.20870000  0.32640000  1.0 -0.0719670719
C  C23  1  0.01910000  0.19390000  0.34670000  1.0 -0.158660616
C  C24  1  0.89650000  0.23790000  0.24000000  1.0 0.5911190009
C  C25  1  0.27930000  0.23750000  0.35480000  1.0 -0.1377598548
C  C26  1  0.32550000  0.22650000  0.31710000  1.0 0.2357476747
C  C27  1  0.37570000  0.27170000  0.32180000  1.0 -0.0236994846
C  C28  1  0.37700000  0.32000000  0.35710000  1.0 -0.158660616
C  C29  1  0.32850000  0.33310000  0.39160000  1.0 0.0817339776
C  C30  1  0.27280000  0.29260000  0.38960000  1.0 0.0817339776
C  C31  1  0.22540000  0.30220000  0.42780000  1.0 -0.1695072053
C  C32  1  0.22830000  0.35710000  0.46080000  1.0 -0.1522684939
C  C33  1  0.27600000  0.40240000  0.45210000  1.0 0.0705505486
C  C34  1  0.32620000  0.38440000  0.42450000  1.0 -0.1881317252
C  C35  1  0.43220000  0.26180000  0.28680000  1.0 0.0817339776
C  C36  1  0.43150000  0.25310000  0.22040000  1.0 -0.1291317211
C  C37  1  0.48340000  0.24840000  0.18710000  1.0 -0.0883187714
C  C38  1  0.53590000  0.25250000  0.22010000  1.0 0.0087118174
C  C39  1  0.53660000  0.26120000  0.28660000  1.0 -0.1021552723
C  C40  1  0.48480000  0.26580000  0.31990000  1.0 -0.158660616
C  C41  1  0.59590000  0.24830000  0.18100000  1.0 0.5415297842
C  C42  1  0.27350000  0.46050000  0.48210000  1.0 0.0705505486
C  C43  1  0.21980000  0.48460000  0.48740000  1.0 -0.158660616
C  C44  1  0.21600000  0.53920000  0.51500000  1.0 -0.0883187714
C  C45  1  0.26580000  0.56980000  0.53720000  1.0 -0.0377708764
C  C46  1  0.31960000  0.54580000  0.53190000  1.0 -0.0883187714
C  C47  1  0.32340000  0.49120000  0.50440000  1.0 -0.1695072053
C  C48  1  0.26100000  0.62720000  0.57040000  1.0 0.5784578716
C  C49  1  0.76240000  0.19300000  0.07250000  1.0 0.5784578716
C  C50  1  0.76150000  0.13250000  0.04030000  1.0 -0.0126633474
C  C51  1  0.81520000  0.11280000  0.02280000  1.0 -0.1021552723
C  C52  1  0.81820000  0.05840000  0.99440000  1.0 -0.158660616
C  C53  1  0.76760000  0.02380000  0.98350000  1.0 0.0705505486
C  C54  1  0.71410000  0.04350000  0.00100000  1.0 -0.158660616
C  C55  1  0.71100000  0.09800000  0.02930000  1.0 -0.0883187714
C  C56  1  0.76980000  0.96240000  0.95290000  1.0 0.0705505486
C  C57  1  0.82510000  0.94750000  0.92790000  1.0 -0.2041841352
C  C58  1  0.82320000  0.89300000  0.89480000  1.0 0.0817339776
C  C59  1  0.77250000  0.85530000  0.89070000  1.0 0.0312463205
C  C60  1  0.72230000  0.86630000  0.92850000  1.0 -0.158660616
C  C61  1  0.72530000  0.92130000  0.95860000  1.0 -0.158660616
C  C62  1  0.87350000  0.87610000  0.86940000  1.0 -0.1881317252
C  C63  1  0.87540000  0.82120000  0.83430000  1.0 -0.0719670719
C  C64  1  0.82490000  0.78230000  0.82380000  1.0 0.2236428356
C  C65  1  0.77480000  0.80120000  0.85670000  1.0 -0.1021552723
C  C66  1  0.93430000  0.80170000  0.80420000  1.0 0.1009578509
C  C67  1  0.94220000  0.78260000  0.74130000  1.0 -0.1837328466
C  C68  1  0.99690000  0.76770000  0.72100000  1.0 -0.0719670719
C  C69  1  0.04360000  0.77220000  0.76360000  1.0 -0.0377708764
C  C70  1  0.03570000  0.79130000  0.82640000  1.0 -0.0719670719
C  C71  1  0.98090000  0.80610000  0.84670000  1.0 -0.158660616
C  C72  1  0.10350000  0.76210000  0.74000000  1.0 0.5911190009
C  C73  1  0.72070000  0.76250000  0.85480000  1.0 -0.1377598548
C  C74  1  0.67450000  0.77350000  0.81710000  1.0 0.2357476747
C  C75  1  0.62430000  0.72830000  0.82180000  1.0 -0.0236994846
C  C76  1  0.62300000  0.68000000  0.85710000  1.0 -0.158660616
C  C77  1  0.67150000  0.66690000  0.89160000  1.0 0.0817339776
C  C78  1  0.72720000  0.70740000  0.88960000  1.0 0.0817339776
C  C79  1  0.77460000  0.69780000  0.92780000  1.0 -0.1695072053
C  C80  1  0.77170000  0.64290000  0.96080000  1.0 -0.1522684939
C  C81  1  0.72400000  0.59760000  0.95210000  1.0 0.0705505486
C  C82  1  0.67380000  0.61560000  0.92450000  1.0 -0.1881317252
C  C83  1  0.56780000  0.73820000  0.78680000  1.0 0.0817339776
C  C84  1  0.56850000  0.74690000  0.72040000  1.0 -0.1291317211
C  C85  1  0.51660000  0.75160000  0.68710000  1.0 -0.0883187714
C  C86  1  0.46410000  0.74750000  0.72010000  1.0 0.0087118174
C  C87  1  0.46340000  0.73880000  0.78660000  1.0 -0.1021552723
C  C88  1  0.51520000  0.73420000  0.81990000  1.0 -0.158660616
C  C89  1  0.40410000  0.75170000  0.68100000  1.0 0.5415297842
C  C90  1  0.72650000  0.53950000  0.98210000  1.0 0.0705505486
C  C91  1  0.78020000  0.51540000  0.98740000  1.0 -0.158660616
C  C92  1  0.78400000  0.46080000  0.01500000  1.0 -0.0883187714
C  C93  1  0.73420000  0.43020000  0.03720000  1.0 -0.0377708764
C  C94  1  0.68040000  0.45420000  0.03190000  1.0 -0.0883187714
C  C95  1  0.67660000  0.50880000  0.00440000  1.0 -0.1695072053
C  C96  1  0.73900000  0.37280000  0.07040000  1.0 0.5784578716
C  C97  1  0.19300000  0.76240000  0.92750000  1.0 0.5911190009
C  C98  1  0.13250000  0.76150000  0.95970000  1.0 -0.0126633474
C  C99  1  0.11280000  0.81520000  0.97720000  1.0 -0.1021552723
C  C100  1  0.05840000  0.81820000  0.00560000  1.0 -0.158660616
C  C101  1  0.02380000  0.76760000  0.01650000  1.0 0.0705505486
C  C102  1  0.04350000  0.71410000  0.99900000  1.0 -0.158660616
C  C103  1  0.09800000  0.71100000  0.97070000  1.0 -0.0883187714
C  C104  1  0.96240000  0.76980000  0.04710000  1.0 0.0705505486
C  C105  1  0.94750000  0.82510000  0.07210000  1.0 -0.2041841352
C  C106  1  0.89300000  0.82320000  0.10520000  1.0 0.0817339776
C  C107  1  0.85530000  0.77250000  0.10930000  1.0 0.0312463205
C  C108  1  0.86630000  0.72230000  0.07150000  1.0 -0.158660616
C  C109  1  0.92130000  0.72530000  0.04140000  1.0 -0.158660616
C  C110  1  0.87610000  0.87350000  0.13060000  1.0 -0.1881317252
C  C111  1  0.82120000  0.87540000  0.16570000  1.0 -0.0719670719
C  C112  1  0.78230000  0.82490000  0.17620000  1.0 0.2236428356
C  C113  1  0.80120000  0.77480000  0.14330000  1.0 -0.1021552723
C  C114  1  0.80170000  0.93430000  0.19580000  1.0 0.1009578509
C  C115  1  0.78260000  0.94220000  0.25870000  1.0 -0.1837328466
C  C116  1  0.76770000  0.99690000  0.27900000  1.0 -0.0719670719
C  C117  1  0.77220000  0.04360000  0.23640000  1.0 -0.0377708764
C  C118  1  0.79130000  0.03570000  0.17360000  1.0 -0.0719670719
C  C119  1  0.80610000  0.98090000  0.15330000  1.0 -0.158660616
C  C120  1  0.76210000  0.10350000  0.26000000  1.0 0.5911190009
C  C121  1  0.76250000  0.72070000  0.14520000  1.0 -0.1377598548
C  C122  1  0.77350000  0.67450000  0.18290000  1.0 0.2346825248
C  C123  1  0.72830000  0.62430000  0.17820000  1.0 -0.0236994846
C  C124  1  0.68000000  0.62300000  0.14290000  1.0 -0.158660616
C  C125  1  0.66690000  0.67150000  0.10840000  1.0 0.0817339776
C  C126  1  0.70740000  0.72720000  0.11040000  1.0 0.0817339776
C  C127  1  0.69780000  0.77460000  0.07220000  1.0 -0.1695072053
C  C128  1  0.64290000  0.77170000  0.03920000  1.0 -0.1522684939
C  C129  1  0.59760000  0.72400000  0.04790000  1.0 0.0705505486
C  C130  1  0.61560000  0.67380000  0.07550000  1.0 -0.1881317252
C  C131  1  0.73820000  0.56780000  0.21320000  1.0 0.0817339776
C  C132  1  0.74690000  0.56850000  0.27960000  1.0 -0.1291317211
C  C133  1  0.75160000  0.51660000  0.31290000  1.0 -0.0883187714
C  C134  1  0.74750000  0.46410000  0.27990000  1.0 0.0087118174
C  C135  1  0.73880000  0.46340000  0.21340000  1.0 -0.1021552723
C  C136  1  0.73420000  0.51520000  0.18010000  1.0 -0.158660616
C  C137  1  0.75170000  0.40410000  0.31900000  1.0 0.5415297842
C  C138  1  0.53950000  0.72650000  0.01790000  1.0 0.0705505486
C  C139  1  0.51540000  0.78020000  0.01260000  1.0 -0.158660616
C  C140  1  0.46080000  0.78400000  0.98500000  1.0 -0.0883187714
C  C141  1  0.43020000  0.73420000  0.96280000  1.0 -0.0377708764
C  C142  1  0.45420000  0.68040000  0.96810000  1.0 -0.0883187714
C  C143  1  0.50880000  0.67660000  0.99560000  1.0 -0.1695072053
C  C144  1  0.37280000  0.73900000  0.92960000  1.0 0.5784578716
C  C145  1  0.80700000  0.23760000  0.42750000  1.0 0.5784578716
C  C146  1  0.86750000  0.23850000  0.45970000  1.0 -0.0126633474
C  C147  1  0.88720000  0.18480000  0.47720000  1.0 -0.1021552723
C  C148  1  0.94160000  0.18180000  0.50560000  1.0 -0.158660616
C  C149  1  0.97620000  0.23240000  0.51650000  1.0 0.0705505486
C  C150  1  0.95650000  0.28590000  0.49900000  1.0 -0.158660616
C  C151  1  0.90200000  0.28900000  0.47070000  1.0 -0.0883187714
C  C152  1  0.03760000  0.23020000  0.54710000  1.0 0.0705505486
C  C153  1  0.05250000  0.17490000  0.57210000  1.0 -0.2041841352
C  C154  1  0.10700000  0.17680000  0.60520000  1.0 0.0817339776
C  C155  1  0.14470000  0.22750000  0.60930000  1.0 0.0312463205
C  C156  1  0.13370000  0.27770000  0.57150000  1.0 -0.158660616
C  C157  1  0.07870000  0.27470000  0.54140000  1.0 -0.1522684939
C  C158  1  0.12390000  0.12650000  0.63060000  1.0 -0.1881317252
C  C159  1  0.17880000  0.12460000  0.66570000  1.0 -0.0719670719
C  C160  1  0.21770000  0.17510000  0.67620000  1.0 0.2236428356
C  C161  1  0.19880000  0.22520000  0.64330000  1.0 -0.1021552723
C  C162  1  0.19830000  0.06570000  0.69580000  1.0 0.1009578509
C  C163  1  0.21740000  0.05780000  0.75870000  1.0 -0.1837328466
C  C164  1  0.23230000  0.00310000  0.77900000  1.0 -0.0719670719
C  C165  1  0.22780000  0.95640000  0.73640000  1.0 -0.0377708764
C  C166  1  0.20870000  0.96430000  0.67360000  1.0 -0.0719670719
C  C167  1  0.19390000  0.01910000  0.65330000  1.0 -0.158660616
C  C168  1  0.23790000  0.89650000  0.76000000  1.0 0.5911190009
C  C169  1  0.23750000  0.27930000  0.64520000  1.0 -0.1377598548
C  C170  1  0.22650000  0.32550000  0.68290000  1.0 0.2346825248
C  C171  1  0.27170000  0.37570000  0.67820000  1.0 -0.0236994846
C  C172  1  0.32000000  0.37700000  0.64290000  1.0 -0.158660616
C  C173  1  0.33310000  0.32850000  0.60840000  1.0 0.0817339776
C  C174  1  0.29260000  0.27280000  0.61040000  1.0 0.0817339776
C  C175  1  0.30220000  0.22540000  0.57220000  1.0 -0.1695072053
C  C176  1  0.35710000  0.22830000  0.53920000  1.0 -0.1522684939
C  C177  1  0.40240000  0.27600000  0.54790000  1.0 0.0705505486
C  C178  1  0.38440000  0.32620000  0.57550000  1.0 -0.1881317252
C  C179  1  0.26180000  0.43220000  0.71320000  1.0 0.0817339776
C  C180  1  0.25310000  0.43150000  0.77960000  1.0 -0.1291317211
C  C181  1  0.24840000  0.48340000  0.81290000  1.0 -0.0883187714
C  C182  1  0.25250000  0.53590000  0.77990000  1.0 0.0087118174
C  C183  1  0.26120000  0.53660000  0.71340000  1.0 -0.1021552723
C  C184  1  0.26580000  0.48480000  0.68010000  1.0 -0.158660616
C  C185  1  0.24830000  0.59590000  0.81900000  1.0 0.5415297842
C  C186  1  0.46050000  0.27350000  0.51790000  1.0 0.0705505486
C  C187  1  0.48460000  0.21980000  0.51260000  1.0 -0.158660616
C  C188  1  0.53920000  0.21600000  0.48500000  1.0 -0.0883187714
C  C189  1  0.56980000  0.26580000  0.46280000  1.0 -0.0377708764
C  C190  1  0.54580000  0.31960000  0.46810000  1.0 -0.0883187714
C  C191  1  0.49120000  0.32340000  0.49560000  1.0 -0.1695072053
C  C192  1  0.62720000  0.26100000  0.42960000  1.0 0.5784578716
O  O1  1  0.29770000  0.79190000  0.58710000  1.0 -0.5756954753
O  O2  1  0.18560000  0.77760000  0.59300000  1.0 -0.6492446864
O  O3  1  0.89330000  0.25270000  0.18310000  1.0 -0.5500224095
O  O4  1  0.85610000  0.23450000  0.28540000  1.0 -0.5625957751
O  O5  1  0.17210000  0.26830000  0.29260000  1.0 -0.4059319997
O  O6  1  0.32880000  0.18060000  0.28060000  1.0 -0.3780011141
O  O7  1  0.63720000  0.25320000  0.21780000  1.0 -0.5212099531
O  O8  1  0.59250000  0.25410000  0.11760000  1.0 -0.5500224095
O  O9  1  0.21600000  0.64900000  0.57060000  1.0 -0.5212099531
O  O10  1  0.30690000  0.65150000  0.58700000  1.0 -0.4704892242
O  O11  1  0.23470000  0.71450000  0.68860000  1.0 -0.8716585243
O  O12  1  0.70230000  0.20810000  0.08710000  1.0 -0.5747928226
O  O13  1  0.81440000  0.22240000  0.09300000  1.0 -0.6492446864
O  O14  1  0.10670000  0.74730000  0.68310000  1.0 -0.5443456376
O  O15  1  0.14390000  0.76550000  0.78540000  1.0 -0.5625957751
O  O16  1  0.82790000  0.73170000  0.79260000  1.0 -0.4048670733
O  O17  1  0.67120000  0.81940000  0.78060000  1.0 -0.3780011141
O  O18  1  0.36280000  0.74680000  0.71780000  1.0 -0.5212099531
O  O19  1  0.40750000  0.74590000  0.61760000  1.0 -0.5500224095
O  O20  1  0.78400000  0.35100000  0.07060000  1.0 -0.5212099531
O  O21  1  0.69310000  0.34850000  0.08700000  1.0 -0.4704892242
O  O22  1  0.76530000  0.28550000  0.18860000  1.0 -0.8716585243
O  O23  1  0.20810000  0.70230000  0.91290000  1.0 -0.5747928226
O  O24  1  0.22240000  0.81440000  0.90700000  1.0 -0.6492446864
O  O25  1  0.74730000  0.10670000  0.31690000  1.0 -0.5500224095
O  O26  1  0.76550000  0.14390000  0.21460000  1.0 -0.5625957751
O  O27  1  0.73170000  0.82790000  0.20740000  1.0 -0.4059319997
O  O28  1  0.81940000  0.67120000  0.21940000  1.0 -0.3780011141
O  O29  1  0.74680000  0.36280000  0.28220000  1.0 -0.5212099531
O  O30  1  0.74590000  0.40750000  0.38240000  1.0 -0.5500224095
O  O31  1  0.35100000  0.78400000  0.92940000  1.0 -0.5212099531
O  O32  1  0.34850000  0.69310000  0.91300000  1.0 -0.4704892242
O  O33  1  0.28550000  0.76530000  0.81140000  1.0 -0.8716585243
O  O34  1  0.79190000  0.29770000  0.41290000  1.0 -0.5756954753
O  O35  1  0.77760000  0.18560000  0.40700000  1.0 -0.6492446864
O  O36  1  0.25270000  0.89330000  0.81690000  1.0 -0.5500224095
O  O37  1  0.23450000  0.85610000  0.71460000  1.0 -0.5625957751
O  O38  1  0.26830000  0.17210000  0.70740000  1.0 -0.4048670733
O  O39  1  0.18060000  0.32880000  0.71940000  1.0 -0.3780011141
O  O40  1  0.25320000  0.63720000  0.78220000  1.0 -0.5212099531
O  O41  1  0.25410000  0.59250000  0.88240000  1.0 -0.5500224095
O  O42  1  0.64900000  0.21600000  0.42940000  1.0 -0.5212099531
O  O43  1  0.65150000  0.30690000  0.41300000  1.0 -0.4704892242
O  O44  1  0.71450000  0.23470000  0.31140000  1.0 -0.8716585243
