# DDEC6 charges by PACMAN v1.1 (https://github.com/mtap-research/PACMAN-charge/)
data_MOXBOS_FSR_pacman
_symmetry_space_group_name_H-M   'P 1'
_cell_length_a   15.38380000
_cell_length_b   15.38380000
_cell_length_c   4.43220000
_cell_angle_alpha   81.71990000
_cell_angle_beta   98.28010000
_cell_angle_gamma   112.74000000
_symmetry_Int_Tables_number   1
_chemical_formula_structural   Cu3P3H12C21N3O14
_chemical_formula_sum   'Cu3 P3 H12 C21 N3 O14'
_cell_volume   952.81537450
_cell_formula_units_Z   1
loop_
 _symmetry_equiv_pos_site_id
 _symmetry_equiv_pos_as_xyz
  1  'x, y, z'
loop_
 _atom_site_type_symbol
 _atom_site_label
 _atom_site_symmetry_multiplicity
 _atom_site_fract_x
 _atom_site_fract_y
 _atom_site_fract_z
 _atom_site_occupancy
 _atom_site_charge
Cu  Cu1  1  0.13954000  0.86046000  0.83050000  1.0 1.0914594467
Cu  Cu2  1  0.13863000  0.07593000  0.70401000  1.0 0.9664866264
Cu  Cu3  1  0.92407000  0.86137000  0.70401000  1.0 0.9646992023
P  P1  1  0.24974000  0.00674000  0.28410000  1.0 1.2687125141
P  P2  1  0.99326000  0.75026000  0.28410000  1.0 1.2687125141
P  P3  1  0.98138000  0.01862000  0.15180000  1.0 1.2750226791
H  H1  1  0.39490000  0.18690000  0.17400000  1.0 0.1180633205
H  H2  1  0.81310000  0.60510000  0.17400000  1.0 0.1180633205
H  H3  1  0.55180000  0.26400000  0.36600000  1.0 0.1127540256
H  H4  1  0.73600000  0.44820000  0.36600000  1.0 0.1127540256
H  H5  1  0.53480000  0.03760000  0.96440000  1.0 0.1180633205
H  H6  1  0.96240000  0.46520000  0.96440000  1.0 0.1180633205
H  H7  1  0.38030000  0.95790000  0.75080000  1.0 0.1322647864
H  H8  1  0.04210000  0.61970000  0.75080000  1.0 0.1322647864
H  H9  1  0.71460000  0.05220000  0.49520000  1.0 0.1127540256
H  H10  1  0.94780000  0.28540000  0.49520000  1.0 0.1127540256
H  H11  1  0.78780000  0.97820000  0.87980000  1.0 0.1127540256
H  H12  1  0.02180000  0.21220000  0.87980000  1.0 0.1127540256
C  C1  1  0.37010000  0.06610000  0.44340000  1.0 -0.1777341728
C  C2  1  0.93390000  0.62990000  0.44340000  1.0 -0.1777341728
C  C3  1  0.42230000  0.15610000  0.33200000  1.0 -0.0805094903
C  C4  1  0.84390000  0.57770000  0.33200000  1.0 -0.0805094903
C  C5  1  0.51650000  0.20370000  0.45100000  1.0 -0.11021874
C  C6  1  0.79630000  0.48350000  0.45100000  1.0 -0.11021874
C  C7  1  0.55630000  0.15930000  0.69600000  1.0 0.0119158102
C  C8  1  0.84070000  0.44370000  0.69600000  1.0 0.0119158102
C  C9  1  0.50700000  0.06800000  0.80700000  1.0 -0.11021874
C  C10  1  0.93200000  0.49300000  0.80700000  1.0 -0.11021874
C  C11  1  0.41360000  0.02040000  0.67900000  1.0 -0.0665512895
C  C12  1  0.97960000  0.58640000  0.67900000  1.0 -0.0665512895
C  C13  1  0.65580000  0.21260000  0.83600000  1.0 0.3784727092
C  C14  1  0.78740000  0.34420000  0.83600000  1.0 0.3784727092
C  C15  1  0.78150000  0.21850000  0.18400000  1.0 0.3851655061
C  C16  1  0.82660000  0.17340000  0.44600000  1.0 0.0119158102
C  C17  1  0.77760000  0.08360000  0.56600000  1.0 -0.0963958343
C  C18  1  0.91640000  0.22240000  0.56600000  1.0 -0.0963958343
C  C19  1  0.82200000  0.03880000  0.79400000  1.0 -0.0805094903
C  C20  1  0.96120000  0.17800000  0.79400000  1.0 -0.0805094903
C  C21  1  0.91650000  0.08350000  0.89700000  1.0 -0.1669038748
N  N1  1  0.69920000  0.30080000  0.71500000  1.0 -0.4120927816
N  N2  1  0.69190000  0.16830000  0.07120000  1.0 -0.4193337028
N  N3  1  0.83170000  0.30810000  0.07120000  1.0 -0.4193337028
O  O1  1  0.22100000  0.77900000  0.66900000  1.0 -0.2397223329
O  O2  1  0.20860000  0.22100000  0.65100000  1.0 0.1322647864
O  O3  1  0.77900000  0.79140000  0.65100000  1.0 0.1322647864
O  O4  1  0.22890000  0.08290000  0.06130000  1.0 -0.7741916841
O  O5  1  0.91710000  0.77110000  0.06130000  1.0 -0.7741916841
O  O6  1  0.18500000  0.97660000  0.54800000  1.0 -0.7953804498
O  O7  1  0.02340000  0.81500000  0.54800000  1.0 -0.7953804498
O  O8  1  0.24280000  0.92040000  0.13690000  1.0 -0.684070534
O  O9  1  0.07960000  0.75720000  0.13690000  1.0 -0.684070534
O  O10  1  0.02150000  0.97850000  0.93100000  1.0 -0.8162212436
O  O11  1  0.91040000  0.93960000  0.33730000  1.0 -0.7508730357
O  O12  1  0.06040000  0.08960000  0.33730000  1.0 -0.7508730357
O  O13  1  0.23060000  0.19820000  0.50700000  1.0 0.1180633205
O  O14  1  0.80180000  0.76940000  0.50700000  1.0 0.1180633205
