# DDEC6 charges by PACMAN v1.1 (https://github.com/mtap-research/PACMAN-charge/)
data_MOXHUF_ASR_pacman
_symmetry_space_group_name_H-M   'P 1'
_cell_length_a   18.97670000
_cell_length_b   18.97670000
_cell_length_c   18.97670000
_cell_angle_alpha   117.29200000
_cell_angle_beta   117.29200000
_cell_angle_gamma   117.29200000
_symmetry_Int_Tables_number   1
_chemical_formula_structural   CaH3C8NO6
_chemical_formula_sum   'Ca6 H18 C48 N6 O36'
_cell_volume   2870.66027828
_cell_formula_units_Z   6
loop_
 _symmetry_equiv_pos_site_id
 _symmetry_equiv_pos_as_xyz
  1  'x, y, z'
loop_
 _atom_site_type_symbol
 _atom_site_label
 _atom_site_symmetry_multiplicity
 _atom_site_fract_x
 _atom_site_fract_y
 _atom_site_fract_z
 _atom_site_occupancy
 _atom_site_charge
Ca  Ca1  1  0.66012000  0.06695000  0.35992000  1.0 1.3685756395
Ca  Ca2  1  0.06695000  0.35992000  0.66012000  1.0 1.3685756395
Ca  Ca3  1  0.35992000  0.66012000  0.06695000  1.0 1.3685756395
Ca  Ca4  1  0.56695000  0.16012000  0.85992000  1.0 1.3685756395
Ca  Ca5  1  0.85992000  0.56695000  0.16012000  1.0 1.3685756395
Ca  Ca6  1  0.16012000  0.85992000  0.56695000  1.0 1.3685756395
H  H1  1  0.12752000  0.77332000  0.24986000  1.0 0.1305977611
H  H2  1  0.47936000  0.96884000  0.59557000  1.0 0.1210196237
H  H3  1  0.54432000  0.96593000  0.51969000  1.0 0.1305977611
H  H4  1  0.77332000  0.24986000  0.12752000  1.0 0.1305977611
H  H5  1  0.96884000  0.59557000  0.47936000  1.0 0.1210196237
H  H6  1  0.96593000  0.51969000  0.54432000  1.0 0.1305977611
H  H7  1  0.24986000  0.12752000  0.77332000  1.0 0.1305977611
H  H8  1  0.59557000  0.47936000  0.96884000  1.0 0.1210196237
H  H9  1  0.51969000  0.54432000  0.96593000  1.0 0.1305977611
H  H10  1  0.27332000  0.62752000  0.74986000  1.0 0.1305977611
H  H11  1  0.46884000  0.97936000  0.09557000  1.0 0.1210196237
H  H12  1  0.46593000  0.04432000  0.01969000  1.0 0.1305977611
H  H13  1  0.74986000  0.27332000  0.62752000  1.0 0.1305977611
H  H14  1  0.09557000  0.46884000  0.97936000  1.0 0.1210196237
H  H15  1  0.01969000  0.46593000  0.04432000  1.0 0.1305977611
H  H16  1  0.62752000  0.74986000  0.27332000  1.0 0.1305977611
H  H17  1  0.97936000  0.09557000  0.46884000  1.0 0.1210196237
H  H18  1  0.04432000  0.01969000  0.46593000  1.0 0.1305977611
C  C1  1  0.38110000  0.87240000  0.34200000  1.0 -0.0525055663
C  C2  1  0.25630000  0.81580000  0.26330000  1.0 0.0257283985
C  C3  1  0.21170000  0.81250000  0.30460000  1.0 -0.1348457863
C  C4  1  0.29570000  0.86900000  0.42900000  1.0 -0.0176489318
C  C5  1  0.42170000  0.92860000  0.51070000  1.0 -0.0899273323
C  C6  1  0.46080000  0.92770000  0.46530000  1.0 -0.1216640775
C  C7  1  0.42860000  0.87180000  0.29690000  1.0 0.5986661087
C  C8  1  0.24960000  0.86720000  0.47600000  1.0 0.6215027243
C  C9  1  0.87240000  0.34200000  0.38110000  1.0 -0.0525055663
C  C10  1  0.81580000  0.26330000  0.25630000  1.0 0.0257283985
C  C11  1  0.81250000  0.30460000  0.21170000  1.0 -0.1348457863
C  C12  1  0.86900000  0.42900000  0.29570000  1.0 -0.0176489318
C  C13  1  0.92860000  0.51070000  0.42170000  1.0 -0.0899273323
C  C14  1  0.92770000  0.46530000  0.46080000  1.0 -0.1216640775
C  C15  1  0.87180000  0.29690000  0.42860000  1.0 0.5986661087
C  C16  1  0.86720000  0.47600000  0.24960000  1.0 0.6215027243
C  C17  1  0.34200000  0.38110000  0.87240000  1.0 -0.0525055663
C  C18  1  0.26330000  0.25630000  0.81580000  1.0 0.0257283985
C  C19  1  0.30460000  0.21170000  0.81250000  1.0 -0.1356283804
C  C20  1  0.42900000  0.29570000  0.86900000  1.0 -0.0176489318
C  C21  1  0.51070000  0.42170000  0.92860000  1.0 -0.0899273323
C  C22  1  0.46530000  0.46080000  0.92770000  1.0 -0.1216640775
C  C23  1  0.29690000  0.42860000  0.87180000  1.0 0.5986661087
C  C24  1  0.47600000  0.24960000  0.86720000  1.0 0.6215027243
C  C25  1  0.37240000  0.88110000  0.84200000  1.0 -0.0525055663
C  C26  1  0.31580000  0.75630000  0.76330000  1.0 0.0257283985
C  C27  1  0.31250000  0.71170000  0.80460000  1.0 -0.1356283804
C  C28  1  0.36900000  0.79570000  0.92900000  1.0 -0.0176489318
C  C29  1  0.42860000  0.92170000  0.01070000  1.0 -0.0899273323
C  C30  1  0.42770000  0.96080000  0.96530000  1.0 -0.1216640775
C  C31  1  0.37180000  0.92860000  0.79690000  1.0 0.5986661087
C  C32  1  0.36720000  0.74960000  0.97600000  1.0 0.6215027243
C  C33  1  0.84200000  0.37240000  0.88110000  1.0 -0.0525055663
C  C34  1  0.76330000  0.31580000  0.75630000  1.0 0.0257283985
C  C35  1  0.80460000  0.31250000  0.71170000  1.0 -0.1348457863
C  C36  1  0.92900000  0.36900000  0.79570000  1.0 -0.0176489318
C  C37  1  0.01070000  0.42860000  0.92170000  1.0 -0.0899273323
C  C38  1  0.96530000  0.42770000  0.96080000  1.0 -0.1216640775
C  C39  1  0.79690000  0.37180000  0.92860000  1.0 0.5986661087
C  C40  1  0.97600000  0.36720000  0.74960000  1.0 0.6215027243
C  C41  1  0.88110000  0.84200000  0.37240000  1.0 -0.0525055663
C  C42  1  0.75630000  0.76330000  0.31580000  1.0 0.0257283985
C  C43  1  0.71170000  0.80460000  0.31250000  1.0 -0.1356283804
C  C44  1  0.79570000  0.92900000  0.36900000  1.0 -0.0176489318
C  C45  1  0.92170000  0.01070000  0.42860000  1.0 -0.0899273323
C  C46  1  0.96080000  0.96530000  0.42770000  1.0 -0.1216640775
C  C47  1  0.92860000  0.79690000  0.37180000  1.0 0.5986661087
C  C48  1  0.74960000  0.97600000  0.36720000  1.0 0.6215027243
N  N1  1  0.17510000  0.77140000  0.14230000  1.0 0.4971890519
N  N2  1  0.77140000  0.14230000  0.17510000  1.0 0.4971890519
N  N3  1  0.14230000  0.17510000  0.77140000  1.0 0.4971890519
N  N4  1  0.27140000  0.67510000  0.64230000  1.0 0.4971890519
N  N5  1  0.64230000  0.27140000  0.67510000  1.0 0.4971890519
N  N6  1  0.67510000  0.64230000  0.27140000  1.0 0.4971890519
O  O1  1  0.55370000  0.99260000  0.38550000  1.0 -0.609251373
O  O2  1  0.33640000  0.74860000  0.17210000  1.0 -0.6010071565
O  O3  1  0.33641000  0.93773000  0.59916000  1.0 -0.6453737845
O  O4  1  0.12121000  0.79005000  0.38664000  1.0 -0.6704071293
O  O5  1  0.24190000  0.83250000  0.14580000  1.0 -0.2725706477
O  O6  1  0.04620000  0.67990000  0.04440000  1.0 -0.2782839864
O  O7  1  0.99260000  0.38550000  0.55370000  1.0 -0.609251373
O  O8  1  0.74860000  0.17210000  0.33640000  1.0 -0.6010071565
O  O9  1  0.93773000  0.59916000  0.33641000  1.0 -0.6453737845
O  O10  1  0.79005000  0.38664000  0.12121000  1.0 -0.6704071293
O  O11  1  0.83250000  0.14580000  0.24190000  1.0 -0.2725706477
O  O12  1  0.67990000  0.04440000  0.04620000  1.0 -0.2782839864
O  O13  1  0.38550000  0.55370000  0.99260000  1.0 -0.609251373
O  O14  1  0.17210000  0.33640000  0.74860000  1.0 -0.6010071565
O  O15  1  0.59916000  0.33641000  0.93773000  1.0 -0.6453737845
O  O16  1  0.38664000  0.12121000  0.79005000  1.0 -0.6704071293
O  O17  1  0.14580000  0.24190000  0.83250000  1.0 -0.2725706477
O  O18  1  0.04440000  0.04620000  0.67990000  1.0 -0.2782839864
O  O19  1  0.49260000  0.05370000  0.88550000  1.0 -0.609251373
O  O20  1  0.24860000  0.83640000  0.67210000  1.0 -0.6010071565
O  O21  1  0.43773000  0.83641000  0.09916000  1.0 -0.6453737845
O  O22  1  0.29005000  0.62121000  0.88664000  1.0 -0.6704071293
O  O23  1  0.33250000  0.74190000  0.64580000  1.0 -0.2725706477
O  O24  1  0.17990000  0.54620000  0.54440000  1.0 -0.2782839864
O  O25  1  0.88550000  0.49260000  0.05370000  1.0 -0.609251373
O  O26  1  0.67210000  0.24860000  0.83640000  1.0 -0.6010071565
O  O27  1  0.09916000  0.43773000  0.83641000  1.0 -0.6453737845
O  O28  1  0.88664000  0.29005000  0.62121000  1.0 -0.6704071293
O  O29  1  0.64580000  0.33250000  0.74190000  1.0 -0.2725706477
O  O30  1  0.54440000  0.17990000  0.54620000  1.0 -0.2782839864
O  O31  1  0.05370000  0.88550000  0.49260000  1.0 -0.609251373
O  O32  1  0.83640000  0.67210000  0.24860000  1.0 -0.6010071565
O  O33  1  0.83641000  0.09916000  0.43773000  1.0 -0.6453737845
O  O34  1  0.62121000  0.88664000  0.29005000  1.0 -0.6704071293
O  O35  1  0.74190000  0.64580000  0.33250000  1.0 -0.2725706477
O  O36  1  0.54620000  0.54440000  0.17990000  1.0 -0.2782839864
