# DDEC6 charges by PACMAN v1.1 (https://github.com/mtap-research/PACMAN-charge/)
data_MOXNUJ_ASR_pacman
_symmetry_space_group_name_H-M   'P 1'
_cell_length_a   16.83860000
_cell_length_b   16.83860000
_cell_length_c   16.83860000
_cell_angle_alpha   94.86160000
_cell_angle_beta   94.86160000
_cell_angle_gamma   146.15000000
_symmetry_Int_Tables_number   1
_chemical_formula_structural   Cu2H24C25(NO)4
_chemical_formula_sum   'Cu4 H48 C50 N8 O8'
_cell_volume   2544.24896514
_cell_formula_units_Z   2
loop_
 _symmetry_equiv_pos_site_id
 _symmetry_equiv_pos_as_xyz
  1  'x, y, z'
loop_
 _atom_site_type_symbol
 _atom_site_label
 _atom_site_symmetry_multiplicity
 _atom_site_fract_x
 _atom_site_fract_y
 _atom_site_fract_z
 _atom_site_occupancy
 _atom_site_charge
Cu  Cu1  1  0.12500000  0.87500000  0.75000000  1.0 -0.0298115122
Cu  Cu2  1  0.62500000  0.87500000  0.75000000  1.0 -0.0298115122
Cu  Cu3  1  0.12500000  0.37500000  0.25000000  1.0 -0.0298115122
Cu  Cu4  1  0.12500000  0.87500000  0.25000000  1.0 -0.0298115122
H  H1  1  0.82850000  0.69330000  0.72920000  1.0 0.0922751879
H  H2  1  0.34930000  0.57850000  0.63520000  1.0 0.0922751879
H  H3  1  0.96410000  0.09930000  0.27080000  1.0 0.0922751879
H  H4  1  0.94330000  0.71410000  0.36480000  1.0 0.0922751879
H  H5  1  0.42150000  0.05670000  0.77080000  1.0 0.0922751879
H  H6  1  0.90070000  0.17150000  0.86480000  1.0 0.0922751879
H  H7  1  0.28590000  0.65070000  0.22920000  1.0 0.0922751879
H  H8  1  0.30670000  0.03590000  0.13520000  1.0 0.0922751879
H  H9  1  0.66440000  0.59100000  0.80360000  1.0 0.1303015869
H  H10  1  0.11080000  0.41440000  0.57340000  1.0 0.1303015869
H  H11  1  0.78740000  0.86080000  0.19640000  1.0 0.1303015869
H  H12  1  0.84100000  0.53740000  0.42660000  1.0 0.1303015869
H  H13  1  0.58560000  0.15900000  0.69640000  1.0 0.1303015869
H  H14  1  0.13920000  0.33560000  0.92660000  1.0 0.1303015869
H  H15  1  0.46260000  0.88920000  0.30360000  1.0 0.1303015869
H  H16  1  0.40900000  0.21260000  0.07340000  1.0 0.1303015869
H  H17  1  0.97700000  0.80510000  0.00870000  1.0 0.1445737104
H  H18  1  0.21830000  0.72700000  0.67190000  1.0 0.1445737104
H  H19  1  0.79640000  0.96830000  0.99130000  1.0 0.1445737104
H  H20  1  0.05510000  0.54640000  0.32810000  1.0 0.1445737104
H  H21  1  0.27300000  0.94490000  0.49130000  1.0 0.1445737104
H  H22  1  0.03170000  0.02300000  0.82810000  1.0 0.1445737104
H  H23  1  0.45360000  0.78170000  0.50870000  1.0 0.1445737104
H  H24  1  0.19490000  0.20360000  0.17190000  1.0 0.1445737104
H  H25  1  0.13340000  0.90720000  0.92800000  1.0 0.0922751879
H  H26  1  0.45540000  0.88340000  0.72620000  1.0 0.0922751879
H  H27  1  0.97920000  0.20540000  0.07200000  1.0 0.0922751879
H  H28  1  0.15720000  0.72920000  0.27380000  1.0 0.0922751879
H  H29  1  0.11660000  0.84280000  0.57200000  1.0 0.0922751879
H  H30  1  0.79460000  0.86660000  0.77380000  1.0 0.0922751879
H  H31  1  0.27080000  0.54460000  0.42800000  1.0 0.0922751879
H  H32  1  0.09280000  0.02080000  0.22620000  1.0 0.0922751879
H  H33  1  0.57800000  0.59130000  0.90110000  1.0 0.0972981942
H  H34  1  0.92690000  0.32800000  0.48670000  1.0 0.0972981942
H  H35  1  0.69020000  0.67690000  0.09890000  1.0 0.0972981942
H  H36  1  0.84130000  0.44020000  0.51330000  1.0 0.0972981942
H  H37  1  0.67200000  0.15870000  0.59890000  1.0 0.0972981942
H  H38  1  0.32310000  0.42200000  0.01330000  1.0 0.0972981942
H  H39  1  0.55980000  0.07310000  0.40110000  1.0 0.0972981942
H  H40  1  0.40870000  0.30980000  0.98670000  1.0 0.0972981942
H  H41  1  0.50930000  0.44720000  0.88890000  1.0 0.0972981942
H  H42  1  0.87040000  0.25930000  0.56210000  1.0 0.0972981942
H  H43  1  0.55830000  0.62040000  0.11110000  1.0 0.0972981942
H  H44  1  0.69720000  0.30830000  0.43790000  1.0 0.0972981942
H  H45  1  0.74070000  0.30280000  0.61110000  1.0 0.0972981942
H  H46  1  0.37960000  0.49070000  0.93790000  1.0 0.0972981942
H  H47  1  0.69170000  0.12960000  0.38890000  1.0 0.0972981942
H  H48  1  0.55280000  0.44170000  0.06210000  1.0 0.0972981942
C  C1  1  0.85816000  0.71535000  0.78635000  1.0 0.0774562682
C  C2  1  0.32181000  0.60816000  0.64281000  1.0 0.0774562682
C  C3  1  0.92900000  0.07181000  0.21365000  1.0 0.0774562682
C  C4  1  0.96535000  0.67900000  0.35719000  1.0 0.0774562682
C  C5  1  0.39184000  0.03465000  0.71365000  1.0 0.0774562682
C  C6  1  0.92819000  0.14184000  0.85719000  1.0 0.0774562682
C  C7  1  0.32100000  0.67819000  0.28635000  1.0 0.0774562682
C  C8  1  0.28465000  0.07100000  0.14281000  1.0 0.0774562682
C  C9  1  0.75900000  0.65300000  0.83028000  1.0 -0.281563342
C  C10  1  0.17872000  0.50900000  0.60600000  1.0 -0.281563342
C  C11  1  0.82272000  0.92872000  0.16972000  1.0 -0.281563342
C  C12  1  0.90300000  0.57272000  0.39400000  1.0 -0.281563342
C  C13  1  0.49100000  0.09700000  0.66972000  1.0 -0.281563342
C  C14  1  0.07128000  0.24100000  0.89400000  1.0 -0.281563342
C  C15  1  0.42728000  0.82128000  0.33028000  1.0 -0.281563342
C  C16  1  0.34700000  0.17728000  0.10600000  1.0 -0.281563342
C  C17  1  0.80140000  0.68354000  0.91392000  1.0 0.2723289351
C  C18  1  0.13748000  0.55140000  0.61786000  1.0 0.2723289351
C  C19  1  0.76962000  0.88748000  0.08608000  1.0 0.2723289351
C  C20  1  0.93354000  0.51962000  0.38214000  1.0 0.2723289351
C  C21  1  0.44860000  0.06646000  0.58608000  1.0 0.2723289351
C  C22  1  0.11252000  0.19860000  0.88214000  1.0 0.2723289351
C  C23  1  0.48038000  0.86252000  0.41392000  1.0 0.2723289351
C  C24  1  0.31646000  0.23038000  0.11786000  1.0 0.2723289351
C  C25  1  0.94406000  0.78042000  0.95152000  1.0 -0.2863904168
C  C26  1  0.24254000  0.69406000  0.66364000  1.0 -0.2863904168
C  C27  1  0.82890000  0.99254000  0.04848000  1.0 -0.2863904168
C  C28  1  0.03042000  0.57890000  0.33636000  1.0 -0.2863904168
C  C29  1  0.30594000  0.96958000  0.54848000  1.0 -0.2863904168
C  C30  1  0.00746000  0.05594000  0.83636000  1.0 -0.2863904168
C  C31  1  0.42110000  0.75746000  0.45152000  1.0 -0.2863904168
C  C32  1  0.21958000  0.17110000  0.16364000  1.0 -0.2863904168
C  C33  1  0.03606000  0.83942000  0.90252000  1.0 0.0560882828
C  C34  1  0.38354000  0.78606000  0.69664000  1.0 0.0560882828
C  C35  1  0.93690000  0.13354000  0.09748000  1.0 0.0560882828
C  C36  1  0.08942000  0.68690000  0.30336000  1.0 0.0560882828
C  C37  1  0.21394000  0.91058000  0.59748000  1.0 0.0560882828
C  C38  1  0.86646000  0.96394000  0.80336000  1.0 0.0560882828
C  C39  1  0.31310000  0.61646000  0.40252000  1.0 0.0560882828
C  C40  1  0.16058000  0.06310000  0.19664000  1.0 0.0560882828
C  C41  1  0.56993000  0.53746000  0.92909000  1.0 -0.0922104805
C  C42  1  0.89084000  0.31993000  0.53247000  1.0 -0.0922104805
C  C43  1  0.60837000  0.64084000  0.07091000  1.0 -0.0922104805
C  C44  1  0.78746000  0.35837000  0.46753000  1.0 -0.0922104805
C  C45  1  0.68007000  0.21254000  0.57091000  1.0 -0.0922104805
C  C46  1  0.35916000  0.43007000  0.96753000  1.0 -0.0922104805
C  C47  1  0.64163000  0.10916000  0.42909000  1.0 -0.0922104805
C  C48  1  0.46254000  0.39163000  0.03247000  1.0 -0.0922104805
C  C49  1  0.50000000  0.50000000  0.00000000  1.0 0.0774562682
C  C50  1  0.75000000  0.25000000  0.50000000  1.0 0.0774562682
N  N1  1  0.99431000  0.80553000  0.82140000  1.0 -0.2172942203
N  N2  1  0.42291000  0.74431000  0.68878000  1.0 -0.2172942203
N  N3  1  0.98413000  0.17291000  0.17860000  1.0 -0.2172942203
N  N4  1  0.05553000  0.73413000  0.31122000  1.0 -0.2172942203
N  N5  1  0.25569000  0.94447000  0.67860000  1.0 -0.2172942203
N  N6  1  0.82709000  0.00569000  0.81122000  1.0 -0.2172942203
N  N7  1  0.26587000  0.57709000  0.32140000  1.0 -0.2172942203
N  N8  1  0.19447000  0.01587000  0.18878000  1.0 -0.2172942203
O  O1  1  0.71411000  0.62700000  0.96491000  1.0 -0.1868953989
O  O2  1  0.99920000  0.46411000  0.58711000  1.0 -0.1868953989
O  O3  1  0.66209000  0.74920000  0.03509000  1.0 -0.1868953989
O  O4  1  0.87700000  0.41209000  0.41289000  1.0 -0.1868953989
O  O5  1  0.53589000  0.12300000  0.53509000  1.0 -0.1868953989
O  O6  1  0.25080000  0.28589000  0.91289000  1.0 -0.1868953989
O  O7  1  0.58791000  0.00080000  0.46491000  1.0 -0.1868953989
O  O8  1  0.37300000  0.33791000  0.08711000  1.0 -0.1868953989
