# DDEC6 charges by PACMAN v1.1 (https://github.com/mtap-research/PACMAN-charge/)
data_MOXPAR_FSR_pacman
_symmetry_space_group_name_H-M   'P 1'
_cell_length_a   11.70930000
_cell_length_b   11.70930000
_cell_length_c   24.04910000
_cell_angle_alpha   90.00000000
_cell_angle_beta   90.00000000
_cell_angle_gamma   134.67700000
_symmetry_Int_Tables_number   1
_chemical_formula_structural   CuH72C25(N2O13)2
_chemical_formula_sum   'Cu2 H144 C50 N8 O52'
_cell_volume   2344.66199305
_cell_formula_units_Z   2
loop_
 _symmetry_equiv_pos_site_id
 _symmetry_equiv_pos_as_xyz
  1  'x, y, z'
loop_
 _atom_site_type_symbol
 _atom_site_label
 _atom_site_symmetry_multiplicity
 _atom_site_fract_x
 _atom_site_fract_y
 _atom_site_fract_z
 _atom_site_occupancy
 _atom_site_charge
Cu  Cu1  1  0.00000000  0.50000000  0.00000000  1.0 0.1992796126
Cu  Cu2  1  0.50000000  0.00000000  0.50000000  1.0 0.2051704142
H  H1  1  0.64890000  0.75730000  0.89750000  1.0 0.190249807
H  H2  1  0.35110000  0.24270000  0.89750000  1.0 0.190249807
H  H3  1  0.75730000  0.64890000  0.60250000  1.0 0.190249807
H  H4  1  0.24270000  0.35110000  0.60250000  1.0 0.190249807
H  H5  1  0.35110000  0.24270000  0.10250000  1.0 0.190249807
H  H6  1  0.64890000  0.75730000  0.10250000  1.0 0.190249807
H  H7  1  0.24270000  0.35110000  0.39750000  1.0 0.190249807
H  H8  1  0.75730000  0.64890000  0.39750000  1.0 0.190249807
H  H9  1  0.70910000  0.67390000  0.88970000  1.0 0.0260721731
H  H10  1  0.29090000  0.32610000  0.88970000  1.0 0.0247817065
H  H11  1  0.67390000  0.70910000  0.61030000  1.0 0.0260721731
H  H12  1  0.32610000  0.29090000  0.61030000  1.0 0.0247817065
H  H13  1  0.29090000  0.32610000  0.11030000  1.0 0.0247817065
H  H14  1  0.70910000  0.67390000  0.11030000  1.0 0.0260721731
H  H15  1  0.32610000  0.29090000  0.38970000  1.0 0.0247817065
H  H16  1  0.67390000  0.70910000  0.38970000  1.0 0.0260721731
H  H17  1  0.53480000  0.51280000  0.23600000  1.0 0.03560195
H  H18  1  0.46520000  0.48720000  0.23600000  1.0 0.03560195
H  H19  1  0.51280000  0.53480000  0.26400000  1.0 0.03560195
H  H20  1  0.48720000  0.46520000  0.26400000  1.0 0.03560195
H  H21  1  0.46520000  0.48720000  0.76400000  1.0 0.03560195
H  H22  1  0.53480000  0.51280000  0.76400000  1.0 0.03560195
H  H23  1  0.48720000  0.46520000  0.73600000  1.0 0.03560195
H  H24  1  0.51280000  0.53480000  0.73600000  1.0 0.03560195
H  H25  1  0.44130000  0.36950000  0.27800000  1.0 0.0660559207
H  H26  1  0.55870000  0.63050000  0.27800000  1.0 0.0660559207
H  H27  1  0.36950000  0.44130000  0.22200000  1.0 0.0660559207
H  H28  1  0.63050000  0.55870000  0.22200000  1.0 0.0660559207
H  H29  1  0.55870000  0.63050000  0.72200000  1.0 0.0660559207
H  H30  1  0.44130000  0.36950000  0.72200000  1.0 0.0660559207
H  H31  1  0.63050000  0.55870000  0.77800000  1.0 0.0660559207
H  H32  1  0.36950000  0.44130000  0.77800000  1.0 0.0660559207
H  H33  1  0.54270000  0.49990000  0.48820000  1.0 0.1043500199
H  H34  1  0.45730000  0.50010000  0.48820000  1.0 0.1043500199
H  H35  1  0.49990000  0.54270000  0.01180000  1.0 0.1043500199
H  H36  1  0.50010000  0.45730000  0.01180000  1.0 0.1043500199
H  H37  1  0.45730000  0.50010000  0.51180000  1.0 0.1043500199
H  H38  1  0.54270000  0.49990000  0.51180000  1.0 0.1043500199
H  H39  1  0.50010000  0.45730000  0.98820000  1.0 0.1043500199
H  H40  1  0.49990000  0.54270000  0.98820000  1.0 0.1043500199
H  H41  1  0.53610000  0.49470000  0.42310000  1.0 0.164619765
H  H42  1  0.46390000  0.50530000  0.42310000  1.0 0.164619765
H  H43  1  0.49470000  0.53610000  0.07690000  1.0 0.164619765
H  H44  1  0.50530000  0.46390000  0.07690000  1.0 0.164619765
H  H45  1  0.46390000  0.50530000  0.57690000  1.0 0.164619765
H  H46  1  0.53610000  0.49470000  0.57690000  1.0 0.164619765
H  H47  1  0.50530000  0.46390000  0.92310000  1.0 0.164619765
H  H48  1  0.49470000  0.53610000  0.92310000  1.0 0.164619765
H  H49  1  0.56680000  0.59540000  0.09980000  1.0 0.1121148604
H  H50  1  0.43320000  0.40460000  0.09980000  1.0 0.1121148604
H  H51  1  0.59540000  0.56680000  0.40020000  1.0 0.1121148604
H  H52  1  0.40460000  0.43320000  0.40020000  1.0 0.1121148604
H  H53  1  0.43320000  0.40460000  0.90020000  1.0 0.1121148604
H  H54  1  0.56680000  0.59540000  0.90020000  1.0 0.1121148604
H  H55  1  0.40460000  0.43320000  0.59980000  1.0 0.1121148604
H  H56  1  0.59540000  0.56680000  0.59980000  1.0 0.1121148604
H  H57  1  0.64690000  0.68710000  0.03980000  1.0 0.1490523655
H  H58  1  0.35310000  0.31290000  0.03980000  1.0 0.1490523655
H  H59  1  0.68710000  0.64690000  0.46020000  1.0 0.1490523655
H  H60  1  0.31290000  0.35310000  0.46020000  1.0 0.1490523655
H  H61  1  0.35310000  0.31290000  0.96020000  1.0 0.1490523655
H  H62  1  0.64690000  0.68710000  0.96020000  1.0 0.1490523655
H  H63  1  0.31290000  0.35310000  0.53980000  1.0 0.1490523655
H  H64  1  0.68710000  0.64690000  0.53980000  1.0 0.1490523655
H  H65  1  0.26960000  0.47840000  0.31580000  1.0 0.3244876105
H  H66  1  0.73040000  0.52160000  0.31580000  1.0 0.3244876105
H  H67  1  0.47840000  0.26960000  0.18420000  1.0 0.3244876105
H  H68  1  0.52160000  0.73040000  0.18420000  1.0 0.3244876105
H  H69  1  0.73040000  0.52160000  0.68420000  1.0 0.3244876105
H  H70  1  0.26960000  0.47840000  0.68420000  1.0 0.3244876105
H  H71  1  0.52160000  0.73040000  0.81580000  1.0 0.3244876105
H  H72  1  0.47840000  0.26960000  0.81580000  1.0 0.3244876105
H  H73  1  0.39680000  0.57640000  0.26800000  1.0 0.2223661828
H  H74  1  0.60320000  0.42360000  0.26800000  1.0 0.2223661828
H  H75  1  0.57640000  0.39680000  0.23200000  1.0 0.2223661828
H  H76  1  0.42360000  0.60320000  0.23200000  1.0 0.2223661828
H  H77  1  0.60320000  0.42360000  0.73200000  1.0 0.2223661828
H  H78  1  0.39680000  0.57640000  0.73200000  1.0 0.2223661828
H  H79  1  0.42360000  0.60320000  0.76800000  1.0 0.2223661828
H  H80  1  0.57640000  0.39680000  0.76800000  1.0 0.2223661828
H  H81  1  0.42050000  0.51150000  0.29590000  1.0 0.1308466855
H  H82  1  0.57950000  0.48850000  0.29590000  1.0 0.1308466855
H  H83  1  0.51150000  0.42050000  0.20410000  1.0 0.1308466855
H  H84  1  0.48850000  0.57950000  0.20410000  1.0 0.1308466855
H  H85  1  0.57950000  0.48850000  0.70410000  1.0 0.1308466855
H  H86  1  0.42050000  0.51150000  0.70410000  1.0 0.1308466855
H  H87  1  0.48850000  0.57950000  0.79590000  1.0 0.1308466855
H  H88  1  0.51150000  0.42050000  0.79590000  1.0 0.1308466855
H  H89  1  0.51340000  0.59220000  0.35210000  1.0 0.2223661828
H  H90  1  0.48660000  0.40780000  0.35210000  1.0 0.2223661828
H  H91  1  0.59220000  0.51340000  0.14790000  1.0 0.2223661828
H  H92  1  0.40780000  0.48660000  0.14790000  1.0 0.2223661828
H  H93  1  0.48660000  0.40780000  0.64790000  1.0 0.2223661828
H  H94  1  0.51340000  0.59220000  0.64790000  1.0 0.2223661828
H  H95  1  0.40780000  0.48660000  0.85210000  1.0 0.2223661828
H  H96  1  0.59220000  0.51340000  0.85210000  1.0 0.2223661828
H  H97  1  0.74960000  0.16980000  0.04790000  1.0 0.0759757343
H  H98  1  0.25040000  0.83020000  0.04790000  1.0 0.0759757343
H  H99  1  0.16980000  0.74960000  0.45210000  1.0 0.0759757343
H  H100  1  0.83020000  0.25040000  0.45210000  1.0 0.0759757343
H  H101  1  0.25040000  0.83020000  0.95210000  1.0 0.0759757343
H  H102  1  0.74960000  0.16980000  0.95210000  1.0 0.0759757343
H  H103  1  0.83020000  0.25040000  0.54790000  1.0 0.0759757343
H  H104  1  0.16980000  0.74960000  0.54790000  1.0 0.0759757343
H  H105  1  0.72120000  0.01000000  0.11530000  1.0 0.1490523655
H  H106  1  0.27880000  0.99000000  0.11530000  1.0 0.1490523655
H  H107  1  0.01000000  0.72120000  0.38470000  1.0 0.1490523655
H  H108  1  0.99000000  0.27880000  0.38470000  1.0 0.1490523655
H  H109  1  0.27880000  0.99000000  0.88470000  1.0 0.1490523655
H  H110  1  0.72120000  0.01000000  0.88470000  1.0 0.1490523655
H  H111  1  0.99000000  0.27880000  0.61530000  1.0 0.1490523655
H  H112  1  0.01000000  0.72120000  0.61530000  1.0 0.1490523655
H  H113  1  0.18060000  0.38380000  0.15550000  1.0 0.1121148604
H  H114  1  0.81940000  0.61620000  0.15550000  1.0 0.1121148604
H  H115  1  0.38380000  0.18060000  0.34450000  1.0 0.1121148604
H  H116  1  0.61620000  0.81940000  0.34450000  1.0 0.1121148604
H  H117  1  0.81940000  0.61620000  0.84450000  1.0 0.1121148604
H  H118  1  0.18060000  0.38380000  0.84450000  1.0 0.1121148604
H  H119  1  0.61620000  0.81940000  0.65550000  1.0 0.1121148604
H  H120  1  0.38380000  0.18060000  0.65550000  1.0 0.1121148604
H  H121  1  0.19470000  0.53050000  0.08800000  1.0 0.0908384985
H  H122  1  0.80530000  0.46950000  0.08800000  1.0 0.0908384985
H  H123  1  0.53050000  0.19470000  0.41200000  1.0 0.0908384985
H  H124  1  0.46950000  0.80530000  0.41200000  1.0 0.0908384985
H  H125  1  0.80530000  0.46950000  0.91200000  1.0 0.0908384985
H  H126  1  0.19470000  0.53050000  0.91200000  1.0 0.0908384985
H  H127  1  0.46950000  0.80530000  0.58800000  1.0 0.0908384985
H  H128  1  0.53050000  0.19470000  0.58800000  1.0 0.0908384985
H  H129  1  0.10020000  0.23180000  0.23640000  1.0 0.0908384985
H  H130  1  0.89980000  0.76820000  0.23640000  1.0 0.0908384985
H  H131  1  0.23180000  0.10020000  0.26360000  1.0 0.0908384985
H  H132  1  0.76820000  0.89980000  0.26360000  1.0 0.0908384985
H  H133  1  0.89980000  0.76820000  0.76360000  1.0 0.0908384985
H  H134  1  0.10020000  0.23180000  0.76360000  1.0 0.0908384985
H  H135  1  0.76820000  0.89980000  0.73640000  1.0 0.0908384985
H  H136  1  0.23180000  0.10020000  0.73640000  1.0 0.0908384985
H  H137  1  0.14940000  0.17680000  0.18950000  1.0 0.0908384985
H  H138  1  0.85060000  0.82320000  0.18950000  1.0 0.0908384985
H  H139  1  0.17680000  0.14940000  0.31050000  1.0 0.0908384985
H  H140  1  0.82320000  0.85060000  0.31050000  1.0 0.0908384985
H  H141  1  0.85060000  0.82320000  0.81050000  1.0 0.0908384985
H  H142  1  0.14940000  0.17680000  0.81050000  1.0 0.0908384985
H  H143  1  0.82320000  0.85060000  0.68950000  1.0 0.0908384985
H  H144  1  0.17680000  0.14940000  0.68950000  1.0 0.0908384985
C  C1  1  0.83910000  0.21330000  0.06980000  1.0 0.0619594564
C  C2  1  0.16090000  0.78670000  0.06980000  1.0 0.0619594564
C  C3  1  0.21330000  0.83910000  0.43020000  1.0 0.0619594564
C  C4  1  0.78670000  0.16090000  0.43020000  1.0 0.0619594564
C  C5  1  0.16090000  0.78670000  0.93020000  1.0 0.0619594564
C  C6  1  0.83910000  0.21330000  0.93020000  1.0 0.0619594564
C  C7  1  0.78670000  0.16090000  0.56980000  1.0 0.0619594564
C  C8  1  0.21330000  0.83910000  0.56980000  1.0 0.0619594564
C  C9  1  0.82020000  0.11660000  0.11000000  1.0 -0.2436408755
C  C10  1  0.17980000  0.88340000  0.11000000  1.0 -0.2452082571
C  C11  1  0.11660000  0.82020000  0.39000000  1.0 -0.2452082571
C  C12  1  0.88340000  0.17980000  0.39000000  1.0 -0.2436408755
C  C13  1  0.17980000  0.88340000  0.89000000  1.0 -0.2436408755
C  C14  1  0.82020000  0.11660000  0.89000000  1.0 -0.2436408755
C  C15  1  0.88340000  0.17980000  0.61000000  1.0 -0.2436408755
C  C16  1  0.11660000  0.82020000  0.61000000  1.0 -0.2452082571
C  C17  1  0.95198000  0.18222000  0.14197000  1.0 0.2849026087
C  C18  1  0.04802000  0.81778000  0.14197000  1.0 0.2849026087
C  C19  1  0.18222000  0.95198000  0.35803000  1.0 0.2849026087
C  C20  1  0.81778000  0.04802000  0.35803000  1.0 0.2849026087
C  C21  1  0.04802000  0.81778000  0.85803000  1.0 0.2849026087
C  C22  1  0.95198000  0.18222000  0.85803000  1.0 0.2849026087
C  C23  1  0.81778000  0.04802000  0.64197000  1.0 0.2849026087
C  C24  1  0.18222000  0.95198000  0.64197000  1.0 0.2849026087
C  C25  1  0.08990000  0.33610000  0.13350000  1.0 -0.3228837264
C  C26  1  0.91010000  0.66390000  0.13350000  1.0 -0.3228837264
C  C27  1  0.33610000  0.08990000  0.36650000  1.0 -0.3228837264
C  C28  1  0.66390000  0.91010000  0.36650000  1.0 -0.3228837264
C  C29  1  0.91010000  0.66390000  0.86650000  1.0 -0.3228837264
C  C30  1  0.08990000  0.33610000  0.86650000  1.0 -0.3228837264
C  C31  1  0.66390000  0.91010000  0.63350000  1.0 -0.3228837264
C  C32  1  0.33610000  0.08990000  0.63350000  1.0 -0.3228837264
C  C33  1  0.09760000  0.42260000  0.09310000  1.0 -0.0126160203
C  C34  1  0.90240000  0.57740000  0.09310000  1.0 -0.0126160203
C  C35  1  0.42260000  0.09760000  0.40690000  1.0 -0.0126160203
C  C36  1  0.57740000  0.90240000  0.40690000  1.0 -0.0126160203
C  C37  1  0.90240000  0.57740000  0.90690000  1.0 -0.0126160203
C  C38  1  0.09760000  0.42260000  0.90690000  1.0 -0.0126160203
C  C39  1  0.57740000  0.90240000  0.59310000  1.0 -0.0126160203
C  C40  1  0.42260000  0.09760000  0.59310000  1.0 -0.0126160203
C  C41  1  0.06147000  0.14113000  0.21340000  1.0 -0.1644004986
C  C42  1  0.93853000  0.85887000  0.21340000  1.0 -0.1644004986
C  C43  1  0.14113000  0.06147000  0.28660000  1.0 -0.1644004986
C  C44  1  0.85887000  0.93853000  0.28660000  1.0 -0.1644004986
C  C45  1  0.93853000  0.85887000  0.78660000  1.0 -0.1644004986
C  C46  1  0.06147000  0.14113000  0.78660000  1.0 -0.1644004986
C  C47  1  0.85887000  0.93853000  0.71340000  1.0 -0.1644004986
C  C48  1  0.14113000  0.06147000  0.71340000  1.0 -0.1644004986
C  C49  1  0.00000000  0.00000000  0.25000000  1.0 0.0759757343
C  C50  1  0.00000000  0.00000000  0.75000000  1.0 0.0759757343
N  N1  1  0.97416000  0.36164000  0.06053000  1.0 -0.2258172494
N  N2  1  0.02584000  0.63836000  0.06053000  1.0 -0.2258172494
N  N3  1  0.36164000  0.97416000  0.43947000  1.0 -0.2258172494
N  N4  1  0.63836000  0.02584000  0.43947000  1.0 -0.2258172494
N  N5  1  0.02584000  0.63836000  0.93947000  1.0 -0.2258172494
N  N6  1  0.97416000  0.36164000  0.93947000  1.0 -0.2258172494
N  N7  1  0.63836000  0.02584000  0.56053000  1.0 -0.2258172494
N  N8  1  0.36164000  0.97416000  0.56053000  1.0 -0.2258172494
O  O1  1  0.66100000  0.70500000  0.86920000  1.0 -0.3505409893
O  O2  1  0.33900000  0.29500000  0.86920000  1.0 -0.3505409893
O  O3  1  0.70500000  0.66100000  0.63080000  1.0 -0.3505409893
O  O4  1  0.29500000  0.33900000  0.63080000  1.0 -0.3505409893
O  O5  1  0.33900000  0.29500000  0.13080000  1.0 -0.3505409893
O  O6  1  0.66100000  0.70500000  0.13080000  1.0 -0.3505409893
O  O7  1  0.29500000  0.33900000  0.36920000  1.0 -0.3505409893
O  O8  1  0.70500000  0.66100000  0.36920000  1.0 -0.3505409893
O  O9  1  0.54870000  0.45130000  0.25000000  1.0 -0.2203316067
O  O10  1  0.45130000  0.54870000  0.25000000  1.0 -0.2203316067
O  O11  1  0.45130000  0.54870000  0.75000000  1.0 -0.2203316067
O  O12  1  0.54870000  0.45130000  0.75000000  1.0 -0.2203316067
O  O13  1  0.55010000  0.55590000  0.45540000  1.0 -0.0901852057
O  O14  1  0.44990000  0.44410000  0.45540000  1.0 -0.0901852057
O  O15  1  0.55590000  0.55010000  0.04460000  1.0 -0.0901852057
O  O16  1  0.44410000  0.44990000  0.04460000  1.0 -0.0901852057
O  O17  1  0.44990000  0.44410000  0.54460000  1.0 -0.0901852057
O  O18  1  0.55010000  0.55590000  0.54460000  1.0 -0.0901852057
O  O19  1  0.44410000  0.44990000  0.95540000  1.0 -0.0901852057
O  O20  1  0.55590000  0.55010000  0.95540000  1.0 -0.0901852057
O  O21  1  0.54340000  0.61660000  0.06380000  1.0 -0.169060373
O  O22  1  0.45660000  0.38340000  0.06380000  1.0 -0.169060373
O  O23  1  0.61660000  0.54340000  0.43620000  1.0 -0.169060373
O  O24  1  0.38340000  0.45660000  0.43620000  1.0 -0.169060373
O  O25  1  0.45660000  0.38340000  0.93620000  1.0 -0.169060373
O  O26  1  0.54340000  0.61660000  0.93620000  1.0 -0.169060373
O  O27  1  0.38340000  0.45660000  0.56380000  1.0 -0.169060373
O  O28  1  0.61660000  0.54340000  0.56380000  1.0 -0.169060373
O  O29  1  0.29290000  0.53510000  0.28040000  1.0 -0.5067598161
O  O30  1  0.70710000  0.46490000  0.28040000  1.0 -0.5067598161
O  O31  1  0.53510000  0.29290000  0.21960000  1.0 -0.5067598161
O  O32  1  0.46490000  0.70710000  0.21960000  1.0 -0.5067598161
O  O33  1  0.70710000  0.46490000  0.71960000  1.0 -0.5067598161
O  O34  1  0.29290000  0.53510000  0.71960000  1.0 -0.5067598161
O  O35  1  0.46490000  0.70710000  0.78040000  1.0 -0.5067598161
O  O36  1  0.53510000  0.29290000  0.78040000  1.0 -0.5067598161
O  O37  1  0.42550000  0.48650000  0.33460000  1.0 -0.2706758913
O  O38  1  0.57450000  0.51350000  0.33460000  1.0 -0.2706758913
O  O39  1  0.48650000  0.42550000  0.16540000  1.0 -0.2706758913
O  O40  1  0.51350000  0.57450000  0.16540000  1.0 -0.2706758913
O  O41  1  0.57450000  0.51350000  0.66540000  1.0 -0.2706758913
O  O42  1  0.42550000  0.48650000  0.66540000  1.0 -0.2706758913
O  O43  1  0.51350000  0.57450000  0.83460000  1.0 -0.2706758913
O  O44  1  0.48650000  0.42550000  0.83460000  1.0 -0.2706758913
O  O45  1  0.92668000  0.08132000  0.18059000  1.0 -0.3068185883
O  O46  1  0.07332000  0.91868000  0.18059000  1.0 -0.3068185883
O  O47  1  0.08132000  0.92668000  0.31941000  1.0 -0.3068185883
O  O48  1  0.91868000  0.07332000  0.31941000  1.0 -0.3046433565
O  O49  1  0.07332000  0.91868000  0.81941000  1.0 -0.3068185883
O  O50  1  0.92668000  0.08132000  0.81941000  1.0 -0.3068185883
O  O51  1  0.91868000  0.07332000  0.68059000  1.0 -0.3046433565
O  O52  1  0.08132000  0.92668000  0.68059000  1.0 -0.3068185883
