# DDEC6 charges by PACMAN v1.1 (https://github.com/mtap-research/PACMAN-charge/)
data_MOXPAR_ASR_pacman
_symmetry_space_group_name_H-M   'P 1'
_cell_length_a   9.02290000
_cell_length_b   21.61070000
_cell_length_c   24.04910000
_cell_angle_alpha   90.00000000
_cell_angle_beta   90.00000000
_cell_angle_gamma   90.00000000
_symmetry_Int_Tables_number   1
_chemical_formula_structural   CuH24C25(NO)4
_chemical_formula_sum   'Cu4 H96 C100 N16 O16'
_cell_volume   4689.36250790
_cell_formula_units_Z   4
loop_
 _symmetry_equiv_pos_site_id
 _symmetry_equiv_pos_as_xyz
  1  'x, y, z'
loop_
 _atom_site_type_symbol
 _atom_site_label
 _atom_site_symmetry_multiplicity
 _atom_site_fract_x
 _atom_site_fract_y
 _atom_site_fract_z
 _atom_site_occupancy
 _atom_site_charge
Cu  Cu1  1  0.25000000  0.25000000  0.00000000  1.0 0.2634111316
Cu  Cu2  1  0.75000000  0.75000000  0.00000000  1.0 0.2634111316
Cu  Cu3  1  0.75000000  0.25000000  0.50000000  1.0 0.2634111316
Cu  Cu4  1  0.25000000  0.75000000  0.50000000  1.0 0.2692109318
H  H1  1  0.94614000  0.21491000  0.04323000  1.0 0.0533559257
H  H2  1  0.05386000  0.78509000  0.95677000  1.0 0.0533559257
H  H3  1  0.05386000  0.78509000  0.04323000  1.0 0.0533559257
H  H4  1  0.94614000  0.21491000  0.95677000  1.0 0.0533559257
H  H5  1  0.05386000  0.21491000  0.45677000  1.0 0.0533559257
H  H6  1  0.94614000  0.78509000  0.54323000  1.0 0.0533559257
H  H7  1  0.94614000  0.78509000  0.45677000  1.0 0.0533559257
H  H8  1  0.05386000  0.21491000  0.54323000  1.0 0.0533559257
H  H9  1  0.44614000  0.71491000  0.04323000  1.0 0.0533559257
H  H10  1  0.55386000  0.28509000  0.95677000  1.0 0.0533559257
H  H11  1  0.55386000  0.28509000  0.04323000  1.0 0.0533559257
H  H12  1  0.44614000  0.71491000  0.95677000  1.0 0.0533559257
H  H13  1  0.55386000  0.71491000  0.45677000  1.0 0.0533559257
H  H14  1  0.44614000  0.28509000  0.54323000  1.0 0.0533559257
H  H15  1  0.44614000  0.28509000  0.45677000  1.0 0.0533559257
H  H16  1  0.55386000  0.71491000  0.54323000  1.0 0.0533559257
H  H17  1  0.84244000  0.14396000  0.11622000  1.0 0.1183468149
H  H18  1  0.15756000  0.85604000  0.88378000  1.0 0.1183468149
H  H19  1  0.15756000  0.85604000  0.11622000  1.0 0.1183468149
H  H20  1  0.84244000  0.14396000  0.88378000  1.0 0.1183468149
H  H21  1  0.15756000  0.14396000  0.38378000  1.0 0.1183468149
H  H22  1  0.84244000  0.85604000  0.61622000  1.0 0.1183468149
H  H23  1  0.84244000  0.85604000  0.38378000  1.0 0.1183468149
H  H24  1  0.15756000  0.14396000  0.61622000  1.0 0.1183468149
H  H25  1  0.34244000  0.64396000  0.11622000  1.0 0.1183468149
H  H26  1  0.65756000  0.35604000  0.88378000  1.0 0.1183468149
H  H27  1  0.65756000  0.35604000  0.11622000  1.0 0.1183468149
H  H28  1  0.34244000  0.64396000  0.88378000  1.0 0.1183468149
H  H29  1  0.65756000  0.64396000  0.38378000  1.0 0.1183468149
H  H30  1  0.34244000  0.35604000  0.61622000  1.0 0.1183468149
H  H31  1  0.34244000  0.35604000  0.38378000  1.0 0.1183468149
H  H32  1  0.65756000  0.64396000  0.61622000  1.0 0.1183468149
H  H33  1  0.29885000  0.09693000  0.16006000  1.0 0.1183468149
H  H34  1  0.70115000  0.90307000  0.83994000  1.0 0.1183468149
H  H35  1  0.70115000  0.90307000  0.16006000  1.0 0.1183468149
H  H36  1  0.29885000  0.09693000  0.83994000  1.0 0.1183468149
H  H37  1  0.70115000  0.09693000  0.33994000  1.0 0.1183468149
H  H38  1  0.29885000  0.90307000  0.66006000  1.0 0.1183468149
H  H39  1  0.29885000  0.90307000  0.33994000  1.0 0.1183468149
H  H40  1  0.70115000  0.09693000  0.66006000  1.0 0.1183468149
H  H41  1  0.79885000  0.59693000  0.16006000  1.0 0.1183468149
H  H42  1  0.20115000  0.40307000  0.83994000  1.0 0.1183468149
H  H43  1  0.20115000  0.40307000  0.16006000  1.0 0.1183468149
H  H44  1  0.79885000  0.59693000  0.83994000  1.0 0.1183468149
H  H45  1  0.20115000  0.59693000  0.33994000  1.0 0.1183468149
H  H46  1  0.79885000  0.40307000  0.66006000  1.0 0.1183468149
H  H47  1  0.79885000  0.40307000  0.33994000  1.0 0.1183468149
H  H48  1  0.20115000  0.59693000  0.66006000  1.0 0.1183468149
H  H49  1  0.38268000  0.16964000  0.08641000  1.0 0.0694570229
H  H50  1  0.61732000  0.83036000  0.91359000  1.0 0.0694570229
H  H51  1  0.61732000  0.83036000  0.08641000  1.0 0.0694570229
H  H52  1  0.38268000  0.16964000  0.91359000  1.0 0.0694570229
H  H53  1  0.61732000  0.16964000  0.41359000  1.0 0.0694570229
H  H54  1  0.38268000  0.83036000  0.58641000  1.0 0.0694570229
H  H55  1  0.38268000  0.83036000  0.41359000  1.0 0.0694570229
H  H56  1  0.61732000  0.16964000  0.58641000  1.0 0.0694570229
H  H57  1  0.88268000  0.66964000  0.08641000  1.0 0.0694570229
H  H58  1  0.11732000  0.33036000  0.91359000  1.0 0.0694570229
H  H59  1  0.11732000  0.33036000  0.08641000  1.0 0.0694570229
H  H60  1  0.88268000  0.66964000  0.91359000  1.0 0.0694570229
H  H61  1  0.11732000  0.66964000  0.41359000  1.0 0.0694570229
H  H62  1  0.88268000  0.33036000  0.58641000  1.0 0.0694570229
H  H63  1  0.88268000  0.33036000  0.41359000  1.0 0.0694570229
H  H64  1  0.11732000  0.66964000  0.58641000  1.0 0.0694570229
H  H65  1  0.17198000  0.06978000  0.23954000  1.0 0.0694570229
H  H66  1  0.82802000  0.93022000  0.76046000  1.0 0.0694570229
H  H67  1  0.82802000  0.93022000  0.23954000  1.0 0.0694570229
H  H68  1  0.17198000  0.06978000  0.76046000  1.0 0.0694570229
H  H69  1  0.82802000  0.06978000  0.26046000  1.0 0.0694570229
H  H70  1  0.17198000  0.93022000  0.73954000  1.0 0.0694570229
H  H71  1  0.17198000  0.93022000  0.26046000  1.0 0.0694570229
H  H72  1  0.82802000  0.06978000  0.73954000  1.0 0.0694570229
H  H73  1  0.67198000  0.56978000  0.23954000  1.0 0.0694570229
H  H74  1  0.32802000  0.43022000  0.76046000  1.0 0.0694570229
H  H75  1  0.32802000  0.43022000  0.23954000  1.0 0.0694570229
H  H76  1  0.67198000  0.56978000  0.76046000  1.0 0.0694570229
H  H77  1  0.32802000  0.56978000  0.26046000  1.0 0.0694570229
H  H78  1  0.67198000  0.43022000  0.73954000  1.0 0.0694570229
H  H79  1  0.67198000  0.43022000  0.26046000  1.0 0.0694570229
H  H80  1  0.32802000  0.56978000  0.73954000  1.0 0.0694570229
H  H81  1  0.16839000  0.01041000  0.18621000  1.0 0.0694570229
H  H82  1  0.83161000  0.98959000  0.81379000  1.0 0.0694570229
H  H83  1  0.83161000  0.98959000  0.18621000  1.0 0.0694570229
H  H84  1  0.16839000  0.01041000  0.81379000  1.0 0.0694570229
H  H85  1  0.83161000  0.01041000  0.31379000  1.0 0.0694570229
H  H86  1  0.16839000  0.98959000  0.68621000  1.0 0.0694570229
H  H87  1  0.16839000  0.98959000  0.31379000  1.0 0.0694570229
H  H88  1  0.83161000  0.01041000  0.68621000  1.0 0.0694570229
H  H89  1  0.66839000  0.51041000  0.18621000  1.0 0.0694570229
H  H90  1  0.33161000  0.48959000  0.81379000  1.0 0.0694570229
H  H91  1  0.33161000  0.48959000  0.18621000  1.0 0.0694570229
H  H92  1  0.66839000  0.51041000  0.81379000  1.0 0.0694570229
H  H93  1  0.33161000  0.51041000  0.31379000  1.0 0.0694570229
H  H94  1  0.66839000  0.48959000  0.68621000  1.0 0.0694570229
H  H95  1  0.66839000  0.48959000  0.31379000  1.0 0.0694570229
H  H96  1  0.33161000  0.51041000  0.68621000  1.0 0.0694570229
C  C1  1  0.02048000  0.18717000  0.06958000  1.0 0.0796736021
C  C2  1  0.97952000  0.81283000  0.93042000  1.0 0.0796736021
C  C3  1  0.97952000  0.81283000  0.06958000  1.0 0.0796736021
C  C4  1  0.02048000  0.18717000  0.93042000  1.0 0.0796736021
C  C5  1  0.97952000  0.18717000  0.43042000  1.0 0.0796736021
C  C6  1  0.02048000  0.81283000  0.56958000  1.0 0.0796736021
C  C7  1  0.02048000  0.81283000  0.43042000  1.0 0.0796736021
C  C8  1  0.97952000  0.18717000  0.56958000  1.0 0.0796736021
C  C9  1  0.52048000  0.68717000  0.06958000  1.0 0.0796736021
C  C10  1  0.47952000  0.31283000  0.93042000  1.0 0.0796736021
C  C11  1  0.47952000  0.31283000  0.06958000  1.0 0.0796736021
C  C12  1  0.52048000  0.68717000  0.93042000  1.0 0.0796736021
C  C13  1  0.47952000  0.68717000  0.43042000  1.0 0.0796736021
C  C14  1  0.52048000  0.31283000  0.56958000  1.0 0.0796736021
C  C15  1  0.52048000  0.31283000  0.43042000  1.0 0.0796736021
C  C16  1  0.47952000  0.68717000  0.56958000  1.0 0.0796736021
C  C17  1  0.96226000  0.14825000  0.10976000  1.0 -0.2649380593
C  C18  1  0.03774000  0.85175000  0.89024000  1.0 -0.2655715315
C  C19  1  0.03774000  0.85175000  0.10976000  1.0 -0.2655715315
C  C20  1  0.96226000  0.14825000  0.89024000  1.0 -0.2649380593
C  C21  1  0.03774000  0.14825000  0.39024000  1.0 -0.2649380593
C  C22  1  0.96226000  0.85175000  0.60976000  1.0 -0.2655715315
C  C23  1  0.96226000  0.85175000  0.39024000  1.0 -0.2655715315
C  C24  1  0.03774000  0.14825000  0.60976000  1.0 -0.2649380593
C  C25  1  0.46226000  0.64825000  0.10976000  1.0 -0.2655715315
C  C26  1  0.53774000  0.35175000  0.89024000  1.0 -0.2649380593
C  C27  1  0.53774000  0.35175000  0.10976000  1.0 -0.2649380593
C  C28  1  0.46226000  0.64825000  0.89024000  1.0 -0.2655715315
C  C29  1  0.53774000  0.64825000  0.39024000  1.0 -0.2655715315
C  C30  1  0.46226000  0.35175000  0.60976000  1.0 -0.2649380593
C  C31  1  0.46226000  0.35175000  0.39024000  1.0 -0.2649380593
C  C32  1  0.53774000  0.64825000  0.60976000  1.0 -0.2655715315
C  C33  1  0.06337000  0.11471000  0.14273000  1.0 0.2848676713
C  C34  1  0.93663000  0.88529000  0.85727000  1.0 0.2864608736
C  C35  1  0.93663000  0.88529000  0.14273000  1.0 0.2864608736
C  C36  1  0.06337000  0.11471000  0.85727000  1.0 0.2848676713
C  C37  1  0.93663000  0.11471000  0.35727000  1.0 0.2848676713
C  C38  1  0.06337000  0.88529000  0.64273000  1.0 0.2864608736
C  C39  1  0.06337000  0.88529000  0.35727000  1.0 0.2864608736
C  C40  1  0.93663000  0.11471000  0.64273000  1.0 0.2848676713
C  C41  1  0.56337000  0.61471000  0.14273000  1.0 0.2848676713
C  C42  1  0.43663000  0.38529000  0.85727000  1.0 0.2848676713
C  C43  1  0.43663000  0.38529000  0.14273000  1.0 0.2848676713
C  C44  1  0.56337000  0.61471000  0.85727000  1.0 0.2848676713
C  C45  1  0.43663000  0.61471000  0.35727000  1.0 0.2848676713
C  C46  1  0.56337000  0.38529000  0.64273000  1.0 0.2848676713
C  C47  1  0.56337000  0.38529000  0.35727000  1.0 0.2848676713
C  C48  1  0.43663000  0.61471000  0.64273000  1.0 0.2848676713
C  C49  1  0.21614000  0.12121000  0.13493000  1.0 -0.277106437
C  C50  1  0.78386000  0.87879000  0.86507000  1.0 -0.277106437
C  C51  1  0.78386000  0.87879000  0.13493000  1.0 -0.277106437
C  C52  1  0.21614000  0.12121000  0.86507000  1.0 -0.277106437
C  C53  1  0.78386000  0.12121000  0.36507000  1.0 -0.277106437
C  C54  1  0.21614000  0.87879000  0.63493000  1.0 -0.277106437
C  C55  1  0.21614000  0.87879000  0.36507000  1.0 -0.277106437
C  C56  1  0.78386000  0.12121000  0.63493000  1.0 -0.277106437
C  C57  1  0.71614000  0.62121000  0.13493000  1.0 -0.277106437
C  C58  1  0.28386000  0.37879000  0.86507000  1.0 -0.277106437
C  C59  1  0.28386000  0.37879000  0.13493000  1.0 -0.277106437
C  C60  1  0.71614000  0.62121000  0.86507000  1.0 -0.277106437
C  C61  1  0.28386000  0.62121000  0.36507000  1.0 -0.277106437
C  C62  1  0.71614000  0.37879000  0.63493000  1.0 -0.277106437
C  C63  1  0.71614000  0.37879000  0.36507000  1.0 -0.277106437
C  C64  1  0.28386000  0.62121000  0.63493000  1.0 -0.277106437
C  C65  1  0.26365000  0.16179000  0.09348000  1.0 0.096172912
C  C66  1  0.73635000  0.83821000  0.90652000  1.0 0.096172912
C  C67  1  0.73635000  0.83821000  0.09348000  1.0 0.096172912
C  C68  1  0.26365000  0.16179000  0.90652000  1.0 0.096172912
C  C69  1  0.73635000  0.16179000  0.40652000  1.0 0.096172912
C  C70  1  0.26365000  0.83821000  0.59348000  1.0 0.096172912
C  C71  1  0.26365000  0.83821000  0.40652000  1.0 0.096172912
C  C72  1  0.73635000  0.16179000  0.59348000  1.0 0.096172912
C  C73  1  0.76365000  0.66179000  0.09348000  1.0 0.096172912
C  C74  1  0.23635000  0.33821000  0.90652000  1.0 0.096172912
C  C75  1  0.23635000  0.33821000  0.09348000  1.0 0.096172912
C  C76  1  0.76365000  0.66179000  0.90652000  1.0 0.096172912
C  C77  1  0.23635000  0.66179000  0.40652000  1.0 0.096172912
C  C78  1  0.76365000  0.33821000  0.59348000  1.0 0.096172912
C  C79  1  0.76365000  0.33821000  0.40652000  1.0 0.096172912
C  C80  1  0.23635000  0.66179000  0.59348000  1.0 0.096172912
C  C81  1  0.09972000  0.03993000  0.21369000  1.0 -0.0273933733
C  C82  1  0.90028000  0.96007000  0.78631000  1.0 -0.0273933733
C  C83  1  0.90028000  0.96007000  0.21369000  1.0 -0.0273933733
C  C84  1  0.09972000  0.03993000  0.78631000  1.0 -0.0273933733
C  C85  1  0.90028000  0.03993000  0.28631000  1.0 -0.0273933733
C  C86  1  0.09972000  0.96007000  0.71369000  1.0 -0.0273933733
C  C87  1  0.09972000  0.96007000  0.28631000  1.0 -0.0273933733
C  C88  1  0.90028000  0.03993000  0.71369000  1.0 -0.0273933733
C  C89  1  0.59972000  0.53993000  0.21369000  1.0 -0.0273933733
C  C90  1  0.40028000  0.46007000  0.78631000  1.0 -0.0273933733
C  C91  1  0.40028000  0.46007000  0.21369000  1.0 -0.0273933733
C  C92  1  0.59972000  0.53993000  0.78631000  1.0 -0.0273933733
C  C93  1  0.40028000  0.53993000  0.28631000  1.0 -0.0273933733
C  C94  1  0.59972000  0.46007000  0.71369000  1.0 -0.0273933733
C  C95  1  0.59972000  0.46007000  0.28631000  1.0 -0.0273933733
C  C96  1  0.40028000  0.53993000  0.71369000  1.0 -0.0273933733
C  C97  1  0.00000000  0.00000000  0.25000000  1.0 0.0403228839
C  C98  1  0.00000000  0.00000000  0.75000000  1.0 0.0403228839
C  C99  1  0.50000000  0.50000000  0.25000000  1.0 0.0403228839
C  C100  1  0.50000000  0.50000000  0.75000000  1.0 0.0403228839
N  N1  1  0.16794000  0.19448000  0.06122000  1.0 -0.2649380593
N  N2  1  0.83206000  0.80552000  0.93878000  1.0 -0.2655715315
N  N3  1  0.83206000  0.80552000  0.06122000  1.0 -0.2655715315
N  N4  1  0.16794000  0.19448000  0.93878000  1.0 -0.2655715315
N  N5  1  0.83206000  0.19448000  0.43878000  1.0 -0.2649380593
N  N6  1  0.16794000  0.80552000  0.56122000  1.0 -0.2655715315
N  N7  1  0.16794000  0.80552000  0.43878000  1.0 -0.2655715315
N  N8  1  0.83206000  0.19448000  0.56122000  1.0 -0.2649380593
N  N9  1  0.66794000  0.69448000  0.06122000  1.0 -0.2655715315
N  N10  1  0.33206000  0.30552000  0.93878000  1.0 -0.2655715315
N  N11  1  0.33206000  0.30552000  0.06122000  1.0 -0.2649380593
N  N12  1  0.66794000  0.69448000  0.93878000  1.0 -0.2655715315
N  N13  1  0.33206000  0.69448000  0.43878000  1.0 -0.2655715315
N  N14  1  0.66794000  0.30552000  0.56122000  1.0 -0.2655715315
N  N15  1  0.66794000  0.30552000  0.43878000  1.0 -0.2655715315
N  N16  1  0.33206000  0.69448000  0.56122000  1.0 -0.2655715315
O  O1  1  0.00037000  0.07678000  0.18117000  1.0 -0.2006613324
O  O2  1  0.99963000  0.92322000  0.81883000  1.0 -0.2006613324
O  O3  1  0.99963000  0.92322000  0.18117000  1.0 -0.2006613324
O  O4  1  0.00037000  0.07678000  0.81883000  1.0 -0.2006613324
O  O5  1  0.99963000  0.07678000  0.31883000  1.0 -0.2006613324
O  O6  1  0.00037000  0.92322000  0.68117000  1.0 -0.2006613324
O  O7  1  0.00037000  0.92322000  0.31883000  1.0 -0.2006613324
O  O8  1  0.99963000  0.07678000  0.68117000  1.0 -0.2006613324
O  O9  1  0.50037000  0.57678000  0.18117000  1.0 -0.2006613324
O  O10  1  0.49963000  0.42322000  0.81883000  1.0 -0.2006613324
O  O11  1  0.49963000  0.42322000  0.18117000  1.0 -0.2006613324
O  O12  1  0.50037000  0.57678000  0.81883000  1.0 -0.2006613324
O  O13  1  0.49963000  0.57678000  0.31883000  1.0 -0.2006613324
O  O14  1  0.50037000  0.42322000  0.68117000  1.0 -0.2006613324
O  O15  1  0.50037000  0.42322000  0.31883000  1.0 -0.2006613324
O  O16  1  0.49963000  0.57678000  0.68117000  1.0 -0.2006613324
