# DDEC6 charges by PACMAN v1.1 (https://github.com/mtap-research/PACMAN-charge/)
data_MOYZEI_ASR_pacman
_symmetry_space_group_name_H-M   'P 1'
_cell_length_a   11.12300000
_cell_length_b   23.95600000
_cell_length_c   16.02600000
_cell_angle_alpha   90.00000000
_cell_angle_beta   107.37400000
_cell_angle_gamma   90.00000000
_symmetry_Int_Tables_number   1
_chemical_formula_structural   Cu2H24C34S3N4O13
_chemical_formula_sum   'Cu8 H96 C136 S12 N16 O52'
_cell_volume   4075.49962907
_cell_formula_units_Z   4
loop_
 _symmetry_equiv_pos_site_id
 _symmetry_equiv_pos_as_xyz
  1  'x, y, z'
loop_
 _atom_site_type_symbol
 _atom_site_label
 _atom_site_symmetry_multiplicity
 _atom_site_fract_x
 _atom_site_fract_y
 _atom_site_fract_z
 _atom_site_occupancy
 _atom_site_charge
Cu  Cu1  1  0.04937000  0.97552000  0.62911000  1.0 0.7796785998
Cu  Cu2  1  0.86458000  0.60788000  0.62587000  1.0 0.7974919695
Cu  Cu3  1  0.95063000  0.47552000  0.87089000  1.0 0.7796785998
Cu  Cu4  1  0.13542000  0.10788000  0.87413000  1.0 0.7974919695
Cu  Cu5  1  0.95063000  0.02448000  0.37089000  1.0 0.7796785998
Cu  Cu6  1  0.13542000  0.39212000  0.37413000  1.0 0.7974919695
Cu  Cu7  1  0.04937000  0.52448000  0.12911000  1.0 0.7796785998
Cu  Cu8  1  0.86458000  0.89212000  0.12587000  1.0 0.7974919695
H  H1  1  0.94541000  0.85910000  0.32347000  1.0 0.1107181507
H  H2  1  0.02068000  0.71169000  0.51847000  1.0 0.1197228016
H  H3  1  0.02318000  0.80145000  0.56879000  1.0 0.1197228016
H  H4  1  0.90305000  0.54146000  0.35198000  1.0 0.127100435
H  H5  1  0.21672000  0.59856000  0.30804000  1.0 0.1197228016
H  H6  1  0.16194000  0.68919000  0.33690000  1.0 0.1107181507
H  H7  1  0.25162000  0.89211000  0.63515000  1.0 0.1197228016
H  H8  1  0.45528000  0.88835000  0.63632000  1.0 0.1368445921
H  H9  1  0.45657000  0.05412000  0.62354000  1.0 0.1197228016
H  H10  1  0.25451000  0.05380000  0.62493000  1.0 0.1197228016
H  H11  1  0.65254000  0.88831000  0.64480000  1.0 0.127100435
H  H12  1  0.85613000  0.89181000  0.64173000  1.0 0.1107181507
H  H13  1  0.83965000  0.05357000  0.61908000  1.0 0.1107181507
H  H14  1  0.63511000  0.05464000  0.61433000  1.0 0.1197228016
H  H15  1  0.12062000  0.64517000  0.74436000  1.0 0.101633621
H  H16  1  0.32700000  0.64317000  0.74541000  1.0 0.127100435
H  H17  1  0.22466000  0.55220000  0.52485000  1.0 0.1368445921
H  H18  1  0.02104000  0.55811000  0.52876000  1.0 0.1107181507
H  H19  1  0.50918000  0.63845000  0.74718000  1.0 0.127100435
H  H20  1  0.71110000  0.64357000  0.73929000  1.0 0.0909929213
H  H21  1  0.61651000  0.56517000  0.51693000  1.0 0.1197228016
H  H22  1  0.41139000  0.56063000  0.51742000  1.0 0.1368445921
H  H23  1  0.58634000  0.70591000  0.25155000  1.0 0.3671965691
H  H24  1  0.62641000  0.72144000  0.18175000  1.0 0.3336371722
H  H25  1  0.05459000  0.35910000  0.17653000  1.0 0.1107181507
H  H26  1  0.97932000  0.21169000  0.98153000  1.0 0.1197228016
H  H27  1  0.97682000  0.30145000  0.93121000  1.0 0.1197228016
H  H28  1  0.09695000  0.04146000  0.14802000  1.0 0.127100435
H  H29  1  0.78328000  0.09856000  0.19196000  1.0 0.1197228016
H  H30  1  0.83806000  0.18919000  0.16310000  1.0 0.1107181507
H  H31  1  0.74838000  0.39211000  0.86485000  1.0 0.1197228016
H  H32  1  0.54472000  0.38835000  0.86368000  1.0 0.1368445921
H  H33  1  0.54343000  0.55412000  0.87646000  1.0 0.1197228016
H  H34  1  0.74549000  0.55380000  0.87507000  1.0 0.1197228016
H  H35  1  0.34746000  0.38831000  0.85520000  1.0 0.127100435
H  H36  1  0.14387000  0.39181000  0.85827000  1.0 0.1107181507
H  H37  1  0.16035000  0.55357000  0.88092000  1.0 0.1107181507
H  H38  1  0.36489000  0.55464000  0.88567000  1.0 0.1197228016
H  H39  1  0.87938000  0.14517000  0.75564000  1.0 0.101633621
H  H40  1  0.67300000  0.14317000  0.75459000  1.0 0.127100435
H  H41  1  0.77534000  0.05220000  0.97515000  1.0 0.1368445921
H  H42  1  0.97896000  0.05811000  0.97124000  1.0 0.1107181507
H  H43  1  0.49082000  0.13845000  0.75282000  1.0 0.127100435
H  H44  1  0.28890000  0.14357000  0.76071000  1.0 0.0909929213
H  H45  1  0.38349000  0.06517000  0.98307000  1.0 0.1197228016
H  H46  1  0.58861000  0.06063000  0.98258000  1.0 0.1368445921
H  H47  1  0.41366000  0.20591000  0.24845000  1.0 0.3671965691
H  H48  1  0.37359000  0.22144000  0.31825000  1.0 0.3336371722
H  H49  1  0.05459000  0.14090000  0.67653000  1.0 0.1107181507
H  H50  1  0.97932000  0.28831000  0.48153000  1.0 0.1197228016
H  H51  1  0.97682000  0.19855000  0.43121000  1.0 0.1197228016
H  H52  1  0.09695000  0.45854000  0.64802000  1.0 0.127100435
H  H53  1  0.78328000  0.40144000  0.69196000  1.0 0.1197228016
H  H54  1  0.83806000  0.31081000  0.66310000  1.0 0.1107181507
H  H55  1  0.74838000  0.10789000  0.36485000  1.0 0.1197228016
H  H56  1  0.54472000  0.11165000  0.36368000  1.0 0.1368445921
H  H57  1  0.54343000  0.94588000  0.37646000  1.0 0.1197228016
H  H58  1  0.74549000  0.94620000  0.37507000  1.0 0.1197228016
H  H59  1  0.34746000  0.11169000  0.35520000  1.0 0.127100435
H  H60  1  0.14387000  0.10819000  0.35827000  1.0 0.1107181507
H  H61  1  0.16035000  0.94643000  0.38092000  1.0 0.1107181507
H  H62  1  0.36489000  0.94536000  0.38567000  1.0 0.1197228016
H  H63  1  0.87938000  0.35483000  0.25564000  1.0 0.101633621
H  H64  1  0.67300000  0.35683000  0.25459000  1.0 0.127100435
H  H65  1  0.77534000  0.44780000  0.47515000  1.0 0.1368445921
H  H66  1  0.97896000  0.44189000  0.47124000  1.0 0.1107181507
H  H67  1  0.49082000  0.36155000  0.25282000  1.0 0.127100435
H  H68  1  0.28890000  0.35643000  0.26071000  1.0 0.0909929213
H  H69  1  0.38349000  0.43483000  0.48307000  1.0 0.1197228016
H  H70  1  0.58861000  0.43937000  0.48258000  1.0 0.1368445921
H  H71  1  0.41366000  0.29409000  0.74845000  1.0 0.3671965691
H  H72  1  0.37359000  0.27856000  0.81825000  1.0 0.3336371722
H  H73  1  0.94541000  0.64090000  0.82347000  1.0 0.1107181507
H  H74  1  0.02068000  0.78831000  0.01847000  1.0 0.1197228016
H  H75  1  0.02318000  0.69855000  0.06879000  1.0 0.1197228016
H  H76  1  0.90305000  0.95854000  0.85198000  1.0 0.127100435
H  H77  1  0.21672000  0.90144000  0.80804000  1.0 0.1197228016
H  H78  1  0.16194000  0.81081000  0.83690000  1.0 0.1107181507
H  H79  1  0.25162000  0.60789000  0.13515000  1.0 0.1197228016
H  H80  1  0.45528000  0.61165000  0.13632000  1.0 0.1368445921
H  H81  1  0.45657000  0.44588000  0.12354000  1.0 0.1197228016
H  H82  1  0.25451000  0.44620000  0.12493000  1.0 0.1197228016
H  H83  1  0.65254000  0.61169000  0.14480000  1.0 0.127100435
H  H84  1  0.85613000  0.60819000  0.14173000  1.0 0.1107181507
H  H85  1  0.83965000  0.44643000  0.11908000  1.0 0.1107181507
H  H86  1  0.63511000  0.44536000  0.11433000  1.0 0.1197228016
H  H87  1  0.12062000  0.85483000  0.24436000  1.0 0.101633621
H  H88  1  0.32700000  0.85683000  0.24541000  1.0 0.127100435
H  H89  1  0.22466000  0.94780000  0.02485000  1.0 0.1368445921
H  H90  1  0.02104000  0.94189000  0.02876000  1.0 0.1107181507
H  H91  1  0.50918000  0.86155000  0.24718000  1.0 0.127100435
H  H92  1  0.71110000  0.85643000  0.23929000  1.0 0.0909929213
H  H93  1  0.61651000  0.93483000  0.01693000  1.0 0.1197228016
H  H94  1  0.41139000  0.93937000  0.01742000  1.0 0.1368445921
H  H95  1  0.58634000  0.79409000  0.75155000  1.0 0.3671965691
H  H96  1  0.62641000  0.77856000  0.68175000  1.0 0.3336371722
C  C1  1  0.99510000  0.89945000  0.48500000  1.0 0.5691629219
C  C2  1  0.98750000  0.83970000  0.45140000  1.0 -0.0255168156
C  C3  1  0.96150000  0.82944000  0.36270000  1.0 -0.1298164945
C  C4  1  0.95920000  0.77460000  0.33170000  1.0 -0.1298164945
C  C5  1  0.98450000  0.72980000  0.38980000  1.0 0.0563362733
C  C6  1  0.00670000  0.74120000  0.47900000  1.0 -0.1066859543
C  C7  1  0.00820000  0.79500000  0.50930000  1.0 -0.0932750982
C  C8  1  0.00100000  0.67020000  0.36400000  1.0 0.0318030733
C  C9  1  0.92240000  0.62480000  0.36720000  1.0 -0.1066859543
C  C10  1  0.95570000  0.57120000  0.34960000  1.0 -0.1298164945
C  C11  1  0.06630000  0.56108000  0.32850000  1.0 -0.0483593886
C  C12  1  0.14340000  0.60480000  0.32310000  1.0 -0.1298164945
C  C13  1  0.10990000  0.65960000  0.34080000  1.0 -0.1169115288
C  C14  1  0.10340000  0.50169000  0.31880000  1.0 0.556996839
C  C15  1  0.29380000  0.92540000  0.63360000  1.0 0.0819251278
C  C16  1  0.41620000  0.92290000  0.63390000  1.0 -0.1783736492
C  C17  1  0.48370000  0.97140000  0.63070000  1.0 0.1107181507
C  C18  1  0.41740000  0.02020000  0.62670000  1.0 -0.1934571547
C  C19  1  0.29560000  0.01980000  0.62730000  1.0 0.0909929213
C  C20  1  0.61690000  0.97170000  0.63010000  1.0 0.1107181507
C  C21  1  0.68830000  0.92250000  0.63840000  1.0 -0.1783736492
C  C22  1  0.81130000  0.92500000  0.63710000  1.0 0.0909929213
C  C23  1  0.80090000  0.01970000  0.62280000  1.0 0.0819251278
C  C24  1  0.67820000  0.02090000  0.62130000  1.0 -0.1994084419
C  C25  1  0.14110000  0.62750000  0.69880000  1.0 0.101633621
C  C26  1  0.26610000  0.62600000  0.69990000  1.0 -0.1994084419
C  C27  1  0.30240000  0.59870000  0.63320000  1.0 0.1107181507
C  C28  1  0.20640000  0.57230000  0.56920000  1.0 -0.1647217442
C  C29  1  0.08380000  0.57600000  0.57210000  1.0 0.0819251278
C  C30  1  0.43470000  0.59860000  0.63250000  1.0 0.101633621
C  C31  1  0.52830000  0.62340000  0.69920000  1.0 -0.1934571547
C  C32  1  0.65050000  0.62570000  0.69440000  1.0 0.0909929213
C  C33  1  0.59530000  0.58020000  0.56410000  1.0 0.101633621
C  C34  1  0.47110000  0.57730000  0.56420000  1.0 -0.1783736492
C  C35  1  0.00490000  0.39945000  0.01500000  1.0 0.5691629219
C  C36  1  0.01250000  0.33970000  0.04860000  1.0 -0.0255168156
C  C37  1  0.03850000  0.32944000  0.13730000  1.0 -0.1298164945
C  C38  1  0.04080000  0.27460000  0.16830000  1.0 -0.1298164945
C  C39  1  0.01550000  0.22980000  0.11020000  1.0 0.0563362733
C  C40  1  0.99330000  0.24120000  0.02100000  1.0 -0.1066859543
C  C41  1  0.99180000  0.29500000  0.99070000  1.0 -0.0932750982
C  C42  1  0.99900000  0.17020000  0.13600000  1.0 0.0318030733
C  C43  1  0.07760000  0.12480000  0.13280000  1.0 -0.1066859543
C  C44  1  0.04430000  0.07120000  0.15040000  1.0 -0.1298164945
C  C45  1  0.93370000  0.06108000  0.17150000  1.0 -0.0483593886
C  C46  1  0.85660000  0.10480000  0.17690000  1.0 -0.1298164945
C  C47  1  0.89010000  0.15960000  0.15920000  1.0 -0.1169115288
C  C48  1  0.89660000  0.00169000  0.18120000  1.0 0.556996839
C  C49  1  0.70620000  0.42540000  0.86640000  1.0 0.0819251278
C  C50  1  0.58380000  0.42290000  0.86610000  1.0 -0.1783736492
C  C51  1  0.51630000  0.47140000  0.86930000  1.0 0.1107181507
C  C52  1  0.58260000  0.52020000  0.87330000  1.0 -0.1934571547
C  C53  1  0.70440000  0.51980000  0.87270000  1.0 0.0909929213
C  C54  1  0.38310000  0.47170000  0.86990000  1.0 0.1107181507
C  C55  1  0.31170000  0.42250000  0.86160000  1.0 -0.1783736492
C  C56  1  0.18870000  0.42500000  0.86290000  1.0 0.0909929213
C  C57  1  0.19910000  0.51970000  0.87720000  1.0 0.0819251278
C  C58  1  0.32180000  0.52090000  0.87870000  1.0 -0.1994084419
C  C59  1  0.85890000  0.12750000  0.80120000  1.0 0.1107181507
C  C60  1  0.73390000  0.12600000  0.80010000  1.0 -0.1994084419
C  C61  1  0.69760000  0.09870000  0.86680000  1.0 0.1107181507
C  C62  1  0.79360000  0.07230000  0.93080000  1.0 -0.1647217442
C  C63  1  0.91620000  0.07600000  0.92790000  1.0 0.0819251278
C  C64  1  0.56530000  0.09860000  0.86750000  1.0 0.101633621
C  C65  1  0.47170000  0.12340000  0.80080000  1.0 -0.1934571547
C  C66  1  0.34950000  0.12570000  0.80560000  1.0 0.0909929213
C  C67  1  0.40470000  0.08020000  0.93590000  1.0 0.101633621
C  C68  1  0.52890000  0.07730000  0.93580000  1.0 -0.1783736492
C  C69  1  0.00490000  0.10055000  0.51500000  1.0 0.5691629219
C  C70  1  0.01250000  0.16030000  0.54860000  1.0 -0.0255168156
C  C71  1  0.03850000  0.17056000  0.63730000  1.0 -0.1298164945
C  C72  1  0.04080000  0.22540000  0.66830000  1.0 -0.1298164945
C  C73  1  0.01550000  0.27020000  0.61020000  1.0 0.0563362733
C  C74  1  0.99330000  0.25880000  0.52100000  1.0 -0.1066859543
C  C75  1  0.99180000  0.20500000  0.49070000  1.0 -0.0932750982
C  C76  1  0.99900000  0.32980000  0.63600000  1.0 0.0318030733
C  C77  1  0.07760000  0.37520000  0.63280000  1.0 -0.1066859543
C  C78  1  0.04430000  0.42880000  0.65040000  1.0 -0.1298164945
C  C79  1  0.93370000  0.43892000  0.67150000  1.0 -0.0483593886
C  C80  1  0.85660000  0.39520000  0.67690000  1.0 -0.1298164945
C  C81  1  0.89010000  0.34040000  0.65920000  1.0 -0.1169115288
C  C82  1  0.89660000  0.49831000  0.68120000  1.0 0.556996839
C  C83  1  0.70620000  0.07460000  0.36640000  1.0 0.0819251278
C  C84  1  0.58380000  0.07710000  0.36610000  1.0 -0.1783736492
C  C85  1  0.51630000  0.02860000  0.36930000  1.0 0.1107181507
C  C86  1  0.58260000  0.97980000  0.37330000  1.0 -0.1934571547
C  C87  1  0.70440000  0.98020000  0.37270000  1.0 0.0909929213
C  C88  1  0.38310000  0.02830000  0.36990000  1.0 0.1107181507
C  C89  1  0.31170000  0.07750000  0.36160000  1.0 -0.1783736492
C  C90  1  0.18870000  0.07500000  0.36290000  1.0 0.0819251278
C  C91  1  0.19910000  0.98030000  0.37720000  1.0 0.0819251278
C  C92  1  0.32180000  0.97910000  0.37870000  1.0 -0.1994084419
C  C93  1  0.85890000  0.37250000  0.30120000  1.0 0.101633621
C  C94  1  0.73390000  0.37400000  0.30010000  1.0 -0.1994084419
C  C95  1  0.69760000  0.40130000  0.36680000  1.0 0.1107181507
C  C96  1  0.79360000  0.42770000  0.43080000  1.0 -0.1647217442
C  C97  1  0.91620000  0.42400000  0.42790000  1.0 0.0819251278
C  C98  1  0.56530000  0.40140000  0.36750000  1.0 0.101633621
C  C99  1  0.47170000  0.37660000  0.30080000  1.0 -0.1934571547
C  C100  1  0.34950000  0.37430000  0.30560000  1.0 0.0909929213
C  C101  1  0.40470000  0.41980000  0.43590000  1.0 0.101633621
C  C102  1  0.52890000  0.42270000  0.43580000  1.0 -0.1783736492
C  C103  1  0.99510000  0.60055000  0.98500000  1.0 0.5691629219
C  C104  1  0.98750000  0.66030000  0.95140000  1.0 -0.0255168156
C  C105  1  0.96150000  0.67056000  0.86270000  1.0 -0.1298164945
C  C106  1  0.95920000  0.72540000  0.83170000  1.0 -0.1298164945
C  C107  1  0.98450000  0.77020000  0.88980000  1.0 0.0563362733
C  C108  1  0.00670000  0.75880000  0.97900000  1.0 -0.1066859543
C  C109  1  0.00820000  0.70500000  0.00930000  1.0 -0.0932750982
C  C110  1  0.00100000  0.82980000  0.86400000  1.0 0.0318030733
C  C111  1  0.92240000  0.87520000  0.86720000  1.0 -0.1066859543
C  C112  1  0.95570000  0.92880000  0.84960000  1.0 -0.1298164945
C  C113  1  0.06630000  0.93892000  0.82850000  1.0 -0.0483593886
C  C114  1  0.14340000  0.89520000  0.82310000  1.0 -0.1298164945
C  C115  1  0.10990000  0.84040000  0.84080000  1.0 -0.1169115288
C  C116  1  0.10340000  0.99831000  0.81880000  1.0 0.556996839
C  C117  1  0.29380000  0.57460000  0.13360000  1.0 0.0819251278
C  C118  1  0.41620000  0.57710000  0.13390000  1.0 -0.1783736492
C  C119  1  0.48370000  0.52860000  0.13070000  1.0 0.1107181507
C  C120  1  0.41740000  0.47980000  0.12670000  1.0 -0.1934571547
C  C121  1  0.29560000  0.48020000  0.12730000  1.0 0.0909929213
C  C122  1  0.61690000  0.52830000  0.13010000  1.0 0.1107181507
C  C123  1  0.68830000  0.57750000  0.13840000  1.0 -0.1783736492
C  C124  1  0.81130000  0.57500000  0.13710000  1.0 0.0819251278
C  C125  1  0.80090000  0.48030000  0.12280000  1.0 0.0819251278
C  C126  1  0.67820000  0.47910000  0.12130000  1.0 -0.1994084419
C  C127  1  0.14110000  0.87250000  0.19880000  1.0 0.101633621
C  C128  1  0.26610000  0.87400000  0.19990000  1.0 -0.1994084419
C  C129  1  0.30240000  0.90130000  0.13320000  1.0 0.1107181507
C  C130  1  0.20640000  0.92770000  0.06920000  1.0 -0.1647217442
C  C131  1  0.08380000  0.92400000  0.07210000  1.0 0.0819251278
C  C132  1  0.43470000  0.90140000  0.13250000  1.0 0.101633621
C  C133  1  0.52830000  0.87660000  0.19920000  1.0 -0.1934571547
C  C134  1  0.65050000  0.87430000  0.19440000  1.0 0.0909929213
C  C135  1  0.59530000  0.91980000  0.06410000  1.0 0.101633621
C  C136  1  0.47110000  0.92270000  0.06420000  1.0 -0.1783736492
S  S1  1  0.93053000  0.76336000  0.21675000  1.0 0.4371348488
S  S2  1  0.77798000  0.63162000  0.39722000  1.0 1.1759265828
S  S3  1  0.85770000  0.76570000  0.21890000  1.0 0.4287325847
S  S4  1  0.06947000  0.26336000  0.28325000  1.0 0.4371348488
S  S5  1  0.22202000  0.13162000  0.10278000  1.0 1.1759265828
S  S6  1  0.14230000  0.26570000  0.28110000  1.0 0.4287325847
S  S7  1  0.06947000  0.23664000  0.78325000  1.0 0.4371348488
S  S8  1  0.22202000  0.36838000  0.60278000  1.0 1.1759265828
S  S9  1  0.14230000  0.23430000  0.78110000  1.0 0.4287325847
S  S10  1  0.93053000  0.73664000  0.71675000  1.0 0.4287325847
S  S11  1  0.77798000  0.86838000  0.89722000  1.0 1.1759265828
S  S12  1  0.85770000  0.73430000  0.71890000  1.0 0.4287325847
N  N1  1  0.23130000  0.97321000  0.63120000  1.0 -0.2123895121
N  N2  1  0.87020000  0.97319000  0.62940000  1.0 -0.2377554012
N  N3  1  0.04950000  0.60458000  0.63510000  1.0 -0.2527525146
N  N4  1  0.68620000  0.60375000  0.62890000  1.0 -0.228285743
N  N5  1  0.76870000  0.47321000  0.86880000  1.0 -0.2123895121
N  N6  1  0.12980000  0.47319000  0.87060000  1.0 -0.2377554012
N  N7  1  0.95050000  0.10458000  0.86490000  1.0 -0.2527525146
N  N8  1  0.31380000  0.10375000  0.87110000  1.0 -0.228285743
N  N9  1  0.76870000  0.02679000  0.36880000  1.0 -0.2123895121
N  N10  1  0.12980000  0.02681000  0.37060000  1.0 -0.2377554012
N  N11  1  0.95050000  0.39542000  0.36490000  1.0 -0.2527525146
N  N12  1  0.31380000  0.39625000  0.37110000  1.0 -0.228285743
N  N13  1  0.23130000  0.52679000  0.13120000  1.0 -0.2123895121
N  N14  1  0.87020000  0.52681000  0.12940000  1.0 -0.2377554012
N  N15  1  0.04950000  0.89542000  0.13510000  1.0 -0.2527525146
N  N16  1  0.68620000  0.89625000  0.12890000  1.0 -0.228285743
O  O1  1  0.02250000  0.90493000  0.56680000  1.0 -0.5586439652
O  O2  1  0.97510000  0.93890000  0.43150000  1.0 -0.6103826893
O  O3  1  0.87400000  0.81596000  0.17640000  1.0 -0.453515811
O  O4  1  0.84520000  0.71727000  0.18990000  1.0 -0.023812956
O  O5  1  0.05360000  0.75450000  0.20440000  1.0 -0.4226775897
O  O6  1  0.71460000  0.68110000  0.35420000  1.0 -0.6103826893
O  O7  1  0.70870000  0.58020000  0.37030000  1.0 -0.6310828758
O  O8  1  0.81710000  0.63817000  0.49190000  1.0 -0.6434230638
O  O9  1  0.09990000  0.48190000  0.24550000  1.0 -0.5586439652
O  O10  1  0.13440000  0.47353000  0.38920000  1.0 -0.5221291614
O  O11  1  0.56170000  0.71770000  0.19910000  1.0 -0.5391430688
O  O12  1  0.90800000  0.71700000  0.18800000  1.0 -0.0069357277
O  O13  1  0.73300000  0.75400000  0.22300000  1.0 -0.2938214895
O  O14  1  0.97750000  0.40493000  0.93320000  1.0 -0.5586439652
O  O15  1  0.02490000  0.43890000  0.06850000  1.0 -0.6103826893
O  O16  1  0.12600000  0.31596000  0.32360000  1.0 -0.453515811
O  O17  1  0.15480000  0.21727000  0.31010000  1.0 -0.023812956
O  O18  1  0.94640000  0.25450000  0.29560000  1.0 -0.4226775897
O  O19  1  0.28540000  0.18110000  0.14580000  1.0 -0.6103826893
O  O20  1  0.29130000  0.08020000  0.12970000  1.0 -0.6310828758
O  O21  1  0.18290000  0.13817000  0.00810000  1.0 -0.6434230638
O  O22  1  0.90010000  0.98190000  0.25450000  1.0 -0.5586439652
O  O23  1  0.86560000  0.97353000  0.11080000  1.0 -0.5221291614
O  O24  1  0.43830000  0.21770000  0.30090000  1.0 -0.5391430688
O  O25  1  0.09200000  0.21700000  0.31200000  1.0 -0.0069357277
O  O26  1  0.26700000  0.25400000  0.27700000  1.0 -0.2938214895
O  O27  1  0.97750000  0.09507000  0.43320000  1.0 -0.5586439652
O  O28  1  0.02490000  0.06110000  0.56850000  1.0 -0.6103826893
O  O29  1  0.12600000  0.18404000  0.82360000  1.0 -0.453515811
O  O30  1  0.15480000  0.28273000  0.81010000  1.0 -0.023812956
O  O31  1  0.94640000  0.24550000  0.79560000  1.0 -0.4226775897
O  O32  1  0.28540000  0.31890000  0.64580000  1.0 -0.6103826893
O  O33  1  0.29130000  0.41980000  0.62970000  1.0 -0.6310828758
O  O34  1  0.18290000  0.36183000  0.50810000  1.0 -0.6434230638
O  O35  1  0.90010000  0.51810000  0.75450000  1.0 -0.5586439652
O  O36  1  0.86560000  0.52647000  0.61080000  1.0 -0.5221291614
O  O37  1  0.43830000  0.28230000  0.80090000  1.0 -0.5391430688
O  O38  1  0.09200000  0.28300000  0.81200000  1.0 -0.0069357277
O  O39  1  0.26700000  0.24600000  0.77700000  1.0 -0.2938214895
O  O40  1  0.02250000  0.59507000  0.06680000  1.0 -0.5586439652
O  O41  1  0.97510000  0.56110000  0.93150000  1.0 -0.6103826893
O  O42  1  0.87400000  0.68404000  0.67640000  1.0 -0.453515811
O  O43  1  0.84520000  0.78273000  0.68990000  1.0 -0.0255168156
O  O44  1  0.05360000  0.74550000  0.70440000  1.0 -0.4226775897
O  O45  1  0.71460000  0.81890000  0.85420000  1.0 -0.6103826893
O  O46  1  0.70870000  0.91980000  0.87030000  1.0 -0.6310828758
O  O47  1  0.81710000  0.86183000  0.99190000  1.0 -0.6434230638
O  O48  1  0.09990000  0.01810000  0.74550000  1.0 -0.5586439652
O  O49  1  0.13440000  0.02647000  0.88920000  1.0 -0.5221291614
O  O50  1  0.56170000  0.78230000  0.69910000  1.0 -0.5391430688
O  O51  1  0.90800000  0.78300000  0.68800000  1.0 -0.0069357277
O  O52  1  0.73300000  0.74600000  0.72300000  1.0 -0.2938214895
