# DDEC6 charges by PACMAN v1.1 (https://github.com/mtap-research/PACMAN-charge/)
data_MUGFOK_FSR_pacman
_symmetry_space_group_name_H-M   'P 1'
_cell_length_a   15.86570000
_cell_length_b   15.86570000
_cell_length_c   15.86570000
_cell_angle_alpha   103.77000000
_cell_angle_beta   103.77000000
_cell_angle_gamma   121.59800000
_symmetry_Int_Tables_number   1
_chemical_formula_structural   Ni2MoH76(C9N4)4
_chemical_formula_sum   'Ni4 Mo2 H152 C72 N32'
_cell_volume   2969.31954451
_cell_formula_units_Z   2
loop_
 _symmetry_equiv_pos_site_id
 _symmetry_equiv_pos_as_xyz
  1  'x, y, z'
loop_
 _atom_site_type_symbol
 _atom_site_label
 _atom_site_symmetry_multiplicity
 _atom_site_fract_x
 _atom_site_fract_y
 _atom_site_fract_z
 _atom_site_occupancy
 _atom_site_charge
Ni  Ni1  1  0.62500000  0.37500000  0.75000000  1.0 0.5584224017
Ni  Ni2  1  0.62500000  0.87500000  0.25000000  1.0 0.5584224017
Ni  Ni3  1  0.12500000  0.37500000  0.75000000  1.0 0.5584224017
Ni  Ni4  1  0.62500000  0.37500000  0.25000000  1.0 0.5584224017
Mo  Mo1  1  0.50000000  0.50000000  0.00000000  1.0 0.5412459524
Mo  Mo2  1  0.75000000  0.25000000  0.50000000  1.0 0.5412459524
H  H1  1  0.85830000  0.51980000  0.77290000  1.0 0.109492204
H  H2  1  0.74690000  0.08540000  0.22710000  1.0 0.109492204
H  H3  1  0.33540000  0.60830000  0.83850000  1.0 0.109492204
H  H4  1  0.76980000  0.49690000  0.16150000  1.0 0.109492204
H  H5  1  0.39170000  0.66460000  0.16150000  1.0 0.109492204
H  H6  1  0.50310000  0.23020000  0.83850000  1.0 0.109492204
H  H7  1  0.91460000  0.25310000  0.77290000  1.0 0.109492204
H  H8  1  0.48020000  0.14170000  0.22710000  1.0 0.109492204
H  H9  1  0.39170000  0.23020000  0.72710000  1.0 0.109492204
H  H10  1  0.50310000  0.66460000  0.27290000  1.0 0.109492204
H  H11  1  0.91460000  0.14170000  0.66150000  1.0 0.109492204
H  H12  1  0.48020000  0.25310000  0.33850000  1.0 0.109492204
H  H13  1  0.85830000  0.08540000  0.33850000  1.0 0.109492204
H  H14  1  0.74690000  0.51980000  0.66150000  1.0 0.109492204
H  H15  1  0.33540000  0.49690000  0.72710000  1.0 0.109492204
H  H16  1  0.76980000  0.60830000  0.27290000  1.0 0.109492204
H  H17  1  0.93340000  0.61020000  0.88100000  1.0 0.1012041173
H  H18  1  0.72920000  0.05240000  0.11900000  1.0 0.1012041173
H  H19  1  0.30240000  0.68340000  0.82320000  1.0 0.1012041173
H  H20  1  0.86020000  0.47920000  0.17680000  1.0 0.1012041173
H  H21  1  0.31660000  0.69760000  0.17680000  1.0 0.1012041173
H  H22  1  0.52080000  0.13980000  0.82320000  1.0 0.1012041173
H  H23  1  0.94760000  0.27080000  0.88100000  1.0 0.1012041173
H  H24  1  0.38980000  0.06660000  0.11900000  1.0 0.1012041173
H  H25  1  0.31660000  0.13980000  0.61900000  1.0 0.1012041173
H  H26  1  0.52080000  0.69760000  0.38100000  1.0 0.1012041173
H  H27  1  0.94760000  0.06660000  0.67680000  1.0 0.1012041173
H  H28  1  0.38980000  0.27080000  0.32320000  1.0 0.1012041173
H  H29  1  0.93340000  0.05240000  0.32320000  1.0 0.1012041173
H  H30  1  0.72920000  0.61020000  0.67680000  1.0 0.1012041173
H  H31  1  0.30240000  0.47920000  0.61900000  1.0 0.1012041173
H  H32  1  0.86020000  0.68340000  0.38100000  1.0 0.1012041173
H  H33  1  0.88790000  0.68180000  0.79390000  1.0 0.1012041173
H  H34  1  0.88790000  0.09400000  0.20610000  1.0 0.1012041173
H  H35  1  0.34400000  0.63790000  0.70610000  1.0 0.1012041173
H  H36  1  0.93180000  0.63790000  0.29390000  1.0 0.1012041173
H  H37  1  0.36210000  0.65600000  0.29390000  1.0 0.1012041173
H  H38  1  0.36210000  0.06820000  0.70610000  1.0 0.1012041173
H  H39  1  0.90600000  0.11210000  0.79390000  1.0 0.1012041173
H  H40  1  0.31820000  0.11210000  0.20610000  1.0 0.1012041173
H  H41  1  0.83880000  0.69700000  0.93820000  1.0 0.0893354868
H  H42  1  0.75880000  0.90060000  0.06180000  1.0 0.0893354868
H  H43  1  0.15060000  0.58880000  0.64180000  1.0 0.0893354868
H  H44  1  0.94700000  0.50880000  0.35820000  1.0 0.0893354868
H  H45  1  0.41120000  0.84940000  0.35820000  1.0 0.0893354868
H  H46  1  0.49120000  0.05300000  0.64180000  1.0 0.0893354868
H  H47  1  0.09940000  0.24120000  0.93820000  1.0 0.0893354868
H  H48  1  0.30300000  0.16120000  0.06180000  1.0 0.0893354868
H  H49  1  0.41120000  0.05300000  0.56180000  1.0 0.0893354868
H  H50  1  0.49120000  0.84940000  0.43820000  1.0 0.0893354868
H  H51  1  0.09940000  0.16120000  0.85820000  1.0 0.0893354868
H  H52  1  0.30300000  0.24120000  0.14180000  1.0 0.0893354868
H  H53  1  0.83880000  0.90060000  0.14180000  1.0 0.0893354868
H  H54  1  0.75880000  0.69700000  0.85820000  1.0 0.0893354868
H  H55  1  0.15060000  0.50880000  0.56180000  1.0 0.0893354868
H  H56  1  0.94700000  0.58880000  0.43820000  1.0 0.0893354868
H  H57  1  0.86950000  0.44310000  0.91440000  1.0 0.109492204
H  H58  1  0.52870000  0.95510000  0.08560000  1.0 0.109492204
H  H59  1  0.20510000  0.61950000  0.92640000  1.0 0.109492204
H  H60  1  0.69310000  0.27870000  0.07360000  1.0 0.109492204
H  H61  1  0.38050000  0.79490000  0.07360000  1.0 0.109492204
H  H62  1  0.72130000  0.30690000  0.92640000  1.0 0.109492204
H  H63  1  0.04490000  0.47130000  0.91440000  1.0 0.109492204
H  H64  1  0.55690000  0.13050000  0.08560000  1.0 0.109492204
H  H65  1  0.38050000  0.30690000  0.58560000  1.0 0.109492204
H  H66  1  0.72130000  0.79490000  0.41440000  1.0 0.109492204
H  H67  1  0.04490000  0.13050000  0.57360000  1.0 0.109492204
H  H68  1  0.55690000  0.47130000  0.42640000  1.0 0.109492204
H  H69  1  0.86950000  0.95510000  0.42640000  1.0 0.109492204
H  H70  1  0.52870000  0.44310000  0.57360000  1.0 0.109492204
H  H71  1  0.20510000  0.27870000  0.58560000  1.0 0.109492204
H  H72  1  0.69310000  0.61950000  0.41440000  1.0 0.109492204
H  H73  1  0.78960000  0.36600000  0.80320000  1.0 0.109492204
H  H74  1  0.56280000  0.98640000  0.19680000  1.0 0.109492204
H  H75  1  0.23640000  0.53960000  0.92360000  1.0 0.109492204
H  H76  1  0.61600000  0.31280000  0.07640000  1.0 0.109492204
H  H77  1  0.46040000  0.76360000  0.07640000  1.0 0.109492204
H  H78  1  0.68720000  0.38400000  0.92360000  1.0 0.109492204
H  H79  1  0.01360000  0.43720000  0.80320000  1.0 0.109492204
H  H80  1  0.63400000  0.21040000  0.19680000  1.0 0.109492204
H  H81  1  0.46040000  0.38400000  0.69680000  1.0 0.109492204
H  H82  1  0.68720000  0.76360000  0.30320000  1.0 0.109492204
H  H83  1  0.01360000  0.21040000  0.57640000  1.0 0.109492204
H  H84  1  0.63400000  0.43720000  0.42360000  1.0 0.109492204
H  H85  1  0.78960000  0.98640000  0.42360000  1.0 0.109492204
H  H86  1  0.56280000  0.36600000  0.57640000  1.0 0.109492204
H  H87  1  0.23640000  0.31280000  0.69680000  1.0 0.109492204
H  H88  1  0.61600000  0.53960000  0.30320000  1.0 0.109492204
H  H89  1  0.78880000  0.53200000  0.91180000  1.0 0.2559877952
H  H90  1  0.62020000  0.87700000  0.08820000  1.0 0.2559877952
H  H91  1  0.12700000  0.53880000  0.75680000  1.0 0.2559877952
H  H92  1  0.78200000  0.37020000  0.24320000  1.0 0.2559877952
H  H93  1  0.46120000  0.87300000  0.24320000  1.0 0.2559877952
H  H94  1  0.62980000  0.21800000  0.75680000  1.0 0.2559877952
H  H95  1  0.12300000  0.37980000  0.91180000  1.0 0.2559877952
H  H96  1  0.46800000  0.21120000  0.08820000  1.0 0.2559877952
H  H97  1  0.46120000  0.21800000  0.58820000  1.0 0.2559877952
H  H98  1  0.62980000  0.87300000  0.41180000  1.0 0.2559877952
H  H99  1  0.12300000  0.21120000  0.74320000  1.0 0.2559877952
H  H100  1  0.46800000  0.37980000  0.25680000  1.0 0.2559877952
H  H101  1  0.78880000  0.87700000  0.25680000  1.0 0.2559877952
H  H102  1  0.62020000  0.53200000  0.74320000  1.0 0.2559877952
H  H103  1  0.12700000  0.37020000  0.58820000  1.0 0.2559877952
H  H104  1  0.78200000  0.53880000  0.41180000  1.0 0.2559877952
H  H105  1  0.88960000  0.86930000  0.90310000  1.0 0.0893354868
H  H106  1  0.96620000  0.98650000  0.09690000  1.0 0.0893354868
H  H107  1  0.23650000  0.63960000  0.52030000  1.0 0.0893354868
H  H108  1  0.11930000  0.71620000  0.47970000  1.0 0.0893354868
H  H109  1  0.36040000  0.76350000  0.47970000  1.0 0.0893354868
H  H110  1  0.28380000  0.88070000  0.52030000  1.0 0.0893354868
H  H111  1  0.01350000  0.03380000  0.90310000  1.0 0.0893354868
H  H112  1  0.13070000  0.11040000  0.09690000  1.0 0.0893354868
H  H113  1  0.36040000  0.88070000  0.59690000  1.0 0.0893354868
H  H114  1  0.28380000  0.76350000  0.40310000  1.0 0.0893354868
H  H115  1  0.01350000  0.11040000  0.97970000  1.0 0.0893354868
H  H116  1  0.13070000  0.03380000  0.02030000  1.0 0.0893354868
H  H117  1  0.88960000  0.98650000  0.02030000  1.0 0.0893354868
H  H118  1  0.96620000  0.86930000  0.97970000  1.0 0.0893354868
H  H119  1  0.23650000  0.71620000  0.59690000  1.0 0.0893354868
H  H120  1  0.11930000  0.63960000  0.40310000  1.0 0.0893354868
H  H121  1  0.97220000  0.86670000  0.97770000  1.0 0.0893354868
H  H122  1  0.88900000  0.99450000  0.02230000  1.0 0.0893354868
H  H123  1  0.24450000  0.72220000  0.60550000  1.0 0.0893354868
H  H124  1  0.11670000  0.63900000  0.39450000  1.0 0.0893354868
H  H125  1  0.27780000  0.75550000  0.39450000  1.0 0.0893354868
H  H126  1  0.36100000  0.88330000  0.60550000  1.0 0.0893354868
H  H127  1  0.00550000  0.11100000  0.97770000  1.0 0.0893354868
H  H128  1  0.13330000  0.02780000  0.02230000  1.0 0.0893354868
H  H129  1  0.27780000  0.88330000  0.52230000  1.0 0.0893354868
H  H130  1  0.36100000  0.75550000  0.47770000  1.0 0.0893354868
H  H131  1  0.00550000  0.02780000  0.89450000  1.0 0.0893354868
H  H132  1  0.13330000  0.11100000  0.10550000  1.0 0.0893354868
H  H133  1  0.97220000  0.99450000  0.10550000  1.0 0.0893354868
H  H134  1  0.88900000  0.86670000  0.89450000  1.0 0.0893354868
H  H135  1  0.24450000  0.63900000  0.52230000  1.0 0.0893354868
H  H136  1  0.11670000  0.72220000  0.47770000  1.0 0.0893354868
H  H137  1  0.96560000  0.83700000  0.87800000  1.0 0.0629776704
H  H138  1  0.95900000  0.08760000  0.12200000  1.0 0.0629776704
H  H139  1  0.33760000  0.71560000  0.62860000  1.0 0.0629776704
H  H140  1  0.08700000  0.70900000  0.37140000  1.0 0.0629776704
H  H141  1  0.28440000  0.66240000  0.37140000  1.0 0.0629776704
H  H142  1  0.29100000  0.91300000  0.62860000  1.0 0.0629776704
H  H143  1  0.91240000  0.04100000  0.87800000  1.0 0.0629776704
H  H144  1  0.16300000  0.03440000  0.12200000  1.0 0.0629776704
H  H145  1  0.28440000  0.91300000  0.62200000  1.0 0.0629776704
H  H146  1  0.29100000  0.66240000  0.37800000  1.0 0.0629776704
H  H147  1  0.91240000  0.03440000  0.87140000  1.0 0.0629776704
H  H148  1  0.16300000  0.04100000  0.12860000  1.0 0.0629776704
H  H149  1  0.96560000  0.08760000  0.12860000  1.0 0.0629776704
H  H150  1  0.95900000  0.83700000  0.87140000  1.0 0.0629776704
H  H151  1  0.33760000  0.70900000  0.62200000  1.0 0.0629776704
H  H152  1  0.08700000  0.71560000  0.37800000  1.0 0.0629776704
C  C1  1  0.39430000  0.32880000  0.93450000  1.0 -0.0333863144
C  C2  1  0.39430000  0.45980000  0.06550000  1.0 -0.0333863144
C  C3  1  0.70980000  0.14430000  0.56550000  1.0 -0.0333863144
C  C4  1  0.57880000  0.14430000  0.43450000  1.0 -0.0333863144
C  C5  1  0.85570000  0.29020000  0.43450000  1.0 -0.0333863144
C  C6  1  0.85570000  0.42120000  0.56550000  1.0 -0.0333863144
C  C7  1  0.54020000  0.60570000  0.93450000  1.0 -0.0333863144
C  C8  1  0.67120000  0.60570000  0.06550000  1.0 -0.0333863144
C  C9  1  0.54260000  0.44050000  0.89790000  1.0 -0.0333863144
C  C10  1  0.54260000  0.64470000  0.10210000  1.0 -0.0333863144
C  C11  1  0.89470000  0.29260000  0.60210000  1.0 -0.0333863144
C  C12  1  0.69050000  0.29260000  0.39790000  1.0 -0.0333863144
C  C13  1  0.70740000  0.10530000  0.39790000  1.0 -0.0333863144
C  C14  1  0.70740000  0.30950000  0.60210000  1.0 -0.0333863144
C  C15  1  0.35530000  0.45740000  0.89790000  1.0 -0.0333863144
C  C16  1  0.55950000  0.45740000  0.10210000  1.0 -0.0333863144
C  C17  1  0.85961000  0.56287000  0.82878000  1.0 -0.0897380745
C  C18  1  0.73409000  0.03083000  0.17122000  1.0 -0.0897380745
C  C19  1  0.28083000  0.60961000  0.79674000  1.0 -0.0897380745
C  C20  1  0.81287000  0.48409000  0.20326000  1.0 -0.0897380745
C  C21  1  0.39039000  0.71917000  0.20326000  1.0 -0.0897380745
C  C22  1  0.51591000  0.18713000  0.79674000  1.0 -0.0897380745
C  C23  1  0.96917000  0.26591000  0.82878000  1.0 -0.0897380745
C  C24  1  0.43713000  0.14039000  0.17122000  1.0 -0.0897380745
C  C25  1  0.39039000  0.18713000  0.67122000  1.0 -0.0897380745
C  C26  1  0.51591000  0.71917000  0.32878000  1.0 -0.0897380745
C  C27  1  0.96917000  0.14039000  0.70326000  1.0 -0.0897380745
C  C28  1  0.43713000  0.26591000  0.29674000  1.0 -0.0897380745
C  C29  1  0.85961000  0.03083000  0.29674000  1.0 -0.0897380745
C  C30  1  0.73409000  0.56287000  0.70326000  1.0 -0.0897380745
C  C31  1  0.28083000  0.48409000  0.67122000  1.0 -0.0897380745
C  C32  1  0.81287000  0.60961000  0.32878000  1.0 -0.0897380745
C  C33  1  0.82610000  0.63074000  0.80464000  1.0 -0.0897380745
C  C34  1  0.82610000  0.02146000  0.19536000  1.0 -0.0897380745
C  C35  1  0.27146000  0.57610000  0.69536000  1.0 -0.0897380745
C  C36  1  0.88074000  0.57610000  0.30464000  1.0 -0.0897380745
C  C37  1  0.42390000  0.72854000  0.30464000  1.0 -0.0897380745
C  C38  1  0.42390000  0.11926000  0.69536000  1.0 -0.0897380745
C  C39  1  0.97854000  0.17390000  0.80464000  1.0 -0.0897380745
C  C40  1  0.36926000  0.17390000  0.19536000  1.0 -0.0897380745
C  C41  1  0.82920000  0.71073000  0.88153000  1.0 -0.2241390662
C  C42  1  0.82920000  0.94767000  0.11847000  1.0 -0.2241390662
C  C43  1  0.19767000  0.57920000  0.61847000  1.0 -0.2241390662
C  C44  1  0.96073000  0.57920000  0.38153000  1.0 -0.2241390662
C  C45  1  0.42080000  0.80233000  0.38153000  1.0 -0.2241390662
C  C46  1  0.42080000  0.03927000  0.61847000  1.0 -0.2241390662
C  C47  1  0.05233000  0.17080000  0.88153000  1.0 -0.2241390662
C  C48  1  0.28927000  0.17080000  0.11847000  1.0 -0.2241390662
C  C49  1  0.92120000  0.83240000  0.91120000  1.0 -0.4361246376
C  C50  1  0.92120000  0.01000000  0.08880000  1.0 -0.4361246376
C  C51  1  0.26000000  0.67120000  0.58880000  1.0 -0.4361246376
C  C52  1  0.08240000  0.67120000  0.41120000  1.0 -0.4361246376
C  C53  1  0.32880000  0.74000000  0.41120000  1.0 -0.4361246376
C  C54  1  0.32880000  0.91760000  0.58880000  1.0 -0.4361246376
C  C55  1  0.99000000  0.07880000  0.91120000  1.0 -0.4361246376
C  C56  1  0.16760000  0.07880000  0.08880000  1.0 -0.4361246376
C  C57  1  0.79841000  0.40984000  0.86363000  1.0 -0.1275583294
C  C58  1  0.54621000  0.93478000  0.13637000  1.0 -0.1275583294
C  C59  1  0.18478000  0.54841000  0.88857000  1.0 -0.1275583294
C  C60  1  0.65984000  0.29621000  0.11143000  1.0 -0.1275583294
C  C61  1  0.45159000  0.81522000  0.11143000  1.0 -0.1275583294
C  C62  1  0.70379000  0.34016000  0.88857000  1.0 -0.1275583294
C  C63  1  0.06522000  0.45379000  0.86363000  1.0 -0.1275583294
C  C64  1  0.59016000  0.20159000  0.13637000  1.0 -0.1275583294
C  C65  1  0.45159000  0.34016000  0.63637000  1.0 -0.1275583294
C  C66  1  0.70379000  0.81522000  0.36363000  1.0 -0.1275583294
C  C67  1  0.06522000  0.20159000  0.61143000  1.0 -0.1275583294
C  C68  1  0.59016000  0.45379000  0.38857000  1.0 -0.1275583294
C  C69  1  0.79841000  0.93478000  0.38857000  1.0 -0.1275583294
C  C70  1  0.54621000  0.40984000  0.61143000  1.0 -0.1275583294
C  C71  1  0.18478000  0.29621000  0.63637000  1.0 -0.1275583294
C  C72  1  0.65984000  0.54841000  0.36363000  1.0 -0.1275583294
N  N1  1  0.33272000  0.23032000  0.89760000  1.0 -0.4230196921
N  N2  1  0.33272000  0.43512000  0.10240000  1.0 -0.4230196921
N  N3  1  0.68512000  0.08272000  0.60240000  1.0 -0.4230196921
N  N4  1  0.48032000  0.08272000  0.39760000  1.0 -0.4230196921
N  N5  1  0.91728000  0.31488000  0.39760000  1.0 -0.4230196921
N  N6  1  0.91728000  0.51968000  0.60240000  1.0 -0.4230196921
N  N7  1  0.56488000  0.66728000  0.89760000  1.0 -0.4230196921
N  N8  1  0.76968000  0.66728000  0.10240000  1.0 -0.4230196921
N  N9  1  0.56730000  0.40945000  0.84215000  1.0 -0.3763116522
N  N10  1  0.56730000  0.72515000  0.15785000  1.0 -0.3763116522
N  N11  1  0.97515000  0.31730000  0.65785000  1.0 -0.3763116522
N  N12  1  0.65945000  0.31730000  0.34215000  1.0 -0.3763116522
N  N13  1  0.68270000  0.02485000  0.34215000  1.0 -0.3763116522
N  N14  1  0.68270000  0.34055000  0.65785000  1.0 -0.3763116522
N  N15  1  0.27485000  0.43270000  0.84215000  1.0 -0.3763116522
N  N16  1  0.59055000  0.43270000  0.15785000  1.0 -0.3763116522
N  N17  1  0.78556000  0.49604000  0.85560000  1.0 -0.249166779
N  N18  1  0.64044000  0.92996000  0.14440000  1.0 -0.249166779
N  N19  1  0.17996000  0.53556000  0.78952000  1.0 -0.249166779
N  N20  1  0.74604000  0.39044000  0.21048000  1.0 -0.249166779
N  N21  1  0.46444000  0.82004000  0.21048000  1.0 -0.249166779
N  N22  1  0.60956000  0.25396000  0.78952000  1.0 -0.249166779
N  N23  1  0.07004000  0.35956000  0.85560000  1.0 -0.249166779
N  N24  1  0.50396000  0.21444000  0.14440000  1.0 -0.249166779
N  N25  1  0.46444000  0.25396000  0.64440000  1.0 -0.249166779
N  N26  1  0.60956000  0.82004000  0.35560000  1.0 -0.249166779
N  N27  1  0.07004000  0.21444000  0.71048000  1.0 -0.249166779
N  N28  1  0.50396000  0.35956000  0.28952000  1.0 -0.249166779
N  N29  1  0.78556000  0.92996000  0.28952000  1.0 -0.249166779
N  N30  1  0.64044000  0.49604000  0.71048000  1.0 -0.249166779
N  N31  1  0.17996000  0.39044000  0.64440000  1.0 -0.249166779
N  N32  1  0.74604000  0.53556000  0.35560000  1.0 -0.249166779
