# DDEC6 charges by PACMAN v1.1 (https://github.com/mtap-research/PACMAN-charge/)
data_MUGQAI_FSR_pacman
_symmetry_space_group_name_H-M   'P 1'
_cell_length_a   10.35600000
_cell_length_b   14.69780000
_cell_length_c   19.39330000
_cell_angle_alpha   90.00000000
_cell_angle_beta   90.00000000
_cell_angle_gamma   90.00000000
_symmetry_Int_Tables_number   1
_chemical_formula_structural   CuH4C7N4
_chemical_formula_sum   'Cu16 H64 C112 N64'
_cell_volume   2951.86227613
_cell_formula_units_Z   16
loop_
 _symmetry_equiv_pos_site_id
 _symmetry_equiv_pos_as_xyz
  1  'x, y, z'
loop_
 _atom_site_type_symbol
 _atom_site_label
 _atom_site_symmetry_multiplicity
 _atom_site_fract_x
 _atom_site_fract_y
 _atom_site_fract_z
 _atom_site_occupancy
 _atom_site_charge
Cu  Cu1  1  0.25000000  0.00000000  0.26499000  1.0 0.2182921816
Cu  Cu2  1  0.75000000  0.50000000  0.23501000  1.0 0.2182921816
Cu  Cu3  1  0.75000000  0.00000000  0.73501000  1.0 0.2182921816
Cu  Cu4  1  0.25000000  0.50000000  0.76499000  1.0 0.2182921816
Cu  Cu5  1  0.75000000  0.50000000  0.50941000  1.0 0.3120246305
Cu  Cu6  1  0.25000000  0.00000000  0.99059000  1.0 0.3120246305
Cu  Cu7  1  0.25000000  0.50000000  0.49059000  1.0 0.3120246305
Cu  Cu8  1  0.75000000  0.00000000  0.00941000  1.0 0.3120246305
Cu  Cu9  1  0.75452000  0.34552000  0.38215000  1.0 0.2690527811
Cu  Cu10  1  0.25452000  0.15448000  0.11785000  1.0 0.2690527811
Cu  Cu11  1  0.24548000  0.84552000  0.11785000  1.0 0.2690527811
Cu  Cu12  1  0.74548000  0.65448000  0.38215000  1.0 0.2690527811
Cu  Cu13  1  0.24548000  0.65448000  0.61785000  1.0 0.2690527811
Cu  Cu14  1  0.74548000  0.84552000  0.88215000  1.0 0.2690527811
Cu  Cu15  1  0.75452000  0.15448000  0.88215000  1.0 0.2690527811
Cu  Cu16  1  0.25452000  0.34552000  0.61785000  1.0 0.2690527811
H  H1  1  0.19130000  0.10370000  0.40450000  1.0 0.1026309788
H  H2  1  0.69130000  0.39630000  0.09550000  1.0 0.1026309788
H  H3  1  0.80870000  0.60370000  0.09550000  1.0 0.1026309788
H  H4  1  0.30870000  0.89630000  0.40450000  1.0 0.1026309788
H  H5  1  0.80870000  0.89630000  0.59550000  1.0 0.1026309788
H  H6  1  0.30870000  0.60370000  0.90450000  1.0 0.1026309788
H  H7  1  0.19130000  0.39630000  0.90450000  1.0 0.1026309788
H  H8  1  0.69130000  0.10370000  0.59550000  1.0 0.1026309788
H  H9  1  0.27830000  0.21450000  0.47300000  1.0 0.1403331867
H  H10  1  0.77830000  0.28550000  0.02700000  1.0 0.1403331867
H  H11  1  0.72170000  0.71450000  0.02700000  1.0 0.1403331867
H  H12  1  0.22170000  0.78550000  0.47300000  1.0 0.1403331867
H  H13  1  0.72170000  0.78550000  0.52700000  1.0 0.1403331867
H  H14  1  0.22170000  0.71450000  0.97300000  1.0 0.1403331867
H  H15  1  0.27830000  0.28550000  0.97300000  1.0 0.1403331867
H  H16  1  0.77830000  0.21450000  0.52700000  1.0 0.1403331867
H  H17  1  0.59460000  0.20700000  0.35530000  1.0 0.1128752007
H  H18  1  0.09460000  0.29300000  0.14470000  1.0 0.1128752007
H  H19  1  0.40540000  0.70700000  0.14470000  1.0 0.1128752007
H  H20  1  0.90540000  0.79300000  0.35530000  1.0 0.1128752007
H  H21  1  0.40540000  0.79300000  0.64470000  1.0 0.1128752007
H  H22  1  0.90540000  0.70700000  0.85530000  1.0 0.1128752007
H  H23  1  0.59460000  0.29300000  0.85530000  1.0 0.1128752007
H  H24  1  0.09460000  0.20700000  0.64470000  1.0 0.1128752007
H  H25  1  0.49210000  0.10380000  0.28600000  1.0 0.1026309788
H  H26  1  0.99210000  0.39620000  0.21400000  1.0 0.1026309788
H  H27  1  0.50790000  0.60380000  0.21400000  1.0 0.1026309788
H  H28  1  0.00790000  0.89620000  0.28600000  1.0 0.1026309788
H  H29  1  0.50790000  0.89620000  0.71400000  1.0 0.1026309788
H  H30  1  0.00790000  0.60380000  0.78600000  1.0 0.1026309788
H  H31  1  0.49210000  0.39620000  0.78600000  1.0 0.1026309788
H  H32  1  0.99210000  0.10380000  0.71400000  1.0 0.1026309788
H  H33  1  0.43670000  0.60890000  0.80530000  1.0 0.1128752007
H  H34  1  0.93670000  0.89110000  0.69470000  1.0 0.1128752007
H  H35  1  0.56330000  0.10890000  0.69470000  1.0 0.1128752007
H  H36  1  0.06330000  0.39110000  0.80530000  1.0 0.1128752007
H  H37  1  0.56330000  0.39110000  0.19470000  1.0 0.1128752007
H  H38  1  0.06330000  0.10890000  0.30530000  1.0 0.1128752007
H  H39  1  0.43670000  0.89110000  0.30530000  1.0 0.1128752007
H  H40  1  0.93670000  0.60890000  0.19470000  1.0 0.1128752007
H  H41  1  0.53170000  0.71610000  0.87500000  1.0 0.1026309788
H  H42  1  0.03170000  0.78390000  0.62500000  1.0 0.1026309788
H  H43  1  0.46830000  0.21610000  0.62500000  1.0 0.1026309788
H  H44  1  0.96830000  0.28390000  0.87500000  1.0 0.1026309788
H  H45  1  0.46830000  0.28390000  0.12500000  1.0 0.1026309788
H  H46  1  0.96830000  0.21610000  0.37500000  1.0 0.1026309788
H  H47  1  0.53170000  0.78390000  0.37500000  1.0 0.1026309788
H  H48  1  0.03170000  0.71610000  0.12500000  1.0 0.1026309788
H  H49  1  0.81580000  0.74400000  0.74640000  1.0 0.1026309788
H  H50  1  0.31580000  0.75600000  0.75360000  1.0 0.1026309788
H  H51  1  0.18420000  0.24400000  0.75360000  1.0 0.1026309788
H  H52  1  0.68420000  0.25600000  0.74640000  1.0 0.1026309788
H  H53  1  0.18420000  0.25600000  0.25360000  1.0 0.1026309788
H  H54  1  0.68420000  0.24400000  0.24640000  1.0 0.1026309788
H  H55  1  0.81580000  0.75600000  0.24640000  1.0 0.1026309788
H  H56  1  0.31580000  0.74400000  0.25360000  1.0 0.1026309788
H  H57  1  0.73350000  0.63460000  0.67490000  1.0 0.1403331867
H  H58  1  0.23350000  0.86540000  0.82510000  1.0 0.1403331867
H  H59  1  0.26650000  0.13460000  0.82510000  1.0 0.1403331867
H  H60  1  0.76650000  0.36540000  0.67490000  1.0 0.1403331867
H  H61  1  0.26650000  0.36540000  0.32510000  1.0 0.1403331867
H  H62  1  0.76650000  0.13460000  0.17490000  1.0 0.1403331867
H  H63  1  0.73350000  0.86540000  0.17490000  1.0 0.1403331867
H  H64  1  0.23350000  0.63460000  0.32510000  1.0 0.1403331867
C  C1  1  0.27190000  0.12710000  0.39290000  1.0 0.0439079813
C  C2  1  0.77190000  0.37290000  0.10710000  1.0 0.0439079813
C  C3  1  0.72810000  0.62710000  0.10710000  1.0 0.0439079813
C  C4  1  0.22810000  0.87290000  0.39290000  1.0 0.0439079813
C  C5  1  0.72810000  0.87290000  0.60710000  1.0 0.0439079813
C  C6  1  0.22810000  0.62710000  0.89290000  1.0 0.0439079813
C  C7  1  0.27190000  0.37290000  0.89290000  1.0 0.0439079813
C  C8  1  0.77190000  0.12710000  0.60710000  1.0 0.0439079813
C  C9  1  0.32470000  0.19300000  0.43530000  1.0 -0.1805565069
C  C10  1  0.82470000  0.30700000  0.06470000  1.0 -0.1805565069
C  C11  1  0.67530000  0.69300000  0.06470000  1.0 -0.1805565069
C  C12  1  0.17530000  0.80700000  0.43530000  1.0 -0.1805565069
C  C13  1  0.67530000  0.80700000  0.56470000  1.0 -0.1805565069
C  C14  1  0.17530000  0.69300000  0.93530000  1.0 -0.1805565069
C  C15  1  0.32470000  0.30700000  0.93530000  1.0 -0.1805565069
C  C16  1  0.82470000  0.19300000  0.56470000  1.0 -0.1805565069
C  C17  1  0.44650000  0.22660000  0.42160000  1.0 0.0896042463
C  C18  1  0.94650000  0.27340000  0.07840000  1.0 0.0896042463
C  C19  1  0.55350000  0.72660000  0.07840000  1.0 0.0896042463
C  C20  1  0.05350000  0.77340000  0.42160000  1.0 0.0896042463
C  C21  1  0.55350000  0.77340000  0.57840000  1.0 0.0896042463
C  C22  1  0.05350000  0.72660000  0.92160000  1.0 0.0896042463
C  C23  1  0.44650000  0.27340000  0.92160000  1.0 0.0896042463
C  C24  1  0.94650000  0.22660000  0.57840000  1.0 0.0896042463
C  C25  1  0.51040000  0.18940000  0.36530000  1.0 -0.2010080694
C  C26  1  0.01040000  0.31060000  0.13470000  1.0 -0.2010080694
C  C27  1  0.48960000  0.68940000  0.13470000  1.0 -0.2010080694
C  C28  1  0.98960000  0.81060000  0.36530000  1.0 -0.2010080694
C  C29  1  0.48960000  0.81060000  0.63470000  1.0 -0.2010080694
C  C30  1  0.98960000  0.68940000  0.86530000  1.0 -0.2010080694
C  C31  1  0.51040000  0.31060000  0.86530000  1.0 -0.2010080694
C  C32  1  0.01040000  0.18940000  0.63470000  1.0 -0.2010080694
C  C33  1  0.44810000  0.12600000  0.32430000  1.0 0.0686835468
C  C34  1  0.94810000  0.37400000  0.17570000  1.0 0.0686835468
C  C35  1  0.55190000  0.62600000  0.17570000  1.0 0.0686835468
C  C36  1  0.05190000  0.87400000  0.32430000  1.0 0.0686835468
C  C37  1  0.55190000  0.87400000  0.67570000  1.0 0.0686835468
C  C38  1  0.05190000  0.62600000  0.82430000  1.0 0.0686835468
C  C39  1  0.44810000  0.37400000  0.82430000  1.0 0.0686835468
C  C40  1  0.94810000  0.12600000  0.67570000  1.0 0.0686835468
C  C41  1  0.50360000  0.29920000  0.46420000  1.0 0.2513864114
C  C42  1  0.00360000  0.20080000  0.03580000  1.0 0.2513864114
C  C43  1  0.49640000  0.79920000  0.03580000  1.0 0.2513864114
C  C44  1  0.99640000  0.70080000  0.46420000  1.0 0.2513864114
C  C45  1  0.49640000  0.70080000  0.53580000  1.0 0.2513864114
C  C46  1  0.99640000  0.79920000  0.96420000  1.0 0.2513864114
C  C47  1  0.50360000  0.20080000  0.96420000  1.0 0.2513864114
C  C48  1  0.00360000  0.29920000  0.53580000  1.0 0.2513864114
C  C49  1  0.52290000  0.39340000  0.54310000  1.0 0.2313498891
C  C50  1  0.02290000  0.10660000  0.95690000  1.0 0.2313498891
C  C51  1  0.47710000  0.89340000  0.95690000  1.0 0.2313498891
C  C52  1  0.97710000  0.60660000  0.54310000  1.0 0.2313498891
C  C53  1  0.47710000  0.60660000  0.45690000  1.0 0.2313498891
C  C54  1  0.97710000  0.89340000  0.04310000  1.0 0.2313498891
C  C55  1  0.52290000  0.10660000  0.04310000  1.0 0.2313498891
C  C56  1  0.02290000  0.39340000  0.45690000  1.0 0.2313498891
C  C57  1  0.49780000  0.44860000  0.60490000  1.0 0.2182921816
C  C58  1  0.99780000  0.05140000  0.89510000  1.0 0.2182921816
C  C59  1  0.50220000  0.94860000  0.89510000  1.0 0.2182921816
C  C60  1  0.00220000  0.55140000  0.60490000  1.0 0.2182921816
C  C61  1  0.50220000  0.55140000  0.39510000  1.0 0.2182921816
C  C62  1  0.00220000  0.94860000  0.10490000  1.0 0.2182921816
C  C63  1  0.49780000  0.05140000  0.10490000  1.0 0.2182921816
C  C64  1  0.99780000  0.44860000  0.39510000  1.0 0.2182921816
C  C65  1  0.51780000  0.54080000  0.68510000  1.0 0.2379544898
C  C66  1  0.01780000  0.95920000  0.81490000  1.0 0.2379544898
C  C67  1  0.48220000  0.04080000  0.81490000  1.0 0.2379544898
C  C68  1  0.98220000  0.45920000  0.68510000  1.0 0.2379544898
C  C69  1  0.48220000  0.45920000  0.31490000  1.0 0.2379544898
C  C70  1  0.98220000  0.04080000  0.18510000  1.0 0.2379544898
C  C71  1  0.51780000  0.95920000  0.18510000  1.0 0.2379544898
C  C72  1  0.01780000  0.54080000  0.31490000  1.0 0.2379544898
C  C73  1  0.57370000  0.60860000  0.73190000  1.0 0.0896042463
C  C74  1  0.07370000  0.89140000  0.76810000  1.0 0.0896042463
C  C75  1  0.42630000  0.10860000  0.76810000  1.0 0.0896042463
C  C76  1  0.92630000  0.39140000  0.73190000  1.0 0.0896042463
C  C77  1  0.42630000  0.39140000  0.26810000  1.0 0.0896042463
C  C78  1  0.92630000  0.10860000  0.23190000  1.0 0.0896042463
C  C79  1  0.57370000  0.89140000  0.23190000  1.0 0.0896042463
C  C80  1  0.07370000  0.60860000  0.26810000  1.0 0.0896042463
C  C81  1  0.51480000  0.63490000  0.79230000  1.0 -0.2010080694
C  C82  1  0.01480000  0.86510000  0.70770000  1.0 -0.2010080694
C  C83  1  0.48520000  0.13490000  0.70770000  1.0 -0.2010080694
C  C84  1  0.98520000  0.36510000  0.79230000  1.0 -0.2010080694
C  C85  1  0.48520000  0.36510000  0.20770000  1.0 -0.2010080694
C  C86  1  0.98520000  0.13490000  0.29230000  1.0 -0.2010080694
C  C87  1  0.51480000  0.86510000  0.29230000  1.0 -0.2010080694
C  C88  1  0.01480000  0.63490000  0.20770000  1.0 -0.2010080694
C  C89  1  0.57220000  0.70050000  0.83390000  1.0 0.0686835468
C  C90  1  0.07220000  0.79950000  0.66610000  1.0 0.0686835468
C  C91  1  0.42780000  0.20050000  0.66610000  1.0 0.0686835468
C  C92  1  0.92780000  0.29950000  0.83390000  1.0 0.0686835468
C  C93  1  0.42780000  0.29950000  0.16610000  1.0 0.0686835468
C  C94  1  0.92780000  0.20050000  0.33390000  1.0 0.0686835468
C  C95  1  0.57220000  0.79950000  0.33390000  1.0 0.0686835468
C  C96  1  0.07220000  0.70050000  0.16610000  1.0 0.0686835468
C  C97  1  0.73860000  0.71600000  0.75870000  1.0 0.0558694255
C  C98  1  0.23860000  0.78400000  0.74130000  1.0 0.0558694255
C  C99  1  0.26140000  0.21600000  0.74130000  1.0 0.0558694255
C  C100  1  0.76140000  0.28400000  0.75870000  1.0 0.0558694255
C  C101  1  0.26140000  0.28400000  0.24130000  1.0 0.0558694255
C  C102  1  0.76140000  0.21600000  0.25870000  1.0 0.0558694255
C  C103  1  0.73860000  0.78400000  0.25870000  1.0 0.0558694255
C  C104  1  0.23860000  0.71600000  0.24130000  1.0 0.0558694255
C  C105  1  0.68960000  0.65050000  0.71500000  1.0 -0.1723058113
C  C106  1  0.18960000  0.84950000  0.78500000  1.0 -0.1723058113
C  C107  1  0.31040000  0.15050000  0.78500000  1.0 -0.1723058113
C  C108  1  0.81040000  0.34950000  0.71500000  1.0 -0.1723058113
C  C109  1  0.31040000  0.34950000  0.28500000  1.0 -0.1723058113
C  C110  1  0.81040000  0.15050000  0.21500000  1.0 -0.1723058113
C  C111  1  0.68960000  0.84950000  0.21500000  1.0 -0.1723058113
C  C112  1  0.18960000  0.65050000  0.28500000  1.0 -0.1723058113
N  N1  1  0.32960000  0.09470000  0.33589000  1.0 -0.2119455804
N  N2  1  0.82960000  0.40530000  0.16411000  1.0 -0.2119455804
N  N3  1  0.67040000  0.59470000  0.16411000  1.0 -0.2119455804
N  N4  1  0.17040000  0.90530000  0.33589000  1.0 -0.2119455804
N  N5  1  0.67040000  0.90530000  0.66411000  1.0 -0.2119455804
N  N6  1  0.17040000  0.59470000  0.83589000  1.0 -0.2119455804
N  N7  1  0.32960000  0.40530000  0.83589000  1.0 -0.2119455804
N  N8  1  0.82960000  0.09470000  0.66411000  1.0 -0.2119455804
N  N9  1  0.44490000  0.32760000  0.52242000  1.0 -0.4132231102
N  N10  1  0.94490000  0.17240000  0.97758000  1.0 -0.4132231102
N  N11  1  0.55510000  0.82760000  0.97758000  1.0 -0.4132231102
N  N12  1  0.05510000  0.67240000  0.52242000  1.0 -0.4132231102
N  N13  1  0.55510000  0.67240000  0.47758000  1.0 -0.4132231102
N  N14  1  0.05510000  0.82760000  0.02242000  1.0 -0.4132231102
N  N15  1  0.44490000  0.17240000  0.02242000  1.0 -0.4132231102
N  N16  1  0.94490000  0.32760000  0.47758000  1.0 -0.4132231102
N  N17  1  0.61340000  0.34420000  0.45002000  1.0 -0.2119455804
N  N18  1  0.11340000  0.15580000  0.04998000  1.0 -0.2119455804
N  N19  1  0.38660000  0.84420000  0.04998000  1.0 -0.2119455804
N  N20  1  0.88660000  0.65580000  0.45002000  1.0 -0.2119455804
N  N21  1  0.38660000  0.65580000  0.54998000  1.0 -0.2119455804
N  N22  1  0.88660000  0.84420000  0.95002000  1.0 -0.2119455804
N  N23  1  0.61340000  0.15580000  0.95002000  1.0 -0.2119455804
N  N24  1  0.11340000  0.34420000  0.54998000  1.0 -0.2119455804
N  N25  1  0.62510000  0.40650000  0.50304000  1.0 -0.1805565069
N  N26  1  0.12510000  0.09350000  0.99696000  1.0 -0.1805565069
N  N27  1  0.37490000  0.90650000  0.99696000  1.0 -0.1805565069
N  N28  1  0.87490000  0.59350000  0.50304000  1.0 -0.1805565069
N  N29  1  0.37490000  0.59350000  0.49696000  1.0 -0.1805565069
N  N30  1  0.87490000  0.90650000  0.00304000  1.0 -0.1805565069
N  N31  1  0.62510000  0.09350000  0.00304000  1.0 -0.1805565069
N  N32  1  0.12510000  0.40650000  0.49696000  1.0 -0.1805565069
N  N33  1  0.58220000  0.50970000  0.62976000  1.0 -0.3988725469
N  N34  1  0.08220000  0.99030000  0.87024000  1.0 -0.3988725469
N  N35  1  0.41780000  0.00970000  0.87024000  1.0 -0.3988725469
N  N36  1  0.91780000  0.49030000  0.62976000  1.0 -0.3988725469
N  N37  1  0.41780000  0.49030000  0.37024000  1.0 -0.3988725469
N  N38  1  0.91780000  0.00970000  0.12976000  1.0 -0.3988725469
N  N39  1  0.58220000  0.99030000  0.12976000  1.0 -0.3988725469
N  N40  1  0.08220000  0.50970000  0.37024000  1.0 -0.3988725469
N  N41  1  0.38830000  0.44230000  0.64023000  1.0 -0.2010080694
N  N42  1  0.88830000  0.05770000  0.85977000  1.0 -0.2010080694
N  N43  1  0.61170000  0.94230000  0.85977000  1.0 -0.2010080694
N  N44  1  0.11170000  0.55770000  0.64023000  1.0 -0.2010080694
N  N45  1  0.61170000  0.55770000  0.35977000  1.0 -0.2010080694
N  N46  1  0.11170000  0.94230000  0.14023000  1.0 -0.2010080694
N  N47  1  0.38830000  0.05770000  0.14023000  1.0 -0.2010080694
N  N48  1  0.88830000  0.44230000  0.35977000  1.0 -0.2010080694
N  N49  1  0.40000000  0.50330000  0.69355000  1.0 -0.2330499218
N  N50  1  0.90000000  0.99670000  0.80645000  1.0 -0.2330499218
N  N51  1  0.60000000  0.00330000  0.80645000  1.0 -0.2330499218
N  N52  1  0.10000000  0.49670000  0.69355000  1.0 -0.2330499218
N  N53  1  0.60000000  0.49670000  0.30645000  1.0 -0.2330499218
N  N54  1  0.10000000  0.00330000  0.19355000  1.0 -0.2330499218
N  N55  1  0.40000000  0.99670000  0.19355000  1.0 -0.2330499218
N  N56  1  0.90000000  0.50330000  0.30645000  1.0 -0.2330499218
N  N57  1  0.68240000  0.74210000  0.81770000  1.0 -0.2010080694
N  N58  1  0.18240000  0.75790000  0.68230000  1.0 -0.2010080694
N  N59  1  0.31760000  0.24210000  0.68230000  1.0 -0.2010080694
N  N60  1  0.81760000  0.25790000  0.81770000  1.0 -0.2010080694
N  N61  1  0.31760000  0.25790000  0.18230000  1.0 -0.2010080694
N  N62  1  0.81760000  0.24210000  0.31770000  1.0 -0.2010080694
N  N63  1  0.68240000  0.75790000  0.31770000  1.0 -0.2010080694
N  N64  1  0.18240000  0.74210000  0.18230000  1.0 -0.2010080694
