# DDEC6 charges by PACMAN v1.1 (https://github.com/mtap-research/PACMAN-charge/)
data_MUHQAI_ASR_pacman
_symmetry_space_group_name_H-M   'P 1'
_cell_length_a   12.18210000
_cell_length_b   12.18210000
_cell_length_c   12.18210000
_cell_angle_alpha   133.73400000
_cell_angle_beta   111.48500000
_cell_angle_gamma   86.70030000
_symmetry_Int_Tables_number   1
_chemical_formula_structural   CdH28C30(NO)4
_chemical_formula_sum   'Cd2 H56 C60 N8 O8'
_cell_volume   1162.92169464
_cell_formula_units_Z   2
loop_
 _symmetry_equiv_pos_site_id
 _symmetry_equiv_pos_as_xyz
  1  'x, y, z'
loop_
 _atom_site_type_symbol
 _atom_site_label
 _atom_site_symmetry_multiplicity
 _atom_site_fract_x
 _atom_site_fract_y
 _atom_site_fract_z
 _atom_site_occupancy
 _atom_site_charge
Cd  Cd1  1  0.10525000  0.25000000  0.35525000  1.0 0.7282459613
Cd  Cd2  1  0.39475000  0.75000000  0.14475000  1.0 0.7282459613
H  H1  1  0.95410000  0.71090000  0.80000000  1.0 0.143505751
H  H2  1  0.08910000  0.78910000  0.74320000  1.0 0.143505751
H  H3  1  0.54590000  0.34590000  0.75680000  1.0 0.143505751
H  H4  1  0.41090000  0.15410000  0.70000000  1.0 0.143505751
H  H5  1  0.85070000  0.78630000  0.77740000  1.0 0.1477265533
H  H6  1  0.99110000  0.71370000  0.56440000  1.0 0.1477265533
H  H7  1  0.64930000  0.42670000  0.93560000  1.0 0.1477265533
H  H8  1  0.50890000  0.07330000  0.72260000  1.0 0.1477265533
H  H9  1  0.96210000  0.68800000  0.00650000  1.0 0.1096688796
H  H10  1  0.31850000  0.81200000  0.77410000  1.0 0.1096688796
H  H11  1  0.53790000  0.54440000  0.72590000  1.0 0.1096688796
H  H12  1  0.18150000  0.95560000  0.49350000  1.0 0.1096688796
H  H13  1  0.65870000  0.68200000  0.72370000  1.0 0.1169191619
H  H14  1  0.04170000  0.81800000  0.47670000  1.0 0.1169191619
H  H15  1  0.84130000  0.56500000  0.02330000  1.0 0.1169191619
H  H16  1  0.45830000  0.93500000  0.77630000  1.0 0.1169191619
H  H17  1  0.31680000  0.51540000  0.49700000  1.0 0.1169191619
H  H18  1  0.98160000  0.98460000  0.30140000  1.0 0.1169191619
H  H19  1  0.18320000  0.68020000  0.19860000  1.0 0.1169191619
H  H20  1  0.51840000  0.81980000  0.00300000  1.0 0.1169191619
H  H21  1  0.45640000  0.58130000  0.45890000  1.0 0.1169191619
H  H22  1  0.87760000  0.91870000  0.37510000  1.0 0.1169191619
H  H23  1  0.04360000  0.50250000  0.12490000  1.0 0.1169191619
H  H24  1  0.62240000  0.99750000  0.04110000  1.0 0.1169191619
H  H25  1  0.28320000  0.15050000  0.97310000  1.0 0.0915824549
H  H26  1  0.82260000  0.34950000  0.63270000  1.0 0.0915824549
H  H27  1  0.21680000  0.18990000  0.86730000  1.0 0.0915824549
H  H28  1  0.67740000  0.31010000  0.52690000  1.0 0.0915824549
H  H29  1  0.15580000  0.10010000  0.03790000  1.0 0.0994156048
H  H30  1  0.93780000  0.39990000  0.55570000  1.0 0.0994156048
H  H31  1  0.34420000  0.38210000  0.94430000  1.0 0.0994156048
H  H32  1  0.56220000  0.11790000  0.46210000  1.0 0.0994156048
H  H33  1  0.59870000  0.33620000  0.11610000  1.0 0.1096688796
H  H34  1  0.77990000  0.16380000  0.76250000  1.0 0.1096688796
H  H35  1  0.90130000  0.01740000  0.73750000  1.0 0.1096688796
H  H36  1  0.72010000  0.48260000  0.38390000  1.0 0.1096688796
H  H37  1  0.51570000  0.23140000  0.10190000  1.0 0.0915824549
H  H38  1  0.87050000  0.26860000  0.78430000  1.0 0.0915824549
H  H39  1  0.98430000  0.08620000  0.71570000  1.0 0.0915824549
H  H40  1  0.62950000  0.41380000  0.39810000  1.0 0.0915824549
H  H41  1  0.42660000  0.37770000  0.06430000  1.0 0.0915824549
H  H42  1  0.68660000  0.12230000  0.54890000  1.0 0.0915824549
H  H43  1  0.07340000  0.13770000  0.95110000  1.0 0.0915824549
H  H44  1  0.81340000  0.36230000  0.43570000  1.0 0.0915824549
H  H45  1  0.50600000  0.52970000  0.26130000  1.0 0.0994156048
H  H46  1  0.73160000  0.97030000  0.47630000  1.0 0.0994156048
H  H47  1  0.99400000  0.25530000  0.02370000  1.0 0.0994156048
H  H48  1  0.76840000  0.24470000  0.23870000  1.0 0.0994156048
H  H49  1  0.43030000  0.11200000  0.34330000  1.0 0.0994156048
H  H50  1  0.23130000  0.38800000  0.81830000  1.0 0.0994156048
H  H51  1  0.06970000  0.41300000  0.68170000  1.0 0.0994156048
H  H52  1  0.26870000  0.08700000  0.15670000  1.0 0.0994156048
H  H53  1  0.52130000  0.31860000  0.40870000  1.0 0.0804677548
H  H54  1  0.09010000  0.18140000  0.70270000  1.0 0.0804677548
H  H55  1  0.97870000  0.38740000  0.79730000  1.0 0.0804677548
H  H56  1  0.40990000  0.11260000  0.09130000  1.0 0.0804677548
C  C1  1  0.98360000  0.93730000  0.02430000  1.0 0.5867680189
C  C2  1  0.08700000  0.56270000  0.54630000  1.0 0.5867680189
C  C3  1  0.51640000  0.54070000  0.95370000  1.0 0.5867680189
C  C4  1  0.41300000  0.95930000  0.47570000  1.0 0.5867680189
C  C5  1  0.90310000  0.77600000  0.85030000  1.0 -0.4143158767
C  C6  1  0.07430000  0.72400000  0.62710000  1.0 -0.4143158767
C  C7  1  0.59690000  0.44720000  0.87290000  1.0 -0.4143158767
C  C8  1  0.42570000  0.05280000  0.64970000  1.0 -0.4143158767
C  C9  1  0.82300000  0.69580000  0.86220000  1.0 0.1293554183
C  C10  1  0.16640000  0.80420000  0.62720000  1.0 0.1293554183
C  C11  1  0.67700000  0.53920000  0.87280000  1.0 0.1293554183
C  C12  1  0.33360000  0.96080000  0.63780000  1.0 0.1293554183
C  C13  1  0.87660000  0.66090000  0.95110000  1.0 -0.1971172217
C  C14  1  0.29020000  0.83910000  0.71570000  1.0 -0.1971172217
C  C15  1  0.62340000  0.57450000  0.78430000  1.0 -0.1971172217
C  C16  1  0.20980000  0.92550000  0.54890000  1.0 -0.1971172217
C  C17  1  0.69580000  0.65510000  0.78090000  1.0 -0.1896399568
C  C18  1  0.12580000  0.84490000  0.54070000  1.0 -0.1896399568
C  C19  1  0.80420000  0.58510000  0.95930000  1.0 -0.1896399568
C  C20  1  0.37420000  0.91490000  0.71910000  1.0 -0.1896399568
C  C21  1  0.31090000  0.43990000  0.38780000  1.0 -0.0311025839
C  C22  1  0.94790000  0.06010000  0.37100000  1.0 -0.0311025839
C  C23  1  0.18910000  0.57690000  0.12900000  1.0 -0.0311025839
C  C24  1  0.55210000  0.92310000  0.11220000  1.0 -0.0311025839
C  C25  1  0.39490000  0.48450000  0.37000000  1.0 -0.1896399568
C  C26  1  0.88550000  0.01550000  0.41040000  1.0 -0.1896399568
C  C27  1  0.10510000  0.47510000  0.08960000  1.0 -0.1896399568
C  C28  1  0.61450000  0.02490000  0.13000000  1.0 -0.1896399568
C  C29  1  0.38110000  0.37480000  0.20990000  1.0 0.0727014223
C  C30  1  0.83510000  0.12520000  0.50630000  1.0 0.0727014223
C  C31  1  0.11890000  0.32880000  0.99370000  1.0 0.0727014223
C  C32  1  0.66490000  0.17120000  0.29010000  1.0 0.0727014223
C  C33  1  0.29040000  0.22720000  0.08280000  1.0 -0.1478945587
C  C34  1  0.85560000  0.27280000  0.56320000  1.0 -0.1478945587
C  C35  1  0.20960000  0.29240000  0.93680000  1.0 -0.1478945587
C  C36  1  0.64440000  0.20760000  0.41720000  1.0 -0.1478945587
C  C37  1  0.21430000  0.19890000  0.12260000  1.0 -0.0019969674
C  C38  1  0.92370000  0.30110000  0.51540000  1.0 -0.0019969674
C  C39  1  0.28570000  0.40830000  0.98460000  1.0 -0.0019969674
C  C40  1  0.57630000  0.09170000  0.37740000  1.0 -0.0019969674
C  C41  1  0.56050000  0.34020000  0.17570000  1.0 -0.1785567786
C  C42  1  0.83550000  0.15980000  0.72030000  1.0 -0.1785567786
C  C43  1  0.93950000  0.11520000  0.77970000  1.0 -0.1785567786
C  C44  1  0.66450000  0.38480000  0.32430000  1.0 -0.1785567786
C  C45  1  0.46950000  0.41570000  0.17440000  1.0 -0.2184518475
C  C46  1  0.75870000  0.08430000  0.55380000  1.0 -0.2184518475
C  C47  1  0.03050000  0.20490000  0.94620000  1.0 -0.2184518475
C  C48  1  0.74130000  0.29510000  0.32560000  1.0 -0.2184518475
C  C49  1  0.47730000  0.09280000  0.28930000  1.0 0.0034694283
C  C50  1  0.19650000  0.40720000  0.88450000  1.0 0.0034694283
C  C51  1  0.02270000  0.31200000  0.61550000  1.0 0.0034694283
C  C52  1  0.30350000  0.18800000  0.21070000  1.0 0.0034694283
C  C53  1  0.59920000  0.20040000  0.25360000  1.0 0.0804677548
C  C54  1  0.05320000  0.29960000  0.89880000  1.0 0.0804677548
C  C55  1  0.90080000  0.15440000  0.60120000  1.0 0.0804677548
C  C56  1  0.44680000  0.34560000  0.24640000  1.0 0.0804677548
C  C57  1  0.53140000  0.21940000  0.32920000  1.0 -0.1282165546
C  C58  1  0.10980000  0.28060000  0.81200000  1.0 -0.1282165546
C  C59  1  0.96860000  0.29780000  0.68800000  1.0 -0.1282165546
C  C60  1  0.39020000  0.20220000  0.17080000  1.0 -0.1282165546
N  N1  1  0.21760000  0.30250000  0.27370000  1.0 0.0426656109
N  N2  1  0.97120000  0.19750000  0.41510000  1.0 0.0426656109
N  N3  1  0.28240000  0.55610000  0.08490000  1.0 0.0426656109
N  N4  1  0.52880000  0.94390000  0.22630000  1.0 0.0426656109
N  N5  1  0.48550000  0.94900000  0.18350000  1.0 0.0727014223
N  N6  1  0.23450000  0.55100000  0.03650000  1.0 0.0727014223
N  N7  1  0.01450000  0.19800000  0.46350000  1.0 0.0727014223
N  N8  1  0.26550000  0.30200000  0.31650000  1.0 0.0727014223
O  O1  1  0.08860000  0.95290000  0.11230000  1.0 -0.5955020312
O  O2  1  0.15940000  0.54710000  0.63570000  1.0 -0.5955020312
O  O3  1  0.41140000  0.52370000  0.86430000  1.0 -0.5955020312
O  O4  1  0.34060000  0.97630000  0.38770000  1.0 -0.5955020312
O  O5  1  0.94140000  0.05530000  0.08190000  1.0 -0.5746072057
O  O6  1  0.02660000  0.44470000  0.38610000  1.0 -0.5746072057
O  O7  1  0.55860000  0.64050000  0.11390000  1.0 -0.5746072057
O  O8  1  0.47340000  0.85950000  0.41810000  1.0 -0.5746072057
