# DDEC6 charges by PACMAN v1.1 (https://github.com/mtap-research/PACMAN-charge/)
data_MUHXOE_ASR_pacman
_symmetry_space_group_name_H-M   'P 1'
_cell_length_a   16.19260000
_cell_length_b   16.19260000
_cell_length_c   6.91130000
_cell_angle_alpha   87.69670000
_cell_angle_beta   92.30330000
_cell_angle_gamma   66.17200000
_symmetry_Int_Tables_number   1
_chemical_formula_structural   CdH23C22(NO)4
_chemical_formula_sum   'Cd2 H46 C44 N8 O8'
_cell_volume   1653.18349438
_cell_formula_units_Z   2
loop_
 _symmetry_equiv_pos_site_id
 _symmetry_equiv_pos_as_xyz
  1  'x, y, z'
loop_
 _atom_site_type_symbol
 _atom_site_label
 _atom_site_symmetry_multiplicity
 _atom_site_fract_x
 _atom_site_fract_y
 _atom_site_fract_z
 _atom_site_occupancy
 _atom_site_charge
Cd  Cd1  1  0.55690000  0.44310000  0.75660000  1.0 0.83283751
Cd  Cd2  1  0.44310000  0.55690000  0.24340000  1.0 0.83283751
H  H1  1  0.36460000  0.44180000  0.81100000  1.0 0.1291699513
H  H2  1  0.44180000  0.36460000  0.18900000  1.0 0.1291699513
H  H3  1  0.63540000  0.55820000  0.18900000  1.0 0.1291699513
H  H4  1  0.55820000  0.63540000  0.81100000  1.0 0.1291699513
H  H5  1  0.57850000  0.24970000  0.62300000  1.0 0.1176620638
H  H6  1  0.24970000  0.57850000  0.37700000  1.0 0.1176620638
H  H7  1  0.42150000  0.75030000  0.37700000  1.0 0.1176620638
H  H8  1  0.75030000  0.42150000  0.62300000  1.0 0.1176620638
H  H9  1  0.50700000  0.15340000  0.61050000  1.0 0.1114695064
H  H10  1  0.15340000  0.50700000  0.38950000  1.0 0.1114695064
H  H11  1  0.49300000  0.84660000  0.38950000  1.0 0.1114695064
H  H12  1  0.84660000  0.49300000  0.61050000  1.0 0.1114695064
H  H13  1  0.23320000  0.31700000  0.81180000  1.0 0.268833953
H  H14  1  0.31700000  0.23320000  0.18820000  1.0 0.268833953
H  H15  1  0.76680000  0.68300000  0.18820000  1.0 0.268833953
H  H16  1  0.68300000  0.76680000  0.81180000  1.0 0.268833953
H  H17  1  0.35700000  0.20440000  0.69010000  1.0 0.1114695064
H  H18  1  0.20440000  0.35700000  0.30990000  1.0 0.1114695064
H  H19  1  0.64300000  0.79560000  0.30990000  1.0 0.1114695064
H  H20  1  0.79560000  0.64300000  0.69010000  1.0 0.1114695064
H  H21  1  0.10200000  0.39600000  0.93590000  1.0 0.1291699513
H  H22  1  0.39600000  0.10200000  0.06410000  1.0 0.1291699513
H  H23  1  0.89800000  0.60400000  0.06410000  1.0 0.1291699513
H  H24  1  0.60400000  0.89800000  0.93590000  1.0 0.1291699513
H  H25  1  0.07320000  0.49940000  0.96820000  1.0 0.1435665964
H  H26  1  0.49940000  0.07320000  0.03180000  1.0 0.1435665964
H  H27  1  0.92680000  0.50060000  0.03180000  1.0 0.1435665964
H  H28  1  0.50060000  0.92680000  0.96820000  1.0 0.1435665964
H  H29  1  0.07630000  0.34970000  0.60650000  1.0 0.1114695064
H  H30  1  0.34970000  0.07630000  0.39350000  1.0 0.1114695064
H  H31  1  0.92370000  0.65030000  0.39350000  1.0 0.1114695064
H  H32  1  0.65030000  0.92370000  0.60650000  1.0 0.1114695064
H  H33  1  0.99910000  0.61310000  0.69680000  1.0 0.1291699513
H  H34  1  0.61310000  0.99910000  0.30320000  1.0 0.1291699513
H  H35  1  0.00090000  0.38690000  0.30320000  1.0 0.1291699513
H  H36  1  0.38690000  0.00090000  0.69680000  1.0 0.1291699513
H  H37  1  0.71010000  0.28890000  0.40100000  1.0 0.0729025631
H  H38  1  0.28890000  0.71010000  0.59900000  1.0 0.0729025631
H  H39  1  0.73700000  0.32140000  0.20600000  1.0 0.1291699513
H  H40  1  0.32140000  0.73700000  0.79400000  1.0 0.1291699513
H  H41  1  0.26300000  0.67860000  0.79400000  1.0 0.1291699513
H  H42  1  0.67860000  0.26300000  0.20600000  1.0 0.1291699513
H  H43  1  0.67910000  0.26370000  0.20230000  1.0 0.1291699513
H  H44  1  0.26370000  0.67910000  0.79770000  1.0 0.1291699513
H  H45  1  0.32090000  0.73630000  0.79770000  1.0 0.1291699513
H  H46  1  0.73630000  0.32090000  0.20230000  1.0 0.1291699513
C  C1  1  0.60570000  0.39430000  0.26000000  1.0 0.6195360898
C  C2  1  0.39430000  0.60570000  0.74000000  1.0 0.6195360898
C  C3  1  0.39276000  0.38356000  0.76910000  1.0 -0.0441492963
C  C4  1  0.38356000  0.39276000  0.23090000  1.0 -0.0441492963
C  C5  1  0.60724000  0.61644000  0.23090000  1.0 -0.0441492963
C  C6  1  0.61644000  0.60724000  0.76910000  1.0 -0.0441492963
C  C7  1  0.51929000  0.26949000  0.66010000  1.0 0.0214455808
C  C8  1  0.26949000  0.51929000  0.33990000  1.0 0.0214455808
C  C9  1  0.48071000  0.73051000  0.33990000  1.0 0.0214455808
C  C10  1  0.73051000  0.48071000  0.66010000  1.0 0.0214455808
C  C11  1  0.69060000  0.30940000  0.26800000  1.0 -0.5058885635
C  C12  1  0.30940000  0.69060000  0.73200000  1.0 -0.5058885635
C  C13  1  0.34448000  0.33028000  0.75670000  1.0 0.1719664066
C  C14  1  0.33028000  0.34448000  0.24330000  1.0 0.1719664066
C  C15  1  0.65552000  0.66972000  0.24330000  1.0 0.1719664066
C  C16  1  0.66972000  0.65552000  0.75670000  1.0 0.1719664066
C  C17  1  0.47665000  0.21185000  0.64940000  1.0 -0.1207713009
C  C18  1  0.21185000  0.47665000  0.35060000  1.0 -0.1207713009
C  C19  1  0.52335000  0.78815000  0.35060000  1.0 -0.1207713009
C  C20  1  0.78815000  0.52335000  0.64940000  1.0 -0.1207713009
C  C21  1  0.38776000  0.24196000  0.69720000  1.0 -0.1967297615
C  C22  1  0.24196000  0.38776000  0.30280000  1.0 -0.1967297615
C  C23  1  0.61224000  0.75804000  0.30280000  1.0 -0.1967297615
C  C24  1  0.75804000  0.61224000  0.69720000  1.0 -0.1967297615
C  C25  1  0.19528000  0.44288000  0.84320000  1.0 0.4859402656
C  C26  1  0.44288000  0.19528000  0.15680000  1.0 0.4859402656
C  C27  1  0.80472000  0.55712000  0.15680000  1.0 0.4859402656
C  C28  1  0.55712000  0.80472000  0.84320000  1.0 0.4859402656
C  C29  1  0.10042000  0.45242000  0.87890000  1.0 -0.4013408841
C  C30  1  0.45242000  0.10042000  0.12110000  1.0 -0.4013408841
C  C31  1  0.89958000  0.54758000  0.12110000  1.0 -0.4013408841
C  C32  1  0.54758000  0.89958000  0.87890000  1.0 -0.4013408841
C  C33  1  0.04459000  0.47699000  0.68550000  1.0 0.1176620638
C  C34  1  0.47699000  0.04459000  0.31450000  1.0 0.1176620638
C  C35  1  0.95541000  0.52301000  0.31450000  1.0 0.1176620638
C  C36  1  0.52301000  0.95541000  0.68550000  1.0 0.1176620638
C  C37  1  0.04536000  0.41016000  0.56440000  1.0 -0.1883763344
C  C38  1  0.41016000  0.04536000  0.43560000  1.0 -0.1883763344
C  C39  1  0.95464000  0.58984000  0.43560000  1.0 -0.1883763344
C  C40  1  0.58984000  0.95464000  0.56440000  1.0 -0.1883763344
C  C41  1  0.99938000  0.56758000  0.61870000  1.0 -0.1674599172
C  C42  1  0.56758000  0.99938000  0.38130000  1.0 -0.1674599172
C  C43  1  0.00062000  0.43242000  0.38130000  1.0 -0.1674599172
C  C44  1  0.43242000  0.00062000  0.61870000  1.0 -0.1674599172
N  N1  1  0.47913000  0.35341000  0.72210000  1.0 -0.2253349246
N  N2  1  0.35341000  0.47913000  0.27790000  1.0 -0.2253349246
N  N3  1  0.52087000  0.64659000  0.27790000  1.0 -0.2253349246
N  N4  1  0.64659000  0.52087000  0.72210000  1.0 -0.2253349246
N  N5  1  0.25384000  0.35834000  0.80530000  1.0 -0.4013408841
N  N6  1  0.35834000  0.25384000  0.19470000  1.0 -0.4013408841
N  N7  1  0.74616000  0.64166000  0.19470000  1.0 -0.4013408841
N  N8  1  0.64166000  0.74616000  0.80530000  1.0 -0.4013408841
O  O1  1  0.57210000  0.42790000  0.41360000  1.0 -0.5839603366
O  O2  1  0.42790000  0.57210000  0.58640000  1.0 -0.5839603366
O  O3  1  0.56730000  0.43270000  0.09980000  1.0 -0.5915694953
O  O4  1  0.43270000  0.56730000  0.90020000  1.0 -0.5915694953
O  O5  1  0.21472000  0.50864000  0.84060000  1.0 -0.4837607861
O  O6  1  0.50864000  0.21472000  0.15940000  1.0 -0.4837607861
O  O7  1  0.78528000  0.49136000  0.15940000  1.0 -0.4837607861
O  O8  1  0.49136000  0.78528000  0.84060000  1.0 -0.4837607861
