# DDEC6 charges by PACMAN v1.1 (https://github.com/mtap-research/PACMAN-charge/)
data_MUJMOW_FSR_pacman
_symmetry_space_group_name_H-M   'P 1'
_cell_length_a   9.41900000
_cell_length_b   12.47300000
_cell_length_c   14.43600000
_cell_angle_alpha   108.88000000
_cell_angle_beta   101.89000000
_cell_angle_gamma   86.90000000
_symmetry_Int_Tables_number   1
_chemical_formula_structural   CdH22C28N4O5
_chemical_formula_sum   'Cd2 H44 C56 N8 O10'
_cell_volume   1570.16543628
_cell_formula_units_Z   2
loop_
 _symmetry_equiv_pos_site_id
 _symmetry_equiv_pos_as_xyz
  1  'x, y, z'
loop_
 _atom_site_type_symbol
 _atom_site_label
 _atom_site_symmetry_multiplicity
 _atom_site_fract_x
 _atom_site_fract_y
 _atom_site_fract_z
 _atom_site_occupancy
 _atom_site_charge
Cd  Cd1  1  0.84538000  0.60962000  0.08838000  1.0 0.8881231406
Cd  Cd2  1  0.15462000  0.39038000  0.91162000  1.0 0.8881231406
H  H1  1  0.46710000  0.07510000  0.80110000  1.0 0.1210555278
H  H2  1  0.42860000  0.63160000  0.19510000  1.0 0.1210555278
H  H3  1  0.22780000  0.94830000  0.19670000  1.0 0.1298842164
H  H4  1  0.08250000  0.81290000  0.21150000  1.0 0.1097129517
H  H5  1  0.53440000  0.75790000  0.34950000  1.0 0.1298842164
H  H6  1  0.52910000  0.24300000  0.00850000  1.0 0.1380118363
H  H7  1  0.05910000  0.84730000  0.90190000  1.0 0.1298842164
H  H8  1  0.57240000  0.44000000  0.29460000  1.0 0.1298842164
H  H9  1  0.54690000  0.91250000  0.69400000  1.0 0.1298842164
H  H10  1  0.92970000  0.71140000  0.92420000  1.0 0.1097129517
H  H11  1  0.14200000  0.09540000  0.58130000  1.0 0.1210555278
H  H12  1  0.72580000  0.55530000  0.26530000  1.0 0.1210555278
H  H13  1  0.15900000  0.02280000  0.90180000  1.0 0.1514210933
H  H14  1  0.27920000  0.93010000  0.89280000  1.0 0.1514210933
H  H15  1  0.32340000  0.05890000  0.93490000  1.0 0.1576480128
H  H16  1  0.22090000  0.93510000  0.47380000  1.0 0.1298842164
H  H17  1  0.68010000  0.36650000  0.98550000  1.0 0.1097129517
H  H18  1  0.27080000  0.23780000  0.24470000  1.0 0.1514210933
H  H19  1  0.29520000  0.36290000  0.24920000  1.0 0.1514210933
H  H20  1  0.40800000  0.30680000  0.31520000  1.0 0.1576480128
H  H21  1  0.08160000  0.59960000  0.30760000  1.0 0.1210555278
H  H22  1  0.19630000  0.71100000  0.46390000  1.0 0.1380118363
H  H23  1  0.53290000  0.92490000  0.19890000  1.0 0.1210555278
H  H24  1  0.57140000  0.36840000  0.80490000  1.0 0.1210555278
H  H25  1  0.77220000  0.05170000  0.80330000  1.0 0.1298842164
H  H26  1  0.91750000  0.18710000  0.78850000  1.0 0.1097129517
H  H27  1  0.46560000  0.24210000  0.65050000  1.0 0.1298842164
H  H28  1  0.47090000  0.75700000  0.99150000  1.0 0.1380118363
H  H29  1  0.94090000  0.15270000  0.09810000  1.0 0.1298842164
H  H30  1  0.42760000  0.56000000  0.70540000  1.0 0.1298842164
H  H31  1  0.45310000  0.08750000  0.30600000  1.0 0.1298842164
H  H32  1  0.07030000  0.28860000  0.07580000  1.0 0.1097129517
H  H33  1  0.85800000  0.90460000  0.41870000  1.0 0.1210555278
H  H34  1  0.27420000  0.44470000  0.73470000  1.0 0.1210555278
H  H35  1  0.84100000  0.97720000  0.09820000  1.0 0.1514210933
H  H36  1  0.72080000  0.06990000  0.10720000  1.0 0.1514210933
H  H37  1  0.67660000  0.94110000  0.06510000  1.0 0.1576480128
H  H38  1  0.77910000  0.06490000  0.52620000  1.0 0.1298842164
H  H39  1  0.31990000  0.63350000  0.01450000  1.0 0.1097129517
H  H40  1  0.72920000  0.76220000  0.75530000  1.0 0.1514210933
H  H41  1  0.70480000  0.63710000  0.75080000  1.0 0.1514210933
H  H42  1  0.59200000  0.69320000  0.68480000  1.0 0.1576480128
H  H43  1  0.91840000  0.40040000  0.69240000  1.0 0.1210555278
H  H44  1  0.80370000  0.28900000  0.53610000  1.0 0.1380118363
C  C1  1  0.41730000  0.04710000  0.73530000  1.0 -0.0794346896
C  C2  1  0.24550000  0.60150000  0.23580000  1.0 -0.0587272022
C  C3  1  0.53070000  0.32720000  0.15530000  1.0 0.0669971563
C  C4  1  0.29810000  0.10240000  0.70340000  1.0 -0.0393206171
C  C5  1  0.38090000  0.64940000  0.24840000  1.0 -0.0910702042
C  C6  1  0.16690000  0.90200000  0.14030000  1.0 -0.1895804025
C  C7  1  0.25210000  0.00400000  0.03560000  1.0 0.2608283319
C  C8  1  0.24970000  0.21060000  0.77350000  1.0 0.538599626
C  C9  1  0.07990000  0.81870000  0.14860000  1.0 0.0879109316
C  C10  1  0.17200000  0.52200000  0.13520000  1.0 0.5648041524
C  C11  1  0.44500000  0.72400000  0.34090000  1.0 -0.2089403674
C  C12  1  0.42650000  0.25070000  0.16800000  1.0 0.2710871257
C  C13  1  0.56660000  0.30660000  0.06160000  1.0 -0.1483942262
C  C14  1  0.06800000  0.84140000  0.96540000  1.0 -0.1895804025
C  C15  1  0.16140000  0.91500000  0.04670000  1.0 0.0669971563
C  C16  1  0.59280000  0.42290000  0.23110000  1.0 -0.1678521774
C  C17  1  0.46580000  0.94970000  0.67130000  1.0 -0.1961476348
C  C18  1  0.98920000  0.76020000  0.97970000  1.0 0.0879109316
C  C19  1  0.22400000  0.05880000  0.60390000  1.0 -0.0794346896
C  C20  1  0.68460000  0.49270000  0.21260000  1.0 0.079418054
C  C21  1  0.39180000  0.90850000  0.57290000  1.0 0.2518910326
C  C22  1  0.25360000  0.00390000  0.93200000  1.0 -0.5114616595
C  C23  1  0.27070000  0.96310000  0.53970000  1.0 -0.2153923653
C  C24  1  0.65820000  0.38140000  0.04840000  1.0 0.0879109316
C  C25  1  0.34240000  0.29350000  0.25200000  1.0 -0.4997364572
C  C26  1  0.17420000  0.62860000  0.31670000  1.0 -0.0794346896
C  C27  1  0.37280000  0.74720000  0.42110000  1.0 0.2518910326
C  C28  1  0.24070000  0.69780000  0.40930000  1.0 -0.2089403674
C  C29  1  0.58270000  0.95290000  0.26470000  1.0 -0.0794346896
C  C30  1  0.75450000  0.39850000  0.76420000  1.0 -0.0587272022
C  C31  1  0.46930000  0.67280000  0.84470000  1.0 0.0669971563
C  C32  1  0.70190000  0.89760000  0.29660000  1.0 -0.0393206171
C  C33  1  0.61910000  0.35060000  0.75160000  1.0 -0.0910702042
C  C34  1  0.83310000  0.09800000  0.85970000  1.0 -0.1895804025
C  C35  1  0.74790000  0.99600000  0.96440000  1.0 0.2608283319
C  C36  1  0.75030000  0.78940000  0.22650000  1.0 0.538599626
C  C37  1  0.92010000  0.18130000  0.85140000  1.0 0.0879109316
C  C38  1  0.82800000  0.47800000  0.86480000  1.0 0.5648041524
C  C39  1  0.55500000  0.27600000  0.65910000  1.0 -0.2089403674
C  C40  1  0.57350000  0.74930000  0.83200000  1.0 0.2710871257
C  C41  1  0.43340000  0.69340000  0.93840000  1.0 -0.1483942262
C  C42  1  0.93200000  0.15860000  0.03460000  1.0 -0.1895804025
C  C43  1  0.83860000  0.08500000  0.95330000  1.0 0.0669971563
C  C44  1  0.40720000  0.57710000  0.76890000  1.0 -0.1678521774
C  C45  1  0.53420000  0.05030000  0.32870000  1.0 -0.1961476348
C  C46  1  0.01080000  0.23980000  0.02030000  1.0 0.0879109316
C  C47  1  0.77600000  0.94120000  0.39610000  1.0 -0.0794346896
C  C48  1  0.31540000  0.50730000  0.78740000  1.0 0.079418054
C  C49  1  0.60820000  0.09150000  0.42710000  1.0 0.2518910326
C  C50  1  0.74640000  0.99610000  0.06800000  1.0 -0.5114616595
C  C51  1  0.72930000  0.03690000  0.46030000  1.0 -0.2153923653
C  C52  1  0.34180000  0.61860000  0.95160000  1.0 0.079418054
C  C53  1  0.65760000  0.70650000  0.74800000  1.0 -0.4997364572
C  C54  1  0.82580000  0.37140000  0.68330000  1.0 -0.0794346896
C  C55  1  0.62720000  0.25280000  0.57890000  1.0 0.2518910326
C  C56  1  0.75930000  0.30220000  0.59070000  1.0 -0.2089403674
N  N1  1  0.71770000  0.47540000  0.12240000  1.0 -0.2290699288
N  N2  1  0.99330000  0.74720000  0.06940000  1.0 -0.2515977911
N  N3  1  0.41490000  0.14870000  0.10330000  1.0 -0.2290699288
N  N4  1  0.32250000  0.07360000  0.11830000  1.0 -0.2290699288
N  N5  1  0.28230000  0.52460000  0.87760000  1.0 -0.2290699288
N  N6  1  0.00670000  0.25280000  0.93060000  1.0 -0.2515977911
N  N7  1  0.58510000  0.85130000  0.89670000  1.0 -0.2290699288
N  N8  1  0.67750000  0.92640000  0.88170000  1.0 -0.2290699288
O  O1  1  0.13730000  0.26040000  0.74210000  1.0 -0.5884651683
O  O2  1  0.03580000  0.50070000  0.11740000  1.0 -0.5884651683
O  O3  1  0.31760000  0.24460000  0.86290000  1.0 -0.5467713915
O  O4  1  0.25560000  0.47610000  0.07330000  1.0 -0.5558216415
O  O5  1  0.45190000  0.81250000  0.51290000  1.0 -0.2290699288
O  O6  1  0.86270000  0.73960000  0.25790000  1.0 -0.5884651683
O  O7  1  0.96420000  0.49930000  0.88260000  1.0 -0.5884651683
O  O8  1  0.68240000  0.75540000  0.13710000  1.0 -0.5467713915
O  O9  1  0.74440000  0.52390000  0.92670000  1.0 -0.5558216415
O  O10  1  0.54810000  0.18750000  0.48710000  1.0 -0.2290699288
