# DDEC6 charges by PACMAN v1.1 (https://github.com/mtap-research/PACMAN-charge/)
data_MUKRAN_ASR_pacman
_symmetry_space_group_name_H-M   'P 1'
_cell_length_a   16.79490000
_cell_length_b   16.79490000
_cell_length_c   16.79490000
_cell_angle_alpha   67.00070000
_cell_angle_beta   67.00070000
_cell_angle_gamma   67.00070000
_symmetry_Int_Tables_number   1
_chemical_formula_structural   CuH9(C5O2)3
_chemical_formula_sum   'Cu6 H54 C90 O36'
_cell_volume   3852.43078162
_cell_formula_units_Z   6
loop_
 _symmetry_equiv_pos_site_id
 _symmetry_equiv_pos_as_xyz
  1  'x, y, z'
loop_
 _atom_site_type_symbol
 _atom_site_label
 _atom_site_symmetry_multiplicity
 _atom_site_fract_x
 _atom_site_fract_y
 _atom_site_fract_z
 _atom_site_occupancy
 _atom_site_charge
Cu  Cu1  1  0.50365000  0.07543000  0.50365000  1.0 0.8644542716
Cu  Cu2  1  0.07543000  0.50366000  0.50365000  1.0 0.8644542716
Cu  Cu3  1  0.50366000  0.50365000  0.07543000  1.0 0.8644542716
Cu  Cu4  1  0.49634000  0.49635000  0.92457000  1.0 0.8644542716
Cu  Cu5  1  0.49634000  0.92457000  0.49634000  1.0 0.8644542716
Cu  Cu6  1  0.92457000  0.49634000  0.49634000  1.0 0.8644542716
H  H1  1  0.22700000  0.22700000  0.52980000  1.0 0.1395481623
H  H2  1  0.22700000  0.52980000  0.22700000  1.0 0.1395481623
H  H3  1  0.52980000  0.22700000  0.22700000  1.0 0.1395481623
H  H4  1  0.77300000  0.47020000  0.77300000  1.0 0.1395481623
H  H5  1  0.47020000  0.77300000  0.77300000  1.0 0.1395481623
H  H6  1  0.77300000  0.77300000  0.47020000  1.0 0.1395481623
H  H7  1  0.21370000  0.99810000  0.52210000  1.0 0.1395481623
H  H8  1  0.99810000  0.52210000  0.21370000  1.0 0.1395481623
H  H9  1  0.52210000  0.21370000  0.99810000  1.0 0.1395481623
H  H10  1  0.78630000  0.47790000  0.00190000  1.0 0.1395481623
H  H11  1  0.47790000  0.00190000  0.78630000  1.0 0.1395481623
H  H12  1  0.00190000  0.78630000  0.47790000  1.0 0.1395481623
H  H13  1  0.78630000  0.00190000  0.47790000  1.0 0.1395481623
H  H14  1  0.00190000  0.47790000  0.78630000  1.0 0.1395481623
H  H15  1  0.47790000  0.78630000  0.00190000  1.0 0.1395481623
H  H16  1  0.21370000  0.52210000  0.99810000  1.0 0.1395481623
H  H17  1  0.52210000  0.99810000  0.21370000  1.0 0.1395481623
H  H18  1  0.99810000  0.21370000  0.52210000  1.0 0.1395481623
H  H19  1  0.87580000  0.18100000  0.27420000  1.0 0.1081465287
H  H20  1  0.18100000  0.27420000  0.87580000  1.0 0.1081465287
H  H21  1  0.27420000  0.87580000  0.18100000  1.0 0.1081465287
H  H22  1  0.12420000  0.72580000  0.81900000  1.0 0.1081465287
H  H23  1  0.72580000  0.81900000  0.12420000  1.0 0.1081465287
H  H24  1  0.81900000  0.12420000  0.72580000  1.0 0.1081465287
H  H25  1  0.12420000  0.81900000  0.72580000  1.0 0.1081465287
H  H26  1  0.81900000  0.72580000  0.12420000  1.0 0.1081465287
H  H27  1  0.72580000  0.12420000  0.81900000  1.0 0.1081465287
H  H28  1  0.87580000  0.27420000  0.18100000  1.0 0.1081465287
H  H29  1  0.27420000  0.18100000  0.87580000  1.0 0.1081465287
H  H30  1  0.18100000  0.87580000  0.27420000  1.0 0.1081465287
H  H31  1  0.95920000  0.17920000  0.29580000  1.0 0.1182892562
H  H32  1  0.17920000  0.29580000  0.95920000  1.0 0.1182892562
H  H33  1  0.29580000  0.95920000  0.17920000  1.0 0.1182892562
H  H34  1  0.04080000  0.70420000  0.82080000  1.0 0.1182892562
H  H35  1  0.70420000  0.82080000  0.04080000  1.0 0.1182892562
H  H36  1  0.82080000  0.04080000  0.70420000  1.0 0.1182892562
H  H37  1  0.04080000  0.82080000  0.70420000  1.0 0.1182892562
H  H38  1  0.82080000  0.70420000  0.04080000  1.0 0.1182892562
H  H39  1  0.70420000  0.04080000  0.82080000  1.0 0.1182892562
H  H40  1  0.95920000  0.29580000  0.17920000  1.0 0.1182892562
H  H41  1  0.29580000  0.17920000  0.95920000  1.0 0.1182892562
H  H42  1  0.17920000  0.95920000  0.29580000  1.0 0.1182892562
H  H43  1  0.86330000  0.19790000  0.36430000  1.0 0.1182892562
H  H44  1  0.19790000  0.36430000  0.86330000  1.0 0.1182892562
H  H45  1  0.36430000  0.86330000  0.19790000  1.0 0.1182892562
H  H46  1  0.13670000  0.63570000  0.80210000  1.0 0.1182892562
H  H47  1  0.63570000  0.80210000  0.13670000  1.0 0.1182892562
H  H48  1  0.80210000  0.13670000  0.63570000  1.0 0.1182892562
H  H49  1  0.13670000  0.80210000  0.63570000  1.0 0.1182892562
H  H50  1  0.80210000  0.63570000  0.13670000  1.0 0.1182892562
H  H51  1  0.63570000  0.13670000  0.80210000  1.0 0.1182892562
H  H52  1  0.86330000  0.36430000  0.19790000  1.0 0.1182892562
H  H53  1  0.36430000  0.19790000  0.86330000  1.0 0.1182892562
H  H54  1  0.19790000  0.86330000  0.36430000  1.0 0.1182892562
C  C1  1  0.33381000  0.06431000  0.52001000  1.0 0.5847576133
C  C2  1  0.06431000  0.52001000  0.33381000  1.0 0.5847576133
C  C3  1  0.52001000  0.33381000  0.06431000  1.0 0.5847576133
C  C4  1  0.66619000  0.47999000  0.93569000  1.0 0.5847576133
C  C5  1  0.47999000  0.93569000  0.66619000  1.0 0.5847576133
C  C6  1  0.93569000  0.66619000  0.47999000  1.0 0.5847576133
C  C7  1  0.66619000  0.93569000  0.47999000  1.0 0.5847576133
C  C8  1  0.93569000  0.47999000  0.66619000  1.0 0.5847576133
C  C9  1  0.47999000  0.66619000  0.93569000  1.0 0.5847576133
C  C10  1  0.33381000  0.52001000  0.06431000  1.0 0.5847576133
C  C11  1  0.52001000  0.06431000  0.33381000  1.0 0.5847576133
C  C12  1  0.06431000  0.33381000  0.52001000  1.0 0.5847576133
C  C13  1  0.23502000  0.10582000  0.52482000  1.0 -0.0040549932
C  C14  1  0.10582000  0.52482000  0.23502000  1.0 -0.0040549932
C  C15  1  0.52482000  0.23502000  0.10582000  1.0 -0.0040549932
C  C16  1  0.76498000  0.47518000  0.89418000  1.0 -0.0040549932
C  C17  1  0.47518000  0.89418000  0.76498000  1.0 -0.0040549932
C  C18  1  0.89418000  0.76498000  0.47518000  1.0 -0.0040549932
C  C19  1  0.76498000  0.89418000  0.47518000  1.0 -0.0040549932
C  C20  1  0.89418000  0.47518000  0.76498000  1.0 -0.0040549932
C  C21  1  0.47518000  0.76498000  0.89418000  1.0 -0.0040549932
C  C22  1  0.23502000  0.52482000  0.10582000  1.0 -0.0040549932
C  C23  1  0.52482000  0.10582000  0.23502000  1.0 -0.0040549932
C  C24  1  0.10582000  0.23502000  0.52482000  1.0 -0.0040549932
C  C25  1  0.19460000  0.19460000  0.52695000  1.0 -0.1115109303
C  C26  1  0.19460000  0.52695000  0.19460000  1.0 -0.1115109303
C  C27  1  0.52695000  0.19460000  0.19460000  1.0 -0.1115109303
C  C28  1  0.80540000  0.47305000  0.80540000  1.0 -0.1115109303
C  C29  1  0.47305000  0.80540000  0.80540000  1.0 -0.1115109303
C  C30  1  0.80540000  0.80540000  0.47305000  1.0 -0.1115109303
C  C31  1  0.18657000  0.05817000  0.52207000  1.0 -0.1510759309
C  C32  1  0.05817000  0.52207000  0.18657000  1.0 -0.1510759309
C  C33  1  0.52207000  0.18657000  0.05817000  1.0 -0.1510759309
C  C34  1  0.81343000  0.47793000  0.94183000  1.0 -0.1510759309
C  C35  1  0.47793000  0.94183000  0.81343000  1.0 -0.1510759309
C  C36  1  0.94183000  0.81343000  0.47793000  1.0 -0.1510759309
C  C37  1  0.81343000  0.94183000  0.47793000  1.0 -0.1510759309
C  C38  1  0.94183000  0.47793000  0.81343000  1.0 -0.1510759309
C  C39  1  0.47793000  0.81343000  0.94183000  1.0 -0.1510759309
C  C40  1  0.18657000  0.52207000  0.05817000  1.0 -0.1510759309
C  C41  1  0.52207000  0.05817000  0.18657000  1.0 -0.1510759309
C  C42  1  0.05817000  0.18657000  0.52207000  1.0 -0.1510759309
C  C43  1  0.95650000  0.03750000  0.43480000  1.0 0.0976033315
C  C44  1  0.03750000  0.43480000  0.95650000  1.0 0.0976033315
C  C45  1  0.43480000  0.95650000  0.03750000  1.0 0.0976033315
C  C46  1  0.04350000  0.56520000  0.96250000  1.0 0.0976033315
C  C47  1  0.56520000  0.96250000  0.04350000  1.0 0.0976033315
C  C48  1  0.96250000  0.04350000  0.56520000  1.0 0.0976033315
C  C49  1  0.04350000  0.96250000  0.56520000  1.0 0.0976033315
C  C50  1  0.96250000  0.56520000  0.04350000  1.0 0.0976033315
C  C51  1  0.56520000  0.04350000  0.96250000  1.0 0.0976033315
C  C52  1  0.95650000  0.43480000  0.03750000  1.0 0.0976033315
C  C53  1  0.43480000  0.03750000  0.95650000  1.0 0.0976033315
C  C54  1  0.03750000  0.95650000  0.43480000  1.0 0.0976033315
C  C55  1  0.09764000  0.09764000  0.51924000  1.0 0.0976033315
C  C56  1  0.09764000  0.51924000  0.09764000  1.0 0.0976033315
C  C57  1  0.51924000  0.09764000  0.09764000  1.0 0.0976033315
C  C58  1  0.90236000  0.48076000  0.90236000  1.0 0.0976033315
C  C59  1  0.48076000  0.90236000  0.90236000  1.0 0.0976033315
C  C60  1  0.90236000  0.90236000  0.48076000  1.0 0.0976033315
C  C61  1  0.04714000  0.04714000  0.50879000  1.0 0.0036978418
C  C62  1  0.04714000  0.50879000  0.04714000  1.0 0.0036978418
C  C63  1  0.50879000  0.04714000  0.04714000  1.0 0.0036978418
C  C64  1  0.95286000  0.49121000  0.95286000  1.0 0.0036978418
C  C65  1  0.49121000  0.95286000  0.95286000  1.0 0.0036978418
C  C66  1  0.95286000  0.95286000  0.49121000  1.0 0.0036978418
C  C67  1  0.00380000  0.08710000  0.44230000  1.0 -0.0937809451
C  C68  1  0.08710000  0.44230000  0.00380000  1.0 -0.0958666184
C  C69  1  0.44230000  0.00380000  0.08710000  1.0 -0.0937809451
C  C70  1  0.99620000  0.55770000  0.91290000  1.0 -0.0958666184
C  C71  1  0.55770000  0.91290000  0.99620000  1.0 -0.0958666184
C  C72  1  0.91290000  0.99620000  0.55770000  1.0 -0.0937809451
C  C73  1  0.99620000  0.91290000  0.55770000  1.0 -0.0937809451
C  C74  1  0.91290000  0.55770000  0.99620000  1.0 -0.0958666184
C  C75  1  0.55770000  0.99620000  0.91290000  1.0 -0.0958666184
C  C76  1  0.00380000  0.44230000  0.08710000  1.0 -0.0937809451
C  C77  1  0.44230000  0.08710000  0.00380000  1.0 -0.0958666184
C  C78  1  0.08710000  0.00380000  0.44230000  1.0 -0.0937809451
C  C79  1  0.90280000  0.16490000  0.32120000  1.0 -0.2041894685
C  C80  1  0.16490000  0.32120000  0.90280000  1.0 -0.2041894685
C  C81  1  0.32120000  0.90280000  0.16490000  1.0 -0.2041894685
C  C82  1  0.09720000  0.67880000  0.83510000  1.0 -0.2041894685
C  C83  1  0.67880000  0.83510000  0.09720000  1.0 -0.2041894685
C  C84  1  0.83510000  0.09720000  0.67880000  1.0 -0.2041894685
C  C85  1  0.09720000  0.83510000  0.67880000  1.0 -0.2041894685
C  C86  1  0.83510000  0.67880000  0.09720000  1.0 -0.2041894685
C  C87  1  0.67880000  0.09720000  0.83510000  1.0 -0.2041894685
C  C88  1  0.90280000  0.32120000  0.16490000  1.0 -0.2041894685
C  C89  1  0.32120000  0.16490000  0.90280000  1.0 -0.2041894685
C  C90  1  0.16490000  0.90280000  0.32120000  1.0 -0.2041894685
O  O1  1  0.37402000  0.11244000  0.52203000  1.0 -0.5207071457
O  O2  1  0.11244000  0.52203000  0.37402000  1.0 -0.5207071457
O  O3  1  0.52203000  0.37402000  0.11244000  1.0 -0.5207071457
O  O4  1  0.62598000  0.47797000  0.88756000  1.0 -0.5207071457
O  O5  1  0.47797000  0.88756000  0.62598000  1.0 -0.5207071457
O  O6  1  0.88756000  0.62598000  0.47797000  1.0 -0.5207071457
O  O7  1  0.62598000  0.88756000  0.47797000  1.0 -0.5207071457
O  O8  1  0.88756000  0.47797000  0.62598000  1.0 -0.5207071457
O  O9  1  0.47797000  0.62598000  0.88756000  1.0 -0.5207071457
O  O10  1  0.37402000  0.52203000  0.11244000  1.0 -0.5207071457
O  O11  1  0.52203000  0.11244000  0.37402000  1.0 -0.5207071457
O  O12  1  0.11244000  0.37402000  0.52203000  1.0 -0.5207071457
O  O13  1  0.36686000  0.98462000  0.51469000  1.0 -0.5207071457
O  O14  1  0.98462000  0.51469000  0.36686000  1.0 -0.5207071457
O  O15  1  0.51469000  0.36686000  0.98462000  1.0 -0.5207071457
O  O16  1  0.63314000  0.48531000  0.01538000  1.0 -0.5207071457
O  O17  1  0.48531000  0.01538000  0.63314000  1.0 -0.5207071457
O  O18  1  0.01538000  0.63314000  0.48531000  1.0 -0.5207071457
O  O19  1  0.63314000  0.01538000  0.48531000  1.0 -0.5207071457
O  O20  1  0.01538000  0.48531000  0.63314000  1.0 -0.5207071457
O  O21  1  0.48531000  0.63314000  0.01538000  1.0 -0.5207071457
O  O22  1  0.36686000  0.51469000  0.98462000  1.0 -0.5207071457
O  O23  1  0.51469000  0.98462000  0.36686000  1.0 -0.5207071457
O  O24  1  0.98462000  0.36686000  0.51469000  1.0 -0.5207071457
O  O25  1  0.91680000  0.07670000  0.36210000  1.0 -0.1679720211
O  O26  1  0.07670000  0.36210000  0.91680000  1.0 -0.1679720211
O  O27  1  0.36210000  0.91680000  0.07670000  1.0 -0.1679720211
O  O28  1  0.08320000  0.63790000  0.92330000  1.0 -0.1679720211
O  O29  1  0.63790000  0.92330000  0.08320000  1.0 -0.1679720211
O  O30  1  0.92330000  0.08320000  0.63790000  1.0 -0.1679720211
O  O31  1  0.08320000  0.92330000  0.63790000  1.0 -0.1679720211
O  O32  1  0.92330000  0.63790000  0.08320000  1.0 -0.1679720211
O  O33  1  0.63790000  0.08320000  0.92330000  1.0 -0.1679720211
O  O34  1  0.91680000  0.36210000  0.07670000  1.0 -0.1679720211
O  O35  1  0.36210000  0.07670000  0.91680000  1.0 -0.1679720211
O  O36  1  0.07670000  0.91680000  0.36210000  1.0 -0.1679720211
