# DDEC6 charges by PACMAN v1.1 (https://github.com/mtap-research/PACMAN-charge/)
data_MUKTOE_ion_pacman
_symmetry_space_group_name_H-M   'P 1'
_cell_length_a   10.82800000
_cell_length_b   10.82800000
_cell_length_c   27.75360000
_cell_angle_alpha   81.29770000
_cell_angle_beta   98.70230000
_cell_angle_gamma   127.69200000
_symmetry_Int_Tables_number   1
_chemical_formula_structural   InH32C40S8(NO4)2
_chemical_formula_sum   'In2 H64 C80 S16 N4 O16'
_cell_volume   2538.06610967
_cell_formula_units_Z   2
loop_
 _symmetry_equiv_pos_site_id
 _symmetry_equiv_pos_as_xyz
  1  'x, y, z'
loop_
 _atom_site_type_symbol
 _atom_site_label
 _atom_site_symmetry_multiplicity
 _atom_site_fract_x
 _atom_site_fract_y
 _atom_site_fract_z
 _atom_site_occupancy
 _atom_site_charge
In  In1  1  0.71765000  0.71765000  0.75000000  1.0 1.3288644191
In  In2  1  0.28235000  0.28235000  0.25000000  1.0 1.3288644191
H  H1  1  0.53924000  0.94848000  0.67941000  1.0 0.1206385916
H  H2  1  0.64316000  0.03060000  0.75700000  1.0 0.1299777967
H  H3  1  0.68842000  0.25518000  0.77879000  1.0 0.1088012198
H  H4  1  0.50079000  0.29861000  0.64662000  1.0 0.1206385916
H  H5  1  0.15885000  0.92825000  0.65006000  1.0 0.1299777967
H  H6  1  0.88732000  0.06898000  0.61058000  1.0 0.101785055
H  H7  1  0.03202000  0.21610000  0.54360000  1.0 0.0935245372
H  H8  1  0.23244000  0.21168000  0.52796000  1.0 0.101785055
H  H9  1  0.94848000  0.53924000  0.82059000  1.0 0.1206385916
H  H10  1  0.03060000  0.64316000  0.74300000  1.0 0.1299777967
H  H11  1  0.25518000  0.68842000  0.72121000  1.0 0.1088012198
H  H12  1  0.29861000  0.50079000  0.85338000  1.0 0.1206385916
H  H13  1  0.92825000  0.15885000  0.84994000  1.0 0.1299777967
H  H14  1  0.06898000  0.88732000  0.88942000  1.0 0.101785055
H  H15  1  0.21610000  0.03202000  0.95640000  1.0 0.0935245372
H  H16  1  0.21168000  0.23244000  0.97204000  1.0 0.101785055
H  H17  1  0.46076000  0.05152000  0.32059000  1.0 0.1206385916
H  H18  1  0.35684000  0.96940000  0.24300000  1.0 0.1299777967
H  H19  1  0.31158000  0.74482000  0.22121000  1.0 0.1088012198
H  H20  1  0.49921000  0.70139000  0.35338000  1.0 0.1206385916
H  H21  1  0.84115000  0.07175000  0.34994000  1.0 0.1299777967
H  H22  1  0.11268000  0.93102000  0.38942000  1.0 0.101785055
H  H23  1  0.96798000  0.78390000  0.45640000  1.0 0.0935245372
H  H24  1  0.76756000  0.78832000  0.47204000  1.0 0.101785055
H  H25  1  0.05152000  0.46076000  0.17941000  1.0 0.1206385916
H  H26  1  0.96940000  0.35684000  0.25700000  1.0 0.1299777967
H  H27  1  0.74482000  0.31158000  0.27879000  1.0 0.1088012198
H  H28  1  0.70139000  0.49921000  0.14662000  1.0 0.1206385916
H  H29  1  0.07175000  0.84115000  0.15006000  1.0 0.1299777967
H  H30  1  0.93102000  0.11268000  0.11058000  1.0 0.101785055
H  H31  1  0.78390000  0.96798000  0.04360000  1.0 0.0935245372
H  H32  1  0.78832000  0.76756000  0.02796000  1.0 0.101785055
H  H33  1  0.45557000  0.67957000  0.09504000  1.0 0.1777824845
H  H34  1  0.20049000  0.41179000  0.08413000  1.0 0.0768782061
H  H35  1  0.31592000  0.46146000  0.13124000  1.0 0.1299777967
H  H36  1  0.32807000  0.38357000  0.09077000  1.0 0.1206385916
H  H37  1  0.44056000  0.67080000  0.99925000  1.0 0.1088012198
H  H38  1  0.47219000  0.80233000  0.02820000  1.0 0.101785055
H  H39  1  0.30010000  0.65496000  0.01675000  1.0 0.0717813319
H  H40  1  0.50910000  0.62570000  0.07350000  1.0 0.1695787657
H  H41  1  0.67957000  0.45557000  0.40496000  1.0 0.1777824845
H  H42  1  0.41179000  0.20049000  0.41587000  1.0 0.0768782061
H  H43  1  0.46146000  0.31592000  0.36876000  1.0 0.1299777967
H  H44  1  0.38357000  0.32807000  0.40923000  1.0 0.1206385916
H  H45  1  0.67080000  0.44056000  0.50075000  1.0 0.1088012198
H  H46  1  0.80233000  0.47219000  0.47180000  1.0 0.101785055
H  H47  1  0.65496000  0.30010000  0.48325000  1.0 0.0717813319
H  H48  1  0.62570000  0.50910000  0.42650000  1.0 0.1695787657
H  H49  1  0.54443000  0.32043000  0.90496000  1.0 0.1777824845
H  H50  1  0.79951000  0.58821000  0.91587000  1.0 0.0768782061
H  H51  1  0.68408000  0.53854000  0.86876000  1.0 0.1299777967
H  H52  1  0.67193000  0.61643000  0.90923000  1.0 0.1206385916
H  H53  1  0.55944000  0.32920000  0.00075000  1.0 0.1088012198
H  H54  1  0.52781000  0.19767000  0.97180000  1.0 0.101785055
H  H55  1  0.69990000  0.34504000  0.98325000  1.0 0.0717813319
H  H56  1  0.49090000  0.37430000  0.92650000  1.0 0.1695787657
H  H57  1  0.32043000  0.54443000  0.59504000  1.0 0.1777824845
H  H58  1  0.58821000  0.79951000  0.58413000  1.0 0.0768782061
H  H59  1  0.53854000  0.68408000  0.63124000  1.0 0.1299777967
H  H60  1  0.61643000  0.67193000  0.59077000  1.0 0.1206385916
H  H61  1  0.32920000  0.55944000  0.49925000  1.0 0.1088012198
H  H62  1  0.19767000  0.52781000  0.52820000  1.0 0.101785055
H  H63  1  0.34504000  0.69990000  0.51675000  1.0 0.0717813319
H  H64  1  0.37430000  0.49090000  0.57350000  1.0 0.1695787657
C  C1  1  0.45714000  0.07146000  0.60344000  1.0 -0.0933771558
C  C2  1  0.33792000  0.05768000  0.57463000  1.0 -0.1087344762
C  C3  1  0.51096000  0.11604000  0.65480000  1.0 0.0624936309
C  C4  1  0.55366000  0.03614000  0.68833000  1.0 -0.1491004143
C  C5  1  0.61719000  0.08601000  0.73464000  1.0 -0.0608607743
C  C6  1  0.64247000  0.21953000  0.74796000  1.0 -0.1087344762
C  C7  1  0.59880000  0.29940000  0.71488000  1.0 -0.0120104433
C  C8  1  0.53171000  0.24649000  0.66849000  1.0 -0.1491004143
C  C9  1  0.63425000  0.44655000  0.72820000  1.0 0.5392909359
C  C10  1  0.21590000  0.06770000  0.58730000  1.0 0.0717813319
C  C11  1  0.13214000  0.98406000  0.62827000  1.0 -0.1423724245
C  C12  1  0.00772000  0.98368000  0.63681000  1.0 0.0020243369
C  C13  1  0.97022000  0.06958000  0.60495000  1.0 -0.1189902749
C  C14  1  0.05600000  0.15660000  0.56451000  1.0 -0.0933771558
C  C15  1  0.17671000  0.15489000  0.55538000  1.0 -0.1798250142
C  C16  1  0.91097000  0.88583000  0.67885000  1.0 0.5392909359
C  C17  1  0.49690000  0.05170000  0.51540000  1.0 -0.0486640668
C  C18  1  0.46170000  0.98170000  0.52158000  1.0 -0.0676376883
C  C19  1  0.07146000  0.45714000  0.89656000  1.0 -0.0933771558
C  C20  1  0.05768000  0.33792000  0.92537000  1.0 -0.1087344762
C  C21  1  0.11604000  0.51096000  0.84520000  1.0 0.0624936309
C  C22  1  0.03614000  0.55366000  0.81167000  1.0 -0.1491004143
C  C23  1  0.08601000  0.61719000  0.76536000  1.0 -0.0608607743
C  C24  1  0.21953000  0.64247000  0.75204000  1.0 -0.1087344762
C  C25  1  0.29940000  0.59880000  0.78512000  1.0 -0.0120104433
C  C26  1  0.24649000  0.53171000  0.83151000  1.0 -0.1491004143
C  C27  1  0.44655000  0.63425000  0.77180000  1.0 0.5392909359
C  C28  1  0.06770000  0.21590000  0.91270000  1.0 0.0717813319
C  C29  1  0.98406000  0.13214000  0.87173000  1.0 -0.1423724245
C  C30  1  0.98368000  0.00772000  0.86319000  1.0 0.0020243369
C  C31  1  0.06958000  0.97022000  0.89505000  1.0 -0.1189902749
C  C32  1  0.15660000  0.05600000  0.93549000  1.0 -0.0933771558
C  C33  1  0.15489000  0.17671000  0.94462000  1.0 -0.1798250142
C  C34  1  0.88583000  0.91097000  0.82115000  1.0 0.5392909359
C  C35  1  0.05170000  0.49690000  0.98460000  1.0 -0.0486640668
C  C36  1  0.98170000  0.46170000  0.97842000  1.0 -0.0676376883
C  C37  1  0.54286000  0.92854000  0.39656000  1.0 -0.0956543226
C  C38  1  0.66208000  0.94232000  0.42537000  1.0 -0.1087344762
C  C39  1  0.48904000  0.88396000  0.34520000  1.0 0.0624936309
C  C40  1  0.44634000  0.96386000  0.31167000  1.0 -0.1491004143
C  C41  1  0.38281000  0.91399000  0.26536000  1.0 -0.0608607743
C  C42  1  0.35753000  0.78047000  0.25204000  1.0 -0.1087344762
C  C43  1  0.40120000  0.70060000  0.28512000  1.0 -0.0120104433
C  C44  1  0.46829000  0.75351000  0.33151000  1.0 -0.1491004143
C  C45  1  0.36575000  0.55345000  0.27180000  1.0 0.5392909359
C  C46  1  0.78410000  0.93230000  0.41270000  1.0 0.0717813319
C  C47  1  0.86786000  0.01594000  0.37173000  1.0 -0.1423724245
C  C48  1  0.99228000  0.01632000  0.36319000  1.0 0.0020243369
C  C49  1  0.02978000  0.93042000  0.39505000  1.0 -0.1189902749
C  C50  1  0.94400000  0.84340000  0.43549000  1.0 -0.0933771558
C  C51  1  0.82329000  0.84511000  0.44462000  1.0 -0.1798250142
C  C52  1  0.08903000  0.11417000  0.32115000  1.0 0.5392909359
C  C53  1  0.50310000  0.94830000  0.48460000  1.0 -0.0486640668
C  C54  1  0.53830000  0.01830000  0.47842000  1.0 -0.0676376883
C  C55  1  0.92854000  0.54286000  0.10344000  1.0 -0.0933771558
C  C56  1  0.94232000  0.66208000  0.07463000  1.0 -0.1087344762
C  C57  1  0.88396000  0.48904000  0.15480000  1.0 0.0624936309
C  C58  1  0.96386000  0.44634000  0.18833000  1.0 -0.1491004143
C  C59  1  0.91399000  0.38281000  0.23464000  1.0 -0.0608607743
C  C60  1  0.78047000  0.35753000  0.24796000  1.0 -0.1087344762
C  C61  1  0.70060000  0.40120000  0.21488000  1.0 -0.0120104433
C  C62  1  0.75351000  0.46829000  0.16849000  1.0 -0.1491004143
C  C63  1  0.55345000  0.36575000  0.22820000  1.0 0.5392909359
C  C64  1  0.93230000  0.78410000  0.08730000  1.0 0.0717813319
C  C65  1  0.01594000  0.86786000  0.12827000  1.0 -0.1423724245
C  C66  1  0.01632000  0.99228000  0.13681000  1.0 0.0020243369
C  C67  1  0.93042000  0.02978000  0.10495000  1.0 -0.1189902749
C  C68  1  0.84340000  0.94400000  0.06451000  1.0 -0.0933771558
C  C69  1  0.84511000  0.82329000  0.05538000  1.0 -0.1798250142
C  C70  1  0.11417000  0.08903000  0.17885000  1.0 0.5392909359
C  C71  1  0.94830000  0.50310000  0.01540000  1.0 -0.0486640668
C  C72  1  0.01830000  0.53830000  0.02158000  1.0 -0.0676376883
C  C73  1  0.30550000  0.45270000  0.09670000  1.0 -0.3200379971
C  C74  1  0.40630000  0.69170000  0.02480000  1.0 -0.3142215971
C  C75  1  0.45270000  0.30550000  0.40330000  1.0 -0.3200379971
C  C76  1  0.69170000  0.40630000  0.47520000  1.0 -0.3142215971
C  C77  1  0.69450000  0.54730000  0.90330000  1.0 -0.3200379971
C  C78  1  0.59370000  0.30830000  0.97520000  1.0 -0.3142215971
C  C79  1  0.54730000  0.69450000  0.59670000  1.0 -0.3200379971
C  C80  1  0.30830000  0.59370000  0.52480000  1.0 -0.3142215971
S  S1  1  0.59409000  0.08167000  0.57424000  1.0 0.1206385916
S  S2  1  0.33420000  0.05042000  0.51072000  1.0 0.1299777967
S  S3  1  0.55529000  0.00541000  0.58058000  1.0 0.1206385916
S  S4  1  0.29602000  0.97596000  0.51780000  1.0 0.1206385916
S  S5  1  0.08167000  0.59409000  0.92576000  1.0 0.1206385916
S  S6  1  0.05042000  0.33420000  0.98928000  1.0 0.1299777967
S  S7  1  0.00541000  0.55529000  0.91942000  1.0 0.1206385916
S  S8  1  0.97596000  0.29602000  0.98220000  1.0 0.1206385916
S  S9  1  0.40591000  0.91833000  0.42576000  1.0 0.1206385916
S  S10  1  0.66580000  0.94958000  0.48928000  1.0 0.1299777967
S  S11  1  0.44471000  0.99459000  0.41942000  1.0 0.1206385916
S  S12  1  0.70398000  0.02404000  0.48220000  1.0 0.1206385916
S  S13  1  0.91833000  0.40591000  0.07424000  1.0 0.1299777967
S  S14  1  0.94958000  0.66580000  0.01072000  1.0 0.1299777967
S  S15  1  0.99459000  0.44471000  0.08058000  1.0 0.1206385916
S  S16  1  0.02404000  0.70398000  0.01780000  1.0 0.1206385916
N  N1  1  0.41620000  0.60860000  0.07213000  1.0 -0.1331992809
N  N2  1  0.60860000  0.41620000  0.42787000  1.0 -0.1331992809
N  N3  1  0.58380000  0.39140000  0.92787000  1.0 -0.1331992809
N  N4  1  0.39140000  0.58380000  0.57213000  1.0 -0.1331992809
O  O1  1  0.93924000  0.80336000  0.70725000  1.0 -0.5402576912
O  O2  1  0.79934000  0.88872000  0.68554000  1.0 -0.5282827604
O  O3  1  0.59368000  0.51910000  0.69837000  1.0 -0.5402576912
O  O4  1  0.70619000  0.50055000  0.76860000  1.0 -0.5282827604
O  O5  1  0.80336000  0.93924000  0.79275000  1.0 -0.5402576912
O  O6  1  0.88872000  0.79934000  0.81446000  1.0 -0.5282827604
O  O7  1  0.51910000  0.59368000  0.80163000  1.0 -0.5402576912
O  O8  1  0.50055000  0.70619000  0.73140000  1.0 -0.5282827604
O  O9  1  0.06076000  0.19664000  0.29275000  1.0 -0.5402576912
O  O10  1  0.20066000  0.11128000  0.31446000  1.0 -0.5282827604
O  O11  1  0.40632000  0.48090000  0.30163000  1.0 -0.5402576912
O  O12  1  0.29381000  0.49945000  0.23140000  1.0 -0.5282827604
O  O13  1  0.19664000  0.06076000  0.20725000  1.0 -0.5402576912
O  O14  1  0.11128000  0.20066000  0.18554000  1.0 -0.5282827604
O  O15  1  0.48090000  0.40632000  0.19837000  1.0 -0.5402576912
O  O16  1  0.49945000  0.29381000  0.26860000  1.0 -0.5282827604
