# DDEC6 charges by PACMAN v1.1 (https://github.com/mtap-research/PACMAN-charge/)
data_MUNPAN_ASR_pacman
_symmetry_space_group_name_H-M   'P 1'
_cell_length_a   13.06300000
_cell_length_b   22.32400000
_cell_length_c   13.12900000
_cell_angle_alpha   90.00000000
_cell_angle_beta   95.14900000
_cell_angle_gamma   90.00000000
_symmetry_Int_Tables_number   1
_chemical_formula_structural   Zn2H39C67(NO3)6
_chemical_formula_sum   'Zn4 H78 C134 N12 O36'
_cell_volume   3813.20826186
_cell_formula_units_Z   2
loop_
 _symmetry_equiv_pos_site_id
 _symmetry_equiv_pos_as_xyz
  1  'x, y, z'
loop_
 _atom_site_type_symbol
 _atom_site_label
 _atom_site_symmetry_multiplicity
 _atom_site_fract_x
 _atom_site_fract_y
 _atom_site_fract_z
 _atom_site_occupancy
 _atom_site_charge
Zn  Zn1  1  0.76169000  0.70672000  0.36931000  1.0 0.8395373731
Zn  Zn2  1  0.78590000  0.57700000  0.39130000  1.0 0.8259807734
Zn  Zn3  1  0.23831000  0.20672000  0.63069000  1.0 0.8395373731
Zn  Zn4  1  0.21410000  0.07700000  0.60870000  1.0 0.8259807734
H  H1  1  0.83020000  0.80700000  0.50830000  1.0 0.1203368704
H  H2  1  0.83850000  0.91190000  0.50870000  1.0 0.1283932017
H  H3  1  0.71130000  0.91000000  0.21470000  1.0 0.1501007064
H  H4  1  0.70830000  0.80520000  0.22310000  1.0 0.1203368704
H  H5  1  0.53560000  0.09150000  0.35340000  1.0 0.1389100349
H  H6  1  0.53980000  0.19800000  0.36180000  1.0 0.1283932017
H  H7  1  0.03510000  0.19220000  0.35740000  1.0 0.1203368704
H  H8  1  0.03220000  0.08640000  0.35220000  1.0 0.1283932017
H  H9  1  0.08420000  0.75040000  0.38780000  1.0 0.1203368704
H  H10  1  0.25720000  0.76170000  0.37570000  1.0 0.1203368704
H  H11  1  0.43280000  0.71540000  0.37110000  1.0 0.1283932017
H  H12  1  0.46290000  0.53430000  0.37840000  1.0 0.1283932017
H  H13  1  0.28890000  0.52370000  0.39340000  1.0 0.1001054926
H  H14  1  0.11390000  0.56970000  0.40170000  1.0 0.1111443194
H  H15  1  0.69990000  0.74000000  0.67890000  1.0 0.1283932017
H  H16  1  0.68600000  0.75120000  0.85340000  1.0 0.1203368704
H  H17  1  0.71580000  0.71070000  0.03180000  1.0 0.1283932017
H  H18  1  0.81660000  0.53970000  0.07690000  1.0 0.1111443194
H  H19  1  0.81420000  0.52530000  0.90220000  1.0 0.1203368704
H  H20  1  0.79300000  0.56750000  0.72500000  1.0 0.1283932017
H  H21  1  0.87980000  0.47410000  0.51580000  1.0 0.1203368704
H  H22  1  0.88400000  0.36970000  0.50950000  1.0 0.1389100349
H  H23  1  0.70360000  0.37720000  0.24160000  1.0 0.1389100349
H  H24  1  0.70420000  0.48180000  0.25440000  1.0 0.1203368704
H  H25  1  0.16980000  0.30700000  0.49170000  1.0 0.1203368704
H  H26  1  0.16150000  0.41190000  0.49130000  1.0 0.1283932017
H  H27  1  0.28870000  0.41000000  0.78530000  1.0 0.1501007064
H  H28  1  0.29170000  0.30520000  0.77690000  1.0 0.1203368704
H  H29  1  0.46440000  0.59150000  0.64660000  1.0 0.1389100349
H  H30  1  0.46020000  0.69800000  0.63820000  1.0 0.1283932017
H  H31  1  0.96490000  0.69220000  0.64260000  1.0 0.1203368704
H  H32  1  0.96780000  0.58640000  0.64780000  1.0 0.1283932017
H  H33  1  0.91580000  0.25040000  0.61220000  1.0 0.1203368704
H  H34  1  0.74280000  0.26170000  0.62430000  1.0 0.1203368704
H  H35  1  0.56720000  0.21540000  0.62890000  1.0 0.1283932017
H  H36  1  0.53710000  0.03430000  0.62160000  1.0 0.1283932017
H  H37  1  0.71110000  0.02370000  0.60660000  1.0 0.1001054926
H  H38  1  0.88610000  0.06970000  0.59830000  1.0 0.1111443194
H  H39  1  0.30010000  0.24000000  0.32110000  1.0 0.1283932017
H  H40  1  0.31400000  0.25120000  0.14660000  1.0 0.1203368704
H  H41  1  0.28420000  0.21070000  0.96820000  1.0 0.1283932017
H  H42  1  0.18340000  0.03970000  0.92310000  1.0 0.1111443194
H  H43  1  0.18580000  0.02530000  0.09780000  1.0 0.1203368704
H  H44  1  0.20700000  0.06750000  0.27500000  1.0 0.1283932017
H  H45  1  0.12020000  0.97410000  0.48420000  1.0 0.1203368704
H  H46  1  0.11600000  0.86970000  0.49050000  1.0 0.1389100349
H  H47  1  0.29640000  0.87720000  0.75840000  1.0 0.1389100349
H  H48  1  0.29580000  0.98180000  0.74560000  1.0 0.1203368704
H  H49  1  0.11800000  0.75460000  0.86860000  1.0 0.2366872041
H  H50  1  0.88200000  0.25460000  0.13140000  1.0 0.2366872041
H  H51  1  0.01540000  0.66666667  0.86890000  1.0 0.1283932017
H  H52  1  0.98460000  0.16660000  0.13110000  1.0 0.1283932017
H  H53  1  0.01020000  0.61880000  0.02890000  1.0 0.1994665696
H  H54  1  0.98980000  0.11880000  0.97110000  1.0 0.1994665696
H  H55  1  0.10360000  0.65660000  0.17850000  1.0 0.1994665696
H  H56  1  0.89640000  0.15660000  0.82150000  1.0 0.1994665696
H  H57  1  0.20330000  0.74010000  0.16940000  1.0 0.1389100349
H  H58  1  0.79670000  0.24010000  0.83060000  1.0 0.1389100349
H  H59  1  0.09250000  0.91860000  0.83740000  1.0 0.1111443194
H  H60  1  0.90750000  0.41860000  0.16260000  1.0 0.1111443194
H  H61  1  0.01700000  0.01380000  0.79900000  1.0 0.1283932017
H  H62  1  0.98300000  0.51380000  0.20100000  1.0 0.1283932017
H  H63  1  0.83770000  0.01390000  0.75470000  1.0 0.1111443194
H  H64  1  0.16230000  0.51390000  0.24530000  1.0 0.1111443194
H  H65  1  0.74090000  0.92380000  0.74770000  1.0 0.1203368704
H  H66  1  0.25910000  0.42380000  0.25230000  1.0 0.1203368704
H  H67  1  0.82140000  0.83430000  0.78190000  1.0 0.1111443194
H  H68  1  0.17860000  0.33430000  0.21810000  1.0 0.1111443194
H  H69  1  0.03250000  0.02050000  0.77940000  1.0 0.1283932017
H  H70  1  0.96750000  0.52050000  0.22060000  1.0 0.1283932017
H  H71  1  0.03660000  0.92020000  0.71880000  1.0 0.1111443194
H  H72  1  0.96340000  0.42020000  0.28120000  1.0 0.1111443194
H  H73  1  0.87830000  0.86840000  0.70780000  1.0 0.1203368704
H  H74  1  0.12170000  0.36840000  0.29220000  1.0 0.1203368704
H  H75  1  0.72620000  0.91420000  0.75640000  1.0 0.1203368704
H  H76  1  0.27380000  0.41420000  0.24360000  1.0 0.1203368704
H  H77  1  0.73120000  0.00990000  0.81770000  1.0 0.1111443194
H  H78  1  0.26880000  0.50990000  0.18230000  1.0 0.1111443194
C  C1  1  0.76300000  0.64510000  0.57510000  1.0 0.5780891686
C  C2  1  0.96950000  0.65030000  0.39420000  1.0 0.5674332886
C  C3  1  0.77200000  0.63610000  0.18410000  1.0 0.5780891686
C  C4  1  0.57790000  0.63410000  0.36820000  1.0 0.586421123
C  C5  1  0.80570000  0.82840000  0.44860000  1.0 0.1001054926
C  C6  1  0.81210000  0.89070000  0.44940000  1.0 -0.2417277125
C  C7  1  0.77830000  0.92020000  0.36030000  1.0 0.2250792294
C  C8  1  0.73690000  0.88950000  0.27520000  1.0 -0.201656861
C  C9  1  0.73410000  0.82740000  0.28160000  1.0 0.1111443194
C  C10  1  0.68610000  0.01440000  0.34860000  1.0 0.4501326739
C  C11  1  0.68860000  0.08110000  0.35320000  1.0 -0.0496910231
C  C12  1  0.59920000  0.11220000  0.35500000  1.0 -0.0697073133
C  C13  1  0.60160000  0.17580000  0.35910000  1.0 -0.0900353004
C  C14  1  0.69400000  0.20500000  0.35910000  1.0 -0.0323203489
C  C15  1  0.69500000  0.27120000  0.36570000  1.0 0.3107192724
C  C16  1  0.79130000  0.29940000  0.36800000  1.0 -0.2417277125
C  C17  1  0.88720000  0.26930000  0.36700000  1.0 0.3190541773
C  C18  1  0.88220000  0.20310000  0.35830000  1.0 -0.0323203489
C  C19  1  0.97150000  0.17150000  0.35680000  1.0 -0.0900353004
C  C20  1  0.97010000  0.10830000  0.35420000  1.0 -0.0697073133
C  C21  1  0.87830000  0.07880000  0.35460000  1.0 -0.0591033611
C  C22  1  0.87850000  0.01220000  0.35960000  1.0 0.4501326739
C  C23  1  0.78490000  0.11030000  0.35330000  1.0 0.0367687626
C  C24  1  0.78630000  0.17380000  0.35780000  1.0 0.0292822162
C  C25  1  0.08400000  0.65850000  0.39390000  1.0 -0.0112787985
C  C26  1  0.12710000  0.71610000  0.38760000  1.0 -0.1104107971
C  C27  1  0.22930000  0.72270000  0.38130000  1.0 -0.151169406
C  C28  1  0.29620000  0.67160000  0.38310000  1.0 0.0787936656
C  C29  1  0.40300000  0.67680000  0.37570000  1.0 -0.151169406
C  C30  1  0.46420000  0.62710000  0.37500000  1.0 -0.0112787985
C  C31  1  0.42050000  0.56870000  0.38030000  1.0 -0.1104107971
C  C32  1  0.31740000  0.56260000  0.38830000  1.0 -0.1828452514
C  C33  1  0.25280000  0.61280000  0.38900000  1.0 0.0689095131
C  C34  1  0.14440000  0.60800000  0.39580000  1.0 -0.2795219214
C  C35  1  0.74960000  0.65200000  0.68740000  1.0 -0.0197630311
C  C36  1  0.71690000  0.70780000  0.72460000  1.0 -0.1191497759
C  C37  1  0.71030000  0.71450000  0.82800000  1.0 -0.1610176836
C  C38  1  0.73920000  0.66710000  0.89730000  1.0 0.0787936656
C  C39  1  0.73820000  0.67400000  0.00490000  1.0 -0.1610176836
C  C40  1  0.76900000  0.62820000  0.07030000  1.0 -0.0197630311
C  C41  1  0.79740000  0.57160000  0.03130000  1.0 -0.1412284525
C  C42  1  0.79680000  0.56340000  0.92810000  1.0 -0.151169406
C  C43  1  0.77030000  0.61140000  0.85860000  1.0 0.0689095131
C  C44  1  0.77370000  0.60490000  0.75210000  1.0 -0.1610176836
C  C45  1  0.84360000  0.45390000  0.45990000  1.0 0.0862925484
C  C46  1  0.84630000  0.39210000  0.45720000  1.0 -0.1828452514
C  C47  1  0.79200000  0.36370000  0.37490000  1.0 0.15963324
C  C48  1  0.73960000  0.39650000  0.29850000  1.0 -0.1650659086
C  C49  1  0.74046000  0.45856000  0.30644000  1.0 0.0787936656
C  C50  1  0.23700000  0.14510000  0.42490000  1.0 0.5780891686
C  C51  1  0.03050000  0.15030000  0.60580000  1.0 0.5674332886
C  C52  1  0.22800000  0.13610000  0.81590000  1.0 0.5780891686
C  C53  1  0.42210000  0.13410000  0.63180000  1.0 0.586421123
C  C54  1  0.19430000  0.32840000  0.55140000  1.0 0.1001054926
C  C55  1  0.18790000  0.39070000  0.55060000  1.0 -0.2417277125
C  C56  1  0.22170000  0.42020000  0.63970000  1.0 0.2250792294
C  C57  1  0.26310000  0.38950000  0.72480000  1.0 -0.201656861
C  C58  1  0.26590000  0.32740000  0.71840000  1.0 0.1111443194
C  C59  1  0.31390000  0.51440000  0.65140000  1.0 0.4501326739
C  C60  1  0.31140000  0.58110000  0.64680000  1.0 -0.0496910231
C  C61  1  0.40080000  0.61220000  0.64500000  1.0 -0.0697073133
C  C62  1  0.39840000  0.67580000  0.64090000  1.0 -0.0900353004
C  C63  1  0.30600000  0.70500000  0.64090000  1.0 -0.0323203489
C  C64  1  0.30500000  0.77120000  0.63430000  1.0 0.3107192724
C  C65  1  0.20870000  0.79940000  0.63200000  1.0 -0.2417277125
C  C66  1  0.11280000  0.76930000  0.63300000  1.0 0.3190541773
C  C67  1  0.11780000  0.70310000  0.64170000  1.0 -0.0323203489
C  C68  1  0.02850000  0.67150000  0.64320000  1.0 -0.0900353004
C  C69  1  0.02990000  0.60830000  0.64580000  1.0 -0.0697073133
C  C70  1  0.12170000  0.57880000  0.64540000  1.0 -0.0591033611
C  C71  1  0.12150000  0.51220000  0.64040000  1.0 0.4501326739
C  C72  1  0.21510000  0.61030000  0.64670000  1.0 0.0367687626
C  C73  1  0.21370000  0.67380000  0.64220000  1.0 0.0292822162
C  C74  1  0.91600000  0.15850000  0.60610000  1.0 -0.0112787985
C  C75  1  0.87290000  0.21610000  0.61240000  1.0 -0.1104107971
C  C76  1  0.77070000  0.22270000  0.61870000  1.0 -0.151169406
C  C77  1  0.70380000  0.17160000  0.61690000  1.0 0.0787936656
C  C78  1  0.59700000  0.17680000  0.62430000  1.0 -0.151169406
C  C79  1  0.53580000  0.12710000  0.62500000  1.0 -0.0112787985
C  C80  1  0.57950000  0.06870000  0.61970000  1.0 -0.1104107971
C  C81  1  0.68260000  0.06260000  0.61170000  1.0 -0.1828452514
C  C82  1  0.74720000  0.11280000  0.61100000  1.0 0.0689095131
C  C83  1  0.85560000  0.10800000  0.60420000  1.0 -0.2795219214
C  C84  1  0.25040000  0.15200000  0.31260000  1.0 -0.0197630311
C  C85  1  0.28310000  0.20780000  0.27540000  1.0 -0.1191497759
C  C86  1  0.28970000  0.21450000  0.17200000  1.0 -0.1610176836
C  C87  1  0.26080000  0.16710000  0.10270000  1.0 0.0787936656
C  C88  1  0.26180000  0.17400000  0.99510000  1.0 -0.1610176836
C  C89  1  0.23100000  0.12820000  0.92970000  1.0 -0.0197630311
C  C90  1  0.20260000  0.07160000  0.96870000  1.0 -0.1412284525
C  C91  1  0.20320000  0.06340000  0.07190000  1.0 -0.151169406
C  C92  1  0.22970000  0.11140000  0.14140000  1.0 0.0689095131
C  C93  1  0.22630000  0.10490000  0.24790000  1.0 -0.1610176836
C  C94  1  0.15640000  0.95390000  0.54010000  1.0 0.0862925484
C  C95  1  0.15370000  0.89210000  0.54280000  1.0 -0.1828452514
C  C96  1  0.20800000  0.86370000  0.62510000  1.0 0.15963324
C  C97  1  0.26040000  0.89650000  0.70150000  1.0 -0.1610176836
C  C98  1  0.25954000  0.95856000  0.69356000  1.0 0.0787936656
C  C99  1  0.17082000  0.75410000  0.01624000  1.0 0.0689095131
C  C100  1  0.82918000  0.25410000  0.98376000  1.0 0.0689095131
C  C101  1  0.11528000  0.73434000  0.92781000  1.0 -0.1412284525
C  C102  1  0.88472000  0.23434000  0.07219000  1.0 -0.1336207034
C  C103  1  0.05514000  0.68368000  0.93376000  1.0 -0.0832422019
C  C104  1  0.94486000  0.18368000  0.06624000  1.0 -0.0832422019
C  C105  1  0.05114000  0.65413000  0.02637000  1.0 -0.1191497759
C  C106  1  0.94886000  0.15413000  0.97363000  1.0 -0.1191497759
C  C107  1  0.10655000  0.67523000  0.11418000  1.0 0.0183147195
C  C108  1  0.89345000  0.17523000  0.88582000  1.0 0.0183147195
C  C109  1  0.16725000  0.72582000  0.10993000  1.0 -0.1610176836
C  C110  1  0.83275000  0.22582000  0.89007000  1.0 -0.1610176836
C  C111  1  0.96581000  0.86878000  0.81077000  1.0 -0.0043792536
C  C112  1  0.03419000  0.36878000  0.18923000  1.0 -0.0112787985
C  C113  1  0.02442000  0.92055000  0.81828000  1.0 -0.1828452514
C  C114  1  0.97558000  0.42055000  0.18172000  1.0 -0.1828452514
C  C115  1  0.97529000  0.97464000  0.79737000  1.0 -0.0197630311
C  C116  1  0.02471000  0.47464000  0.20263000  1.0 -0.0197630311
C  C117  1  0.87015000  0.97623000  0.77008000  1.0 0.0183147195
C  C118  1  0.12985000  0.47623000  0.22992000  1.0 0.0183147195
C  C119  1  0.81288000  0.92380000  0.76426000  1.0 -0.0697073133
C  C120  1  0.18712000  0.42380000  0.23574000  1.0 -0.0697073133
C  C121  1  0.86050000  0.86920000  0.78482000  1.0 -0.1104107971
C  C122  1  0.13950000  0.36920000  0.21518000  1.0 -0.1104107971
C  C123  1  0.88430000  0.02331000  0.80593000  1.0 0.000851352
C  C124  1  0.11570000  0.52331000  0.19407000  1.0 0.000851352
C  C125  1  0.97407000  0.99866000  0.77577000  1.0 -0.0591033611
C  C126  1  0.02593000  0.49866000  0.22423000  1.0 -0.0591033611
C  C127  1  0.97058000  0.94060000  0.73881000  1.0 -0.0323203489
C  C128  1  0.02942000  0.44060000  0.26119000  1.0 -0.0323203489
C  C129  1  0.87905000  0.90864000  0.73230000  1.0 -0.0112787985
C  C130  1  0.12095000  0.40864000  0.26770000  1.0 -0.0197630311
C  C131  1  0.78985000  0.93457000  0.76187000  1.0 -0.0982225981
C  C132  1  0.21015000  0.43457000  0.23813000  1.0 -0.0982225981
C  C133  1  0.79162000  0.99260000  0.79912000  1.0 -0.1104107971
C  C134  1  0.20838000  0.49260000  0.20088000  1.0 -0.1104107971
N  N1  1  0.76640000  0.79770000  0.36700000  1.0 -0.201656861
N  N2  1  0.78090000  0.98570000  0.35850000  1.0 -0.2294871972
N  N3  1  0.79180000  0.48640000  0.38660000  1.0 -0.222696075
N  N4  1  0.23360000  0.29770000  0.63300000  1.0 -0.201656861
N  N5  1  0.21910000  0.48570000  0.64150000  1.0 -0.2294871972
N  N6  1  0.20820000  0.98640000  0.61340000  1.0 -0.222696075
N  N7  1  0.23484000  0.80763000  0.01039000  1.0 0.4924656509
N  N8  1  0.76516000  0.30763000  0.98961000  1.0 0.4924656509
N  N9  1  0.01740000  0.81137000  0.83256000  1.0 0.167780517
N  N10  1  0.98260000  0.31137000  0.16744000  1.0 0.167780517
N  N11  1  0.88754000  0.08470000  0.84537000  1.0 0.1283932017
N  N12  1  0.11246000  0.58470000  0.15463000  1.0 0.1203368704
O  O1  1  0.76250000  0.69290000  0.52310000  1.0 -0.5500373832
O  O2  1  0.77400000  0.59350000  0.54040000  1.0 -0.5212038697
O  O3  1  0.91570000  0.69720000  0.37990000  1.0 -0.5500373832
O  O4  1  0.93670000  0.59890000  0.40770000  1.0 -0.5289439649
O  O5  1  0.75720000  0.68800000  0.21680000  1.0 -0.5289439649
O  O6  1  0.78860000  0.59030000  0.23790000  1.0 -0.5500373832
O  O7  1  0.61090000  0.68570000  0.36150000  1.0 -0.5212038697
O  O8  1  0.62970000  0.58710000  0.36930000  1.0 -0.5383552404
O  O9  1  0.60570000  0.98620000  0.34300000  1.0 -0.4094921689
O  O10  1  0.61730000  0.30120000  0.36720000  1.0 -0.396597156
O  O11  1  0.96720000  0.29740000  0.37050000  1.0 -0.4094921689
O  O12  1  0.95540000  0.98210000  0.36350000  1.0 -0.4094921689
O  O13  1  0.23750000  0.19290000  0.47690000  1.0 -0.5500373832
O  O14  1  0.22600000  0.09350000  0.45960000  1.0 -0.5212038697
O  O15  1  0.08430000  0.19720000  0.62010000  1.0 -0.5500373832
O  O16  1  0.06330000  0.09890000  0.59230000  1.0 -0.5289439649
O  O17  1  0.24280000  0.18800000  0.78320000  1.0 -0.5289439649
O  O18  1  0.21140000  0.09030000  0.76210000  1.0 -0.5500373832
O  O19  1  0.38910000  0.18570000  0.63850000  1.0 -0.5212038697
O  O20  1  0.37030000  0.08710000  0.63070000  1.0 -0.5383552404
O  O21  1  0.39430000  0.48620000  0.65700000  1.0 -0.4094921689
O  O22  1  0.38270000  0.80120000  0.63280000  1.0 -0.396597156
O  O23  1  0.03280000  0.79740000  0.62950000  1.0 -0.4094921689
O  O24  1  0.04460000  0.48210000  0.63650000  1.0 -0.4094921689
O  O25  1  0.28102000  0.82621000  0.08923000  1.0 -0.310845861
O  O26  1  0.71898000  0.32621000  0.91077000  1.0 -0.310845861
O  O27  1  0.23976000  0.83166000  0.92677000  1.0 -0.2473687471
O  O28  1  0.76024000  0.33166000  0.07323000  1.0 -0.2417277125
O  O29  1  0.96496000  0.76591000  0.82934000  1.0 -0.3175926597
O  O30  1  0.03504000  0.26591000  0.17066000  1.0 -0.3175926597
O  O31  1  0.11106000  0.81108000  0.85303000  1.0 -0.1412284525
O  O32  1  0.88894000  0.31108000  0.14697000  1.0 -0.1412284525
O  O33  1  0.80745000  0.10711000  0.86863000  1.0 -0.2417277125
O  O34  1  0.19255000  0.60711000  0.13137000  1.0 -0.2417277125
O  O35  1  0.97032000  0.11120000  0.85364000  1.0 -0.0982225981
O  O36  1  0.02968000  0.61120000  0.14636000  1.0 -0.0982225981
