# DDEC6 charges by PACMAN v1.1 (https://github.com/mtap-research/PACMAN-charge/)
data_MUPGEM_FSR_pacman
_symmetry_space_group_name_H-M   'P 1'
_cell_length_a   7.71340000
_cell_length_b   19.58660000
_cell_length_c   21.91310000
_cell_angle_alpha   90.00000000
_cell_angle_beta   90.00000000
_cell_angle_gamma   90.00000000
_symmetry_Int_Tables_number   1
_chemical_formula_structural   AmH18C12O7
_chemical_formula_sum   'Am8 H144 C96 O56'
_cell_volume   3310.61538021
_cell_formula_units_Z   8
loop_
 _symmetry_equiv_pos_site_id
 _symmetry_equiv_pos_as_xyz
  1  'x, y, z'
loop_
 _atom_site_type_symbol
 _atom_site_label
 _atom_site_symmetry_multiplicity
 _atom_site_fract_x
 _atom_site_fract_y
 _atom_site_fract_z
 _atom_site_occupancy
 _atom_site_charge
Am  Am1  1  0.42644000  0.55460000  0.71878000  1.0 1.5799446378
Am  Am2  1  0.07356000  0.05460000  0.78122000  1.0 1.5799446378
Am  Am3  1  0.42644000  0.94540000  0.28122000  1.0 1.5799446378
Am  Am4  1  0.07356000  0.44540000  0.21878000  1.0 1.5799446378
Am  Am5  1  0.57356000  0.44540000  0.28122000  1.0 1.5799446378
Am  Am6  1  0.92644000  0.94540000  0.21878000  1.0 1.5799446378
Am  Am7  1  0.57356000  0.05460000  0.71878000  1.0 1.5799446378
Am  Am8  1  0.92644000  0.55460000  0.78122000  1.0 1.5799446378
H  H1  1  0.53337000  0.35838000  0.76886000  1.0 0.0984948031
H  H2  1  0.45703000  0.40724000  0.81902000  1.0 0.118598281
H  H3  1  0.38600000  0.58594000  0.94037000  1.0 0.118598281
H  H4  1  0.57686000  0.60410000  0.95975000  1.0 0.118598281
H  H5  1  0.64592000  0.48613000  0.96238000  1.0 0.0984948031
H  H6  1  0.45481000  0.46838000  0.94383000  1.0 0.0934605535
H  H7  1  0.49259000  0.30799000  0.85835000  1.0 0.0619179999
H  H8  1  0.61148000  0.36106000  0.89074000  1.0 0.0426638184
H  H9  1  0.86252000  0.30642000  0.83484000  1.0 0.077001135
H  H10  1  0.78222000  0.26173000  0.88757000  1.0 0.077001135
H  H11  1  0.69034000  0.25102000  0.76295000  1.0 0.077001135
H  H12  1  0.59691000  0.20948000  0.81462000  1.0 0.0712639156
H  H13  1  0.72993000  0.34632000  0.88794000  1.0 0.0619179999
H  H14  1  0.54579000  0.30817000  0.88806000  1.0 0.0466737759
H  H15  1  0.61550000  0.27841000  0.77269000  1.0 0.0712639156
H  H16  1  0.81103000  0.29509000  0.78852000  1.0 0.0619179999
H  H17  1  0.76239000  0.21504000  0.87638000  1.0 0.0984948031
H  H18  1  0.60922000  0.18676000  0.83594000  1.0 0.077001135
H  H19  1  0.96663000  0.85838000  0.73114000  1.0 0.0984948031
H  H20  1  0.04297000  0.90724000  0.68098000  1.0 0.118598281
H  H21  1  0.11400000  0.08594000  0.55963000  1.0 0.118598281
H  H22  1  0.92314000  0.10410000  0.54025000  1.0 0.118598281
H  H23  1  0.85408000  0.98613000  0.53762000  1.0 0.0984948031
H  H24  1  0.04519000  0.96838000  0.55617000  1.0 0.0934605535
H  H25  1  0.00741000  0.80799000  0.64165000  1.0 0.0619179999
H  H26  1  0.88852000  0.86106000  0.60926000  1.0 0.0426638184
H  H27  1  0.63748000  0.80642000  0.66516000  1.0 0.077001135
H  H28  1  0.71778000  0.76173000  0.61243000  1.0 0.077001135
H  H29  1  0.80966000  0.75102000  0.73705000  1.0 0.077001135
H  H30  1  0.90309000  0.70948000  0.68538000  1.0 0.0712639156
H  H31  1  0.77007000  0.84632000  0.61206000  1.0 0.0619179999
H  H32  1  0.95421000  0.80817000  0.61194000  1.0 0.0466737759
H  H33  1  0.88450000  0.77841000  0.72731000  1.0 0.0712639156
H  H34  1  0.68897000  0.79509000  0.71148000  1.0 0.0619179999
H  H35  1  0.73761000  0.71504000  0.62362000  1.0 0.0984948031
H  H36  1  0.89078000  0.68676000  0.66406000  1.0 0.077001135
H  H37  1  0.53337000  0.14162000  0.23114000  1.0 0.0984948031
H  H38  1  0.45703000  0.09276000  0.18098000  1.0 0.118598281
H  H39  1  0.38600000  0.91406000  0.05963000  1.0 0.118598281
H  H40  1  0.57686000  0.89590000  0.04025000  1.0 0.118598281
H  H41  1  0.64592000  0.01387000  0.03762000  1.0 0.0984948031
H  H42  1  0.45481000  0.03162000  0.05617000  1.0 0.0934605535
H  H43  1  0.49259000  0.19201000  0.14165000  1.0 0.0619179999
H  H44  1  0.61148000  0.13894000  0.10926000  1.0 0.0426638184
H  H45  1  0.86252000  0.19358000  0.16516000  1.0 0.077001135
H  H46  1  0.78222000  0.23827000  0.11243000  1.0 0.077001135
H  H47  1  0.69034000  0.24898000  0.23705000  1.0 0.077001135
H  H48  1  0.59691000  0.29052000  0.18538000  1.0 0.0712639156
H  H49  1  0.72993000  0.15368000  0.11206000  1.0 0.0619179999
H  H50  1  0.54579000  0.19183000  0.11194000  1.0 0.0466737759
H  H51  1  0.61550000  0.22159000  0.22731000  1.0 0.0712639156
H  H52  1  0.81103000  0.20491000  0.21148000  1.0 0.0619179999
H  H53  1  0.76239000  0.28496000  0.12362000  1.0 0.0984948031
H  H54  1  0.60922000  0.31324000  0.16406000  1.0 0.077001135
H  H55  1  0.96663000  0.64162000  0.26886000  1.0 0.0984948031
H  H56  1  0.04297000  0.59276000  0.31902000  1.0 0.118598281
H  H57  1  0.11400000  0.41406000  0.44037000  1.0 0.118598281
H  H58  1  0.92314000  0.39590000  0.45975000  1.0 0.118598281
H  H59  1  0.85408000  0.51387000  0.46238000  1.0 0.0984948031
H  H60  1  0.04519000  0.53162000  0.44383000  1.0 0.0934605535
H  H61  1  0.00741000  0.69201000  0.35835000  1.0 0.0619179999
H  H62  1  0.88852000  0.63894000  0.39074000  1.0 0.0426638184
H  H63  1  0.63748000  0.69358000  0.33484000  1.0 0.077001135
H  H64  1  0.71778000  0.73827000  0.38757000  1.0 0.077001135
H  H65  1  0.80966000  0.74898000  0.26295000  1.0 0.077001135
H  H66  1  0.90309000  0.79052000  0.31462000  1.0 0.0712639156
H  H67  1  0.77007000  0.65368000  0.38794000  1.0 0.0619179999
H  H68  1  0.95421000  0.69183000  0.38806000  1.0 0.0466737759
H  H69  1  0.88450000  0.72159000  0.27269000  1.0 0.0712639156
H  H70  1  0.68897000  0.70491000  0.28852000  1.0 0.0619179999
H  H71  1  0.73761000  0.78496000  0.37638000  1.0 0.0984948031
H  H72  1  0.89078000  0.81324000  0.33594000  1.0 0.077001135
H  H73  1  0.46663000  0.64162000  0.23114000  1.0 0.0984948031
H  H74  1  0.54297000  0.59276000  0.18098000  1.0 0.118598281
H  H75  1  0.61400000  0.41406000  0.05963000  1.0 0.118598281
H  H76  1  0.42314000  0.39590000  0.04025000  1.0 0.118598281
H  H77  1  0.35408000  0.51387000  0.03762000  1.0 0.0984948031
H  H78  1  0.54519000  0.53162000  0.05617000  1.0 0.0934605535
H  H79  1  0.50741000  0.69201000  0.14165000  1.0 0.0619179999
H  H80  1  0.38852000  0.63894000  0.10926000  1.0 0.0426638184
H  H81  1  0.13748000  0.69358000  0.16516000  1.0 0.077001135
H  H82  1  0.21778000  0.73827000  0.11243000  1.0 0.077001135
H  H83  1  0.30966000  0.74898000  0.23705000  1.0 0.077001135
H  H84  1  0.40309000  0.79052000  0.18538000  1.0 0.0712639156
H  H85  1  0.27007000  0.65368000  0.11206000  1.0 0.0619179999
H  H86  1  0.45421000  0.69183000  0.11194000  1.0 0.0466737759
H  H87  1  0.38450000  0.72159000  0.22731000  1.0 0.0712639156
H  H88  1  0.18897000  0.70491000  0.21148000  1.0 0.0619179999
H  H89  1  0.23761000  0.78496000  0.12362000  1.0 0.0984948031
H  H90  1  0.39078000  0.81324000  0.16406000  1.0 0.077001135
H  H91  1  0.03337000  0.14162000  0.26886000  1.0 0.0984948031
H  H92  1  0.95703000  0.09276000  0.31902000  1.0 0.118598281
H  H93  1  0.88600000  0.91406000  0.44037000  1.0 0.118598281
H  H94  1  0.07686000  0.89590000  0.45975000  1.0 0.118598281
H  H95  1  0.14592000  0.01387000  0.46238000  1.0 0.0984948031
H  H96  1  0.95481000  0.03162000  0.44383000  1.0 0.0934605535
H  H97  1  0.99259000  0.19201000  0.35835000  1.0 0.0619179999
H  H98  1  0.11148000  0.13894000  0.39074000  1.0 0.0426638184
H  H99  1  0.36252000  0.19358000  0.33484000  1.0 0.077001135
H  H100  1  0.28222000  0.23827000  0.38757000  1.0 0.077001135
H  H101  1  0.19034000  0.24898000  0.26295000  1.0 0.077001135
H  H102  1  0.09691000  0.29052000  0.31462000  1.0 0.0712639156
H  H103  1  0.22993000  0.15368000  0.38794000  1.0 0.0619179999
H  H104  1  0.04579000  0.19183000  0.38806000  1.0 0.0466737759
H  H105  1  0.11550000  0.22159000  0.27269000  1.0 0.0712639156
H  H106  1  0.31103000  0.20491000  0.28852000  1.0 0.0619179999
H  H107  1  0.26239000  0.28496000  0.37638000  1.0 0.0984948031
H  H108  1  0.10922000  0.31324000  0.33594000  1.0 0.077001135
H  H109  1  0.46663000  0.85838000  0.76886000  1.0 0.0984948031
H  H110  1  0.54297000  0.90724000  0.81902000  1.0 0.118598281
H  H111  1  0.61400000  0.08594000  0.94037000  1.0 0.118598281
H  H112  1  0.42314000  0.10410000  0.95975000  1.0 0.118598281
H  H113  1  0.35408000  0.98613000  0.96238000  1.0 0.0984948031
H  H114  1  0.54519000  0.96838000  0.94383000  1.0 0.0934605535
H  H115  1  0.50741000  0.80799000  0.85835000  1.0 0.0619179999
H  H116  1  0.38852000  0.86106000  0.89074000  1.0 0.0426638184
H  H117  1  0.13748000  0.80642000  0.83484000  1.0 0.077001135
H  H118  1  0.21778000  0.76173000  0.88757000  1.0 0.077001135
H  H119  1  0.30966000  0.75102000  0.76295000  1.0 0.077001135
H  H120  1  0.40309000  0.70948000  0.81462000  1.0 0.0712639156
H  H121  1  0.27007000  0.84632000  0.88794000  1.0 0.0619179999
H  H122  1  0.45421000  0.80817000  0.88806000  1.0 0.0466737759
H  H123  1  0.38450000  0.77841000  0.77269000  1.0 0.0712639156
H  H124  1  0.18897000  0.79509000  0.78852000  1.0 0.0619179999
H  H125  1  0.23761000  0.71504000  0.87638000  1.0 0.0984948031
H  H126  1  0.39078000  0.68676000  0.83594000  1.0 0.077001135
H  H127  1  0.03337000  0.35838000  0.73114000  1.0 0.0984948031
H  H128  1  0.95703000  0.40724000  0.68098000  1.0 0.118598281
H  H129  1  0.88600000  0.58594000  0.55963000  1.0 0.118598281
H  H130  1  0.07686000  0.60410000  0.54025000  1.0 0.118598281
H  H131  1  0.14592000  0.48613000  0.53762000  1.0 0.0984948031
H  H132  1  0.95481000  0.46838000  0.55617000  1.0 0.0934605535
H  H133  1  0.99259000  0.30799000  0.64165000  1.0 0.0619179999
H  H134  1  0.11148000  0.36106000  0.60926000  1.0 0.0426638184
H  H135  1  0.36252000  0.30642000  0.66516000  1.0 0.077001135
H  H136  1  0.28222000  0.26173000  0.61243000  1.0 0.077001135
H  H137  1  0.19034000  0.25102000  0.73705000  1.0 0.077001135
H  H138  1  0.09691000  0.20948000  0.68538000  1.0 0.0712639156
H  H139  1  0.22993000  0.34632000  0.61206000  1.0 0.0619179999
H  H140  1  0.04579000  0.30817000  0.61194000  1.0 0.0466737759
H  H141  1  0.11550000  0.27841000  0.72731000  1.0 0.0712639156
H  H142  1  0.31103000  0.29509000  0.71148000  1.0 0.0619179999
H  H143  1  0.26239000  0.21504000  0.62362000  1.0 0.0984948031
H  H144  1  0.10922000  0.18676000  0.66406000  1.0 0.077001135
C  C1  1  0.84480000  0.17310000  0.79710000  1.0 0.4694740299
C  C2  1  0.56130000  0.38420000  0.80530000  1.0 -0.2066280451
C  C3  1  0.69930000  0.43580000  0.79120000  1.0 0.5714448515
C  C4  1  0.56190000  0.56800000  0.87210000  1.0 0.609375355
C  C5  1  0.50600000  0.57140000  0.93780000  1.0 -0.2994256977
C  C6  1  0.52610000  0.50060000  0.96620000  1.0 -0.1301213469
C  C7  1  0.59640000  0.33530000  0.85330000  1.0 -0.0874289794
C  C8  1  0.75900000  0.28270000  0.84830000  1.0 -0.0727781051
C  C9  1  0.70650000  0.22960000  0.80240000  1.0 -0.1156969916
C  C10  1  0.63700000  0.32810000  0.86310000  1.0 -0.1144805819
C  C11  1  0.70100000  0.27940000  0.80500000  1.0 -0.0727781051
C  C12  1  0.72000000  0.21030000  0.83490000  1.0 -0.1301213469
C  C13  1  0.65520000  0.67310000  0.70290000  1.0 0.4694740299
C  C14  1  0.93870000  0.88420000  0.69470000  1.0 -0.2066280451
C  C15  1  0.80070000  0.93580000  0.70880000  1.0 0.5714448515
C  C16  1  0.93810000  0.06800000  0.62790000  1.0 0.609375355
C  C17  1  0.99400000  0.07140000  0.56220000  1.0 -0.2994256977
C  C18  1  0.97390000  0.00060000  0.53380000  1.0 -0.1301213469
C  C19  1  0.90360000  0.83530000  0.64670000  1.0 -0.0874289794
C  C20  1  0.74100000  0.78270000  0.65170000  1.0 -0.0727781051
C  C21  1  0.79350000  0.72960000  0.69760000  1.0 -0.1156969916
C  C22  1  0.86300000  0.82810000  0.63690000  1.0 -0.1144805819
C  C23  1  0.79900000  0.77940000  0.69500000  1.0 -0.0727781051
C  C24  1  0.78000000  0.71030000  0.66510000  1.0 -0.1301213469
C  C25  1  0.84480000  0.32690000  0.20290000  1.0 0.4694740299
C  C26  1  0.56130000  0.11580000  0.19470000  1.0 -0.2044825829
C  C27  1  0.69930000  0.06420000  0.20880000  1.0 0.5714448515
C  C28  1  0.56190000  0.93200000  0.12790000  1.0 0.609375355
C  C29  1  0.50600000  0.92860000  0.06220000  1.0 -0.2994256977
C  C30  1  0.52610000  0.99940000  0.03380000  1.0 -0.1301213469
C  C31  1  0.59640000  0.16470000  0.14670000  1.0 -0.0874289794
C  C32  1  0.75900000  0.21730000  0.15170000  1.0 -0.0727781051
C  C33  1  0.70650000  0.27040000  0.19760000  1.0 -0.1156969916
C  C34  1  0.63700000  0.17190000  0.13690000  1.0 -0.1144805819
C  C35  1  0.70100000  0.22060000  0.19500000  1.0 -0.0727781051
C  C36  1  0.72000000  0.28970000  0.16510000  1.0 -0.1301213469
C  C37  1  0.65520000  0.82690000  0.29710000  1.0 0.4694740299
C  C38  1  0.93870000  0.61580000  0.30530000  1.0 -0.2066280451
C  C39  1  0.80070000  0.56420000  0.29120000  1.0 0.5714448515
C  C40  1  0.93810000  0.43200000  0.37210000  1.0 0.609375355
C  C41  1  0.99400000  0.42860000  0.43780000  1.0 -0.2994256977
C  C42  1  0.97390000  0.49940000  0.46620000  1.0 -0.1301213469
C  C43  1  0.90360000  0.66470000  0.35330000  1.0 -0.0874289794
C  C44  1  0.74100000  0.71730000  0.34830000  1.0 -0.0727781051
C  C45  1  0.79350000  0.77040000  0.30240000  1.0 -0.1156969916
C  C46  1  0.86300000  0.67190000  0.36310000  1.0 -0.1144805819
C  C47  1  0.79900000  0.72060000  0.30500000  1.0 -0.0727781051
C  C48  1  0.78000000  0.78970000  0.33490000  1.0 -0.1301213469
C  C49  1  0.15520000  0.82690000  0.20290000  1.0 0.4694740299
C  C50  1  0.43870000  0.61580000  0.19470000  1.0 -0.2066280451
C  C51  1  0.30070000  0.56420000  0.20880000  1.0 0.5714448515
C  C52  1  0.43810000  0.43200000  0.12790000  1.0 0.609375355
C  C53  1  0.49400000  0.42860000  0.06220000  1.0 -0.2994256977
C  C54  1  0.47390000  0.49940000  0.03380000  1.0 -0.1301213469
C  C55  1  0.40360000  0.66470000  0.14670000  1.0 -0.0874289794
C  C56  1  0.24100000  0.71730000  0.15170000  1.0 -0.0727781051
C  C57  1  0.29350000  0.77040000  0.19760000  1.0 -0.1156969916
C  C58  1  0.36300000  0.67190000  0.13690000  1.0 -0.1144805819
C  C59  1  0.29900000  0.72060000  0.19500000  1.0 -0.0727781051
C  C60  1  0.28000000  0.78970000  0.16510000  1.0 -0.1301213469
C  C61  1  0.34480000  0.32690000  0.29710000  1.0 0.4694740299
C  C62  1  0.06130000  0.11580000  0.30530000  1.0 -0.2044825829
C  C63  1  0.19930000  0.06420000  0.29120000  1.0 0.5714448515
C  C64  1  0.06190000  0.93200000  0.37210000  1.0 0.609375355
C  C65  1  0.00600000  0.92860000  0.43780000  1.0 -0.2994256977
C  C66  1  0.02610000  0.99940000  0.46620000  1.0 -0.1301213469
C  C67  1  0.09640000  0.16470000  0.35330000  1.0 -0.0874289794
C  C68  1  0.25900000  0.21730000  0.34830000  1.0 -0.0727781051
C  C69  1  0.20650000  0.27040000  0.30240000  1.0 -0.1156969916
C  C70  1  0.13700000  0.17190000  0.36310000  1.0 -0.1144805819
C  C71  1  0.20100000  0.22060000  0.30500000  1.0 -0.0727781051
C  C72  1  0.22000000  0.28970000  0.33490000  1.0 -0.1301213469
C  C73  1  0.15520000  0.67310000  0.79710000  1.0 0.4694740299
C  C74  1  0.43870000  0.88420000  0.80530000  1.0 -0.2066280451
C  C75  1  0.30070000  0.93580000  0.79120000  1.0 0.5714448515
C  C76  1  0.43810000  0.06800000  0.87210000  1.0 0.609375355
C  C77  1  0.49400000  0.07140000  0.93780000  1.0 -0.2994256977
C  C78  1  0.47390000  0.00060000  0.96620000  1.0 -0.1301213469
C  C79  1  0.40360000  0.83530000  0.85330000  1.0 -0.0874289794
C  C80  1  0.24100000  0.78270000  0.84830000  1.0 -0.0727781051
C  C81  1  0.29350000  0.72960000  0.80240000  1.0 -0.1156969916
C  C82  1  0.36300000  0.82810000  0.86310000  1.0 -0.1144805819
C  C83  1  0.29900000  0.77940000  0.80500000  1.0 -0.0727781051
C  C84  1  0.28000000  0.71030000  0.83490000  1.0 -0.1301213469
C  C85  1  0.34480000  0.17310000  0.70290000  1.0 0.4694740299
C  C86  1  0.06130000  0.38420000  0.69470000  1.0 -0.2044825829
C  C87  1  0.19930000  0.43580000  0.70880000  1.0 0.5714448515
C  C88  1  0.06190000  0.56800000  0.62790000  1.0 0.609375355
C  C89  1  0.00600000  0.57140000  0.56220000  1.0 -0.2994256977
C  C90  1  0.02610000  0.50060000  0.53380000  1.0 -0.1301213469
C  C91  1  0.09640000  0.33530000  0.64670000  1.0 -0.0874289794
C  C92  1  0.25900000  0.28270000  0.65170000  1.0 -0.0727781051
C  C93  1  0.20650000  0.22960000  0.69760000  1.0 -0.1156969916
C  C94  1  0.13700000  0.32810000  0.63690000  1.0 -0.1144805819
C  C95  1  0.20100000  0.27940000  0.69500000  1.0 -0.0727781051
C  C96  1  0.22000000  0.21030000  0.66510000  1.0 -0.1301213469
O  O1  1  0.99270000  0.17480000  0.82000000  1.0 -0.463270669
O  O2  1  0.80460000  0.12420000  0.76130000  1.0 -0.5327177894
O  O3  1  0.83630000  0.43810000  0.82100000  1.0 -0.5177446481
O  O4  1  0.67130000  0.47960000  0.74890000  1.0 -0.6103723224
O  O5  1  0.44750000  0.55540000  0.83180000  1.0 -0.571672241
O  O6  1  0.72080000  0.57460000  0.86150000  1.0 -0.6009348508
O  O7  1  0.61300000  0.53640000  0.62870000  1.0 -0.1729872998
O  O8  1  0.50730000  0.67480000  0.68000000  1.0 -0.463270669
O  O9  1  0.69540000  0.62420000  0.73870000  1.0 -0.5327177894
O  O10  1  0.66370000  0.93810000  0.67900000  1.0 -0.5177446481
O  O11  1  0.82870000  0.97960000  0.75110000  1.0 -0.6103723224
O  O12  1  0.05250000  0.05540000  0.66820000  1.0 -0.571672241
O  O13  1  0.77920000  0.07460000  0.63850000  1.0 -0.6009348508
O  O14  1  0.88700000  0.03640000  0.87130000  1.0 -0.1729872998
O  O15  1  0.99270000  0.32520000  0.18000000  1.0 -0.463270669
O  O16  1  0.80460000  0.37580000  0.23870000  1.0 -0.5327177894
O  O17  1  0.83630000  0.06190000  0.17900000  1.0 -0.5177446481
O  O18  1  0.67130000  0.02040000  0.25110000  1.0 -0.6103723224
O  O19  1  0.44750000  0.94460000  0.16820000  1.0 -0.571672241
O  O20  1  0.72080000  0.92540000  0.13850000  1.0 -0.6009348508
O  O21  1  0.61300000  0.96360000  0.37130000  1.0 -0.1729872998
O  O22  1  0.50730000  0.82520000  0.32000000  1.0 -0.4651775833
O  O23  1  0.69540000  0.87580000  0.26130000  1.0 -0.5327177894
O  O24  1  0.66370000  0.56190000  0.32100000  1.0 -0.5177446481
O  O25  1  0.82870000  0.52040000  0.24890000  1.0 -0.6103723224
O  O26  1  0.05250000  0.44460000  0.33180000  1.0 -0.571672241
O  O27  1  0.77920000  0.42540000  0.36150000  1.0 -0.6009348508
O  O28  1  0.88700000  0.46360000  0.12870000  1.0 -0.1783467905
O  O29  1  0.00730000  0.82520000  0.18000000  1.0 -0.463270669
O  O30  1  0.19540000  0.87580000  0.23870000  1.0 -0.5327177894
O  O31  1  0.16370000  0.56190000  0.17900000  1.0 -0.5177446481
O  O32  1  0.32870000  0.52040000  0.25110000  1.0 -0.6103723224
O  O33  1  0.55250000  0.44460000  0.16820000  1.0 -0.571672241
O  O34  1  0.27920000  0.42540000  0.13850000  1.0 -0.6009348508
O  O35  1  0.38700000  0.46360000  0.37130000  1.0 -0.1783467905
O  O36  1  0.49270000  0.32520000  0.32000000  1.0 -0.463270669
O  O37  1  0.30460000  0.37580000  0.26130000  1.0 -0.5327177894
O  O38  1  0.33630000  0.06190000  0.32100000  1.0 -0.5177446481
O  O39  1  0.17130000  0.02040000  0.24890000  1.0 -0.6103723224
O  O40  1  0.94750000  0.94460000  0.33180000  1.0 -0.571672241
O  O41  1  0.22080000  0.92540000  0.36150000  1.0 -0.6009348508
O  O42  1  0.11300000  0.96360000  0.12870000  1.0 -0.1729872998
O  O43  1  0.00730000  0.67480000  0.82000000  1.0 -0.463270669
O  O44  1  0.19540000  0.62420000  0.76130000  1.0 -0.5327177894
O  O45  1  0.16370000  0.93810000  0.82100000  1.0 -0.5177446481
O  O46  1  0.32870000  0.97960000  0.74890000  1.0 -0.6103723224
O  O47  1  0.55250000  0.05540000  0.83180000  1.0 -0.571672241
O  O48  1  0.27920000  0.07460000  0.86150000  1.0 -0.6009348508
O  O49  1  0.38700000  0.03640000  0.62870000  1.0 -0.1783467905
O  O50  1  0.49270000  0.17480000  0.68000000  1.0 -0.463270669
O  O51  1  0.30460000  0.12420000  0.73870000  1.0 -0.5327177894
O  O52  1  0.33630000  0.43810000  0.67900000  1.0 -0.5177446481
O  O53  1  0.17130000  0.47960000  0.75110000  1.0 -0.6103723224
O  O54  1  0.94750000  0.55540000  0.66820000  1.0 -0.571672241
O  O55  1  0.22080000  0.57460000  0.63850000  1.0 -0.6009348508
O  O56  1  0.11300000  0.53640000  0.87130000  1.0 -0.1729872998
