# DDEC6 charges by PACMAN v1.1 (https://github.com/mtap-research/PACMAN-charge/)
data_MURCAD_FSR_pacman
_symmetry_space_group_name_H-M   'P 1'
_cell_length_a   10.15400000
_cell_length_b   10.15400000
_cell_length_c   15.51210000
_cell_angle_alpha   72.08210000
_cell_angle_beta   107.91800000
_cell_angle_gamma   93.49220000
_symmetry_Int_Tables_number   1
_chemical_formula_structural   CuH7C8(NO3)2
_chemical_formula_sum   'Cu4 H28 C32 N8 O24'
_cell_volume   1446.96810869
_cell_formula_units_Z   4
loop_
 _symmetry_equiv_pos_site_id
 _symmetry_equiv_pos_as_xyz
  1  'x, y, z'
loop_
 _atom_site_type_symbol
 _atom_site_label
 _atom_site_symmetry_multiplicity
 _atom_site_fract_x
 _atom_site_fract_y
 _atom_site_fract_z
 _atom_site_occupancy
 _atom_site_charge
Cu  Cu1  1  0.00801000  0.44601000  0.68648000  1.0 0.9244842563
Cu  Cu2  1  0.44601000  0.00801000  0.81352000  1.0 0.9244842563
Cu  Cu3  1  0.99199000  0.55399000  0.31352000  1.0 0.9256314271
Cu  Cu4  1  0.55399000  0.99199000  0.18648000  1.0 0.9244842563
H  H1  1  0.15400000  0.16200000  0.97400000  1.0 0.138968168
H  H2  1  0.16200000  0.15400000  0.52600000  1.0 0.138968168
H  H3  1  0.84600000  0.83800000  0.02600000  1.0 0.138968168
H  H4  1  0.83800000  0.84600000  0.47400000  1.0 0.138968168
H  H5  1  0.20000000  0.22400000  0.68900000  1.0 0.138968168
H  H6  1  0.22400000  0.20000000  0.81100000  1.0 0.138968168
H  H7  1  0.80000000  0.77600000  0.31100000  1.0 0.138968168
H  H8  1  0.77600000  0.80000000  0.18900000  1.0 0.138968168
H  H9  1  0.25700000  0.57100000  0.62600000  1.0 0.1341396504
H  H10  1  0.57100000  0.25700000  0.87400000  1.0 0.1341396504
H  H11  1  0.74300000  0.42900000  0.37400000  1.0 0.1341396504
H  H12  1  0.42900000  0.74300000  0.12600000  1.0 0.1341396504
H  H13  1  0.23200000  0.42800000  0.59400000  1.0 0.138968168
H  H14  1  0.42800000  0.23200000  0.90600000  1.0 0.138968168
H  H15  1  0.76800000  0.57200000  0.40600000  1.0 0.138968168
H  H16  1  0.57200000  0.76800000  0.09400000  1.0 0.138968168
H  H17  1  0.27800000  0.56200000  0.78300000  1.0 0.138968168
H  H18  1  0.56200000  0.27800000  0.71700000  1.0 0.138968168
H  H19  1  0.72200000  0.43800000  0.21700000  1.0 0.138968168
H  H20  1  0.43800000  0.72200000  0.28300000  1.0 0.138968168
H  H21  1  0.24900000  0.40300000  0.84600000  1.0 0.138968168
H  H22  1  0.40300000  0.24900000  0.65400000  1.0 0.138968168
H  H23  1  0.75100000  0.59700000  0.15400000  1.0 0.138968168
H  H24  1  0.59700000  0.75100000  0.34600000  1.0 0.138968168
H  H25  1  0.48400000  0.59800000  0.72700000  1.0 0.138968168
H  H26  1  0.59800000  0.48400000  0.77300000  1.0 0.138968168
H  H27  1  0.51600000  0.40200000  0.27300000  1.0 0.138968168
H  H28  1  0.40200000  0.51600000  0.22700000  1.0 0.138968168
C  C1  1  0.96180000  0.12040000  0.92330000  1.0 -0.0334854304
C  C2  1  0.12040000  0.96180000  0.57670000  1.0 -0.0334854304
C  C3  1  0.03820000  0.87960000  0.07670000  1.0 -0.0350766248
C  C4  1  0.87960000  0.03820000  0.42330000  1.0 -0.0350766248
C  C5  1  0.86500000  0.01920000  0.93890000  1.0 -0.0036169226
C  C6  1  0.01920000  0.86500000  0.56110000  1.0 -0.0036169226
C  C7  1  0.13500000  0.98080000  0.06110000  1.0 -0.0036169226
C  C8  1  0.98080000  0.13500000  0.43890000  1.0 -0.0036169226
C  C9  1  0.09450000  0.09810000  0.98410000  1.0 -0.0907939496
C  C10  1  0.09810000  0.09450000  0.51590000  1.0 -0.0907939496
C  C11  1  0.90550000  0.90190000  0.01590000  1.0 -0.0907939496
C  C12  1  0.90190000  0.90550000  0.48410000  1.0 -0.0907939496
C  C13  1  0.92250000  0.25290000  0.84370000  1.0 0.5860699051
C  C14  1  0.25290000  0.92250000  0.65630000  1.0 0.5860699051
C  C15  1  0.07750000  0.74710000  0.15630000  1.0 0.5860699051
C  C16  1  0.74710000  0.07750000  0.34370000  1.0 0.5860699051
C  C17  1  0.72050000  0.03170000  0.87150000  1.0 0.5442357594
C  C18  1  0.03170000  0.72050000  0.62850000  1.0 0.5442357594
C  C19  1  0.27950000  0.96830000  0.12850000  1.0 0.5442357594
C  C20  1  0.96830000  0.27950000  0.37150000  1.0 0.5442357594
C  C21  1  0.25090000  0.25090000  0.75000000  1.0 -0.0539581767
C  C22  1  0.74910000  0.74910000  0.25000000  1.0 -0.0539581767
C  C23  1  0.27630000  0.47150000  0.64120000  1.0 -0.0211959524
C  C24  1  0.47150000  0.27630000  0.85880000  1.0 -0.0211959524
C  C25  1  0.72370000  0.52850000  0.35880000  1.0 -0.0211959524
C  C26  1  0.52850000  0.72370000  0.14120000  1.0 -0.0211959524
C  C27  1  0.29540000  0.45300000  0.80360000  1.0 -0.0211959524
C  C28  1  0.45300000  0.29540000  0.69640000  1.0 -0.0211959524
C  C29  1  0.70460000  0.54700000  0.19640000  1.0 -0.0211959524
C  C30  1  0.54700000  0.70460000  0.30360000  1.0 -0.0211959524
C  C31  1  0.49420000  0.49420000  0.75000000  1.0 -0.0128990347
C  C32  1  0.50580000  0.50580000  0.25000000  1.0 -0.0128990347
N  N1  1  0.21930000  0.40290000  0.72140000  1.0 -0.1837012237
N  N2  1  0.40290000  0.21930000  0.77860000  1.0 -0.1837012237
N  N3  1  0.78070000  0.59710000  0.27860000  1.0 -0.1837012237
N  N4  1  0.59710000  0.78070000  0.22140000  1.0 -0.1837012237
N  N5  1  0.42500000  0.44300000  0.66870000  1.0 -0.0956562004
N  N6  1  0.44300000  0.42500000  0.83130000  1.0 -0.0956562004
N  N7  1  0.57500000  0.55700000  0.33130000  1.0 -0.0956562004
N  N8  1  0.55700000  0.57500000  0.16870000  1.0 -0.0956562004
O  O1  1  0.01160000  0.29620000  0.80090000  1.0 -0.5160419709
O  O2  1  0.29620000  0.01160000  0.69910000  1.0 -0.5160419709
O  O3  1  0.98840000  0.70380000  0.19910000  1.0 -0.5160419709
O  O4  1  0.70380000  0.98840000  0.30090000  1.0 -0.5160419709
O  O5  1  0.81100000  0.31360000  0.82690000  1.0 -0.457428909
O  O6  1  0.31360000  0.81100000  0.67310000  1.0 -0.457428909
O  O7  1  0.18900000  0.68640000  0.17310000  1.0 -0.457428909
O  O8  1  0.68640000  0.18900000  0.32690000  1.0 -0.457428909
O  O9  1  0.62350000  0.01370000  0.91080000  1.0 -0.4806934437
O  O10  1  0.01370000  0.62350000  0.58920000  1.0 -0.4806934437
O  O11  1  0.37650000  0.98630000  0.08920000  1.0 -0.4806934437
O  O12  1  0.98630000  0.37650000  0.41080000  1.0 -0.4806934437
O  O13  1  0.70040000  0.05380000  0.78690000  1.0 -0.4904012746
O  O14  1  0.05380000  0.70040000  0.71310000  1.0 -0.4904012746
O  O15  1  0.29960000  0.94620000  0.21310000  1.0 -0.4904012746
O  O16  1  0.94620000  0.29960000  0.28690000  1.0 -0.4904012746
O  O17  1  0.95270000  0.31890000  0.58910000  1.0 -0.3094761512
O  O18  1  0.31890000  0.95270000  0.91090000  1.0 -0.3094761512
O  O19  1  0.04730000  0.68110000  0.41090000  1.0 -0.3094761512
O  O20  1  0.68110000  0.04730000  0.08910000  1.0 -0.3094761512
O  O21  1  0.81050000  0.49230000  0.66590000  1.0 -0.2846056786
O  O22  1  0.49230000  0.81050000  0.83410000  1.0 -0.2846056786
O  O23  1  0.18950000  0.50770000  0.33410000  1.0 -0.2846056786
O  O24  1  0.50770000  0.18950000  0.16590000  1.0 -0.2866381175
