# DDEC6 charges by PACMAN v1.1 (https://github.com/mtap-research/PACMAN-charge/)
data_MURQEY_FSR_pacman
_symmetry_space_group_name_H-M   'P 1'
_cell_length_a   7.42780000
_cell_length_b   12.15100000
_cell_length_c   14.29530000
_cell_angle_alpha   90.00000000
_cell_angle_beta   90.00000000
_cell_angle_gamma   90.00000000
_symmetry_Int_Tables_number   1
_chemical_formula_structural   FePdC4(N2O)2
_chemical_formula_sum   'Fe4 Pd4 C16 N16 O8'
_cell_volume   1290.22512911
_cell_formula_units_Z   4
loop_
 _symmetry_equiv_pos_site_id
 _symmetry_equiv_pos_as_xyz
  1  'x, y, z'
loop_
 _atom_site_type_symbol
 _atom_site_label
 _atom_site_symmetry_multiplicity
 _atom_site_fract_x
 _atom_site_fract_y
 _atom_site_fract_z
 _atom_site_occupancy
 _atom_site_charge
Fe  Fe1  1  0.50000000  0.00000000  0.00000000  1.0 1.1475290414
Fe  Fe2  1  0.50000000  0.00000000  0.50000000  1.0 1.1475290414
Fe  Fe3  1  0.00000000  0.50000000  0.00000000  1.0 1.1608351227
Fe  Fe4  1  0.00000000  0.50000000  0.50000000  1.0 1.1608351227
Pd  Pd1  1  0.98997000  0.93733000  0.75000000  1.0 -0.0282164868
Pd  Pd2  1  0.01003000  0.06267000  0.25000000  1.0 -0.0415919144
Pd  Pd3  1  0.48997000  0.56267000  0.25000000  1.0 -0.0203428417
Pd  Pd4  1  0.51003000  0.43733000  0.75000000  1.0 -0.0203428417
C  C1  1  0.80060000  0.92940000  0.84870000  1.0 0.2612744737
C  C2  1  0.82160000  0.04330000  0.15260000  1.0 0.252933396
C  C3  1  0.19940000  0.07060000  0.34870000  1.0 0.2612744737
C  C4  1  0.17840000  0.95670000  0.65260000  1.0 0.252933396
C  C5  1  0.19940000  0.07060000  0.15130000  1.0 0.2612744737
C  C6  1  0.17840000  0.95670000  0.84740000  1.0 0.252933396
C  C7  1  0.80060000  0.92940000  0.65130000  1.0 0.2612744737
C  C8  1  0.82160000  0.04330000  0.34740000  1.0 0.252933396
C  C9  1  0.30060000  0.57060000  0.15130000  1.0 0.2612744737
C  C10  1  0.32160000  0.45670000  0.84740000  1.0 0.252933396
C  C11  1  0.69940000  0.42940000  0.65130000  1.0 0.2612744737
C  C12  1  0.67840000  0.54330000  0.34740000  1.0 0.252933396
C  C13  1  0.69940000  0.42940000  0.84870000  1.0 0.2612744737
C  C14  1  0.67840000  0.54330000  0.15260000  1.0 0.252933396
C  C15  1  0.30060000  0.57060000  0.34870000  1.0 0.2612744737
C  C16  1  0.32160000  0.45670000  0.65260000  1.0 0.252933396
N  N1  1  0.69300000  0.93230000  0.90470000  1.0 -0.3821125869
N  N2  1  0.71330000  0.02870000  0.09780000  1.0 -0.3983538281
N  N3  1  0.30700000  0.06770000  0.40470000  1.0 -0.3883606189
N  N4  1  0.28670000  0.97130000  0.59780000  1.0 -0.3983538281
N  N5  1  0.30700000  0.06770000  0.09530000  1.0 -0.3883606189
N  N6  1  0.28670000  0.97130000  0.90220000  1.0 -0.3983538281
N  N7  1  0.69300000  0.93230000  0.59530000  1.0 -0.3821125869
N  N8  1  0.71330000  0.02870000  0.40220000  1.0 -0.3983538281
N  N9  1  0.19300000  0.56770000  0.09530000  1.0 -0.3883606189
N  N10  1  0.21330000  0.47130000  0.90220000  1.0 -0.3983538281
N  N11  1  0.80700000  0.43230000  0.59530000  1.0 -0.3883606189
N  N12  1  0.78670000  0.52870000  0.40220000  1.0 -0.3983538281
N  N13  1  0.80700000  0.43230000  0.90470000  1.0 -0.3883606189
N  N14  1  0.78670000  0.52870000  0.09780000  1.0 -0.3983538281
N  N15  1  0.19300000  0.56770000  0.40470000  1.0 -0.3883606189
N  N16  1  0.21330000  0.47130000  0.59780000  1.0 -0.3983538281
O  O1  1  0.43950000  0.84070000  0.05991000  1.0 -0.2795212064
O  O2  1  0.56050000  0.15930000  0.55991000  1.0 -0.291000897
O  O3  1  0.56050000  0.15930000  0.94009000  1.0 -0.291000897
O  O4  1  0.43950000  0.84070000  0.44009000  1.0 -0.2795212064
O  O5  1  0.93950000  0.65930000  0.94009000  1.0 -0.2994083706
O  O6  1  0.06050000  0.34070000  0.44009000  1.0 -0.2994083706
O  O7  1  0.06050000  0.34070000  0.05991000  1.0 -0.2994083706
O  O8  1  0.93950000  0.65930000  0.55991000  1.0 -0.2994083706
