# DDEC6 charges by PACMAN v1.1 (https://github.com/mtap-research/PACMAN-charge/)
data_MUTCEL_FSR_pacman
_symmetry_space_group_name_H-M   'P 1'
_cell_length_a   21.05240000
_cell_length_b   21.05240000
_cell_length_c   21.05240000
_cell_angle_alpha   134.86600000
_cell_angle_beta   111.35500000
_cell_angle_gamma   86.00960000
_symmetry_Int_Tables_number   1
_chemical_formula_structural   Co2H39C38N7(O4F)3
_chemical_formula_sum   'Co8 H156 C152 N28 O48 F12'
_cell_volume   5905.89831083
_cell_formula_units_Z   4
loop_
 _symmetry_equiv_pos_site_id
 _symmetry_equiv_pos_as_xyz
  1  'x, y, z'
loop_
 _atom_site_type_symbol
 _atom_site_label
 _atom_site_symmetry_multiplicity
 _atom_site_fract_x
 _atom_site_fract_y
 _atom_site_fract_z
 _atom_site_occupancy
 _atom_site_charge
Co  Co1  1  0.81744000  0.37872000  0.94528000  1.0 1.0264717136
Co  Co2  1  0.43344000  0.87216000  0.05472000  1.0 1.0264717136
Co  Co3  1  0.56656000  0.62128000  0.43872000  1.0 1.0264717136
Co  Co4  1  0.18256000  0.12784000  0.56128000  1.0 1.0264717136
Co  Co5  1  0.79775000  0.46485000  0.84428000  1.0 0.9630325381
Co  Co6  1  0.62057000  0.95347000  0.15572000  1.0 0.9630325381
Co  Co7  1  0.37943000  0.53515000  0.33290000  1.0 0.9630325381
Co  Co8  1  0.20225000  0.04653000  0.66710000  1.0 0.9630325381
H  H1  1  0.98090000  0.25440000  0.85750000  1.0 0.1205284503
H  H2  1  0.39690000  0.12340000  0.14250000  1.0 0.1205284503
H  H3  1  0.60310000  0.74560000  0.72650000  1.0 0.1205284503
H  H4  1  0.01910000  0.87660000  0.27350000  1.0 0.1205284503
H  H5  1  0.06630000  0.18850000  0.80160000  1.0 0.1308186575
H  H6  1  0.38690000  0.26470000  0.19840000  1.0 0.1308186575
H  H7  1  0.61310000  0.81150000  0.87780000  1.0 0.1308186575
H  H8  1  0.93370000  0.73530000  0.12220000  1.0 0.1308186575
H  H9  1  0.04300000  0.28810000  0.68990000  1.0 0.1205284503
H  H10  1  0.59820000  0.35310000  0.31010000  1.0 0.1205284503
H  H11  1  0.40180000  0.71190000  0.75490000  1.0 0.1205284503
H  H12  1  0.95700000  0.64690000  0.24510000  1.0 0.1205284503
H  H13  1  0.95820000  0.35570000  0.74750000  1.0 0.1205284503
H  H14  1  0.60820000  0.21070000  0.25250000  1.0 0.1205284503
H  H15  1  0.39180000  0.64430000  0.60250000  1.0 0.1205284503
H  H16  1  0.04180000  0.78930000  0.39750000  1.0 0.1205284503
H  H17  1  0.74360000  0.48090000  0.16730000  1.0 0.1205284503
H  H18  1  0.31360000  0.57630000  0.83270000  1.0 0.1205284503
H  H19  1  0.68640000  0.51910000  0.26270000  1.0 0.1205284503
H  H20  1  0.25640000  0.42370000  0.73730000  1.0 0.1205284503
H  H21  1  0.57530000  0.48610000  0.00240000  1.0 0.1205284503
H  H22  1  0.48370000  0.57290000  0.99760000  1.0 0.1205284503
H  H23  1  0.51630000  0.51390000  0.08920000  1.0 0.1205284503
H  H24  1  0.42470000  0.42710000  0.91080000  1.0 0.1205284503
H  H25  1  0.74860000  0.07780000  0.77540000  1.0 0.1205284503
H  H26  1  0.30240000  0.97320000  0.22460000  1.0 0.1205284503
H  H27  1  0.69760000  0.92220000  0.67080000  1.0 0.1205284503
H  H28  1  0.25140000  0.02680000  0.32920000  1.0 0.1205284503
H  H29  1  0.58210000  0.07350000  0.59760000  1.0 0.1205284503
H  H30  1  0.47590000  0.98450000  0.40240000  1.0 0.1205284503
H  H31  1  0.52410000  0.92650000  0.50860000  1.0 0.1205284503
H  H32  1  0.41790000  0.01550000  0.49140000  1.0 0.1205284503
H  H33  1  0.63920000  0.46590000  0.82350000  1.0 0.1598125075
H  H34  1  0.64240000  0.81570000  0.17650000  1.0 0.1598125075
H  H35  1  0.35760000  0.53410000  0.17330000  1.0 0.1598125075
H  H36  1  0.36080000  0.18430000  0.82670000  1.0 0.1598125075
H  H37  1  0.59600000  0.69760000  0.94780000  1.0 0.0681843268
H  H38  1  0.74980000  0.64820000  0.05220000  1.0 0.0681843268
H  H39  1  0.25020000  0.30240000  0.89840000  1.0 0.0681843268
H  H40  1  0.40400000  0.35180000  0.10160000  1.0 0.0681843268
H  H41  1  0.63880000  0.68230000  0.89270000  1.0 0.0619609077
H  H42  1  0.78960000  0.74610000  0.10730000  1.0 0.0619609077
H  H43  1  0.21040000  0.31770000  0.95650000  1.0 0.0619609077
H  H44  1  0.36120000  0.25390000  0.04350000  1.0 0.0619609077
H  H45  1  0.67390000  0.69080000  0.97890000  1.0 -0.0212606362
H  H46  1  0.71190000  0.69500000  0.02110000  1.0 -0.0273940917
H  H47  1  0.28810000  0.30920000  0.98310000  1.0 -0.0212606362
H  H48  1  0.32610000  0.30500000  0.01690000  1.0 -0.0212606362
H  H49  1  0.51860000  0.45190000  0.75410000  1.0 0.1308186575
H  H50  1  0.69780000  0.76450000  0.24590000  1.0 0.1308186575
H  H51  1  0.30220000  0.54810000  0.06670000  1.0 0.1308186575
H  H52  1  0.48140000  0.23550000  0.93330000  1.0 0.1308186575
H  H53  1  0.50350000  0.51730000  0.74140000  1.0 0.1308186575
H  H54  1  0.77590000  0.76210000  0.25860000  1.0 0.1308186575
H  H55  1  0.22410000  0.48270000  0.98620000  1.0 0.1308186575
H  H56  1  0.49650000  0.23790000  0.01380000  1.0 0.1308186575
H  H57  1  0.50180000  0.54530000  0.83230000  1.0 0.1308186575
H  H58  1  0.71300000  0.66950000  0.16770000  1.0 0.1308186575
H  H59  1  0.28700000  0.45470000  0.95650000  1.0 0.1308186575
H  H60  1  0.49820000  0.33050000  0.04350000  1.0 0.1308186575
H  H61  1  0.65670000  0.31400000  0.66390000  1.0 0.1205284503
H  H62  1  0.65010000  0.99280000  0.33610000  1.0 0.1205284503
H  H63  1  0.34990000  0.68600000  0.34270000  1.0 0.1205284503
H  H64  1  0.34330000  0.00720000  0.65730000  1.0 0.1205284503
H  H65  1  0.57940000  0.16540000  0.50480000  1.0 0.1205284503
H  H66  1  0.66060000  0.07460000  0.49520000  1.0 0.1205284503
H  H67  1  0.33940000  0.83460000  0.41400000  1.0 0.1205284503
H  H68  1  0.42060000  0.92540000  0.58600000  1.0 0.1205284503
H  H69  1  0.57870000  0.12830000  0.40860000  1.0 0.1379204722
H  H70  1  0.71970000  0.17010000  0.59140000  1.0 0.1379204722
H  H71  1  0.28030000  0.87170000  0.45040000  1.0 0.1379204722
H  H72  1  0.42130000  0.82990000  0.54960000  1.0 0.1379204722
H  H73  1  0.53120000  0.19300000  0.45520000  1.0 0.1308186575
H  H74  1  0.73780000  0.07600000  0.54480000  1.0 0.1308186575
H  H75  1  0.26220000  0.80700000  0.33820000  1.0 0.1308186575
H  H76  1  0.46880000  0.92400000  0.66180000  1.0 0.1308186575
H  H77  1  0.68210000  0.35780000  0.55170000  1.0 0.1205284503
H  H78  1  0.80610000  0.13040000  0.44830000  1.0 0.1205284503
H  H79  1  0.19390000  0.64220000  0.32430000  1.0 0.1205284503
H  H80  1  0.31790000  0.86960000  0.67570000  1.0 0.1205284503
H  H81  1  0.60460000  0.30130000  0.46470000  1.0 0.1308186575
H  H82  1  0.83660000  0.13990000  0.53530000  1.0 0.1308186575
H  H83  1  0.16340000  0.69870000  0.30330000  1.0 0.1308186575
H  H84  1  0.39540000  0.86010000  0.69670000  1.0 0.1308186575
H  H85  1  0.66666667  0.25460000  0.44920000  1.0 0.1379204722
H  H86  1  0.80540000  0.21740000  0.55080000  1.0 0.1379204722
H  H87  1  0.19460000  0.74540000  0.41200000  1.0 0.1379204722
H  H88  1  0.33340000  0.78260000  0.58800000  1.0 0.1379204722
H  H89  1  0.88770000  0.49890000  0.16380000  1.0 0.1102228407
H  H90  1  0.33510000  0.72390000  0.83620000  1.0 0.1102228407
H  H91  1  0.66490000  0.50110000  0.38880000  1.0 0.1102228407
H  H92  1  0.11230000  0.27610000  0.61120000  1.0 0.1102228407
H  H93  1  0.89030000  0.23760000  0.94470000  1.0 0.1598125075
H  H94  1  0.29290000  0.94560000  0.05530000  1.0 0.1598125075
H  H95  1  0.70710000  0.76240000  0.65270000  1.0 0.1598125075
H  H96  1  0.10970000  0.05440000  0.34730000  1.0 0.1598125075
H  H97  1  0.00650000  0.32350000  0.23900000  1.0 0.094472522
H  H98  1  0.08450000  0.76750000  0.76100000  1.0 0.094472522
H  H99  1  0.91550000  0.67650000  0.68300000  1.0 0.094472522
H  H100  1  0.99350000  0.23250000  0.31700000  1.0 0.094472522
H  H101  1  0.00580000  0.51250000  0.38030000  1.0 0.1308186575
H  H102  1  0.13220000  0.62550000  0.61970000  1.0 0.1308186575
H  H103  1  0.86780000  0.48750000  0.49330000  1.0 0.1308186575
H  H104  1  0.99420000  0.37450000  0.50670000  1.0 0.1308186575
H  H105  1  0.02710000  0.45630000  0.40420000  1.0 0.1308186575
H  H106  1  0.05210000  0.62290000  0.59580000  1.0 0.1308186575
H  H107  1  0.94790000  0.54370000  0.57080000  1.0 0.1308186575
H  H108  1  0.97290000  0.37710000  0.42920000  1.0 0.1308186575
H  H109  1  0.94820000  0.42960000  0.33240000  1.0 0.1308186575
H  H110  1  0.09720000  0.61580000  0.66760000  1.0 0.1308186575
H  H111  1  0.90280000  0.57040000  0.51860000  1.0 0.1308186575
H  H112  1  0.05180000  0.38420000  0.48140000  1.0 0.1308186575
H  H113  1  0.19360000  0.58180000  0.48060000  1.0 0.1308186575
H  H114  1  0.10120000  0.71300000  0.51940000  1.0 0.1308186575
H  H115  1  0.89880000  0.41820000  0.61180000  1.0 0.1308186575
H  H116  1  0.80640000  0.28700000  0.38820000  1.0 0.1308186575
H  H117  1  0.27100000  0.62080000  0.61800000  1.0 0.1459031646
H  H118  1  0.00280000  0.65300000  0.38200000  1.0 0.1459031646
H  H119  1  0.99720000  0.37920000  0.65020000  1.0 0.1459031646
H  H120  1  0.72900000  0.34700000  0.34980000  1.0 0.1459031646
H  H121  1  0.19770000  0.36590000  0.48420000  1.0 0.1846420859
H  H122  1  0.88170000  0.71350000  0.51580000  1.0 0.1846420859
H  H123  1  0.11830000  0.63410000  0.83180000  1.0 0.1846420859
H  H124  1  0.80230000  0.28650000  0.16820000  1.0 0.1846420859
H  H125  1  0.10590000  0.29200000  0.19550000  1.0 0.1308186575
H  H126  1  0.09650000  0.91040000  0.80450000  1.0 0.1308186575
H  H127  1  0.90350000  0.70800000  0.81390000  1.0 0.1308186575
H  H128  1  0.89410000  0.08960000  0.18610000  1.0 0.1308186575
H  H129  1  0.08960000  0.34050000  0.16190000  1.0 0.1205284503
H  H130  1  0.17860000  0.92770000  0.83810000  1.0 0.1205284503
H  H131  1  0.82140000  0.65950000  0.74910000  1.0 0.1205284503
H  H132  1  0.91040000  0.07230000  0.25090000  1.0 0.1205284503
H  H133  1  0.34530000  0.39940000  0.34890000  1.0 0.1205284503
H  H134  1  0.05050000  0.99640000  0.65110000  1.0 0.1205284503
H  H135  1  0.94950000  0.60060000  0.94590000  1.0 0.1205284503
H  H136  1  0.65470000  0.00360000  0.05410000  1.0 0.1205284503
H  H137  1  0.20540000  0.46680000  0.24280000  1.0 0.1379204722
H  H138  1  0.22400000  0.96260000  0.75720000  1.0 0.1379204722
H  H139  1  0.77600000  0.53320000  0.73860000  1.0 0.1379204722
H  H140  1  0.79460000  0.03740000  0.26140000  1.0 0.1379204722
H  H141  1  0.12520000  0.49820000  0.28880000  1.0 0.3251590375
H  H142  1  0.20940000  0.83640000  0.71120000  1.0 0.3251590375
H  H143  1  0.79060000  0.50180000  0.62700000  1.0 0.3251590375
H  H144  1  0.87480000  0.16360000  0.37300000  1.0 0.3251590375
H  H145  1  0.67650000  0.68290000  0.93180000  1.0 0.0681843268
H  H146  1  0.75110000  0.74470000  0.06820000  1.0 0.0681843268
H  H147  1  0.24890000  0.31710000  0.99360000  1.0 0.0681843268
H  H148  1  0.32350000  0.25530000  0.00640000  1.0 0.0681843268
H  H149  1  0.63360000  0.69810000  0.98690000  1.0 0.0478879046
H  H150  1  0.71120000  0.64670000  0.01310000  1.0 0.0478879046
H  H151  1  0.28880000  0.30190000  0.93550000  1.0 0.0478879046
H  H152  1  0.36640000  0.35330000  0.06450000  1.0 0.0478879046
H  H153  1  0.59860000  0.68970000  0.90070000  1.0 0.0619609077
H  H154  1  0.78900000  0.69790000  0.09930000  1.0 0.0619609077
H  H155  1  0.21100000  0.31030000  0.90890000  1.0 0.0619609077
H  H156  1  0.40140000  0.30210000  0.09110000  1.0 0.0619609077
C  C1  1  0.96044000  0.31145000  0.80719000  1.0 -0.0212606362
C  C2  1  0.50426000  0.15325000  0.19281000  1.0 -0.0212606362
C  C3  1  0.49574000  0.68855000  0.64899000  1.0 -0.0212606362
C  C4  1  0.03956000  0.84675000  0.35101000  1.0 -0.0212606362
C  C5  1  0.99320000  0.26132000  0.82408000  1.0 -0.0945308711
C  C6  1  0.43724000  0.16912000  0.17592000  1.0 -0.1017775181
C  C7  1  0.56276000  0.73868000  0.73188000  1.0 -0.0945308711
C  C8  1  0.00680000  0.83088000  0.26812000  1.0 -0.1017775181
C  C9  1  0.04443000  0.22170000  0.79033000  1.0 -0.1017775181
C  C10  1  0.43137000  0.25410000  0.20967000  1.0 -0.1017775181
C  C11  1  0.56863000  0.77830000  0.82273000  1.0 -0.1017775181
C  C12  1  0.95557000  0.74590000  0.17727000  1.0 -0.1017775181
C  C13  1  0.06252000  0.23170000  0.74082000  1.0 -0.0212606362
C  C14  1  0.49088000  0.32170000  0.25918000  1.0 -0.0212606362
C  C15  1  0.50912000  0.76830000  0.83082000  1.0 -0.0212606362
C  C16  1  0.93748000  0.67830000  0.16918000  1.0 -0.0212606362
C  C17  1  0.03067000  0.28165000  0.72362000  1.0 -0.1081839163
C  C18  1  0.55803000  0.30705000  0.27638000  1.0 -0.1017775181
C  C19  1  0.44197000  0.71835000  0.74902000  1.0 -0.1017775181
C  C20  1  0.96933000  0.69295000  0.25098000  1.0 -0.1017775181
C  C21  1  0.97949000  0.32174000  0.75795000  1.0 -0.1081839163
C  C22  1  0.56379000  0.22154000  0.24205000  1.0 -0.1081839163
C  C23  1  0.43621000  0.67826000  0.65775000  1.0 -0.1081839163
C  C24  1  0.02051000  0.77846000  0.34225000  1.0 -0.1081839163
C  C25  1  0.90279000  0.35008000  0.83911000  1.0 0.589374045
C  C26  1  0.51097000  0.06368000  0.16089000  1.0 0.589374045
C  C27  1  0.48903000  0.64992000  0.55271000  1.0 0.589374045
C  C28  1  0.09721000  0.93632000  0.44729000  1.0 0.589374045
C  C29  1  0.11564000  0.18569000  0.69955000  1.0 0.5726467167
C  C30  1  0.48614000  0.41609000  0.30045000  1.0 0.5726467167
C  C31  1  0.51386000  0.81431000  0.92995000  1.0 0.5726467167
C  C32  1  0.88436000  0.58391000  0.07005000  1.0 0.5726467167
C  C33  1  0.69923000  0.44832000  0.00911000  1.0 0.5628723298
C  C34  1  0.43921000  0.69012000  0.99089000  1.0 0.5628723298
C  C35  1  0.56079000  0.55168000  0.25091000  1.0 0.5628723298
C  C36  1  0.30077000  0.30988000  0.74909000  1.0 0.5628723298
C  C37  1  0.69817000  0.48837000  0.15240000  1.0 -0.1017775181
C  C38  1  0.33597000  0.54577000  0.84760000  1.0 -0.1017775181
C  C39  1  0.66403000  0.51163000  0.20980000  1.0 -0.1017775181
C  C40  1  0.30183000  0.45423000  0.79020000  1.0 -0.1017775181
C  C41  1  0.66388000  0.47670000  0.07338000  1.0 -0.0212606362
C  C42  1  0.40332000  0.59050000  0.92662000  1.0 -0.0212606362
C  C43  1  0.59668000  0.52330000  0.18718000  1.0 -0.0212606362
C  C44  1  0.33612000  0.40950000  0.81282000  1.0 -0.0212606362
C  C45  1  0.59681000  0.49031000  0.05290000  1.0 -0.1017775181
C  C46  1  0.43741000  0.54391000  0.94710000  1.0 -0.1017775181
C  C47  1  0.56259000  0.50969000  0.10650000  1.0 -0.1017775181
C  C48  1  0.40319000  0.45609000  0.89350000  1.0 -0.1017775181
C  C49  1  0.70994000  0.18954000  0.75480000  1.0 0.5462230239
C  C50  1  0.43474000  0.95514000  0.24520000  1.0 0.5462230239
C  C51  1  0.56526000  0.81046000  0.52040000  1.0 0.5462230239
C  C52  1  0.29006000  0.04486000  0.47960000  1.0 0.5462230239
C  C53  1  0.70539000  0.04579000  0.71880000  1.0 -0.1081839163
C  C54  1  0.32699000  0.98659000  0.28120000  1.0 -0.1081839163
C  C55  1  0.67301000  0.95421000  0.65960000  1.0 -0.1081839163
C  C56  1  0.29461000  0.01341000  0.34040000  1.0 -0.1081839163
C  C57  1  0.67291000  0.09178000  0.69353000  1.0 -0.0070998985
C  C58  1  0.39825000  0.97938000  0.30647000  1.0 -0.0070998985
C  C59  1  0.60175000  0.90822000  0.58113000  1.0 -0.0070998985
C  C60  1  0.32709000  0.02062000  0.41887000  1.0 -0.0070998985
C  C61  1  0.60473000  0.04453000  0.61440000  1.0 -0.1081839163
C  C62  1  0.43013000  0.99033000  0.38560000  1.0 -0.1081839163
C  C63  1  0.56987000  0.95547000  0.56020000  1.0 -0.1081839163
C  C64  1  0.39527000  0.00967000  0.43980000  1.0 -0.1081839163
C  C65  1  0.65415000  0.51845000  0.84030000  1.0 0.2905064617
C  C66  1  0.67815000  0.81385000  0.15970000  1.0 0.2905064617
C  C67  1  0.32185000  0.48155000  0.13570000  1.0 0.2905064617
C  C68  1  0.34585000  0.18615000  0.86430000  1.0 0.2905064617
C  C69  1  0.63027000  0.66807000  0.92380000  1.0 -0.2975325267
C  C70  1  0.74427000  0.70647000  0.07620000  1.0 -0.2975325267
C  C71  1  0.25573000  0.33193000  0.96220000  1.0 -0.2975325267
C  C72  1  0.36973000  0.29353000  0.03780000  1.0 -0.2975325267
C  C73  1  0.52453000  0.51573000  0.78900000  1.0 -0.3394287247
C  C74  1  0.72673000  0.73553000  0.21100000  1.0 -0.3394287247
C  C75  1  0.27327000  0.48427000  0.00880000  1.0 -0.3394287247
C  C76  1  0.47547000  0.26447000  0.99120000  1.0 -0.3394287247
C  C77  1  0.67822000  0.31512000  0.63310000  1.0 0.3049697672
C  C78  1  0.68202000  0.04512000  0.36690000  1.0 0.3049697672
C  C79  1  0.31798000  0.68488000  0.36310000  1.0 0.3049697672
C  C80  1  0.32178000  0.95488000  0.63690000  1.0 0.3049697672
C  C81  1  0.57590000  0.18030000  0.47000000  1.0 -0.3454644288
C  C82  1  0.71030000  0.10590000  0.53000000  1.0 -0.3454644288
C  C83  1  0.28970000  0.81970000  0.39560000  1.0 -0.3454644288
C  C84  1  0.42410000  0.89410000  0.60440000  1.0 -0.3454644288
C  C85  1  0.64810000  0.29720000  0.49650000  1.0 -0.328043526
C  C86  1  0.80070000  0.15160000  0.50350000  1.0 -0.328043526
C  C87  1  0.19930000  0.70280000  0.35090000  1.0 -0.328043526
C  C88  1  0.35190000  0.84840000  0.64910000  1.0 -0.328043526
C  C89  1  0.90235000  0.44666000  0.14289000  1.0 0.2099010516
C  C90  1  0.30377000  0.75946000  0.85711000  1.0 0.2099010516
C  C91  1  0.69623000  0.55334000  0.45569000  1.0 0.2099010516
C  C92  1  0.09765000  0.24054000  0.54431000  1.0 0.2099010516
C  C93  1  0.96611000  0.37379000  0.18312000  1.0 0.1102228407
C  C94  1  0.19067000  0.78299000  0.81688000  1.0 0.1102228407
C  C95  1  0.80933000  0.62621000  0.59232000  1.0 0.1102228407
C  C96  1  0.03389000  0.21701000  0.40768000  1.0 0.1102228407
C  C97  1  0.94464000  0.29408000  0.08236000  1.0 0.1598125075
C  C98  1  0.21172000  0.86228000  0.91764000  1.0 0.1598125075
C  C99  1  0.78828000  0.70592000  0.65056000  1.0 0.1598125075
C  C100  1  0.05536000  0.13772000  0.34944000  1.0 0.1598125075
C  C101  1  0.90331000  0.29121000  0.01210000  1.0 -0.0423546526
C  C102  1  0.27911000  0.89121000  0.98790000  1.0 -0.0423546526
C  C103  1  0.72089000  0.70879000  0.61210000  1.0 -0.0423546526
C  C104  1  0.09669000  0.10879000  0.38790000  1.0 -0.0423546526
C  C105  1  0.01388000  0.38449000  0.26439000  1.0 -0.0945308711
C  C106  1  0.12010000  0.74949000  0.73561000  1.0 -0.0945308711
C  C107  1  0.87990000  0.61551000  0.62939000  1.0 -0.0945308711
C  C108  1  0.98612000  0.25051000  0.37061000  1.0 -0.0945308711
C  C109  1  0.99721000  0.45190000  0.35351000  1.0 -0.4025425519
C  C110  1  0.09839000  0.64370000  0.64649000  1.0 -0.4025425519
C  C111  1  0.90161000  0.54810000  0.54531000  1.0 -0.4025425519
C  C112  1  0.00279000  0.35630000  0.45469000  1.0 -0.4025425519
C  C113  1  0.09471000  0.42370000  0.30221000  1.0 0.2905064617
C  C114  1  0.12149000  0.79250000  0.69779000  1.0 0.2905064617
C  C115  1  0.87851000  0.57630000  0.67101000  1.0 0.2905064617
C  C116  1  0.90529000  0.20750000  0.32899000  1.0 0.2905064617
C  C117  1  0.14556000  0.44720000  0.39496000  1.0 -0.1017775181
C  C118  1  0.05224000  0.75060000  0.60504000  1.0 -0.1081839163
C  C119  1  0.94776000  0.55280000  0.69836000  1.0 -0.1017775181
C  C120  1  0.85444000  0.24940000  0.30164000  1.0 -0.1017775181
C  C121  1  0.19371000  0.53772000  0.48079000  1.0 -0.0755019094
C  C122  1  0.05693000  0.71292000  0.51921000  1.0 -0.0755019094
C  C123  1  0.94307000  0.46228000  0.65599000  1.0 -0.0755019094
C  C124  1  0.80629000  0.28708000  0.34401000  1.0 -0.0755019094
C  C125  1  0.23951000  0.56100000  0.56251000  1.0 -0.223758487
C  C126  1  0.99849000  0.67700000  0.43749000  1.0 -0.223758487
C  C127  1  0.00151000  0.43900000  0.67851000  1.0 -0.223758487
C  C128  1  0.76049000  0.32300000  0.32149000  1.0 -0.223758487
C  C129  1  0.24064000  0.49613000  0.56531000  1.0 0.3130947445
C  C130  1  0.93082000  0.67533000  0.43469000  1.0 0.3130947445
C  C131  1  0.06918000  0.50387000  0.74451000  1.0 0.3130947445
C  C132  1  0.75936000  0.32467000  0.25549000  1.0 0.3130947445
C  C133  1  0.19600000  0.40949000  0.48331000  1.0 -0.3394287247
C  C134  1  0.92618000  0.71269000  0.51669000  1.0 -0.3394287247
C  C135  1  0.07382000  0.59051000  0.78651000  1.0 -0.3394287247
C  C136  1  0.80400000  0.28731000  0.21349000  1.0 -0.3394287247
C  C137  1  0.14754000  0.38259000  0.39755000  1.0 0.2696001921
C  C138  1  0.98504000  0.74999000  0.60245000  1.0 0.2696001921
C  C139  1  0.01496000  0.61741000  0.76495000  1.0 0.2696001921
C  C140  1  0.85246000  0.25001000  0.23505000  1.0 0.2696001921
C  C141  1  0.11705000  0.35071000  0.21814000  1.0 -0.2516993241
C  C142  1  0.13257000  0.89891000  0.78186000  1.0 -0.2556535309
C  C143  1  0.86743000  0.64929000  0.76634000  1.0 -0.2556535309
C  C144  1  0.88295000  0.10109000  0.23366000  1.0 -0.2556535309
C  C145  1  0.30168000  0.40184000  0.31864000  1.0 0.1598125075
C  C146  1  0.08320000  0.98304000  0.68136000  1.0 0.1598125075
C  C147  1  0.91680000  0.59816000  0.89984000  1.0 0.1598125075
C  C148  1  0.69832000  0.01696000  0.10016000  1.0 0.1598125075
C  C149  1  0.22736000  0.43925000  0.26171000  1.0 0.0681843268
C  C150  1  0.17754000  0.96565000  0.73829000  1.0 0.0681843268
C  C151  1  0.82246000  0.56075000  0.78811000  1.0 0.0681843268
C  C152  1  0.77264000  0.03435000  0.21189000  1.0 0.0681843268
N  N1  1  0.60279000  0.56681000  0.85058000  1.0 -0.0618659928
N  N2  1  0.71623000  0.75221000  0.14942000  1.0 -0.0618659928
N  N3  1  0.28377000  0.43319000  0.03598000  1.0 -0.0618659928
N  N4  1  0.39721000  0.24779000  0.96402000  1.0 -0.0618659928
N  N5  1  0.63460000  0.26321000  0.53319000  1.0 0.0302209687
N  N6  1  0.73002000  0.10141000  0.46681000  1.0 0.0302209687
N  N7  1  0.26998000  0.73679000  0.37139000  1.0 0.0302209687
N  N8  1  0.36540000  0.89859000  0.62861000  1.0 0.0302209687
N  N9  1  0.88127000  0.36798000  0.04189000  1.0 -0.2516993241
N  N10  1  0.32609000  0.83938000  0.95811000  1.0 -0.2516993241
N  N11  1  0.67391000  0.63202000  0.51329000  1.0 -0.2516993241
N  N12  1  0.11873000  0.16062000  0.48671000  1.0 -0.2516993241
N  N13  1  0.94448000  0.45028000  0.21380000  1.0 -0.2975325267
N  N14  1  0.23648000  0.73068000  0.78620000  1.0 -0.2975325267
N  N15  1  0.76352000  0.54972000  0.49420000  1.0 -0.2975325267
N  N16  1  0.05552000  0.26932000  0.50580000  1.0 -0.2975325267
N  N17  1  0.19271000  0.37913000  0.24998000  1.0 0.1598125075
N  N18  1  0.12915000  0.94273000  0.75002000  1.0 0.1598125075
N  N19  1  0.87085000  0.62087000  0.81358000  1.0 0.1598125075
N  N20  1  0.80729000  0.05727000  0.18642000  1.0 0.1598125075
N  N21  1  0.24132000  0.35425000  0.28807000  1.0 -0.2890336569
N  N22  1  0.06618000  0.95325000  0.71193000  1.0 -0.2890336569
N  N23  1  0.93382000  0.64575000  0.88707000  1.0 -0.2890336569
N  N24  1  0.75868000  0.04675000  0.11293000  1.0 -0.2890336569
N  N25  1  0.29639000  0.45522000  0.30317000  1.0 -0.328043526
N  N26  1  0.15205000  0.99322000  0.69683000  1.0 -0.328043526
N  N27  1  0.84795000  0.54478000  0.84117000  1.0 -0.328043526
N  N28  1  0.70361000  0.00678000  0.15883000  1.0 -0.328043526
O  O1  1  0.88869000  0.33878000  0.88407000  1.0 -0.5480920765
O  O2  1  0.45471000  0.00462000  0.11593000  1.0 -0.5480920765
O  O3  1  0.54529000  0.66122000  0.54991000  1.0 -0.5480920765
O  O4  1  0.11131000  0.99538000  0.45009000  1.0 -0.5480920765
O  O5  1  0.87495000  0.39625000  0.82402000  1.0 -0.5714368279
O  O6  1  0.57223000  0.05093000  0.17598000  1.0 -0.5714368279
O  O7  1  0.42777000  0.60375000  0.47870000  1.0 -0.5714368279
O  O8  1  0.12505000  0.94907000  0.52130000  1.0 -0.5714368279
O  O9  1  0.12251000  0.18431000  0.64210000  1.0 -0.5480920765
O  O10  1  0.54221000  0.48041000  0.35790000  1.0 -0.5480920765
O  O11  1  0.45779000  0.81569000  0.93820000  1.0 -0.5480920765
O  O12  1  0.87749000  0.51959000  0.06180000  1.0 -0.5480920765
O  O13  1  0.14696000  0.14586000  0.72390000  1.0 -0.5805766042
O  O14  1  0.42196000  0.42306000  0.27610000  1.0 -0.5805766042
O  O15  1  0.57804000  0.85414000  0.00110000  1.0 -0.5805766042
O  O16  1  0.85304000  0.57694000  0.99890000  1.0 -0.5805766042
O  O17  1  0.75270000  0.41828000  0.01604000  1.0 -0.5480920765
O  O18  1  0.40224000  0.73666000  0.98396000  1.0 -0.5480920765
O  O19  1  0.59776000  0.58172000  0.33442000  1.0 -0.5480920765
O  O20  1  0.24730000  0.26334000  0.66558000  1.0 -0.5480920765
O  O21  1  0.67375000  0.45988000  0.95319000  1.0 -0.5056930091
O  O22  1  0.50669000  0.72056000  0.04681000  1.0 -0.5056930091
O  O23  1  0.49331000  0.54012000  0.21387000  1.0 -0.5056930091
O  O24  1  0.32625000  0.27944000  0.78613000  1.0 -0.5056930091
O  O25  1  0.76277000  0.23698000  0.83831000  1.0 -0.5480920765
O  O26  1  0.39867000  0.92446000  0.16169000  1.0 -0.5480920765
O  O27  1  0.60133000  0.76302000  0.52579000  1.0 -0.5480920765
O  O28  1  0.23723000  0.07554000  0.47421000  1.0 -0.5480920765
O  O29  1  0.68506000  0.21645000  0.71617000  1.0 -0.5011627059
O  O30  1  0.50028000  0.96889000  0.28383000  1.0 -0.5011627059
O  O31  1  0.49972000  0.78355000  0.46861000  1.0 -0.5011627059
O  O32  1  0.31494000  0.03111000  0.53139000  1.0 -0.5011627059
O  O33  1  0.74557000  0.39154000  0.85263000  1.0 -0.2433793352
O  O34  1  0.53891000  0.89294000  0.14737000  1.0 -0.2433793352
O  O35  1  0.46109000  0.60846000  0.35403000  1.0 -0.2433793352
O  O36  1  0.25443000  0.10706000  0.64597000  1.0 -0.2516993241
O  O37  1  0.71414000  0.52893000  0.84821000  1.0 -0.4888195674
O  O38  1  0.68072000  0.86593000  0.15179000  1.0 -0.4888195674
O  O39  1  0.31928000  0.47107000  0.18521000  1.0 -0.4888195674
O  O40  1  0.28586000  0.13407000  0.81479000  1.0 -0.4888195674
O  O41  1  0.73973000  0.36133000  0.68560000  1.0 -0.4343505259
O  O42  1  0.67573000  0.05413000  0.31440000  1.0 -0.4343505259
O  O43  1  0.32427000  0.63867000  0.37840000  1.0 -0.4343505259
O  O44  1  0.26027000  0.94587000  0.62160000  1.0 -0.4343505259
O  O45  1  0.10647000  0.50624000  0.32873000  1.0 -0.4888195674
O  O46  1  0.17751000  0.77774000  0.67127000  1.0 -0.4888195674
O  O47  1  0.82249000  0.49376000  0.60023000  1.0 -0.4888195674
O  O48  1  0.89353000  0.22226000  0.39977000  1.0 -0.4888195674
F  F1  1  0.96505000  0.22002000  0.05171000  1.0 -0.1163117717
F  F2  1  0.16831000  0.91334000  0.94829000  1.0 -0.1163117717
F  F3  1  0.83169000  0.77998000  0.74503000  1.0 -0.1163117717
F  F4  1  0.03495000  0.08666000  0.25497000  1.0 -0.1163117717
F  F5  1  0.10270000  0.29438000  0.31414000  1.0 -0.1434628125
F  F6  1  0.98024000  0.78856000  0.68586000  1.0 -0.1434628125
F  F7  1  0.01976000  0.70562000  0.80832000  1.0 -0.1434628125
F  F8  1  0.89730000  0.21144000  0.19168000  1.0 -0.1434628125
F  F9  1  0.28718000  0.51800000  0.64596000  1.0 -0.1462158169
F  F10  1  0.87204000  0.64122000  0.35404000  1.0 -0.1462158169
F  F11  1  0.12796000  0.48200000  0.76918000  1.0 -0.1462158169
F  F12  1  0.71282000  0.35878000  0.23082000  1.0 -0.1462158169
