# DDEC6 charges by PACMAN v1.1 (https://github.com/mtap-research/PACMAN-charge/)
data_MUVGUG_FSR_pacman
_symmetry_space_group_name_H-M   'P 1'
_cell_length_a   11.41900000
_cell_length_b   12.67000000
_cell_length_c   14.75200000
_cell_angle_alpha   90.00000000
_cell_angle_beta   90.00000000
_cell_angle_gamma   90.00000000
_symmetry_Int_Tables_number   1
_chemical_formula_structural   ZnH16(C17N5)2
_chemical_formula_sum   'Zn2 H32 C68 N20'
_cell_volume   2134.30062496
_cell_formula_units_Z   2
loop_
 _symmetry_equiv_pos_site_id
 _symmetry_equiv_pos_as_xyz
  1  'x, y, z'
loop_
 _atom_site_type_symbol
 _atom_site_label
 _atom_site_symmetry_multiplicity
 _atom_site_fract_x
 _atom_site_fract_y
 _atom_site_fract_z
 _atom_site_occupancy
 _atom_site_charge
Zn  Zn1  1  0.50000000  0.50000000  0.75000000  1.0 0.7617235294
Zn  Zn2  1  0.50000000  0.50000000  0.25000000  1.0 0.7617235294
H  H1  1  0.08920000  0.34450000  0.72520000  1.0 0.1390644721
H  H2  1  0.91080000  0.65550000  0.72520000  1.0 0.1390644721
H  H3  1  0.08920000  0.65550000  0.77480000  1.0 0.1390644721
H  H4  1  0.91080000  0.34450000  0.77480000  1.0 0.1390644721
H  H5  1  0.91080000  0.65550000  0.27480000  1.0 0.1390644721
H  H6  1  0.08920000  0.34450000  0.27480000  1.0 0.1390644721
H  H7  1  0.91080000  0.34450000  0.22520000  1.0 0.1390644721
H  H8  1  0.08920000  0.65550000  0.22520000  1.0 0.1390644721
H  H9  1  0.30200000  0.22030000  0.86390000  1.0 0.1167140789
H  H10  1  0.69800000  0.77970000  0.86390000  1.0 0.1167140789
H  H11  1  0.30200000  0.77970000  0.63610000  1.0 0.1167140789
H  H12  1  0.69800000  0.22030000  0.63610000  1.0 0.1167140789
H  H13  1  0.69800000  0.77970000  0.13610000  1.0 0.1167140789
H  H14  1  0.30200000  0.22030000  0.13610000  1.0 0.1167140789
H  H15  1  0.69800000  0.22030000  0.36390000  1.0 0.1167140789
H  H16  1  0.30200000  0.77970000  0.36390000  1.0 0.1167140789
H  H17  1  0.29030000  0.34960000  0.72360000  1.0 0.1087324674
H  H18  1  0.70970000  0.65040000  0.72360000  1.0 0.1087324674
H  H19  1  0.29030000  0.65040000  0.77640000  1.0 0.1087324674
H  H20  1  0.70970000  0.34960000  0.77640000  1.0 0.1087324674
H  H21  1  0.70970000  0.65040000  0.27640000  1.0 0.1087324674
H  H22  1  0.29030000  0.34960000  0.27640000  1.0 0.1087324674
H  H23  1  0.70970000  0.34960000  0.22360000  1.0 0.1087324674
H  H24  1  0.29030000  0.65040000  0.22360000  1.0 0.1087324674
H  H25  1  0.16050000  0.09090000  0.86450000  1.0 0.1263094357
H  H26  1  0.83950000  0.90910000  0.86450000  1.0 0.1263094357
H  H27  1  0.16050000  0.90910000  0.63550000  1.0 0.1263094357
H  H28  1  0.83950000  0.09090000  0.63550000  1.0 0.1263094357
H  H29  1  0.83950000  0.90910000  0.13550000  1.0 0.1263094357
H  H30  1  0.16050000  0.09090000  0.13550000  1.0 0.1263094357
H  H31  1  0.83950000  0.09090000  0.36450000  1.0 0.1263094357
H  H32  1  0.16050000  0.90910000  0.36450000  1.0 0.1263094357
C  C1  1  0.41500000  0.30850000  0.00000000  1.0 -0.2034854331
C  C2  1  0.58500000  0.69150000  0.00000000  1.0 -0.2034854331
C  C3  1  0.41500000  0.69150000  0.50000000  1.0 -0.2034854331
C  C4  1  0.58500000  0.30850000  0.50000000  1.0 -0.2034854331
C  C5  1  0.06530000  0.50000000  0.75000000  1.0 0.1087324674
C  C6  1  0.93470000  0.50000000  0.75000000  1.0 0.1087324674
C  C7  1  0.93470000  0.50000000  0.25000000  1.0 0.1087324674
C  C8  1  0.06530000  0.50000000  0.25000000  1.0 0.1087324674
C  C9  1  0.24920000  0.41160000  0.73490000  1.0 0.0933680496
C  C10  1  0.75080000  0.58840000  0.73490000  1.0 0.0933680496
C  C11  1  0.24920000  0.58840000  0.76510000  1.0 0.0933680496
C  C12  1  0.75080000  0.41160000  0.76510000  1.0 0.0933680496
C  C13  1  0.75080000  0.58840000  0.26510000  1.0 0.0933680496
C  C14  1  0.24920000  0.41160000  0.26510000  1.0 0.0933680496
C  C15  1  0.75080000  0.41160000  0.23490000  1.0 0.0933680496
C  C16  1  0.24920000  0.58840000  0.23490000  1.0 0.0933680496
C  C17  1  0.12810000  0.40800000  0.73500000  1.0 -0.1790839919
C  C18  1  0.87190000  0.59200000  0.73500000  1.0 -0.1790839919
C  C19  1  0.12810000  0.59200000  0.76500000  1.0 -0.1790839919
C  C20  1  0.87190000  0.40800000  0.76500000  1.0 -0.1790839919
C  C21  1  0.87190000  0.59200000  0.26500000  1.0 -0.1790839919
C  C22  1  0.12810000  0.40800000  0.26500000  1.0 -0.1790839919
C  C23  1  0.87190000  0.40800000  0.23500000  1.0 -0.1790839919
C  C24  1  0.12810000  0.59200000  0.23500000  1.0 -0.1790839919
C  C25  1  0.46180000  0.34850000  0.91959000  1.0 0.295233231
C  C26  1  0.53820000  0.65150000  0.91959000  1.0 0.295233231
C  C27  1  0.46180000  0.65150000  0.58041000  1.0 0.295233231
C  C28  1  0.53820000  0.34850000  0.58041000  1.0 0.295233231
C  C29  1  0.53820000  0.65150000  0.08041000  1.0 0.295233231
C  C30  1  0.46180000  0.34850000  0.08041000  1.0 0.295233231
C  C31  1  0.53820000  0.34850000  0.41959000  1.0 0.295233231
C  C32  1  0.46180000  0.65150000  0.41959000  1.0 0.295233231
C  C33  1  0.32170000  0.23160000  0.00000000  1.0 0.1087324674
C  C34  1  0.67830000  0.76840000  0.00000000  1.0 0.1087324674
C  C35  1  0.32170000  0.76840000  0.50000000  1.0 0.1087324674
C  C36  1  0.67830000  0.23160000  0.50000000  1.0 0.1087324674
C  C37  1  0.27570000  0.19260000  0.91860000  1.0 -0.1570117512
C  C38  1  0.72430000  0.80740000  0.91860000  1.0 -0.1570117512
C  C39  1  0.27570000  0.80740000  0.58140000  1.0 -0.1570117512
C  C40  1  0.72430000  0.19260000  0.58140000  1.0 -0.1570117512
C  C41  1  0.72430000  0.80740000  0.08140000  1.0 -0.1570117512
C  C42  1  0.27570000  0.19260000  0.08140000  1.0 -0.1570117512
C  C43  1  0.72430000  0.19260000  0.41860000  1.0 -0.1570117512
C  C44  1  0.27570000  0.80740000  0.41860000  1.0 -0.1570117512
C  C45  1  0.07940000  0.91000000  0.91960000  1.0 0.2377598322
C  C46  1  0.92060000  0.09000000  0.91960000  1.0 0.2377598322
C  C47  1  0.07940000  0.09000000  0.58040000  1.0 0.2377598322
C  C48  1  0.92060000  0.91000000  0.58040000  1.0 0.2377598322
C  C49  1  0.92060000  0.09000000  0.08040000  1.0 0.2377598322
C  C50  1  0.07940000  0.91000000  0.08040000  1.0 0.2377598322
C  C51  1  0.92060000  0.91000000  0.41960000  1.0 0.2377598322
C  C52  1  0.07940000  0.09000000  0.41960000  1.0 0.2377598322
C  C53  1  0.06800000  0.97640000  0.00000000  1.0 0.0271945055
C  C54  1  0.93200000  0.02360000  0.00000000  1.0 0.0271945055
C  C55  1  0.06800000  0.02360000  0.50000000  1.0 0.0271945055
C  C56  1  0.93200000  0.97640000  0.50000000  1.0 0.0271945055
C  C57  1  0.15710000  0.06850000  0.00000000  1.0 0.0089010432
C  C58  1  0.84290000  0.93150000  0.00000000  1.0 0.0089010432
C  C59  1  0.15710000  0.93150000  0.50000000  1.0 0.0089010432
C  C60  1  0.84290000  0.06850000  0.50000000  1.0 0.0089010432
C  C61  1  0.19260000  0.11400000  0.91900000  1.0 -0.1321901866
C  C62  1  0.80740000  0.88600000  0.91900000  1.0 -0.1321901866
C  C63  1  0.19260000  0.88600000  0.58100000  1.0 -0.1321901866
C  C64  1  0.80740000  0.11400000  0.58100000  1.0 -0.1321901866
C  C65  1  0.80740000  0.88600000  0.08100000  1.0 -0.1321901866
C  C66  1  0.19260000  0.11400000  0.08100000  1.0 -0.1321901866
C  C67  1  0.80740000  0.11400000  0.41900000  1.0 -0.1321901866
C  C68  1  0.19260000  0.88600000  0.41900000  1.0 -0.1321901866
N  N1  1  0.10100000  0.86430000  0.85520000  1.0 -0.3239581623
N  N2  1  0.89900000  0.13570000  0.85520000  1.0 -0.3239581623
N  N3  1  0.10100000  0.13570000  0.64480000  1.0 -0.3239581623
N  N4  1  0.89900000  0.86430000  0.64480000  1.0 -0.3239581623
N  N5  1  0.89900000  0.13570000  0.14480000  1.0 -0.3239581623
N  N6  1  0.10100000  0.86430000  0.14480000  1.0 -0.3239581623
N  N7  1  0.89900000  0.86430000  0.35520000  1.0 -0.3239581623
N  N8  1  0.10100000  0.13570000  0.35520000  1.0 -0.3239581623
N  N9  1  0.49872000  0.38030000  0.85252000  1.0 -0.4285703488
N  N10  1  0.50128000  0.61970000  0.85252000  1.0 -0.4285703488
N  N11  1  0.49872000  0.61970000  0.64748000  1.0 -0.4285703488
N  N12  1  0.50128000  0.38030000  0.64748000  1.0 -0.4285703488
N  N13  1  0.50128000  0.61970000  0.14748000  1.0 -0.4285703488
N  N14  1  0.49872000  0.38030000  0.14748000  1.0 -0.4285703488
N  N15  1  0.50128000  0.38030000  0.35252000  1.0 -0.4285703488
N  N16  1  0.49872000  0.61970000  0.35252000  1.0 -0.4285703488
N  N17  1  0.31030000  0.50000000  0.75000000  1.0 -0.2236710676
N  N18  1  0.68970000  0.50000000  0.75000000  1.0 -0.2236710676
N  N19  1  0.68970000  0.50000000  0.25000000  1.0 -0.2236710676
N  N20  1  0.31030000  0.50000000  0.25000000  1.0 -0.2236710676
