# DDEC6 charges by PACMAN v1.1 (https://github.com/mtap-research/PACMAN-charge/)
data_MUVHER_ASR_pacman
_symmetry_space_group_name_H-M   'P 1'
_cell_length_a   11.37490000
_cell_length_b   12.72390000
_cell_length_c   14.80100000
_cell_angle_alpha   90.00000000
_cell_angle_beta   90.00000000
_cell_angle_gamma   90.00000000
_symmetry_Int_Tables_number   1
_chemical_formula_structural   ZnH16(C17N5)2
_chemical_formula_sum   'Zn2 H32 C68 N20'
_cell_volume   2142.19446672
_cell_formula_units_Z   2
loop_
 _symmetry_equiv_pos_site_id
 _symmetry_equiv_pos_as_xyz
  1  'x, y, z'
loop_
 _atom_site_type_symbol
 _atom_site_label
 _atom_site_symmetry_multiplicity
 _atom_site_fract_x
 _atom_site_fract_y
 _atom_site_fract_z
 _atom_site_occupancy
 _atom_site_charge
Zn  Zn1  1  0.00000000  0.00000000  0.75000000  1.0 0.7695129721
Zn  Zn2  1  0.00000000  0.00000000  0.25000000  1.0 0.7695129721
H  H1  1  0.41130000  0.15640000  0.77320000  1.0 0.1356390326
H  H2  1  0.58870000  0.84360000  0.77320000  1.0 0.1356390326
H  H3  1  0.41130000  0.84360000  0.72680000  1.0 0.1356390326
H  H4  1  0.58870000  0.15640000  0.72680000  1.0 0.1356390326
H  H5  1  0.58870000  0.84360000  0.22680000  1.0 0.1356390326
H  H6  1  0.41130000  0.15640000  0.22680000  1.0 0.1356390326
H  H7  1  0.58870000  0.15640000  0.27320000  1.0 0.1356390326
H  H8  1  0.41130000  0.84360000  0.27320000  1.0 0.1356390326
H  H9  1  0.20760000  0.15200000  0.77170000  1.0 0.1045513956
H  H10  1  0.79240000  0.84800000  0.77170000  1.0 0.1045513956
H  H11  1  0.20760000  0.84800000  0.72830000  1.0 0.1045513956
H  H12  1  0.79240000  0.15200000  0.72830000  1.0 0.1045513956
H  H13  1  0.79240000  0.84800000  0.22830000  1.0 0.1045513956
H  H14  1  0.20760000  0.15200000  0.22830000  1.0 0.1045513956
H  H15  1  0.79240000  0.15200000  0.27170000  1.0 0.1045513956
H  H16  1  0.20760000  0.84800000  0.27170000  1.0 0.1045513956
H  H17  1  0.80390000  0.28250000  0.86330000  1.0 0.1214901639
H  H18  1  0.19610000  0.71750000  0.86330000  1.0 0.1214901639
H  H19  1  0.80390000  0.71750000  0.63670000  1.0 0.1214901639
H  H20  1  0.19610000  0.28250000  0.63670000  1.0 0.1214901639
H  H21  1  0.19610000  0.71750000  0.13670000  1.0 0.1214901639
H  H22  1  0.80390000  0.28250000  0.13670000  1.0 0.1214901639
H  H23  1  0.19610000  0.28250000  0.36330000  1.0 0.1214901639
H  H24  1  0.80390000  0.71750000  0.36330000  1.0 0.1214901639
H  H25  1  0.66930000  0.41740000  0.86390000  1.0 0.1214901639
H  H26  1  0.33070000  0.58260000  0.86390000  1.0 0.1214901639
H  H27  1  0.66930000  0.58260000  0.63610000  1.0 0.1214901639
H  H28  1  0.33070000  0.41740000  0.63610000  1.0 0.1214901639
H  H29  1  0.33070000  0.58260000  0.13610000  1.0 0.1214901639
H  H30  1  0.66930000  0.41740000  0.13610000  1.0 0.1214901639
H  H31  1  0.33070000  0.41740000  0.36390000  1.0 0.1214901639
H  H32  1  0.66930000  0.58260000  0.36390000  1.0 0.1214901639
C  C1  1  0.82360000  0.27010000  0.00000000  1.0 0.1095121943
C  C2  1  0.17640000  0.72990000  0.00000000  1.0 0.1095121943
C  C3  1  0.82360000  0.72990000  0.50000000  1.0 0.1095121943
C  C4  1  0.17640000  0.27010000  0.50000000  1.0 0.1095121943
C  C5  1  0.96080000  0.15061000  0.91947000  1.0 0.2959353535
C  C6  1  0.03920000  0.84939000  0.91947000  1.0 0.2946400551
C  C7  1  0.96080000  0.84939000  0.58053000  1.0 0.2959353535
C  C8  1  0.03920000  0.15061000  0.58053000  1.0 0.2946400551
C  C9  1  0.03920000  0.84939000  0.08053000  1.0 0.2946400551
C  C10  1  0.96080000  0.15061000  0.08053000  1.0 0.2959353535
C  C11  1  0.03920000  0.15061000  0.41947000  1.0 0.2946400551
C  C12  1  0.96080000  0.84939000  0.41947000  1.0 0.2959353535
C  C13  1  0.56700000  0.52060000  0.00000000  1.0 0.0287366866
C  C14  1  0.43300000  0.47940000  0.00000000  1.0 0.0287366866
C  C15  1  0.56700000  0.47940000  0.50000000  1.0 0.0287366866
C  C16  1  0.43300000  0.52060000  0.50000000  1.0 0.0287366866
C  C17  1  0.58190000  0.58880000  0.91940000  1.0 0.2404379232
C  C18  1  0.41810000  0.41120000  0.91940000  1.0 0.2404379232
C  C19  1  0.58190000  0.41120000  0.58060000  1.0 0.2404379232
C  C20  1  0.41810000  0.58880000  0.58060000  1.0 0.2404379232
C  C21  1  0.41810000  0.41120000  0.08060000  1.0 0.2404379232
C  C22  1  0.58190000  0.58880000  0.08060000  1.0 0.2404379232
C  C23  1  0.41810000  0.58880000  0.41940000  1.0 0.2404379232
C  C24  1  0.58190000  0.41120000  0.41940000  1.0 0.2404379232
C  C25  1  0.37160000  0.09160000  0.76352000  1.0 -0.180509636
C  C26  1  0.62840000  0.90840000  0.76352000  1.0 -0.180509636
C  C27  1  0.37160000  0.90840000  0.73648000  1.0 -0.180509636
C  C28  1  0.62840000  0.09160000  0.73648000  1.0 -0.180509636
C  C29  1  0.62840000  0.90840000  0.23648000  1.0 -0.180509636
C  C30  1  0.37160000  0.09160000  0.23648000  1.0 -0.180509636
C  C31  1  0.62840000  0.09160000  0.26352000  1.0 -0.180509636
C  C32  1  0.37160000  0.90840000  0.26352000  1.0 -0.180509636
C  C33  1  0.24970000  0.08840000  0.76273000  1.0 0.0918374232
C  C34  1  0.75030000  0.91160000  0.76273000  1.0 0.0918374232
C  C35  1  0.24970000  0.91160000  0.73727000  1.0 0.0918374232
C  C36  1  0.75030000  0.08840000  0.73727000  1.0 0.0918374232
C  C37  1  0.75030000  0.91160000  0.23727000  1.0 0.0918374232
C  C38  1  0.24970000  0.08840000  0.23727000  1.0 0.0918374232
C  C39  1  0.75030000  0.08840000  0.26273000  1.0 0.0918374232
C  C40  1  0.24970000  0.91160000  0.26273000  1.0 0.0918374232
C  C41  1  0.65690000  0.43220000  0.00000000  1.0 -0.0094587445
C  C42  1  0.34310000  0.56780000  0.00000000  1.0 -0.0094587445
C  C43  1  0.65690000  0.56780000  0.50000000  1.0 -0.0094587445
C  C44  1  0.34310000  0.43220000  0.50000000  1.0 -0.0094587445
C  C45  1  0.77810000  0.31080000  0.91930000  1.0 -0.1527435722
C  C46  1  0.22190000  0.68920000  0.91930000  1.0 -0.1527435722
C  C47  1  0.77810000  0.68920000  0.58070000  1.0 -0.1527435722
C  C48  1  0.22190000  0.31080000  0.58070000  1.0 -0.1527435722
C  C49  1  0.22190000  0.68920000  0.08070000  1.0 -0.1527435722
C  C50  1  0.77810000  0.31080000  0.08070000  1.0 -0.1527435722
C  C51  1  0.22190000  0.31080000  0.41930000  1.0 -0.1527435722
C  C52  1  0.77810000  0.68920000  0.41930000  1.0 -0.1527435722
C  C53  1  0.43500000  0.00000000  0.75000000  1.0 0.1095121943
C  C54  1  0.56500000  0.00000000  0.75000000  1.0 0.1095121943
C  C55  1  0.56500000  0.00000000  0.25000000  1.0 0.1095121943
C  C56  1  0.43500000  0.00000000  0.25000000  1.0 0.1095121943
C  C57  1  0.69770000  0.39030000  0.91960000  1.0 -0.1346048804
C  C58  1  0.30230000  0.60970000  0.91960000  1.0 -0.1353630813
C  C59  1  0.69770000  0.60970000  0.58040000  1.0 -0.1346048804
C  C60  1  0.30230000  0.39030000  0.58040000  1.0 -0.1353630813
C  C61  1  0.30230000  0.60970000  0.08040000  1.0 -0.1353630813
C  C62  1  0.69770000  0.39030000  0.08040000  1.0 -0.1346048804
C  C63  1  0.30230000  0.39030000  0.41960000  1.0 -0.1353630813
C  C64  1  0.69770000  0.60970000  0.41960000  1.0 -0.1346048804
C  C65  1  0.91480000  0.19030000  0.00000000  1.0 -0.2000348733
C  C66  1  0.08520000  0.80970000  0.00000000  1.0 -0.2000348733
C  C67  1  0.91480000  0.80970000  0.50000000  1.0 -0.2000348733
C  C68  1  0.08520000  0.19030000  0.50000000  1.0 -0.2000348733
N  N1  1  0.59600000  0.63830000  0.85720000  1.0 -0.3188873099
N  N2  1  0.40400000  0.36170000  0.85720000  1.0 -0.3188873099
N  N3  1  0.59600000  0.36170000  0.64280000  1.0 -0.3188873099
N  N4  1  0.40400000  0.63830000  0.64280000  1.0 -0.3188873099
N  N5  1  0.40400000  0.36170000  0.14280000  1.0 -0.3188873099
N  N6  1  0.59600000  0.63830000  0.14280000  1.0 -0.3188873099
N  N7  1  0.40400000  0.63830000  0.35720000  1.0 -0.3188873099
N  N8  1  0.59600000  0.36170000  0.35720000  1.0 -0.3188873099
N  N9  1  0.99810000  0.11900000  0.85294000  1.0 -0.4263564737
N  N10  1  0.00190000  0.88100000  0.85294000  1.0 -0.4244486557
N  N11  1  0.99810000  0.88100000  0.64706000  1.0 -0.4263564737
N  N12  1  0.00190000  0.11900000  0.64706000  1.0 -0.4244486557
N  N13  1  0.00190000  0.88100000  0.14706000  1.0 -0.4244486557
N  N14  1  0.99810000  0.11900000  0.14706000  1.0 -0.4263564737
N  N15  1  0.00190000  0.11900000  0.35294000  1.0 -0.4244486557
N  N16  1  0.99810000  0.88100000  0.35294000  1.0 -0.4263564737
N  N17  1  0.18860000  0.00000000  0.75000000  1.0 -0.2194374295
N  N18  1  0.81140000  0.00000000  0.75000000  1.0 -0.2194374295
N  N19  1  0.81140000  0.00000000  0.25000000  1.0 -0.2194374295
N  N20  1  0.18860000  0.00000000  0.25000000  1.0 -0.2194374295
