# DDEC6 charges by PACMAN v1.1 (https://github.com/mtap-research/PACMAN-charge/)
data_MUVMOG_ion_pacman
_symmetry_space_group_name_H-M   'P 1'
_cell_length_a   19.04600000
_cell_length_b   19.04600000
_cell_length_c   8.33060000
_cell_angle_alpha   90.00000000
_cell_angle_beta   90.00000000
_cell_angle_gamma   120.00000000
_symmetry_Int_Tables_number   1
_chemical_formula_structural   Ga15P20H132C36(N6O41)2
_chemical_formula_sum   'Ga15 P20 H132 C36 N12 O82'
_cell_volume   2617.06478512
_cell_formula_units_Z   1
loop_
 _symmetry_equiv_pos_site_id
 _symmetry_equiv_pos_as_xyz
  1  'x, y, z'
loop_
 _atom_site_type_symbol
 _atom_site_label
 _atom_site_symmetry_multiplicity
 _atom_site_fract_x
 _atom_site_fract_y
 _atom_site_fract_z
 _atom_site_occupancy
 _atom_site_charge
Ga  Ga1  1  0.66666667  0.33333333  0.48378000  1.0 1.4668743951
Ga  Ga2  1  0.33333333  0.66666667  0.51622000  1.0 1.4668743951
Ga  Ga3  1  0.73698000  0.26313000  0.12590000  1.0 1.4518685681
Ga  Ga4  1  0.73687000  0.47385000  0.12590000  1.0 1.4518685681
Ga  Ga5  1  0.52615000  0.26302000  0.12590000  1.0 1.4518685681
Ga  Ga6  1  0.26302000  0.73687000  0.87410000  1.0 1.4518685681
Ga  Ga7  1  0.26313000  0.52615000  0.87410000  1.0 1.4518685681
Ga  Ga8  1  0.47385000  0.73698000  0.87410000  1.0 1.4518685681
Ga  Ga9  1  0.81344000  0.00000000  0.00000000  1.0 1.4972172521
Ga  Ga10  1  0.00000000  0.81344000  0.00000000  1.0 1.4972172521
Ga  Ga11  1  0.18656000  0.18656000  0.00000000  1.0 1.4972172521
Ga  Ga12  1  0.18656000  0.00000000  0.00000000  1.0 1.4972172521
Ga  Ga13  1  0.00000000  0.18656000  0.00000000  1.0 1.4972172521
Ga  Ga14  1  0.81344000  0.81344000  0.00000000  1.0 1.4972172521
Ga  Ga15  1  0.00000000  0.00000000  0.50000000  1.0 1.5754416329
P  P1  1  0.82167000  0.91080000  0.31850000  1.0 1.5310882074
P  P2  1  0.08920000  0.91087000  0.31850000  1.0 1.5310882074
P  P3  1  0.08913000  0.17833000  0.31850000  1.0 1.5310882074
P  P4  1  0.17833000  0.08920000  0.68150000  1.0 1.5310882074
P  P5  1  0.91080000  0.08913000  0.68150000  1.0 1.5310882074
P  P6  1  0.91087000  0.82167000  0.68150000  1.0 1.5310882074
P  P7  1  0.83171000  0.16840000  0.10080000  1.0 1.1291361791
P  P8  1  0.83160000  0.66331000  0.10080000  1.0 1.1291361791
P  P9  1  0.33669000  0.16829000  0.10080000  1.0 1.1291361791
P  P10  1  0.16829000  0.83160000  0.89920000  1.0 1.1291361791
P  P11  1  0.16840000  0.33669000  0.89920000  1.0 1.1291361791
P  P12  1  0.66331000  0.83171000  0.89920000  1.0 1.1291361791
P  P13  1  0.66666667  0.33333333  0.88280000  1.0 1.5164338691
P  P14  1  0.33333333  0.66666667  0.11720000  1.0 1.5164338691
P  P15  1  0.58257000  0.16498000  0.33180000  1.0 1.4637388331
P  P16  1  0.83502000  0.41759000  0.33180000  1.0 1.4668743951
P  P17  1  0.58241000  0.41743000  0.33180000  1.0 1.4637388331
P  P18  1  0.41743000  0.83502000  0.66820000  1.0 1.4668743951
P  P19  1  0.16498000  0.58241000  0.66820000  1.0 1.4637388331
P  P20  1  0.41759000  0.58257000  0.66820000  1.0 1.4637388331
H  H1  1  0.84000000  0.18400000  0.25700000  1.0 -0.1124185207
H  H2  1  0.81600000  0.65600000  0.25700000  1.0 -0.1124185207
H  H3  1  0.34400000  0.16000000  0.25700000  1.0 -0.1124185207
H  H4  1  0.16000000  0.81600000  0.74300000  1.0 -0.1124185207
H  H5  1  0.18400000  0.34400000  0.74300000  1.0 -0.1124185207
H  H6  1  0.65600000  0.84000000  0.74300000  1.0 -0.1124185207
H  H7  1  0.76470000  0.92730000  0.57150000  1.0 0.3856047434
H  H8  1  0.07270000  0.83740000  0.57150000  1.0 0.3856047434
H  H9  1  0.16260000  0.23530000  0.57150000  1.0 0.3856047434
H  H10  1  0.23530000  0.07270000  0.42850000  1.0 0.3856047434
H  H11  1  0.92730000  0.16260000  0.42850000  1.0 0.3856047434
H  H12  1  0.83740000  0.76470000  0.42850000  1.0 0.3856047434
H  H13  1  0.90420000  0.95000000  0.93800000  1.0 0.3605086846
H  H14  1  0.05000000  0.95420000  0.93800000  1.0 0.3605086846
H  H15  1  0.04580000  0.09580000  0.93800000  1.0 0.3605086846
H  H16  1  0.09580000  0.05000000  0.06200000  1.0 0.3605086846
H  H17  1  0.95000000  0.04580000  0.06200000  1.0 0.3605086846
H  H18  1  0.95420000  0.90420000  0.06200000  1.0 0.3605086846
H  H19  1  0.24680000  0.16240000  0.47870000  1.0 0.3753495706
H  H20  1  0.83760000  0.08440000  0.47870000  1.0 0.3753495706
H  H21  1  0.91560000  0.75320000  0.47870000  1.0 0.3753495706
H  H22  1  0.75320000  0.83760000  0.52130000  1.0 0.3753495706
H  H23  1  0.16240000  0.91560000  0.52130000  1.0 0.3753495706
H  H24  1  0.08440000  0.24680000  0.52130000  1.0 0.3753495706
H  H25  1  0.54250000  0.59990000  0.40850000  1.0 0.2555294973
H  H26  1  0.70730000  0.70760000  0.38410000  1.0 0.1204907855
H  H27  1  0.67370000  0.61400000  0.40310000  1.0 0.1204907855
H  H28  1  0.57280000  0.56530000  0.19080000  1.0 0.1306147573
H  H29  1  0.51040000  0.59570000  0.17340000  1.0 0.1306147573
H  H30  1  0.60140000  0.65280000  0.12600000  1.0 0.1513683987
H  H31  1  0.51840000  0.71080000  0.32690000  1.0 0.1391061753
H  H32  1  0.56740000  0.73120000  0.48780000  1.0 0.1204907855
H  H33  1  0.61260000  0.76850000  0.32560000  1.0 0.1306147573
H  H34  1  0.70820000  0.70950000  0.63010000  1.0 0.1204907855
H  H35  1  0.61340000  0.67250000  0.61630000  1.0 0.1204907855
H  H36  1  0.60450000  0.54310000  0.59510000  1.0 0.2538542889
H  H37  1  0.70810000  0.52020000  0.67410000  1.0 0.1391061753
H  H38  1  0.73350000  0.57580000  0.52150000  1.0 0.1106546117
H  H39  1  0.76510000  0.61410000  0.69130000  1.0 0.1306147573
H  H40  1  0.60700000  0.52360000  0.84550000  1.0 0.1306147573
H  H41  1  0.65530000  0.61790000  0.86760000  1.0 0.1513683987
H  H42  1  0.56670000  0.57530000  0.80020000  1.0 0.1391061753
H  H43  1  0.05740000  0.45750000  0.40850000  1.0 0.2555294973
H  H44  1  0.00030000  0.29270000  0.38410000  1.0 0.1204907855
H  H45  1  0.94030000  0.32630000  0.40310000  1.0 0.1204907855
H  H46  1  0.99250000  0.42720000  0.19080000  1.0 0.1306147573
H  H47  1  0.08530000  0.48960000  0.17340000  1.0 0.1306147573
H  H48  1  0.05140000  0.39860000  0.12600000  1.0 0.1513683987
H  H49  1  0.19240000  0.48160000  0.32690000  1.0 0.1391061753
H  H50  1  0.16380000  0.43260000  0.48780000  1.0 0.1204907855
H  H51  1  0.15590000  0.38740000  0.32560000  1.0 0.1306147573
H  H52  1  0.00130000  0.29180000  0.63010000  1.0 0.1204907855
H  H53  1  0.05910000  0.38660000  0.61630000  1.0 0.1204907855
H  H54  1  0.93860000  0.39550000  0.59510000  1.0 0.2538542889
H  H55  1  0.81210000  0.29190000  0.67410000  1.0 0.1391061753
H  H56  1  0.84230000  0.26650000  0.52150000  1.0 0.1106546117
H  H57  1  0.84900000  0.23490000  0.69130000  1.0 0.1306147573
H  H58  1  0.91660000  0.39300000  0.84550000  1.0 0.1306147573
H  H59  1  0.96260000  0.34470000  0.86760000  1.0 0.1513683987
H  H60  1  0.00860000  0.43330000  0.80020000  1.0 0.1391061753
H  H61  1  0.40010000  0.94260000  0.40850000  1.0 0.2555294973
H  H62  1  0.29240000  0.99970000  0.38410000  1.0 0.1204907855
H  H63  1  0.38600000  0.05970000  0.40310000  1.0 0.1204907855
H  H64  1  0.43470000  0.00750000  0.19080000  1.0 0.1306147573
H  H65  1  0.40430000  0.91470000  0.17340000  1.0 0.1306147573
H  H66  1  0.34720000  0.94860000  0.12600000  1.0 0.1513683987
H  H67  1  0.28920000  0.80760000  0.32690000  1.0 0.1391061753
H  H68  1  0.26880000  0.83620000  0.48780000  1.0 0.1204907855
H  H69  1  0.23150000  0.84410000  0.32560000  1.0 0.1306147573
H  H70  1  0.29050000  0.99870000  0.63010000  1.0 0.1204907855
H  H71  1  0.32750000  0.94090000  0.61630000  1.0 0.1204907855
H  H72  1  0.45690000  0.06140000  0.59510000  1.0 0.2538542889
H  H73  1  0.47980000  0.18790000  0.67410000  1.0 0.1391061753
H  H74  1  0.42420000  0.15770000  0.52150000  1.0 0.1106546117
H  H75  1  0.38590000  0.15100000  0.69130000  1.0 0.1306147573
H  H76  1  0.47640000  0.08340000  0.84550000  1.0 0.1306147573
H  H77  1  0.38210000  0.03740000  0.86760000  1.0 0.1513683987
H  H78  1  0.42470000  0.99140000  0.80020000  1.0 0.1391061753
H  H79  1  0.45750000  0.40010000  0.59150000  1.0 0.2555294973
H  H80  1  0.29270000  0.29240000  0.61590000  1.0 0.1204907855
H  H81  1  0.32630000  0.38600000  0.59690000  1.0 0.1204907855
H  H82  1  0.42720000  0.43470000  0.80920000  1.0 0.1306147573
H  H83  1  0.48960000  0.40430000  0.82660000  1.0 0.1306147573
H  H84  1  0.39860000  0.34720000  0.87400000  1.0 0.1513683987
H  H85  1  0.48160000  0.28920000  0.67310000  1.0 0.1391061753
H  H86  1  0.43260000  0.26880000  0.51220000  1.0 0.1204907855
H  H87  1  0.38740000  0.23150000  0.67440000  1.0 0.1306147573
H  H88  1  0.29180000  0.29050000  0.36990000  1.0 0.1204907855
H  H89  1  0.38660000  0.32750000  0.38370000  1.0 0.1204907855
H  H90  1  0.39550000  0.45690000  0.40490000  1.0 0.2538542889
H  H91  1  0.29190000  0.47980000  0.32590000  1.0 0.1391061753
H  H92  1  0.26650000  0.42420000  0.47850000  1.0 0.1106546117
H  H93  1  0.23490000  0.38590000  0.30870000  1.0 0.1306147573
H  H94  1  0.39300000  0.47640000  0.15450000  1.0 0.1306147573
H  H95  1  0.34470000  0.38210000  0.13240000  1.0 0.1513683987
H  H96  1  0.43330000  0.42470000  0.19980000  1.0 0.1391061753
H  H97  1  0.94260000  0.54250000  0.59150000  1.0 0.2555294973
H  H98  1  0.99970000  0.70730000  0.61590000  1.0 0.1204907855
H  H99  1  0.05970000  0.67370000  0.59690000  1.0 0.1204907855
H  H100  1  0.00750000  0.57280000  0.80920000  1.0 0.1306147573
H  H101  1  0.91470000  0.51040000  0.82660000  1.0 0.1306147573
H  H102  1  0.94860000  0.60140000  0.87400000  1.0 0.1513683987
H  H103  1  0.80760000  0.51840000  0.67310000  1.0 0.1391061753
H  H104  1  0.83620000  0.56740000  0.51220000  1.0 0.1204907855
H  H105  1  0.84410000  0.61260000  0.67440000  1.0 0.1306147573
H  H106  1  0.99870000  0.70820000  0.36990000  1.0 0.1204907855
H  H107  1  0.94090000  0.61340000  0.38370000  1.0 0.1204907855
H  H108  1  0.06140000  0.60450000  0.40490000  1.0 0.2538542889
H  H109  1  0.18790000  0.70810000  0.32590000  1.0 0.1391061753
H  H110  1  0.15770000  0.73350000  0.47850000  1.0 0.1106546117
H  H111  1  0.15100000  0.76510000  0.30870000  1.0 0.1306147573
H  H112  1  0.08340000  0.60700000  0.15450000  1.0 0.1306147573
H  H113  1  0.03740000  0.65530000  0.13240000  1.0 0.1513683987
H  H114  1  0.99140000  0.56670000  0.19980000  1.0 0.1391061753
H  H115  1  0.59990000  0.05740000  0.59150000  1.0 0.2555294973
H  H116  1  0.70760000  0.00030000  0.61590000  1.0 0.1204907855
H  H117  1  0.61400000  0.94030000  0.59690000  1.0 0.1204907855
H  H118  1  0.56530000  0.99250000  0.80920000  1.0 0.1306147573
H  H119  1  0.59570000  0.08530000  0.82660000  1.0 0.1306147573
H  H120  1  0.65280000  0.05140000  0.87400000  1.0 0.1513683987
H  H121  1  0.71080000  0.19240000  0.67310000  1.0 0.1391061753
H  H122  1  0.73120000  0.16380000  0.51220000  1.0 0.1204907855
H  H123  1  0.76850000  0.15590000  0.67440000  1.0 0.1306147573
H  H124  1  0.70950000  0.00130000  0.36990000  1.0 0.1204907855
H  H125  1  0.67250000  0.05910000  0.38370000  1.0 0.1204907855
H  H126  1  0.54310000  0.93860000  0.40490000  1.0 0.2538542889
H  H127  1  0.52020000  0.81210000  0.32590000  1.0 0.1391061753
H  H128  1  0.57580000  0.84230000  0.47850000  1.0 0.1106546117
H  H129  1  0.61410000  0.84900000  0.30870000  1.0 0.1306147573
H  H130  1  0.52360000  0.91660000  0.15450000  1.0 0.1306147573
H  H131  1  0.61790000  0.96260000  0.13240000  1.0 0.1513683987
H  H132  1  0.57530000  0.00860000  0.19980000  1.0 0.1391061753
C  C1  1  0.66270000  0.65770000  0.42700000  1.0 -0.1407446993
C  C2  1  0.56600000  0.61200000  0.19900000  1.0 -0.2621470241
C  C3  1  0.56900000  0.72200000  0.37500000  1.0 -0.4878761975
C  C4  1  0.65850000  0.66450000  0.58800000  1.0 -0.1407446993
C  C5  1  0.72000000  0.57200000  0.63300000  1.0 -0.3728013593
C  C6  1  0.61600000  0.57400000  0.80200000  1.0 -0.2621470241
C  C7  1  0.99500000  0.33730000  0.42700000  1.0 -0.1407446993
C  C8  1  0.04600000  0.43400000  0.19900000  1.0 -0.2621470241
C  C9  1  0.15300000  0.43100000  0.37500000  1.0 -0.4878761975
C  C10  1  0.00600000  0.34150000  0.58800000  1.0 -0.1407446993
C  C11  1  0.85200000  0.28000000  0.63300000  1.0 -0.3728013593
C  C12  1  0.95800000  0.38400000  0.80200000  1.0 -0.2621470241
C  C13  1  0.34230000  0.00500000  0.42700000  1.0 -0.1407446993
C  C14  1  0.38800000  0.95400000  0.19900000  1.0 -0.2621470241
C  C15  1  0.27800000  0.84700000  0.37500000  1.0 -0.4878761975
C  C16  1  0.33550000  0.99400000  0.58800000  1.0 -0.1407446993
C  C17  1  0.42800000  0.14800000  0.63300000  1.0 -0.3728013593
C  C18  1  0.42600000  0.04200000  0.80200000  1.0 -0.2621470241
C  C19  1  0.33730000  0.34230000  0.57300000  1.0 -0.1407446993
C  C20  1  0.43400000  0.38800000  0.80100000  1.0 -0.2621470241
C  C21  1  0.43100000  0.27800000  0.62500000  1.0 -0.4878761975
C  C22  1  0.34150000  0.33550000  0.41200000  1.0 -0.1407446993
C  C23  1  0.28000000  0.42800000  0.36700000  1.0 -0.3728013593
C  C24  1  0.38400000  0.42600000  0.19800000  1.0 -0.2621470241
C  C25  1  0.00500000  0.66270000  0.57300000  1.0 -0.1407446993
C  C26  1  0.95400000  0.56600000  0.80100000  1.0 -0.2621470241
C  C27  1  0.84700000  0.56900000  0.62500000  1.0 -0.4878761975
C  C28  1  0.99400000  0.65850000  0.41200000  1.0 -0.1407446993
C  C29  1  0.14800000  0.72000000  0.36700000  1.0 -0.3728013593
C  C30  1  0.04200000  0.61600000  0.19800000  1.0 -0.2650054651
C  C31  1  0.65770000  0.99500000  0.57300000  1.0 -0.1407446993
C  C32  1  0.61200000  0.04600000  0.80100000  1.0 -0.2621470241
C  C33  1  0.72200000  0.15300000  0.62500000  1.0 -0.4878761975
C  C34  1  0.66450000  0.00600000  0.41200000  1.0 -0.1407446993
C  C35  1  0.57200000  0.85200000  0.36700000  1.0 -0.3728013593
C  C36  1  0.57400000  0.95800000  0.19800000  1.0 -0.2621470241
N  N1  1  0.58170000  0.63990000  0.34740000  1.0 0.0805525226
N  N2  1  0.64500000  0.58270000  0.65500000  1.0 0.0985853267
N  N3  1  0.05820000  0.41830000  0.34740000  1.0 0.0805525226
N  N4  1  0.93770000  0.35500000  0.65500000  1.0 0.0985853267
N  N5  1  0.36010000  0.94180000  0.34740000  1.0 0.0805525226
N  N6  1  0.41730000  0.06230000  0.65500000  1.0 0.0985853267
N  N7  1  0.41830000  0.36010000  0.65260000  1.0 0.0805525226
N  N8  1  0.35500000  0.41730000  0.34500000  1.0 0.0985853267
N  N9  1  0.94180000  0.58170000  0.65260000  1.0 0.0805525226
N  N10  1  0.06230000  0.64500000  0.34500000  1.0 0.0985853267
N  N11  1  0.63990000  0.05820000  0.65260000  1.0 0.0805525226
N  N12  1  0.58270000  0.93770000  0.34500000  1.0 0.0985853267
O  O1  1  0.77620000  0.88730000  0.49400000  1.0 -0.6164962209
O  O2  1  0.11270000  0.88890000  0.49400000  1.0 -0.6164962209
O  O3  1  0.11110000  0.22380000  0.49400000  1.0 -0.6164962209
O  O4  1  0.22380000  0.11270000  0.50600000  1.0 -0.6164962209
O  O5  1  0.88730000  0.11110000  0.50600000  1.0 -0.6164962209
O  O6  1  0.88890000  0.77620000  0.50600000  1.0 -0.6164962209
O  O7  1  0.91150000  0.95500000  0.34800000  1.0 -0.7756772098
O  O8  1  0.04500000  0.95650000  0.34800000  1.0 -0.7756772098
O  O9  1  0.04350000  0.08850000  0.34800000  1.0 -0.7756772098
O  O10  1  0.08850000  0.04500000  0.65200000  1.0 -0.7756772098
O  O11  1  0.95500000  0.04350000  0.65200000  1.0 -0.7756772098
O  O12  1  0.95650000  0.91150000  0.65200000  1.0 -0.7756772098
O  O13  1  0.79680000  0.96440000  0.22870000  1.0 -0.8193055846
O  O14  1  0.03560000  0.83240000  0.22870000  1.0 -0.8193055846
O  O15  1  0.16760000  0.20320000  0.22870000  1.0 -0.8193055846
O  O16  1  0.20320000  0.03560000  0.77130000  1.0 -0.8193055846
O  O17  1  0.96440000  0.16760000  0.77130000  1.0 -0.8193055846
O  O18  1  0.83240000  0.79680000  0.77130000  1.0 -0.8193055846
O  O19  1  0.79670000  0.83300000  0.22790000  1.0 -0.8193055846
O  O20  1  0.16700000  0.96370000  0.22790000  1.0 -0.8193055846
O  O21  1  0.03630000  0.20330000  0.22790000  1.0 -0.8193055846
O  O22  1  0.20330000  0.16700000  0.77210000  1.0 -0.8193055846
O  O23  1  0.83300000  0.03630000  0.77210000  1.0 -0.8193055846
O  O24  1  0.96370000  0.79670000  0.77210000  1.0 -0.8193055846
O  O25  1  0.70820000  0.28940000  0.93920000  1.0 -0.7596651969
O  O26  1  0.71060000  0.41880000  0.93920000  1.0 -0.7596651969
O  O27  1  0.58120000  0.29180000  0.93920000  1.0 -0.7596651969
O  O28  1  0.29180000  0.71060000  0.06080000  1.0 -0.7596651969
O  O29  1  0.28940000  0.58120000  0.06080000  1.0 -0.7596651969
O  O30  1  0.41880000  0.70820000  0.06080000  1.0 -0.7596651969
O  O31  1  0.78630000  0.08200000  0.04810000  1.0 -0.7180131482
O  O32  1  0.91800000  0.70430000  0.04810000  1.0 -0.7180131482
O  O33  1  0.29570000  0.21370000  0.04810000  1.0 -0.7180131482
O  O34  1  0.21370000  0.91800000  0.95190000  1.0 -0.7180131482
O  O35  1  0.08200000  0.29570000  0.95190000  1.0 -0.7180131482
O  O36  1  0.70430000  0.78630000  0.95190000  1.0 -0.7180131482
O  O37  1  0.91870000  0.21410000  0.05360000  1.0 -0.7017556684
O  O38  1  0.78590000  0.70460000  0.05360000  1.0 -0.7017556684
O  O39  1  0.29540000  0.08130000  0.05360000  1.0 -0.7017556684
O  O40  1  0.08130000  0.78590000  0.94640000  1.0 -0.7017556684
O  O41  1  0.21410000  0.29540000  0.94640000  1.0 -0.7017556684
O  O42  1  0.70460000  0.91870000  0.94640000  1.0 -0.7017556684
O  O43  1  0.54030000  0.08020000  0.39580000  1.0 -0.7977383772
O  O44  1  0.91980000  0.46010000  0.39580000  1.0 -0.7977383772
O  O45  1  0.53990000  0.45970000  0.39580000  1.0 -0.7977383772
O  O46  1  0.45970000  0.91980000  0.60420000  1.0 -0.7977383772
O  O47  1  0.08020000  0.53990000  0.60420000  1.0 -0.7977383772
O  O48  1  0.46010000  0.54030000  0.60420000  1.0 -0.7977383772
O  O49  1  0.65310000  0.17850000  0.22800000  1.0 -0.794023352
O  O50  1  0.82150000  0.47460000  0.22800000  1.0 -0.7977383772
O  O51  1  0.52540000  0.34690000  0.22800000  1.0 -0.794023352
O  O52  1  0.34690000  0.82150000  0.77200000  1.0 -0.7977383772
O  O53  1  0.17850000  0.52540000  0.77200000  1.0 -0.7977383772
O  O54  1  0.47460000  0.65310000  0.77200000  1.0 -0.7977383772
O  O55  1  0.61100000  0.22430000  0.47370000  1.0 -0.7596651969
O  O56  1  0.77570000  0.38670000  0.47370000  1.0 -0.7596651969
O  O57  1  0.61330000  0.38900000  0.47370000  1.0 -0.7596651969
O  O58  1  0.38900000  0.77570000  0.52630000  1.0 -0.7596651969
O  O59  1  0.22430000  0.61330000  0.52630000  1.0 -0.7596651969
O  O60  1  0.38670000  0.61100000  0.52630000  1.0 -0.7596651969
O  O61  1  0.52620000  0.17880000  0.22850000  1.0 -0.794023352
O  O62  1  0.82120000  0.34740000  0.22850000  1.0 -0.794023352
O  O63  1  0.65260000  0.47380000  0.22850000  1.0 -0.794023352
O  O64  1  0.47380000  0.82120000  0.77150000  1.0 -0.7977383772
O  O65  1  0.17880000  0.65260000  0.77150000  1.0 -0.794023352
O  O66  1  0.34740000  0.52620000  0.77150000  1.0 -0.794023352
O  O67  1  0.66666667  0.33333333  0.22870000  1.0 -0.8616545158
O  O68  1  0.33333333  0.66666667  0.77130000  1.0 -0.8616545158
O  O69  1  0.66666667  0.33333333  0.70430000  1.0 -0.7180131482
O  O70  1  0.33333333  0.66666667  0.29570000  1.0 -0.7180131482
O  O71  1  0.78830000  0.21190000  0.04050000  1.0 -0.6844550627
O  O72  1  0.78810000  0.57640000  0.04050000  1.0 -0.685557391
O  O73  1  0.42360000  0.21170000  0.04050000  1.0 -0.6844550627
O  O74  1  0.21170000  0.78810000  0.95950000  1.0 -0.685557391
O  O75  1  0.21190000  0.42360000  0.95950000  1.0 -0.685557391
O  O76  1  0.57640000  0.78830000  0.95950000  1.0 -0.685557391
O  O77  1  0.85290000  0.92670000  0.94760000  1.0 -0.8774596907
O  O78  1  0.07330000  0.92620000  0.94760000  1.0 -0.8774596907
O  O79  1  0.07380000  0.14710000  0.94760000  1.0 -0.8774596907
O  O80  1  0.14710000  0.07330000  0.05240000  1.0 -0.8774596907
O  O81  1  0.92670000  0.07380000  0.05240000  1.0 -0.8774596907
O  O82  1  0.92620000  0.85290000  0.05240000  1.0 -0.8774596907
