# DDEC6 charges by PACMAN v1.1 (https://github.com/mtap-research/PACMAN-charge/)
data_MUWRON_ASR_pacman
_symmetry_space_group_name_H-M   'P 1'
_cell_length_a   16.54510000
_cell_length_b   16.54510000
_cell_length_c   16.54510000
_cell_angle_alpha   68.54550000
_cell_angle_beta   68.54550000
_cell_angle_gamma   68.54550000
_symmetry_Int_Tables_number   1
_chemical_formula_structural   CuH8C11(NO2)2
_chemical_formula_sum   'Cu6 H48 C66 N12 O24'
_cell_volume   3779.85030204
_cell_formula_units_Z   6
loop_
 _symmetry_equiv_pos_site_id
 _symmetry_equiv_pos_as_xyz
  1  'x, y, z'
loop_
 _atom_site_type_symbol
 _atom_site_label
 _atom_site_symmetry_multiplicity
 _atom_site_fract_x
 _atom_site_fract_y
 _atom_site_fract_z
 _atom_site_occupancy
 _atom_site_charge
Cu  Cu1  1  0.99401000  0.99401000  0.42543000  1.0 0.8354685426
Cu  Cu2  1  0.99401000  0.42543000  0.99401000  1.0 0.8354685426
Cu  Cu3  1  0.42543000  0.99401000  0.99401000  1.0 0.8354685426
Cu  Cu4  1  0.00598000  0.57457000  0.00598000  1.0 0.8354685426
Cu  Cu5  1  0.00598000  0.00598000  0.57457000  1.0 0.8354685426
Cu  Cu6  1  0.57457000  0.00599000  0.00598000  1.0 0.8338737965
H  H1  1  0.71510000  0.01570000  0.50080000  1.0 0.0943355194
H  H2  1  0.01570000  0.50080000  0.71510000  1.0 0.0943355194
H  H3  1  0.50080000  0.71510000  0.01570000  1.0 0.0943355194
H  H4  1  0.28490000  0.49920000  0.98430000  1.0 0.0943355194
H  H5  1  0.98430000  0.28490000  0.49920000  1.0 0.0943355194
H  H6  1  0.49920000  0.98430000  0.28490000  1.0 0.0943355194
H  H7  1  0.28490000  0.98430000  0.49920000  1.0 0.0943355194
H  H8  1  0.98430000  0.49920000  0.28490000  1.0 0.0943355194
H  H9  1  0.49920000  0.28490000  0.98430000  1.0 0.0984292297
H  H10  1  0.71510000  0.50080000  0.01570000  1.0 0.0943355194
H  H11  1  0.01570000  0.71510000  0.50080000  1.0 0.0943355194
H  H12  1  0.50080000  0.01570000  0.71510000  1.0 0.0943355194
H  H13  1  0.65480000  0.94310000  0.46540000  1.0 0.0984292297
H  H14  1  0.94310000  0.46540000  0.65480000  1.0 0.0984292297
H  H15  1  0.46540000  0.65480000  0.94310000  1.0 0.0984292297
H  H16  1  0.34520000  0.53460000  0.05690000  1.0 0.0984292297
H  H17  1  0.05690000  0.34520000  0.53460000  1.0 0.0984292297
H  H18  1  0.53460000  0.05690000  0.34520000  1.0 0.0943355194
H  H19  1  0.34520000  0.05690000  0.53460000  1.0 0.0943355194
H  H20  1  0.05690000  0.53460000  0.34520000  1.0 0.0943355194
H  H21  1  0.53460000  0.34520000  0.05690000  1.0 0.0943355194
H  H22  1  0.65480000  0.46540000  0.94310000  1.0 0.0943355194
H  H23  1  0.94310000  0.65480000  0.46540000  1.0 0.0984292297
H  H24  1  0.46540000  0.94310000  0.65480000  1.0 0.0984292297
H  H25  1  0.65080000  0.92640000  0.47860000  1.0 0.0984292297
H  H26  1  0.92640000  0.47860000  0.65080000  1.0 0.0984292297
H  H27  1  0.47860000  0.65080000  0.92640000  1.0 0.0984292297
H  H28  1  0.34920000  0.52140000  0.07360000  1.0 0.0984292297
H  H29  1  0.07360000  0.34920000  0.52140000  1.0 0.0984292297
H  H30  1  0.52140000  0.07360000  0.34920000  1.0 0.0984292297
H  H31  1  0.34920000  0.07360000  0.52140000  1.0 0.0984292297
H  H32  1  0.07360000  0.52140000  0.34920000  1.0 0.0984292297
H  H33  1  0.52140000  0.34920000  0.07360000  1.0 0.0984292297
H  H34  1  0.65080000  0.47860000  0.92640000  1.0 0.0984292297
H  H35  1  0.92640000  0.65080000  0.47860000  1.0 0.0984292297
H  H36  1  0.47860000  0.92640000  0.65080000  1.0 0.0984292297
H  H37  1  0.57360000  0.92890000  0.38530000  1.0 0.1993172884
H  H38  1  0.92890000  0.38530000  0.57360000  1.0 0.1993172884
H  H39  1  0.38530000  0.57360000  0.92890000  1.0 0.1993172884
H  H40  1  0.42640000  0.61470000  0.07110000  1.0 0.1993172884
H  H41  1  0.07110000  0.42640000  0.61470000  1.0 0.1993172884
H  H42  1  0.61470000  0.07110000  0.42640000  1.0 0.1949116767
H  H43  1  0.42640000  0.07110000  0.61470000  1.0 0.1949116767
H  H44  1  0.07110000  0.61470000  0.42640000  1.0 0.1993172884
H  H45  1  0.61470000  0.42640000  0.07110000  1.0 0.1993172884
H  H46  1  0.57360000  0.38530000  0.92890000  1.0 0.1993172884
H  H47  1  0.92890000  0.57360000  0.38530000  1.0 0.1993172884
H  H48  1  0.38530000  0.92890000  0.57360000  1.0 0.1993172884
C  C1  1  0.83467000  0.01904000  0.56746000  1.0 0.5790844292
C  C2  1  0.01904000  0.56746000  0.83467000  1.0 0.5790844292
C  C3  1  0.56746000  0.83467000  0.01904000  1.0 0.5790844292
C  C4  1  0.16533000  0.43254000  0.98096000  1.0 0.5790844292
C  C5  1  0.98096000  0.16533000  0.43254000  1.0 0.5790844292
C  C6  1  0.43254000  0.98096000  0.16533000  1.0 0.5790844292
C  C7  1  0.16533000  0.98096000  0.43254000  1.0 0.5790844292
C  C8  1  0.98096000  0.43254000  0.16533000  1.0 0.5790844292
C  C9  1  0.43254000  0.16533000  0.98096000  1.0 0.5790844292
C  C10  1  0.83467000  0.56746000  0.01904000  1.0 0.5790844292
C  C11  1  0.01904000  0.83467000  0.56746000  1.0 0.5790844292
C  C12  1  0.56746000  0.01904000  0.83467000  1.0 0.5790844292
C  C13  1  0.73782000  0.02157000  0.61003000  1.0 -0.0542883955
C  C14  1  0.02157000  0.61003000  0.73782000  1.0 -0.0542883955
C  C15  1  0.61003000  0.73782000  0.02157000  1.0 -0.0553908095
C  C16  1  0.26218000  0.38997000  0.97843000  1.0 -0.0542883955
C  C17  1  0.97843000  0.26218000  0.38997000  1.0 -0.0553908095
C  C18  1  0.38997000  0.97843000  0.26218000  1.0 -0.0542883955
C  C19  1  0.26218000  0.97843000  0.38997000  1.0 -0.0553908095
C  C20  1  0.97843000  0.38997000  0.26218000  1.0 -0.0553908095
C  C21  1  0.38997000  0.26218000  0.97843000  1.0 -0.0542883955
C  C22  1  0.73782000  0.61003000  0.02157000  1.0 -0.0553908095
C  C23  1  0.02157000  0.73782000  0.61003000  1.0 -0.0542883955
C  C24  1  0.61003000  0.02157000  0.73782000  1.0 -0.0553908095
C  C25  1  0.69872000  0.02487000  0.69872000  1.0 0.0078075991
C  C26  1  0.02487000  0.69872000  0.69872000  1.0 0.0078075991
C  C27  1  0.69872000  0.69872000  0.02487000  1.0 0.0078075991
C  C28  1  0.30128000  0.30128000  0.97513000  1.0 0.0035337249
C  C29  1  0.97513000  0.30128000  0.30128000  1.0 0.0078075991
C  C30  1  0.30128000  0.97513000  0.30128000  1.0 0.0035337249
C  C31  1  0.68848000  0.01688000  0.56068000  1.0 -0.1995845507
C  C32  1  0.01688000  0.56068000  0.68848000  1.0 -0.1995845507
C  C33  1  0.56068000  0.68848000  0.01688000  1.0 -0.1995845507
C  C34  1  0.31152000  0.43932000  0.98312000  1.0 -0.1995845507
C  C35  1  0.98312000  0.31152000  0.43932000  1.0 -0.1995845507
C  C36  1  0.43932000  0.98312000  0.31152000  1.0 -0.1995845507
C  C37  1  0.31152000  0.98312000  0.43932000  1.0 -0.1995845507
C  C38  1  0.98312000  0.43932000  0.31152000  1.0 -0.1995845507
C  C39  1  0.43932000  0.31152000  0.98312000  1.0 -0.1995845507
C  C40  1  0.68848000  0.56068000  0.01688000  1.0 -0.1995845507
C  C41  1  0.01688000  0.68848000  0.56068000  1.0 -0.1995845507
C  C42  1  0.56068000  0.01688000  0.68848000  1.0 -0.1995845507
C  C43  1  0.59981000  0.01401000  0.59981000  1.0 -0.086341542
C  C44  1  0.01401000  0.59981000  0.59981000  1.0 -0.086341542
C  C45  1  0.59981000  0.59981000  0.01401000  1.0 -0.0837686553
C  C46  1  0.40019000  0.40019000  0.98599000  1.0 -0.086341542
C  C47  1  0.98599000  0.40019000  0.40019000  1.0 -0.086341542
C  C48  1  0.40019000  0.98599000  0.40019000  1.0 -0.0837686553
C  C49  1  0.54816000  0.00811000  0.54816000  1.0 0.0984292297
C  C50  1  0.00811000  0.54816000  0.54816000  1.0 0.0943355194
C  C51  1  0.54816000  0.54816000  0.00811000  1.0 0.0943355194
C  C52  1  0.45184000  0.45184000  0.99189000  1.0 0.0984292297
C  C53  1  0.99189000  0.45184000  0.45184000  1.0 0.0943355194
C  C54  1  0.45184000  0.99189000  0.45184000  1.0 0.0984292297
C  C55  1  0.59230000  0.96370000  0.48120000  1.0 -0.0199315701
C  C56  1  0.96370000  0.48120000  0.59230000  1.0 -0.0199315701
C  C57  1  0.48120000  0.59230000  0.96370000  1.0 -0.0199315701
C  C58  1  0.40770000  0.51880000  0.03630000  1.0 -0.0199315701
C  C59  1  0.03630000  0.40770000  0.51880000  1.0 -0.0199315701
C  C60  1  0.51880000  0.03630000  0.40770000  1.0 -0.0199315701
C  C61  1  0.40770000  0.03630000  0.51880000  1.0 -0.0199315701
C  C62  1  0.03630000  0.51880000  0.40770000  1.0 -0.0199315701
C  C63  1  0.51880000  0.40770000  0.03630000  1.0 -0.0199315701
C  C64  1  0.59230000  0.48120000  0.96370000  1.0 -0.0199315701
C  C65  1  0.96370000  0.59230000  0.48120000  1.0 -0.0199315701
C  C66  1  0.48120000  0.96370000  0.59230000  1.0 -0.0199315701
N  N1  1  0.54409000  0.95739000  0.43159000  1.0 -0.1512927145
N  N2  1  0.95739000  0.43159000  0.54409000  1.0 -0.1512927145
N  N3  1  0.43159000  0.54409000  0.95739000  1.0 -0.1512927145
N  N4  1  0.45591000  0.56841000  0.04261000  1.0 -0.1512927145
N  N5  1  0.04261000  0.45591000  0.56841000  1.0 -0.1512927145
N  N6  1  0.56841000  0.04261000  0.45591000  1.0 -0.1512927145
N  N7  1  0.45591000  0.04261000  0.56841000  1.0 -0.1559289515
N  N8  1  0.04261000  0.56841000  0.45591000  1.0 -0.1512927145
N  N9  1  0.56841000  0.45591000  0.04261000  1.0 -0.1559289515
N  N10  1  0.54409000  0.43159000  0.95739000  1.0 -0.1512927145
N  N11  1  0.95739000  0.54409000  0.43159000  1.0 -0.1512927145
N  N12  1  0.43159000  0.95739000  0.54409000  1.0 -0.1512927145
O  O1  1  0.86682000  0.01258000  0.48882000  1.0 -0.543130751
O  O2  1  0.01258000  0.48882000  0.86682000  1.0 -0.543130751
O  O3  1  0.48882000  0.86682000  0.01258000  1.0 -0.543130751
O  O4  1  0.13318000  0.51118000  0.98742000  1.0 -0.543130751
O  O5  1  0.98742000  0.13318000  0.51118000  1.0 -0.543130751
O  O6  1  0.51118000  0.98742000  0.13318000  1.0 -0.543130751
O  O7  1  0.13318000  0.98742000  0.51118000  1.0 -0.543130751
O  O8  1  0.98742000  0.51118000  0.13318000  1.0 -0.543130751
O  O9  1  0.51118000  0.13318000  0.98742000  1.0 -0.543130751
O  O10  1  0.86682000  0.48882000  0.01258000  1.0 -0.543130751
O  O11  1  0.01258000  0.86682000  0.48882000  1.0 -0.543130751
O  O12  1  0.48882000  0.01258000  0.86682000  1.0 -0.5451662659
O  O13  1  0.87610000  0.02217000  0.61545000  1.0 -0.5237303138
O  O14  1  0.02217000  0.61545000  0.87610000  1.0 -0.5237303138
O  O15  1  0.61545000  0.87610000  0.02217000  1.0 -0.5237303138
O  O16  1  0.12390000  0.38455000  0.97783000  1.0 -0.5237303138
O  O17  1  0.97783000  0.12390000  0.38455000  1.0 -0.5237303138
O  O18  1  0.38455000  0.97783000  0.12390000  1.0 -0.5237303138
O  O19  1  0.12390000  0.97783000  0.38455000  1.0 -0.5237303138
O  O20  1  0.97783000  0.38455000  0.12390000  1.0 -0.5254530131
O  O21  1  0.38455000  0.12390000  0.97783000  1.0 -0.5237303138
O  O22  1  0.87610000  0.61545000  0.02217000  1.0 -0.5237303138
O  O23  1  0.02217000  0.87610000  0.61545000  1.0 -0.5237303138
O  O24  1  0.61545000  0.02217000  0.87610000  1.0 -0.5254530131
