# DDEC6 charges by PACMAN v1.1 (https://github.com/mtap-research/PACMAN-charge/)
data_NABSEP_ASR_pacman
_symmetry_space_group_name_H-M   'P 1'
_cell_length_a   9.96910000
_cell_length_b   12.40130000
_cell_length_c   17.82820000
_cell_angle_alpha   90.00000000
_cell_angle_beta   109.13500000
_cell_angle_gamma   90.00000000
_symmetry_Int_Tables_number   1
_chemical_formula_structural   Fe2P2O8F
_chemical_formula_sum   'Fe16 P16 O64 F8'
_cell_volume   2082.31791418
_cell_formula_units_Z   8
loop_
 _symmetry_equiv_pos_site_id
 _symmetry_equiv_pos_as_xyz
  1  'x, y, z'
loop_
 _atom_site_type_symbol
 _atom_site_label
 _atom_site_symmetry_multiplicity
 _atom_site_fract_x
 _atom_site_fract_y
 _atom_site_fract_z
 _atom_site_occupancy
 _atom_site_charge
Fe  Fe1  1  0.05750000  0.35340000  0.92390000  1.0 1.4408657688
Fe  Fe2  1  0.94250000  0.85340000  0.57610000  1.0 1.4408657688
Fe  Fe3  1  0.94250000  0.64660000  0.07610000  1.0 1.4408657688
Fe  Fe4  1  0.05750000  0.14660000  0.42390000  1.0 1.4408657688
Fe  Fe5  1  0.53440000  0.42210000  0.77970000  1.0 1.5114477116
Fe  Fe6  1  0.46560000  0.92210000  0.72030000  1.0 1.5114477116
Fe  Fe7  1  0.46560000  0.57790000  0.22030000  1.0 1.5114477116
Fe  Fe8  1  0.53440000  0.07790000  0.27970000  1.0 1.5114477116
Fe  Fe9  1  0.80950000  0.97390000  0.86920000  1.0 1.5239577431
Fe  Fe10  1  0.19050000  0.47390000  0.63080000  1.0 1.5239577431
Fe  Fe11  1  0.19050000  0.02610000  0.13080000  1.0 1.5256905693
Fe  Fe12  1  0.80950000  0.52610000  0.36920000  1.0 1.5239577431
Fe  Fe13  1  0.26270000  0.10980000  0.79200000  1.0 1.4909923512
Fe  Fe14  1  0.73730000  0.60980000  0.70800000  1.0 1.4909923512
Fe  Fe15  1  0.73730000  0.89020000  0.20800000  1.0 1.4909923512
Fe  Fe16  1  0.26270000  0.39020000  0.29200000  1.0 1.4909923512
P  P1  1  0.19100000  0.45930000  0.10670000  1.0 1.5017618972
P  P2  1  0.80900000  0.95930000  0.39330000  1.0 1.5017618972
P  P3  1  0.80900000  0.54070000  0.89330000  1.0 1.5017618972
P  P4  1  0.19100000  0.04070000  0.60670000  1.0 1.5017618972
P  P5  1  0.24610000  0.37260000  0.80800000  1.0 1.5114477116
P  P6  1  0.75390000  0.87260000  0.69200000  1.0 1.5114477116
P  P7  1  0.75390000  0.62740000  0.19200000  1.0 1.5114477116
P  P8  1  0.24610000  0.12740000  0.30800000  1.0 1.5114477116
P  P9  1  0.57600000  0.15450000  0.79570000  1.0 1.5114477116
P  P10  1  0.42400000  0.65450000  0.70430000  1.0 1.5114477116
P  P11  1  0.42400000  0.84550000  0.20430000  1.0 1.5114477116
P  P12  1  0.57600000  0.34550000  0.29570000  1.0 1.5114477116
P  P13  1  0.13820000  0.08790000  0.94180000  1.0 1.4809637804
P  P14  1  0.86180000  0.58790000  0.55820000  1.0 1.4746836562
P  P15  1  0.86180000  0.91210000  0.05820000  1.0 1.4746836562
P  P16  1  0.13820000  0.41210000  0.44180000  1.0 1.4809637804
O  O1  1  0.11670000  0.20830000  0.95660000  1.0 -0.7114301782
O  O2  1  0.88330000  0.70830000  0.54340000  1.0 -0.7114301782
O  O3  1  0.88330000  0.79170000  0.04340000  1.0 -0.7114301782
O  O4  1  0.11670000  0.29170000  0.45660000  1.0 -0.7114301782
O  O5  1  0.17060000  0.40080000  0.02870000  1.0 -0.6416385334
O  O6  1  0.82940000  0.90080000  0.47130000  1.0 -0.6416385334
O  O7  1  0.82940000  0.59920000  0.97130000  1.0 -0.6416385334
O  O8  1  0.17060000  0.09920000  0.52870000  1.0 -0.6416385334
O  O9  1  0.19520000  0.40530000  0.87780000  1.0 -0.6529607188
O  O10  1  0.80480000  0.90530000  0.62220000  1.0 -0.6529607188
O  O11  1  0.80480000  0.59470000  0.12220000  1.0 -0.6529607188
O  O12  1  0.19520000  0.09470000  0.37780000  1.0 -0.6529607188
O  O13  1  0.05110000  0.51500000  0.10360000  1.0 -0.7114301782
O  O14  1  0.94890000  0.01500000  0.39640000  1.0 -0.7114301782
O  O15  1  0.94890000  0.48500000  0.89640000  1.0 -0.7114301782
O  O16  1  0.05110000  0.98500000  0.60360000  1.0 -0.7114301782
O  O17  1  0.40860000  0.38250000  0.83790000  1.0 -0.6790604156
O  O18  1  0.59140000  0.88250000  0.66210000  1.0 -0.6790604156
O  O19  1  0.59140000  0.61750000  0.16210000  1.0 -0.6790604156
O  O20  1  0.40860000  0.11750000  0.33790000  1.0 -0.6790604156
O  O21  1  0.30890000  0.54530000  0.11960000  1.0 -0.6973564998
O  O22  1  0.69110000  0.04530000  0.38040000  1.0 -0.6973564998
O  O23  1  0.69110000  0.45470000  0.88040000  1.0 -0.6973564998
O  O24  1  0.30890000  0.95470000  0.61960000  1.0 -0.6973564998
O  O25  1  0.59420000  0.26970000  0.77010000  1.0 -0.6569729906
O  O26  1  0.40580000  0.76970000  0.72990000  1.0 -0.6569729906
O  O27  1  0.40580000  0.73030000  0.22990000  1.0 -0.6569729906
O  O28  1  0.59420000  0.23030000  0.27010000  1.0 -0.6569729906
O  O29  1  0.53430000  0.07850000  0.72390000  1.0 -0.7502869677
O  O30  1  0.46570000  0.57850000  0.77610000  1.0 -0.7502869677
O  O31  1  0.46570000  0.92150000  0.27610000  1.0 -0.7502869677
O  O32  1  0.53430000  0.42150000  0.22390000  1.0 -0.7502869677
O  O33  1  0.99940000  0.03630000  0.89400000  1.0 -0.6973564998
O  O34  1  0.00060000  0.53630000  0.60600000  1.0 -0.6903132129
O  O35  1  0.00060000  0.96370000  0.10600000  1.0 -0.6973564998
O  O36  1  0.99940000  0.46370000  0.39400000  1.0 -0.6973564998
O  O37  1  0.20140000  0.03110000  0.02170000  1.0 -0.6790604156
O  O38  1  0.79860000  0.53110000  0.47830000  1.0 -0.6790604156
O  O39  1  0.79860000  0.96890000  0.97830000  1.0 -0.6790604156
O  O40  1  0.20140000  0.46890000  0.52170000  1.0 -0.6790604156
O  O41  1  0.72340000  0.11950000  0.85420000  1.0 -0.6685231414
O  O42  1  0.27660000  0.61950000  0.64580000  1.0 -0.6685231414
O  O43  1  0.27660000  0.88050000  0.14580000  1.0 -0.6685231414
O  O44  1  0.72340000  0.38050000  0.35420000  1.0 -0.6685231414
O  O45  1  0.18130000  0.45090000  0.73950000  1.0 -0.6903132129
O  O46  1  0.81870000  0.95090000  0.76050000  1.0 -0.6903132129
O  O47  1  0.81870000  0.54910000  0.26050000  1.0 -0.6903132129
O  O48  1  0.18130000  0.04910000  0.23950000  1.0 -0.6903132129
O  O49  1  0.19550000  0.25830000  0.78290000  1.0 -0.7181577396
O  O50  1  0.80450000  0.75830000  0.71710000  1.0 -0.7181577396
O  O51  1  0.80450000  0.74170000  0.21710000  1.0 -0.7181577396
O  O52  1  0.19550000  0.24170000  0.28290000  1.0 -0.7181577396
O  O53  1  0.46310000  0.14890000  0.83780000  1.0 -0.6903132129
O  O54  1  0.53690000  0.64890000  0.66220000  1.0 -0.6903132129
O  O55  1  0.53690000  0.85110000  0.16220000  1.0 -0.6903132129
O  O56  1  0.46310000  0.35110000  0.33780000  1.0 -0.6903132129
O  O57  1  0.24650000  0.07830000  0.89770000  1.0 -0.6685231414
O  O58  1  0.75350000  0.57830000  0.60230000  1.0 -0.6685231414
O  O59  1  0.75350000  0.92170000  0.10230000  1.0 -0.6685231414
O  O60  1  0.24650000  0.42170000  0.39770000  1.0 -0.6685231414
O  O61  1  0.22950000  0.37660000  0.17390000  1.0 -0.6790604156
O  O62  1  0.77050000  0.87660000  0.32610000  1.0 -0.6790604156
O  O63  1  0.77050000  0.62340000  0.82610000  1.0 -0.6790604156
O  O64  1  0.22950000  0.12340000  0.67390000  1.0 -0.6790604156
F  F1  1  0.38670000  0.40820000  0.67260000  1.0 -0.512283371
F  F2  1  0.61330000  0.90820000  0.82740000  1.0 -0.512283371
F  F3  1  0.61330000  0.59180000  0.32740000  1.0 -0.512283371
F  F4  1  0.38670000  0.09180000  0.17260000  1.0 -0.512283371
F  F5  1  0.66880000  0.46090000  0.72070000  1.0 -0.4672110092
F  F6  1  0.33120000  0.96090000  0.77930000  1.0 -0.4672110092
F  F7  1  0.33120000  0.53910000  0.27930000  1.0 -0.4672110092
F  F8  1  0.66880000  0.03910000  0.22070000  1.0 -0.4672110092
