# DDEC6 charges by PACMAN v1.1 (https://github.com/mtap-research/PACMAN-charge/)
data_NACDAA01_ion_pacman
_symmetry_space_group_name_H-M   'P 1'
_cell_length_a   10.83800000
_cell_length_b   15.43240000
_cell_length_c   18.32070000
_cell_angle_alpha   90.00000000
_cell_angle_beta   120.08100000
_cell_angle_gamma   90.00000000
_symmetry_Int_Tables_number   1
_chemical_formula_structural   CuH24C24(NO)5
_chemical_formula_sum   'Cu4 H96 C96 N20 O20'
_cell_volume   2651.55267273
_cell_formula_units_Z   4
loop_
 _symmetry_equiv_pos_site_id
 _symmetry_equiv_pos_as_xyz
  1  'x, y, z'
loop_
 _atom_site_type_symbol
 _atom_site_label
 _atom_site_symmetry_multiplicity
 _atom_site_fract_x
 _atom_site_fract_y
 _atom_site_fract_z
 _atom_site_occupancy
 _atom_site_charge
Cu  Cu1  1  0.50000000  0.00000000  0.00000000  1.0 0.7538832483
Cu  Cu2  1  0.50000000  0.50000000  0.50000000  1.0 0.7538832483
Cu  Cu3  1  0.00000000  0.00000000  0.50000000  1.0 0.7563273666
Cu  Cu4  1  0.00000000  0.50000000  0.00000000  1.0 0.7563273666
H  H1  1  0.46490000  0.60960000  0.34780000  1.0 0.1194539314
H  H2  1  0.70360000  0.91400000  0.27130000  1.0 0.1295922253
H  H3  1  0.31600000  0.80550000  0.13740000  1.0 0.1295922253
H  H4  1  0.74610000  0.83340000  0.38850000  1.0 0.1409064291
H  H5  1  0.35470000  0.72730000  0.25500000  1.0 0.1295922253
H  H6  1  0.70360000  0.66590000  0.58820000  1.0 0.1295922253
H  H7  1  0.71800000  0.78930000  0.50890000  1.0 0.1459499394
H  H8  1  0.53510000  0.10960000  0.15220000  1.0 0.1194539314
H  H9  1  0.29640000  0.41400000  0.22870000  1.0 0.1295922253
H  H10  1  0.68400000  0.30550000  0.36260000  1.0 0.1295922253
H  H11  1  0.25390000  0.33340000  0.11150000  1.0 0.1409064291
H  H12  1  0.64530000  0.22730000  0.24500000  1.0 0.1295922253
H  H13  1  0.29640000  0.16590000  0.91180000  1.0 0.1295922253
H  H14  1  0.28200000  0.28930000  0.99110000  1.0 0.1459499394
H  H15  1  0.53510000  0.39040000  0.65220000  1.0 0.1194539314
H  H16  1  0.29640000  0.08600000  0.72870000  1.0 0.1295922253
H  H17  1  0.68400000  0.19450000  0.86260000  1.0 0.1295922253
H  H18  1  0.25390000  0.16660000  0.61150000  1.0 0.1409064291
H  H19  1  0.64530000  0.27270000  0.74500000  1.0 0.1295922253
H  H20  1  0.29640000  0.33410000  0.41180000  1.0 0.1295922253
H  H21  1  0.28200000  0.21070000  0.49110000  1.0 0.1459499394
H  H22  1  0.46490000  0.89040000  0.84780000  1.0 0.1194539314
H  H23  1  0.70360000  0.58600000  0.77130000  1.0 0.1295922253
H  H24  1  0.31600000  0.69450000  0.63740000  1.0 0.1295922253
H  H25  1  0.74610000  0.66666667  0.88850000  1.0 0.1409064291
H  H26  1  0.35470000  0.77270000  0.75500000  1.0 0.1295922253
H  H27  1  0.70360000  0.83410000  0.08820000  1.0 0.1295922253
H  H28  1  0.71800000  0.71070000  0.00890000  1.0 0.1459499394
H  H29  1  0.97450000  0.60730000  0.85100000  1.0 0.1194539314
H  H30  1  0.17830000  0.93220000  0.78090000  1.0 0.1295922253
H  H31  1  0.01280000  0.64950000  0.74300000  1.0 0.1295922253
H  H32  1  0.95740000  0.73590000  0.62800000  1.0 0.1194539314
H  H33  1  0.22510000  0.84860000  0.89730000  1.0 0.1295922253
H  H34  1  0.33020000  0.73410000  0.00530000  1.0 0.1295922253
H  H35  1  0.28520000  0.62400000  0.08600000  1.0 0.1295922253
H  H36  1  0.02550000  0.10730000  0.64900000  1.0 0.1194539314
H  H37  1  0.82170000  0.43220000  0.71910000  1.0 0.1295922253
H  H38  1  0.98720000  0.14950000  0.75700000  1.0 0.1295922253
H  H39  1  0.04260000  0.23590000  0.87200000  1.0 0.1194539314
H  H40  1  0.77490000  0.34860000  0.60270000  1.0 0.1295922253
H  H41  1  0.66980000  0.23410000  0.49470000  1.0 0.1295922253
H  H42  1  0.71480000  0.12400000  0.41400000  1.0 0.1295922253
H  H43  1  0.02550000  0.39270000  0.14900000  1.0 0.1194539314
H  H44  1  0.82170000  0.06780000  0.21910000  1.0 0.1295922253
H  H45  1  0.98720000  0.35050000  0.25700000  1.0 0.1295922253
H  H46  1  0.04260000  0.26410000  0.37200000  1.0 0.1194539314
H  H47  1  0.77490000  0.15140000  0.10270000  1.0 0.1295922253
H  H48  1  0.66980000  0.26590000  0.99470000  1.0 0.1295922253
H  H49  1  0.71480000  0.37600000  0.91400000  1.0 0.1295922253
H  H50  1  0.97450000  0.89270000  0.35100000  1.0 0.1194539314
H  H51  1  0.17830000  0.56780000  0.28090000  1.0 0.1295922253
H  H52  1  0.01280000  0.85050000  0.24300000  1.0 0.1295922253
H  H53  1  0.95740000  0.76410000  0.12800000  1.0 0.1194539314
H  H54  1  0.22510000  0.65140000  0.39730000  1.0 0.1295922253
H  H55  1  0.33020000  0.76590000  0.50530000  1.0 0.1295922253
H  H56  1  0.28520000  0.87600000  0.58600000  1.0 0.1295922253
H  H57  1  0.86200000  0.03610000  0.07230000  1.0 0.1010422839
H  H58  1  0.22780000  0.01960000  0.15740000  1.0 0.1194539314
H  H59  1  0.23890000  0.11400000  0.12950000  1.0 0.089790302
H  H60  1  0.20550000  0.03630000  0.06720000  1.0 0.089790302
H  H61  1  0.88870000  0.15770000  0.00420000  1.0 0.089790302
H  H62  1  0.97760000  0.12520000  0.96350000  1.0 0.1073322652
H  H63  1  0.04270000  0.19380000  0.03640000  1.0 0.1010422839
H  H64  1  0.08250000  0.04260000  0.97700000  1.0 0.0566893492
H  H65  1  0.17650000  0.12040000  0.03150000  1.0 0.0663030503
H  H66  1  0.01440000  0.13460000  0.96650000  1.0 0.1010422839
H  H67  1  0.13800000  0.53610000  0.42770000  1.0 0.1010422839
H  H68  1  0.77220000  0.51960000  0.34260000  1.0 0.1194539314
H  H69  1  0.76110000  0.61400000  0.37050000  1.0 0.089790302
H  H70  1  0.79450000  0.53630000  0.43280000  1.0 0.089790302
H  H71  1  0.11130000  0.65770000  0.49580000  1.0 0.089790302
H  H72  1  0.02240000  0.62520000  0.53650000  1.0 0.1073322652
H  H73  1  0.95730000  0.69380000  0.46360000  1.0 0.1010422839
H  H74  1  0.91750000  0.54260000  0.52300000  1.0 0.0566893492
H  H75  1  0.82350000  0.62040000  0.46850000  1.0 0.0663030503
H  H76  1  0.98560000  0.63460000  0.53350000  1.0 0.1010422839
H  H77  1  0.13800000  0.96390000  0.92770000  1.0 0.1010422839
H  H78  1  0.77220000  0.98040000  0.84260000  1.0 0.1194539314
H  H79  1  0.76110000  0.88600000  0.87050000  1.0 0.089790302
H  H80  1  0.79450000  0.96370000  0.93280000  1.0 0.089790302
H  H81  1  0.11130000  0.84230000  0.99580000  1.0 0.089790302
H  H82  1  0.02240000  0.87480000  0.03650000  1.0 0.1073322652
H  H83  1  0.95730000  0.80620000  0.96360000  1.0 0.1010422839
H  H84  1  0.91750000  0.95740000  0.02300000  1.0 0.0566893492
H  H85  1  0.82350000  0.87960000  0.96850000  1.0 0.0663030503
H  H86  1  0.98560000  0.86540000  0.03350000  1.0 0.1010422839
H  H87  1  0.86200000  0.46390000  0.57230000  1.0 0.1010422839
H  H88  1  0.22780000  0.48040000  0.65740000  1.0 0.1194539314
H  H89  1  0.23890000  0.38600000  0.62950000  1.0 0.089790302
H  H90  1  0.20550000  0.46370000  0.56720000  1.0 0.089790302
H  H91  1  0.88870000  0.34230000  0.50420000  1.0 0.089790302
H  H92  1  0.97760000  0.37480000  0.46350000  1.0 0.1073322652
H  H93  1  0.04270000  0.30620000  0.53640000  1.0 0.1010422839
H  H94  1  0.08250000  0.45740000  0.47700000  1.0 0.0566893492
H  H95  1  0.17650000  0.37960000  0.53150000  1.0 0.0663030503
H  H96  1  0.01440000  0.36540000  0.46650000  1.0 0.1010422839
C  C1  1  0.55620000  0.77100000  0.33200000  1.0 0.1685832325
C  C2  1  0.50760000  0.86580000  0.19200000  1.0 -0.02246221
C  C3  1  0.52520000  0.63860000  0.39770000  1.0 0.089790302
C  C4  1  0.48040000  0.91330000  0.11330000  1.0 0.5212725756
C  C5  1  0.63510000  0.87530000  0.26780000  1.0 -0.0899772214
C  C6  1  0.40230000  0.81060000  0.18770000  1.0 -0.0899772214
C  C7  1  0.66050000  0.82760000  0.33810000  1.0 -0.1720370723
C  C8  1  0.42540000  0.76350000  0.25760000  1.0 -0.1891513148
C  C9  1  0.65690000  0.67040000  0.52970000  1.0 -0.0277920874
C  C10  1  0.66570000  0.73880000  0.48650000  1.0 -0.0988077091
C  C11  1  0.44380000  0.27100000  0.16800000  1.0 0.1685832325
C  C12  1  0.49240000  0.36580000  0.30800000  1.0 -0.02246221
C  C13  1  0.47480000  0.13860000  0.10230000  1.0 0.089790302
C  C14  1  0.51960000  0.41330000  0.38670000  1.0 0.5212725756
C  C15  1  0.36490000  0.37530000  0.23220000  1.0 -0.0899772214
C  C16  1  0.59770000  0.31060000  0.31230000  1.0 -0.0899772214
C  C17  1  0.33950000  0.32760000  0.16190000  1.0 -0.1720370723
C  C18  1  0.57460000  0.26350000  0.24240000  1.0 -0.1891513148
C  C19  1  0.34310000  0.17040000  0.97030000  1.0 -0.0277920874
C  C20  1  0.33430000  0.23880000  0.01350000  1.0 -0.0988077091
C  C21  1  0.44380000  0.22900000  0.66800000  1.0 0.1685832325
C  C22  1  0.49240000  0.13420000  0.80800000  1.0 -0.02246221
C  C23  1  0.47480000  0.36140000  0.60230000  1.0 0.089790302
C  C24  1  0.51960000  0.08670000  0.88670000  1.0 0.5212725756
C  C25  1  0.36490000  0.12470000  0.73220000  1.0 -0.0899772214
C  C26  1  0.59770000  0.18940000  0.81230000  1.0 -0.0899772214
C  C27  1  0.33950000  0.17240000  0.66190000  1.0 -0.1720370723
C  C28  1  0.57460000  0.23650000  0.74240000  1.0 -0.1891513148
C  C29  1  0.34310000  0.32960000  0.47030000  1.0 -0.0277920874
C  C30  1  0.33430000  0.26120000  0.51350000  1.0 -0.0988077091
C  C31  1  0.55620000  0.72900000  0.83200000  1.0 0.1685832325
C  C32  1  0.50760000  0.63420000  0.69200000  1.0 -0.02246221
C  C33  1  0.52520000  0.86140000  0.89770000  1.0 0.089790302
C  C34  1  0.48040000  0.58670000  0.61330000  1.0 0.5212725756
C  C35  1  0.63510000  0.62470000  0.76780000  1.0 -0.0899772214
C  C36  1  0.40230000  0.68940000  0.68770000  1.0 -0.0899772214
C  C37  1  0.66050000  0.67240000  0.83810000  1.0 -0.1720370723
C  C38  1  0.42540000  0.73650000  0.75760000  1.0 -0.1891513148
C  C39  1  0.65690000  0.82960000  0.02970000  1.0 -0.0277920874
C  C40  1  0.66570000  0.76120000  0.98650000  1.0 -0.0988077091
C  C41  1  0.01780000  0.89730000  0.61470000  1.0 0.5340423343
C  C42  1  0.12000000  0.74170000  0.83140000  1.0 0.1685832325
C  C43  1  0.05730000  0.62470000  0.89930000  1.0 0.1010422839
C  C44  1  0.05900000  0.84380000  0.69230000  1.0 -0.0277920874
C  C45  1  0.14200000  0.87620000  0.77330000  1.0 -0.0899772214
C  C46  1  0.04280000  0.70690000  0.75060000  1.0 -0.1891513148
C  C47  1  0.01140000  0.75850000  0.68210000  1.0 -0.0899772214
C  C48  1  0.17150000  0.82600000  0.84320000  1.0 -0.1891513148
C  C49  1  0.25390000  0.69550000  0.98410000  1.0 -0.0899772214
C  C50  1  0.22860000  0.63420000  0.02850000  1.0 -0.0277920874
C  C51  1  0.98220000  0.39730000  0.88530000  1.0 0.5340423343
C  C52  1  0.88000000  0.24170000  0.66860000  1.0 0.1685832325
C  C53  1  0.94270000  0.12470000  0.60070000  1.0 0.1010422839
C  C54  1  0.94100000  0.34380000  0.80770000  1.0 -0.0277920874
C  C55  1  0.85800000  0.37620000  0.72670000  1.0 -0.0899772214
C  C56  1  0.95720000  0.20690000  0.74940000  1.0 -0.1891513148
C  C57  1  0.98860000  0.25850000  0.81790000  1.0 -0.0899772214
C  C58  1  0.82850000  0.32600000  0.65680000  1.0 -0.1891513148
C  C59  1  0.74610000  0.19550000  0.51590000  1.0 -0.0899772214
C  C60  1  0.77140000  0.13420000  0.47150000  1.0 -0.0277920874
C  C61  1  0.98220000  0.10270000  0.38530000  1.0 0.5340423343
C  C62  1  0.88000000  0.25830000  0.16860000  1.0 0.1685832325
C  C63  1  0.94270000  0.37530000  0.10070000  1.0 0.1010422839
C  C64  1  0.94100000  0.15620000  0.30770000  1.0 -0.0277920874
C  C65  1  0.85800000  0.12380000  0.22670000  1.0 -0.0899772214
C  C66  1  0.95720000  0.29310000  0.24940000  1.0 -0.1891513148
C  C67  1  0.98860000  0.24150000  0.31790000  1.0 -0.0899772214
C  C68  1  0.82850000  0.17400000  0.15680000  1.0 -0.1891513148
C  C69  1  0.74610000  0.30450000  0.01590000  1.0 -0.0899772214
C  C70  1  0.77140000  0.36580000  0.97150000  1.0 -0.0277920874
C  C71  1  0.01780000  0.60270000  0.11470000  1.0 0.5340423343
C  C72  1  0.12000000  0.75830000  0.33140000  1.0 0.1685832325
C  C73  1  0.05730000  0.87530000  0.39930000  1.0 0.1010422839
C  C74  1  0.05900000  0.65620000  0.19230000  1.0 -0.0277920874
C  C75  1  0.14200000  0.62380000  0.27330000  1.0 -0.0899772214
C  C76  1  0.04280000  0.79310000  0.25060000  1.0 -0.1891513148
C  C77  1  0.01140000  0.74150000  0.18210000  1.0 -0.0899772214
C  C78  1  0.17150000  0.67400000  0.34320000  1.0 -0.1891513148
C  C79  1  0.25390000  0.80450000  0.48410000  1.0 -0.0899772214
C  C80  1  0.22860000  0.86580000  0.52850000  1.0 -0.0277920874
C  C81  1  0.95620000  0.01780000  0.09690000  1.0 0.1685832325
C  C82  1  0.19060000  0.05930000  0.11080000  1.0 -0.1891513148
C  C83  1  0.98270000  0.14360000  0.01500000  1.0 -0.2415088321
C  C84  1  0.08350000  0.09460000  0.00600000  1.0 -0.1720370723
C  C85  1  0.04380000  0.51780000  0.40310000  1.0 0.1685832325
C  C86  1  0.80940000  0.55930000  0.38920000  1.0 -0.1891513148
C  C87  1  0.01730000  0.64360000  0.48500000  1.0 -0.2415088321
C  C88  1  0.91650000  0.59460000  0.49400000  1.0 -0.1720370723
C  C89  1  0.04380000  0.98220000  0.90310000  1.0 0.1685832325
C  C90  1  0.80940000  0.94070000  0.88920000  1.0 -0.1891513148
C  C91  1  0.01730000  0.85640000  0.98500000  1.0 -0.2415088321
C  C92  1  0.91650000  0.90540000  0.99400000  1.0 -0.1720370723
C  C93  1  0.95620000  0.48220000  0.59690000  1.0 0.1685832325
C  C94  1  0.19060000  0.44070000  0.61080000  1.0 -0.1891513148
C  C95  1  0.98270000  0.35640000  0.51500000  1.0 -0.2415088321
C  C96  1  0.08350000  0.40540000  0.50600000  1.0 -0.1720370723
N  N1  1  0.58129000  0.71830000  0.40249000  1.0 0.0016883865
N  N2  1  0.56847000  0.60820000  0.47407000  1.0 -0.2961613479
N  N3  1  0.41871000  0.21830000  0.09751000  1.0 0.0016883865
N  N4  1  0.43153000  0.10820000  0.02593000  1.0 -0.2961613479
N  N5  1  0.41871000  0.28170000  0.59751000  1.0 0.0016883865
N  N6  1  0.43153000  0.39180000  0.52593000  1.0 -0.2961613479
N  N7  1  0.58129000  0.78170000  0.90249000  1.0 0.0016883865
N  N8  1  0.56847000  0.89180000  0.97407000  1.0 -0.2961613479
N  N9  1  0.10614000  0.59001000  0.97484000  1.0 -0.2825771811
N  N10  1  0.14458000  0.68930000  0.90188000  1.0 0.0068829983
N  N11  1  0.89386000  0.09001000  0.52516000  1.0 -0.2825771811
N  N12  1  0.85542000  0.18930000  0.59812000  1.0 0.0068829983
N  N13  1  0.89386000  0.40999000  0.02516000  1.0 -0.2825771811
N  N14  1  0.85542000  0.31070000  0.09812000  1.0 0.0068829983
N  N15  1  0.10614000  0.90999000  0.47484000  1.0 -0.2825771811
N  N16  1  0.14458000  0.81070000  0.40188000  1.0 0.0068829983
N  N17  1  0.04390000  0.07120000  0.07930000  1.0 -0.0462080965
N  N18  1  0.95610000  0.57120000  0.42070000  1.0 -0.0462080965
N  N19  1  0.95610000  0.92880000  0.92070000  1.0 -0.0462080965
N  N20  1  0.04390000  0.42880000  0.57930000  1.0 -0.0462080965
O  O1  1  0.57944000  0.96166000  0.11854000  1.0 -0.5230597797
O  O2  1  0.36576000  0.90183000  0.04696000  1.0 -0.561895633
O  O3  1  0.42056000  0.46166000  0.38146000  1.0 -0.5230597797
O  O4  1  0.63424000  0.40183000  0.45304000  1.0 -0.561895633
O  O5  1  0.42056000  0.03834000  0.88146000  1.0 -0.5230597797
O  O6  1  0.63424000  0.09817000  0.95304000  1.0 -0.561895633
O  O7  1  0.57944000  0.53834000  0.61854000  1.0 -0.5230597797
O  O8  1  0.36576000  0.59817000  0.54696000  1.0 -0.561895633
O  O9  1  0.09540000  0.96176000  0.62070000  1.0 -0.5392538699
O  O10  1  0.90897000  0.87652000  0.54677000  1.0 -0.5845489147
O  O11  1  0.90460000  0.46176000  0.87930000  1.0 -0.5392538699
O  O12  1  0.09103000  0.37652000  0.95323000  1.0 -0.5852198245
O  O13  1  0.90460000  0.03824000  0.37930000  1.0 -0.5392538699
O  O14  1  0.09103000  0.12348000  0.45323000  1.0 -0.5845489147
O  O15  1  0.09540000  0.53824000  0.12070000  1.0 -0.5392538699
O  O16  1  0.90897000  0.62348000  0.04677000  1.0 -0.5845489147
O  O17  1  0.98210000  0.95280000  0.13820000  1.0 -0.4188053551
O  O18  1  0.01790000  0.45280000  0.36180000  1.0 -0.4188053551
O  O19  1  0.01790000  0.04720000  0.86180000  1.0 -0.4188053551
O  O20  1  0.98210000  0.54720000  0.63820000  1.0 -0.4188053551
