# DDEC6 charges by PACMAN v1.1 (https://github.com/mtap-research/PACMAN-charge/)
data_NACVUI_FSR_pacman
_symmetry_space_group_name_H-M   'P 1'
_cell_length_a   7.31400000
_cell_length_b   15.33200000
_cell_length_c   12.75800000
_cell_angle_alpha   90.00000000
_cell_angle_beta   94.50000000
_cell_angle_gamma   90.00000000
_symmetry_Int_Tables_number   1
_chemical_formula_structural   CuH5C9N4O
_chemical_formula_sum   'Cu4 H20 C36 N16 O4'
_cell_volume   1426.24952138
_cell_formula_units_Z   4
loop_
 _symmetry_equiv_pos_site_id
 _symmetry_equiv_pos_as_xyz
  1  'x, y, z'
loop_
 _atom_site_type_symbol
 _atom_site_label
 _atom_site_symmetry_multiplicity
 _atom_site_fract_x
 _atom_site_fract_y
 _atom_site_fract_z
 _atom_site_occupancy
 _atom_site_charge
Cu  Cu1  1  0.73207000  0.87975000  0.35771000  1.0 0.6044435093
Cu  Cu2  1  0.26793000  0.37975000  0.14229000  1.0 0.6060548315
Cu  Cu3  1  0.26793000  0.12025000  0.64229000  1.0 0.6060548315
Cu  Cu4  1  0.73207000  0.62025000  0.85771000  1.0 0.6044435093
H  H1  1  0.91420000  0.58330000  0.40500000  1.0 0.1516609678
H  H2  1  0.08580000  0.08330000  0.09500000  1.0 0.1516609678
H  H3  1  0.08580000  0.41670000  0.59500000  1.0 0.1516609678
H  H4  1  0.91420000  0.91670000  0.90500000  1.0 0.1516609678
H  H5  1  0.83900000  0.48940000  0.42310000  1.0 0.156863332
H  H6  1  0.16100000  0.98940000  0.07690000  1.0 0.156863332
H  H7  1  0.16100000  0.51060000  0.57690000  1.0 0.156863332
H  H8  1  0.83900000  0.01060000  0.92310000  1.0 0.156863332
H  H9  1  0.74550000  0.58250000  0.59020000  1.0 0.156863332
H  H10  1  0.25450000  0.08250000  0.90980000  1.0 0.156863332
H  H11  1  0.25450000  0.41750000  0.40980000  1.0 0.156863332
H  H12  1  0.74550000  0.91750000  0.09020000  1.0 0.156863332
H  H13  1  0.75490000  0.67510000  0.53860000  1.0 0.156863332
H  H14  1  0.24510000  0.17510000  0.96140000  1.0 0.156863332
H  H15  1  0.24510000  0.32490000  0.46140000  1.0 0.156863332
H  H16  1  0.75490000  0.82490000  0.03860000  1.0 0.156863332
H  H17  1  0.56710000  0.63890000  0.57130000  1.0 0.1691423843
H  H18  1  0.43290000  0.13890000  0.92870000  1.0 0.1691423843
H  H19  1  0.43290000  0.36110000  0.42870000  1.0 0.1691423843
H  H20  1  0.56710000  0.86110000  0.07130000  1.0 0.1691423843
C  C1  1  0.76850000  0.61630000  0.20970000  1.0 -0.2523476666
C  C2  1  0.23150000  0.11630000  0.29030000  1.0 -0.2523476666
C  C3  1  0.23150000  0.38370000  0.79030000  1.0 -0.2523476666
C  C4  1  0.76850000  0.88370000  0.70970000  1.0 -0.2523476666
C  C5  1  0.78290000  0.53110000  0.26970000  1.0 0.1079640949
C  C6  1  0.21710000  0.03110000  0.23030000  1.0 0.1079640949
C  C7  1  0.21710000  0.46890000  0.73030000  1.0 0.1079640949
C  C8  1  0.78290000  0.96890000  0.76970000  1.0 0.1079640949
C  C9  1  0.75950000  0.69590000  0.26020000  1.0 0.3020450482
C  C10  1  0.24050000  0.19590000  0.23980000  1.0 0.2947874356
C  C11  1  0.24050000  0.30410000  0.73980000  1.0 0.2947874356
C  C12  1  0.75950000  0.80410000  0.76020000  1.0 0.2947874356
C  C13  1  0.75630000  0.61550000  0.10130000  1.0 0.3020450482
C  C14  1  0.24370000  0.11550000  0.39870000  1.0 0.3020450482
C  C15  1  0.24370000  0.38450000  0.89870000  1.0 0.3020450482
C  C16  1  0.75630000  0.88450000  0.60130000  1.0 0.3020450482
C  C17  1  0.61920000  0.47680000  0.23890000  1.0 0.2765924523
C  C18  1  0.38080000  0.97680000  0.26110000  1.0 0.2765924523
C  C19  1  0.38080000  0.52320000  0.76110000  1.0 0.2765924523
C  C20  1  0.61920000  0.02320000  0.73890000  1.0 0.2765924523
C  C21  1  0.94240000  0.48220000  0.23520000  1.0 0.2674017439
C  C22  1  0.05760000  0.98220000  0.26480000  1.0 0.2674017439
C  C23  1  0.05760000  0.51780000  0.76480000  1.0 0.2674017439
C  C24  1  0.94240000  0.01780000  0.73520000  1.0 0.2674017439
C  C25  1  0.81000000  0.54500000  0.38970000  1.0 -0.3691558799
C  C26  1  0.19000000  0.04500000  0.11030000  1.0 -0.3691558799
C  C27  1  0.19000000  0.45500000  0.61030000  1.0 -0.3691558799
C  C28  1  0.81000000  0.95500000  0.88970000  1.0 -0.3691558799
C  C29  1  0.64510000  0.58360000  0.43730000  1.0 0.5269744882
C  C30  1  0.35490000  0.08360000  0.06270000  1.0 0.5269744882
C  C31  1  0.35490000  0.41640000  0.56270000  1.0 0.5269744882
C  C32  1  0.64510000  0.91640000  0.93730000  1.0 0.5269744882
C  C33  1  0.68140000  0.62360000  0.54390000  1.0 -0.5678703447
C  C34  1  0.31860000  0.12360000  0.95610000  1.0 -0.5678703447
C  C35  1  0.31860000  0.37640000  0.45610000  1.0 -0.5678703447
C  C36  1  0.68140000  0.87640000  0.04390000  1.0 -0.5678703447
N  N1  1  0.75090000  0.76200000  0.30150000  1.0 -0.4371430805
N  N2  1  0.24910000  0.26200000  0.19850000  1.0 -0.4371430805
N  N3  1  0.24910000  0.23800000  0.69850000  1.0 -0.4371430805
N  N4  1  0.75090000  0.73800000  0.80150000  1.0 -0.4371430805
N  N5  1  0.74930000  0.61420000  0.00990000  1.0 -0.4459459295
N  N6  1  0.25070000  0.11420000  0.49010000  1.0 -0.4459459295
N  N7  1  0.25070000  0.38580000  0.99010000  1.0 -0.4371430805
N  N8  1  0.74930000  0.88580000  0.50990000  1.0 -0.4459459295
N  N9  1  0.49860000  0.43630000  0.20500000  1.0 -0.3592013007
N  N10  1  0.50140000  0.93630000  0.29500000  1.0 -0.3592013007
N  N11  1  0.50140000  0.56370000  0.79500000  1.0 -0.3592013007
N  N12  1  0.49860000  0.06370000  0.70500000  1.0 -0.3592013007
N  N13  1  0.06510000  0.44910000  0.20410000  1.0 -0.3592013007
N  N14  1  0.93490000  0.94910000  0.29590000  1.0 -0.3592013007
N  N15  1  0.93490000  0.55090000  0.79590000  1.0 -0.3592013007
N  N16  1  0.06510000  0.05090000  0.70410000  1.0 -0.3592013007
O  O1  1  0.49580000  0.58070000  0.39160000  1.0 -0.3855573943
O  O2  1  0.50420000  0.08070000  0.10840000  1.0 -0.3855573943
O  O3  1  0.50420000  0.41930000  0.60840000  1.0 -0.3855573943
O  O4  1  0.49580000  0.91930000  0.89160000  1.0 -0.3855573943
