# DDEC6 charges by PACMAN v1.1 (https://github.com/mtap-research/PACMAN-charge/)
data_NADKEK_FSR_pacman
_symmetry_space_group_name_H-M   'P 1'
_cell_length_a   16.18950000
_cell_length_b   16.18950000
_cell_length_c   10.00360000
_cell_angle_alpha   90.00000000
_cell_angle_beta   90.00000000
_cell_angle_gamma   120.00000000
_symmetry_Int_Tables_number   1
_chemical_formula_structural   Y2P6C24(N2O7)3
_chemical_formula_sum   'Y4 P12 C48 N12 O42'
_cell_volume   2270.66895271
_cell_formula_units_Z   2
loop_
 _symmetry_equiv_pos_site_id
 _symmetry_equiv_pos_as_xyz
  1  'x, y, z'
loop_
 _atom_site_type_symbol
 _atom_site_label
 _atom_site_symmetry_multiplicity
 _atom_site_fract_x
 _atom_site_fract_y
 _atom_site_fract_z
 _atom_site_occupancy
 _atom_site_charge
Y  Y1  1  0.66666667  0.33333333  0.30810000  1.0 1.9974586074
Y  Y2  1  0.33333333  0.66666667  0.69190000  1.0 1.9974586074
Y  Y3  1  0.66666667  0.33333333  0.79470000  1.0 2.0179914539
Y  Y4  1  0.33333333  0.66666667  0.20530000  1.0 2.0179914539
P  P1  1  0.60420000  0.45110000  0.06320000  1.0 1.3066042368
P  P2  1  0.54890000  0.15310000  0.06320000  1.0 1.3066042368
P  P3  1  0.84690000  0.39580000  0.06320000  1.0 1.3066042368
P  P4  1  0.39580000  0.54890000  0.93680000  1.0 1.3066042368
P  P5  1  0.45110000  0.84690000  0.93680000  1.0 1.3066042368
P  P6  1  0.15310000  0.60420000  0.93680000  1.0 1.3066042368
P  P7  1  0.20360000  0.47150000  0.45050000  1.0 1.292698811
P  P8  1  0.52850000  0.73210000  0.45050000  1.0 1.292698811
P  P9  1  0.26790000  0.79640000  0.45050000  1.0 1.292698811
P  P10  1  0.79640000  0.52850000  0.54950000  1.0 1.292698811
P  P11  1  0.47150000  0.26790000  0.54950000  1.0 1.292698811
P  P12  1  0.73210000  0.20360000  0.54950000  1.0 1.292698811
C  C1  1  0.47500000  0.36000000  0.08900000  1.0 -0.1199026836
C  C2  1  0.64000000  0.11500000  0.08900000  1.0 -0.1199026836
C  C3  1  0.88500000  0.52500000  0.08900000  1.0 -0.1199026836
C  C4  1  0.52500000  0.64000000  0.91100000  1.0 -0.1199026836
C  C5  1  0.36000000  0.88500000  0.91100000  1.0 -0.1199026836
C  C6  1  0.11500000  0.47500000  0.91100000  1.0 -0.1199026836
C  C7  1  0.33060000  0.29460000  0.22580000  1.0 0.138805779
C  C8  1  0.70540000  0.03600000  0.22580000  1.0 0.138805779
C  C9  1  0.96400000  0.66940000  0.22580000  1.0 0.138805779
C  C10  1  0.66940000  0.70540000  0.77420000  1.0 0.138805779
C  C11  1  0.29460000  0.96400000  0.77420000  1.0 0.138805779
C  C12  1  0.03600000  0.33060000  0.77420000  1.0 0.138805779
C  C13  1  0.26930000  0.31690000  0.30740000  1.0 0.1797024613
C  C14  1  0.68310000  0.95240000  0.30740000  1.0 0.1797024613
C  C15  1  0.04760000  0.73070000  0.30740000  1.0 0.1797024613
C  C16  1  0.73070000  0.68310000  0.69260000  1.0 0.1797024613
C  C17  1  0.31690000  0.04760000  0.69260000  1.0 0.1797024613
C  C18  1  0.95240000  0.26930000  0.69260000  1.0 0.1797024613
C  C19  1  0.25930000  0.39990000  0.51010000  1.0 -0.0990270545
C  C20  1  0.60010000  0.85940000  0.51010000  1.0 -0.0990270545
C  C21  1  0.14060000  0.74070000  0.51010000  1.0 -0.0990270545
C  C22  1  0.74070000  0.60010000  0.48990000  1.0 -0.0990270545
C  C23  1  0.39990000  0.14060000  0.48990000  1.0 -0.0990270545
C  C24  1  0.85940000  0.25930000  0.48990000  1.0 -0.0990270545
C  C25  1  0.41180000  0.46810000  0.37960000  1.0 0.0597254962
C  C26  1  0.53190000  0.94370000  0.37960000  1.0 0.0597254962
C  C27  1  0.05630000  0.58820000  0.37960000  1.0 0.0597254962
C  C28  1  0.58820000  0.53190000  0.62040000  1.0 0.0597254962
C  C29  1  0.46810000  0.05630000  0.62040000  1.0 0.0597254962
C  C30  1  0.94370000  0.41180000  0.62040000  1.0 0.0597254962
C  C31  1  0.46900000  0.45530000  0.27870000  1.0 0.0715281297
C  C32  1  0.54470000  0.01370000  0.27870000  1.0 0.0715281297
C  C33  1  0.98630000  0.53100000  0.27870000  1.0 0.0715281297
C  C34  1  0.53100000  0.54470000  0.72130000  1.0 0.0715281297
C  C35  1  0.45530000  0.98630000  0.72130000  1.0 0.0715281297
C  C36  1  0.01370000  0.46900000  0.72130000  1.0 0.0715281297
C  C37  1  0.18910000  0.23010000  0.36650000  1.0 -0.0245074103
C  C38  1  0.76990000  0.95900000  0.36650000  1.0 -0.0245074103
C  C39  1  0.04100000  0.81090000  0.36650000  1.0 -0.0245074103
C  C40  1  0.81090000  0.76990000  0.63350000  1.0 -0.0262410574
C  C41  1  0.23010000  0.04100000  0.63350000  1.0 -0.0262410574
C  C42  1  0.95900000  0.18910000  0.63350000  1.0 -0.0262410574
C  C43  1  0.27810000  0.24090000  0.10360000  1.0 0.3704201137
C  C44  1  0.75910000  0.03720000  0.10360000  1.0 0.3704201137
C  C45  1  0.96280000  0.72190000  0.10360000  1.0 0.3704201137
C  C46  1  0.72190000  0.75910000  0.89640000  1.0 0.3773640101
C  C47  1  0.24090000  0.96280000  0.89640000  1.0 0.3704201137
C  C48  1  0.03720000  0.27810000  0.89640000  1.0 0.3773640101
N  N1  1  0.41590000  0.38390000  0.17710000  1.0 0.0881447052
N  N2  1  0.61610000  0.03200000  0.17710000  1.0 0.0881447052
N  N3  1  0.96800000  0.58410000  0.17710000  1.0 0.0881447052
N  N4  1  0.58410000  0.61610000  0.82290000  1.0 0.0881447052
N  N5  1  0.38390000  0.96800000  0.82290000  1.0 0.0881447052
N  N6  1  0.03200000  0.41590000  0.82290000  1.0 0.0881447052
N  N7  1  0.32210000  0.38350000  0.41740000  1.0 0.138805779
N  N8  1  0.61650000  0.93860000  0.41740000  1.0 0.138805779
N  N9  1  0.06140000  0.67790000  0.41740000  1.0 0.138805779
N  N10  1  0.67790000  0.61650000  0.58260000  1.0 0.1343928133
N  N11  1  0.38350000  0.06140000  0.58260000  1.0 0.1343928133
N  N12  1  0.93860000  0.32210000  0.58260000  1.0 0.1343928133
O  O1  1  0.65840000  0.44140000  0.17400000  1.0 -0.8180570151
O  O2  1  0.55860000  0.21700000  0.17400000  1.0 -0.8180570151
O  O3  1  0.78300000  0.34160000  0.17400000  1.0 -0.8180570151
O  O4  1  0.34160000  0.55860000  0.82600000  1.0 -0.8180570151
O  O5  1  0.44140000  0.78300000  0.82600000  1.0 -0.8180570151
O  O6  1  0.21700000  0.65840000  0.82600000  1.0 -0.8180570151
O  O7  1  0.63590000  0.42740000  0.93730000  1.0 -0.7962051923
O  O8  1  0.57260000  0.20850000  0.93730000  1.0 -0.794424444
O  O9  1  0.79150000  0.36410000  0.93730000  1.0 -0.794424444
O  O10  1  0.36410000  0.57260000  0.06270000  1.0 -0.794424444
O  O11  1  0.42740000  0.79150000  0.06270000  1.0 -0.7962051923
O  O12  1  0.20850000  0.63590000  0.06270000  1.0 -0.7962051923
O  O13  1  0.62190000  0.55180000  0.05910000  1.0 -0.6640589531
O  O14  1  0.44820000  0.07010000  0.05910000  1.0 -0.6640589531
O  O15  1  0.92990000  0.37810000  0.05910000  1.0 -0.6640589531
O  O16  1  0.37810000  0.44820000  0.94090000  1.0 -0.6640589531
O  O17  1  0.55180000  0.92990000  0.94090000  1.0 -0.6724551784
O  O18  1  0.07010000  0.62190000  0.94090000  1.0 -0.6640589531
O  O19  1  0.21580000  0.54050000  0.56000000  1.0 -0.8180570151
O  O20  1  0.45950000  0.67530000  0.56000000  1.0 -0.8180570151
O  O21  1  0.32470000  0.78420000  0.56000000  1.0 -0.8180570151
O  O22  1  0.78420000  0.45950000  0.44000000  1.0 -0.8180570151
O  O23  1  0.54050000  0.32470000  0.44000000  1.0 -0.8180570151
O  O24  1  0.67530000  0.21580000  0.44000000  1.0 -0.8180570151
O  O25  1  0.25070000  0.52450000  0.32900000  1.0 -0.8116120194
O  O26  1  0.47550000  0.72620000  0.32900000  1.0 -0.8116120194
O  O27  1  0.27380000  0.74930000  0.32900000  1.0 -0.8116120194
O  O28  1  0.74930000  0.47550000  0.67100000  1.0 -0.8116120194
O  O29  1  0.52450000  0.27380000  0.67100000  1.0 -0.8116120194
O  O30  1  0.72620000  0.25070000  0.67100000  1.0 -0.8116120194
O  O31  1  0.10130000  0.40180000  0.42780000  1.0 -0.6724551784
O  O32  1  0.59820000  0.69950000  0.42780000  1.0 -0.6724551784
O  O33  1  0.30050000  0.89870000  0.42780000  1.0 -0.6724551784
O  O34  1  0.89870000  0.59820000  0.57220000  1.0 -0.6724551784
O  O35  1  0.40180000  0.30050000  0.57220000  1.0 -0.6724551784
O  O36  1  0.69950000  0.10130000  0.57220000  1.0 -0.6724551784
O  O37  1  0.03000000  0.19180000  0.01910000  1.0 -0.1597686728
O  O38  1  0.80820000  0.83820000  0.01910000  1.0 -0.1597686728
O  O39  1  0.16180000  0.97000000  0.01910000  1.0 -0.1597686728
O  O40  1  0.97000000  0.80820000  0.98090000  1.0 -0.1597686728
O  O41  1  0.19180000  0.16180000  0.98090000  1.0 -0.1597686728
O  O42  1  0.83820000  0.03000000  0.98090000  1.0 -0.1597686728
