# DDEC6 charges by PACMAN v1.1 (https://github.com/mtap-research/PACMAN-charge/)
data_NADKAG_FSR_pacman
_symmetry_space_group_name_H-M   'P 1'
_cell_length_a   8.67363000
_cell_length_b   9.78127000
_cell_length_c   22.79640000
_cell_angle_alpha   90.00000000
_cell_angle_beta   90.00000000
_cell_angle_gamma   90.00000000
_symmetry_Int_Tables_number   1
_chemical_formula_structural   YP3C10N4O9
_chemical_formula_sum   'Y4 P12 C40 N16 O36'
_cell_volume   1934.02644473
_cell_formula_units_Z   4
loop_
 _symmetry_equiv_pos_site_id
 _symmetry_equiv_pos_as_xyz
  1  'x, y, z'
loop_
 _atom_site_type_symbol
 _atom_site_label
 _atom_site_symmetry_multiplicity
 _atom_site_fract_x
 _atom_site_fract_y
 _atom_site_fract_z
 _atom_site_occupancy
 _atom_site_charge
Y  Y1  1  0.04000000  0.85910000  0.74424000  1.0 2.0084205646
Y  Y2  1  0.04000000  0.14090000  0.25576000  1.0 2.0084205646
Y  Y3  1  0.96000000  0.35910000  0.75576000  1.0 2.0084205646
Y  Y4  1  0.96000000  0.64090000  0.24424000  1.0 2.0084205646
P  P1  1  0.98140000  0.11020000  0.87020000  1.0 1.2861772556
P  P2  1  0.98140000  0.88980000  0.12980000  1.0 1.2861772556
P  P3  1  0.01860000  0.61020000  0.62980000  1.0 1.2845920105
P  P4  1  0.01860000  0.38980000  0.37020000  1.0 1.2845920105
P  P5  1  0.30470000  0.13990000  0.72040000  1.0 1.3168128807
P  P6  1  0.30470000  0.86010000  0.27960000  1.0 1.3168128807
P  P7  1  0.69530000  0.63990000  0.77960000  1.0 1.3168128807
P  P8  1  0.69530000  0.36010000  0.22040000  1.0 1.3168128807
P  P9  1  0.78150000  0.09900000  0.66630000  1.0 1.2366802771
P  P10  1  0.78150000  0.90100000  0.33370000  1.0 1.2366802771
P  P11  1  0.21850000  0.59900000  0.83370000  1.0 1.2366802771
P  P12  1  0.21850000  0.40100000  0.16630000  1.0 1.2366802771
C  C1  1  0.83570000  0.06190000  0.93010000  1.0 -0.1100953897
C  C2  1  0.83570000  0.93810000  0.06990000  1.0 -0.1100953897
C  C3  1  0.16430000  0.56190000  0.56990000  1.0 -0.1100953897
C  C4  1  0.16430000  0.43810000  0.43010000  1.0 -0.1100953897
C  C5  1  0.62540000  0.99170000  0.85850000  1.0 0.1946755428
C  C6  1  0.62540000  0.00830000  0.14150000  1.0 0.1946755428
C  C7  1  0.37460000  0.49170000  0.64150000  1.0 0.1946755428
C  C8  1  0.37460000  0.50830000  0.35850000  1.0 0.1946755428
C  C9  1  0.45500000  0.98680000  0.85690000  1.0 0.1286357273
C  C10  1  0.45500000  0.01320000  0.14310000  1.0 0.1286357273
C  C11  1  0.54500000  0.48680000  0.64310000  1.0 0.1286357273
C  C12  1  0.54500000  0.51320000  0.35690000  1.0 0.1286357273
C  C13  1  0.45100000  0.22560000  0.89350000  1.0 0.1447080824
C  C14  1  0.45100000  0.77440000  0.10650000  1.0 0.1447080824
C  C15  1  0.54900000  0.72560000  0.60650000  1.0 0.1447080824
C  C16  1  0.54900000  0.27440000  0.39350000  1.0 0.1447080824
C  C17  1  0.62060000  0.22210000  0.89990000  1.0 0.0798322296
C  C18  1  0.62060000  0.77790000  0.10010000  1.0 0.0798322296
C  C19  1  0.37940000  0.72210000  0.60010000  1.0 0.0798322296
C  C20  1  0.37940000  0.27790000  0.39990000  1.0 0.0798322296
C  C21  1  0.44380000  0.17560000  0.78330000  1.0 -0.1578217145
C  C22  1  0.44380000  0.82440000  0.21670000  1.0 -0.1578217145
C  C23  1  0.55620000  0.67560000  0.71670000  1.0 -0.1578217145
C  C24  1  0.55620000  0.32440000  0.28330000  1.0 -0.1578217145
C  C25  1  0.85670000  0.18430000  0.59690000  1.0 -0.1100953897
C  C26  1  0.85670000  0.81570000  0.40310000  1.0 -0.1100953897
C  C27  1  0.14330000  0.68430000  0.90310000  1.0 -0.1100953897
C  C28  1  0.14330000  0.31570000  0.09690000  1.0 -0.1100953897
C  C29  1  0.88300000  0.14630000  0.49050000  1.0 0.0320623409
C  C30  1  0.88300000  0.85370000  0.50950000  1.0 0.0320623409
C  C31  1  0.11700000  0.64630000  0.00950000  1.0 0.0320623409
C  C32  1  0.11700000  0.35370000  0.99050000  1.0 0.0320623409
C  C33  1  0.92600000  0.95170000  0.55760000  1.0 0.1126401771
C  C34  1  0.92600000  0.04830000  0.44240000  1.0 0.1126401771
C  C35  1  0.07400000  0.45170000  0.94240000  1.0 0.1126401771
C  C36  1  0.07400000  0.54830000  0.05760000  1.0 0.1126401771
C  C37  1  0.86300000  0.05330000  0.44200000  1.0 0.0734363351
C  C38  1  0.86300000  0.94670000  0.55800000  1.0 0.0798322296
C  C39  1  0.13700000  0.55330000  0.05800000  1.0 0.0798322296
C  C40  1  0.13700000  0.44670000  0.94200000  1.0 0.0798322296
N  N1  1  0.67220000  0.07370000  0.91100000  1.0 0.0411235592
N  N2  1  0.67220000  0.92630000  0.08900000  1.0 0.0411235592
N  N3  1  0.32780000  0.57370000  0.58900000  1.0 0.0411235592
N  N4  1  0.32780000  0.42630000  0.41100000  1.0 0.0411235592
N  N5  1  0.39850000  0.13580000  0.84640000  1.0 0.1220518653
N  N6  1  0.39850000  0.86420000  0.15360000  1.0 0.1220518653
N  N7  1  0.60150000  0.63580000  0.65360000  1.0 0.1220518653
N  N8  1  0.60150000  0.36420000  0.34640000  1.0 0.1220518653
N  N9  1  0.91510000  0.91110000  0.45000000  1.0 0.1126401771
N  N10  1  0.91510000  0.08890000  0.55000000  1.0 0.1220518653
N  N11  1  0.08490000  0.41110000  0.05000000  1.0 0.1220518653
N  N12  1  0.08490000  0.58890000  0.95000000  1.0 0.1286357273
N  N13  1  0.85400000  0.08760000  0.54970000  1.0 0.1492066983
N  N14  1  0.85400000  0.91240000  0.45030000  1.0 0.1492066983
N  N15  1  0.14600000  0.58760000  0.95030000  1.0 0.1492066983
N  N16  1  0.14600000  0.41240000  0.04970000  1.0 0.1492066983
O  O1  1  0.92530000  0.22780000  0.83860000  1.0 -0.7943028431
O  O2  1  0.92530000  0.77220000  0.16140000  1.0 -0.7943028431
O  O3  1  0.07470000  0.72780000  0.66140000  1.0 -0.7943028431
O  O4  1  0.07470000  0.27220000  0.33860000  1.0 -0.7943028431
O  O5  1  0.98760000  0.99000000  0.82750000  1.0 -0.800838552
O  O6  1  0.98760000  0.01000000  0.17250000  1.0 -0.800838552
O  O7  1  0.01240000  0.49000000  0.67250000  1.0 -0.800838552
O  O8  1  0.01240000  0.51000000  0.32750000  1.0 -0.800838552
O  O9  1  0.13770000  0.11870000  0.89830000  1.0 -0.6545663845
O  O10  1  0.13770000  0.88130000  0.10170000  1.0 -0.6545663845
O  O11  1  0.86230000  0.61870000  0.60170000  1.0 -0.6545663845
O  O12  1  0.86230000  0.38130000  0.39830000  1.0 -0.6545663845
O  O13  1  0.17180000  0.23800000  0.72530000  1.0 -0.8398987274
O  O14  1  0.17180000  0.76200000  0.27470000  1.0 -0.8398987274
O  O15  1  0.82820000  0.73800000  0.77470000  1.0 -0.8398987274
O  O16  1  0.82820000  0.26200000  0.22530000  1.0 -0.8398987274
O  O17  1  0.24770000  0.99790000  0.72350000  1.0 -0.8062551986
O  O18  1  0.24770000  0.00210000  0.27650000  1.0 -0.8062551986
O  O19  1  0.75230000  0.49790000  0.77650000  1.0 -0.8062551986
O  O20  1  0.75230000  0.50210000  0.22350000  1.0 -0.8062551986
O  O21  1  0.38400000  0.16860000  0.66110000  1.0 -0.597060911
O  O22  1  0.38400000  0.83140000  0.33890000  1.0 -0.597060911
O  O23  1  0.61600000  0.66860000  0.83890000  1.0 -0.597060911
O  O24  1  0.61600000  0.33140000  0.16110000  1.0 -0.597060911
O  O25  1  0.88310000  0.98540000  0.68340000  1.0 -0.8185591768
O  O26  1  0.88310000  0.01460000  0.31660000  1.0 -0.8185591768
O  O27  1  0.11690000  0.48540000  0.81660000  1.0 -0.8185591768
O  O28  1  0.11690000  0.51460000  0.18340000  1.0 -0.8185591768
O  O29  1  0.78270000  0.20720000  0.71370000  1.0 -0.77356144
O  O30  1  0.78270000  0.79280000  0.28630000  1.0 -0.77356144
O  O31  1  0.21730000  0.70720000  0.78630000  1.0 -0.77356144
O  O32  1  0.21730000  0.29280000  0.21370000  1.0 -0.77356144
O  O33  1  0.62160000  0.05190000  0.65190000  1.0 -0.5887570154
O  O34  1  0.62160000  0.94810000  0.34810000  1.0 -0.5887570154
O  O35  1  0.37840000  0.55190000  0.84810000  1.0 -0.5887570154
O  O36  1  0.37840000  0.44810000  0.15190000  1.0 -0.5887570154
