# DDEC6 charges by PACMAN v1.1 (https://github.com/mtap-research/PACMAN-charge/)
data_NAFGOR_FSR_pacman
_symmetry_space_group_name_H-M   'P 1'
_cell_length_a   15.17300000
_cell_length_b   15.17300000
_cell_length_c   19.08900000
_cell_angle_alpha   90.00000000
_cell_angle_beta   90.00000000
_cell_angle_gamma   90.00000000
_symmetry_Int_Tables_number   1
_chemical_formula_structural   CoH7C7N4
_chemical_formula_sum   'Co16 H112 C112 N64'
_cell_volume   4394.66822468
_cell_formula_units_Z   16
loop_
 _symmetry_equiv_pos_site_id
 _symmetry_equiv_pos_as_xyz
  1  'x, y, z'
loop_
 _atom_site_type_symbol
 _atom_site_label
 _atom_site_symmetry_multiplicity
 _atom_site_fract_x
 _atom_site_fract_y
 _atom_site_fract_z
 _atom_site_occupancy
 _atom_site_charge
Co  Co1  1  0.20110000  0.11874000  0.59851000  1.0 0.5460192022
Co  Co2  1  0.70110000  0.11874000  0.90149000  1.0 0.5460192022
Co  Co3  1  0.20110000  0.38126000  0.09851000  1.0 0.5460192022
Co  Co4  1  0.29890000  0.61874000  0.59851000  1.0 0.5460192022
Co  Co5  1  0.79890000  0.88126000  0.40149000  1.0 0.5460192022
Co  Co6  1  0.29890000  0.88126000  0.09851000  1.0 0.5460192022
Co  Co7  1  0.79890000  0.61874000  0.90149000  1.0 0.5460192022
Co  Co8  1  0.70110000  0.38126000  0.40149000  1.0 0.5460192022
Co  Co9  1  0.02112000  0.19148000  0.32800000  1.0 0.5797617492
Co  Co10  1  0.52112000  0.19148000  0.17200000  1.0 0.5797617492
Co  Co11  1  0.02112000  0.30852000  0.82800000  1.0 0.5797617492
Co  Co12  1  0.47888000  0.69148000  0.32800000  1.0 0.5797617492
Co  Co13  1  0.97888000  0.80852000  0.67200000  1.0 0.5797617492
Co  Co14  1  0.47888000  0.80852000  0.82800000  1.0 0.5797617492
Co  Co15  1  0.97888000  0.69148000  0.17200000  1.0 0.5797617492
Co  Co16  1  0.52112000  0.30852000  0.67200000  1.0 0.5797617492
H  H1  1  0.05740000  0.17530000  0.48720000  1.0 0.0917369258
H  H2  1  0.55740000  0.17530000  0.01280000  1.0 0.0917369258
H  H3  1  0.05740000  0.32470000  0.98720000  1.0 0.0917369258
H  H4  1  0.44260000  0.67530000  0.48720000  1.0 0.0917369258
H  H5  1  0.94260000  0.82470000  0.51280000  1.0 0.0917369258
H  H6  1  0.44260000  0.82470000  0.98720000  1.0 0.0917369258
H  H7  1  0.94260000  0.67530000  0.01280000  1.0 0.0917369258
H  H8  1  0.55740000  0.32470000  0.51280000  1.0 0.0917369258
H  H9  1  0.28860000  0.08200000  0.44890000  1.0 0.1159568002
H  H10  1  0.78860000  0.08200000  0.05110000  1.0 0.1159568002
H  H11  1  0.28860000  0.41800000  0.94890000  1.0 0.1159568002
H  H12  1  0.21140000  0.58200000  0.44890000  1.0 0.1159568002
H  H13  1  0.71140000  0.91800000  0.55110000  1.0 0.1159568002
H  H14  1  0.21140000  0.91800000  0.94890000  1.0 0.1159568002
H  H15  1  0.71140000  0.58200000  0.05110000  1.0 0.1159568002
H  H16  1  0.78860000  0.41800000  0.55110000  1.0 0.1159568002
H  H17  1  0.21600000  0.11150000  0.33830000  1.0 0.1000197972
H  H18  1  0.71600000  0.11150000  0.16170000  1.0 0.1000197972
H  H19  1  0.21600000  0.38850000  0.83830000  1.0 0.1000197972
H  H20  1  0.28400000  0.61150000  0.33830000  1.0 0.1000197972
H  H21  1  0.78400000  0.88850000  0.66170000  1.0 0.1000197972
H  H22  1  0.28400000  0.88850000  0.83830000  1.0 0.1000197972
H  H23  1  0.78400000  0.61150000  0.16170000  1.0 0.1000197972
H  H24  1  0.71600000  0.38850000  0.66170000  1.0 0.1000197972
H  H25  1  0.11450000  0.16330000  0.73890000  1.0 0.1000197972
H  H26  1  0.61450000  0.16330000  0.76110000  1.0 0.1000197972
H  H27  1  0.11450000  0.33670000  0.23890000  1.0 0.1000197972
H  H28  1  0.38550000  0.66330000  0.73890000  1.0 0.1000197972
H  H29  1  0.88550000  0.83670000  0.26110000  1.0 0.1000197972
H  H30  1  0.38550000  0.83670000  0.23890000  1.0 0.1000197972
H  H31  1  0.88550000  0.66330000  0.76110000  1.0 0.1000197972
H  H32  1  0.61450000  0.33670000  0.26110000  1.0 0.1000197972
H  H33  1  0.03070000  0.38900000  0.66720000  1.0 0.0590483901
H  H34  1  0.53070000  0.38900000  0.83280000  1.0 0.0547006932
H  H35  1  0.03070000  0.11100000  0.16720000  1.0 0.0590483901
H  H36  1  0.46930000  0.88900000  0.66720000  1.0 0.0590483901
H  H37  1  0.96930000  0.61100000  0.33280000  1.0 0.0590483901
H  H38  1  0.46930000  0.61100000  0.16720000  1.0 0.0590483901
H  H39  1  0.96930000  0.88900000  0.83280000  1.0 0.0547006932
H  H40  1  0.53070000  0.11100000  0.33280000  1.0 0.0590483901
H  H41  1  0.09940000  0.30980000  0.57220000  1.0 0.0590483901
H  H42  1  0.59940000  0.30980000  0.92780000  1.0 0.0590483901
H  H43  1  0.09940000  0.19020000  0.07220000  1.0 0.0590483901
H  H44  1  0.40060000  0.80980000  0.57220000  1.0 0.0590483901
H  H45  1  0.90060000  0.69020000  0.42780000  1.0 0.0590483901
H  H46  1  0.40060000  0.69020000  0.07220000  1.0 0.0590483901
H  H47  1  0.90060000  0.80980000  0.92780000  1.0 0.0590483901
H  H48  1  0.59940000  0.19020000  0.42780000  1.0 0.0590483901
H  H49  1  0.05670000  0.96900000  0.59100000  1.0 0.1000197972
H  H50  1  0.55670000  0.96900000  0.90900000  1.0 0.1000197972
H  H51  1  0.05670000  0.53100000  0.09100000  1.0 0.1000197972
H  H52  1  0.44330000  0.46900000  0.59100000  1.0 0.1000197972
H  H53  1  0.94330000  0.03100000  0.40900000  1.0 0.1000197972
H  H54  1  0.44330000  0.03100000  0.09100000  1.0 0.1000197972
H  H55  1  0.94330000  0.46900000  0.90900000  1.0 0.1000197972
H  H56  1  0.55670000  0.53100000  0.40900000  1.0 0.1000197972
H  H57  1  0.13590000  0.88330000  0.77000000  1.0 0.1000197972
H  H58  1  0.63590000  0.88330000  0.73000000  1.0 0.1000197972
H  H59  1  0.13590000  0.61670000  0.27000000  1.0 0.1000197972
H  H60  1  0.36410000  0.38330000  0.77000000  1.0 0.1000197972
H  H61  1  0.86410000  0.11670000  0.23000000  1.0 0.1000197972
H  H62  1  0.36410000  0.11670000  0.27000000  1.0 0.1000197972
H  H63  1  0.86410000  0.38330000  0.73000000  1.0 0.1000197972
H  H64  1  0.63590000  0.61670000  0.23000000  1.0 0.1000197972
H  H65  1  0.23550000  0.99770000  0.73260000  1.0 0.1075685602
H  H66  1  0.73550000  0.99770000  0.76740000  1.0 0.1075685602
H  H67  1  0.23550000  0.50230000  0.23260000  1.0 0.1075685602
H  H68  1  0.26450000  0.49770000  0.73260000  1.0 0.1075685602
H  H69  1  0.76450000  0.00230000  0.26740000  1.0 0.1075685602
H  H70  1  0.26450000  0.00230000  0.23260000  1.0 0.1075685602
H  H71  1  0.76450000  0.49770000  0.76740000  1.0 0.1075685602
H  H72  1  0.73550000  0.50230000  0.26740000  1.0 0.1075685602
H  H73  1  0.33160000  0.25860000  0.64220000  1.0 0.0917369258
H  H74  1  0.83160000  0.25860000  0.85780000  1.0 0.0917369258
H  H75  1  0.33160000  0.24140000  0.14220000  1.0 0.0917369258
H  H76  1  0.16840000  0.75860000  0.64220000  1.0 0.0917369258
H  H77  1  0.66840000  0.74140000  0.35780000  1.0 0.0917369258
H  H78  1  0.16840000  0.74140000  0.14220000  1.0 0.0917369258
H  H79  1  0.66840000  0.75860000  0.85780000  1.0 0.0917369258
H  H80  1  0.83160000  0.24140000  0.35780000  1.0 0.0917369258
H  H81  1  0.52970000  0.09920000  0.61870000  1.0 0.1159568002
H  H82  1  0.02970000  0.09920000  0.88130000  1.0 0.1159568002
H  H83  1  0.52970000  0.40080000  0.11870000  1.0 0.1159568002
H  H84  1  0.97030000  0.59920000  0.61870000  1.0 0.1159568002
H  H85  1  0.47030000  0.90080000  0.38130000  1.0 0.1159568002
H  H86  1  0.97030000  0.90080000  0.11870000  1.0 0.1159568002
H  H87  1  0.47030000  0.59920000  0.88130000  1.0 0.1159568002
H  H88  1  0.02970000  0.40080000  0.38130000  1.0 0.1159568002
H  H89  1  0.39580000  0.02070000  0.58830000  1.0 0.1000197972
H  H90  1  0.89580000  0.02070000  0.91170000  1.0 0.1000197972
H  H91  1  0.39580000  0.47930000  0.08830000  1.0 0.1000197972
H  H92  1  0.10420000  0.52070000  0.58830000  1.0 0.1000197972
H  H93  1  0.60420000  0.97930000  0.41170000  1.0 0.1000197972
H  H94  1  0.10420000  0.97930000  0.08830000  1.0 0.1000197972
H  H95  1  0.60420000  0.52070000  0.91170000  1.0 0.1000197972
H  H96  1  0.89580000  0.47930000  0.41170000  1.0 0.1000197972
H  H97  1  0.08890000  0.09140000  0.19310000  1.0 0.0590483901
H  H98  1  0.58890000  0.09140000  0.30690000  1.0 0.0590483901
H  H99  1  0.08890000  0.40860000  0.69310000  1.0 0.0590483901
H  H100  1  0.41110000  0.59140000  0.19310000  1.0 0.0590483901
H  H101  1  0.91110000  0.90860000  0.80690000  1.0 0.0590483901
H  H102  1  0.41110000  0.90860000  0.69310000  1.0 0.0590483901
H  H103  1  0.91110000  0.59140000  0.30690000  1.0 0.0590483901
H  H104  1  0.58890000  0.40860000  0.80690000  1.0 0.0590483901
H  H105  1  0.16010000  0.16710000  0.09670000  1.0 0.0590483901
H  H106  1  0.66010000  0.16710000  0.40330000  1.0 0.0590483901
H  H107  1  0.16010000  0.33290000  0.59670000  1.0 0.0590483901
H  H108  1  0.33990000  0.66710000  0.09670000  1.0 0.0590483901
H  H109  1  0.83990000  0.83290000  0.90330000  1.0 0.0590483901
H  H110  1  0.33990000  0.83290000  0.59670000  1.0 0.0590483901
H  H111  1  0.83990000  0.66710000  0.40330000  1.0 0.0590483901
H  H112  1  0.66010000  0.33290000  0.90330000  1.0 0.0590483901
C  C1  1  0.10680000  0.15480000  0.46340000  1.0 0.1293181157
C  C2  1  0.60680000  0.15480000  0.03660000  1.0 0.1293181157
C  C3  1  0.10680000  0.34520000  0.96340000  1.0 0.1293181157
C  C4  1  0.39320000  0.65480000  0.46340000  1.0 0.1293181157
C  C5  1  0.89320000  0.84520000  0.53660000  1.0 0.1293181157
C  C6  1  0.39320000  0.84520000  0.96340000  1.0 0.1293181157
C  C7  1  0.89320000  0.65480000  0.03660000  1.0 0.1293181157
C  C8  1  0.60680000  0.34520000  0.53660000  1.0 0.1293181157
C  C9  1  0.23180000  0.10420000  0.44390000  1.0 -0.0492304919
C  C10  1  0.73180000  0.10420000  0.05610000  1.0 -0.0492304919
C  C11  1  0.23180000  0.39580000  0.94390000  1.0 -0.0492304919
C  C12  1  0.26820000  0.60420000  0.44390000  1.0 -0.0492304919
C  C13  1  0.76820000  0.89580000  0.55610000  1.0 -0.0492304919
C  C14  1  0.26820000  0.89580000  0.94390000  1.0 -0.0492304919
C  C15  1  0.76820000  0.60420000  0.05610000  1.0 -0.0492304919
C  C16  1  0.73180000  0.39580000  0.55610000  1.0 -0.0492304919
C  C17  1  0.19200000  0.12110000  0.38240000  1.0 -0.0645092315
C  C18  1  0.69200000  0.12110000  0.11760000  1.0 -0.0645092315
C  C19  1  0.19200000  0.37890000  0.88240000  1.0 -0.0645092315
C  C20  1  0.30800000  0.62110000  0.38240000  1.0 -0.0645092315
C  C21  1  0.80800000  0.87890000  0.61760000  1.0 -0.0645092315
C  C22  1  0.30800000  0.87890000  0.88240000  1.0 -0.0645092315
C  C23  1  0.80800000  0.62110000  0.11760000  1.0 -0.0645092315
C  C24  1  0.69200000  0.37890000  0.61760000  1.0 -0.0645092315
C  C25  1  0.11010000  0.21370000  0.71150000  1.0 -0.0175734819
C  C26  1  0.61010000  0.21370000  0.78850000  1.0 -0.0175734819
C  C27  1  0.11010000  0.28630000  0.21150000  1.0 -0.0175734819
C  C28  1  0.38990000  0.71370000  0.71150000  1.0 -0.0175734819
C  C29  1  0.88990000  0.78630000  0.28850000  1.0 -0.0175734819
C  C30  1  0.38990000  0.78630000  0.21150000  1.0 -0.0175734819
C  C31  1  0.88990000  0.71370000  0.78850000  1.0 -0.0175734819
C  C32  1  0.61010000  0.28630000  0.28850000  1.0 -0.0175734819
C  C33  1  0.06090000  0.33580000  0.67120000  1.0 -0.0492304919
C  C34  1  0.56090000  0.33580000  0.82880000  1.0 -0.0492304919
C  C35  1  0.06090000  0.16420000  0.17120000  1.0 -0.0492304919
C  C36  1  0.43910000  0.83580000  0.67120000  1.0 -0.0492304919
C  C37  1  0.93910000  0.66420000  0.32880000  1.0 -0.0492304919
C  C38  1  0.43910000  0.66420000  0.17120000  1.0 -0.0492304919
C  C39  1  0.93910000  0.83580000  0.82880000  1.0 -0.0492304919
C  C40  1  0.56090000  0.16420000  0.32880000  1.0 -0.0492304919
C  C41  1  0.09920000  0.29290000  0.61900000  1.0 -0.0260073691
C  C42  1  0.59920000  0.29290000  0.88100000  1.0 -0.0260073691
C  C43  1  0.09920000  0.20710000  0.11900000  1.0 -0.0260073691
C  C44  1  0.40080000  0.79290000  0.61900000  1.0 -0.0260073691
C  C45  1  0.90080000  0.70710000  0.38100000  1.0 -0.0260073691
C  C46  1  0.40080000  0.70710000  0.11900000  1.0 -0.0260073691
C  C47  1  0.90080000  0.79290000  0.88100000  1.0 -0.0260073691
C  C48  1  0.59920000  0.20710000  0.38100000  1.0 -0.0260073691
C  C49  1  0.08920000  0.96220000  0.63190000  1.0 0.1293181157
C  C50  1  0.58920000  0.96220000  0.86810000  1.0 0.1293181157
C  C51  1  0.08920000  0.53780000  0.13190000  1.0 0.1293181157
C  C52  1  0.41080000  0.46220000  0.63190000  1.0 0.1293181157
C  C53  1  0.91080000  0.03780000  0.36810000  1.0 0.1293181157
C  C54  1  0.41080000  0.03780000  0.13190000  1.0 0.1293181157
C  C55  1  0.91080000  0.46220000  0.86810000  1.0 0.1293181157
C  C56  1  0.58920000  0.53780000  0.36810000  1.0 0.1293181157
C  C57  1  0.13150000  0.91510000  0.72850000  1.0 -0.087208094
C  C58  1  0.63150000  0.91510000  0.77150000  1.0 -0.087208094
C  C59  1  0.13150000  0.58490000  0.22850000  1.0 -0.087208094
C  C60  1  0.36850000  0.41510000  0.72850000  1.0 -0.087208094
C  C61  1  0.86850000  0.08490000  0.27150000  1.0 -0.087208094
C  C62  1  0.36850000  0.08490000  0.22850000  1.0 -0.087208094
C  C63  1  0.86850000  0.41510000  0.77150000  1.0 -0.087208094
C  C64  1  0.63150000  0.58490000  0.27150000  1.0 -0.087208094
C  C65  1  0.18630000  0.97840000  0.70790000  1.0 -0.0829999358
C  C66  1  0.68630000  0.97840000  0.79210000  1.0 -0.0829999358
C  C67  1  0.18630000  0.52160000  0.20790000  1.0 -0.0829999358
C  C68  1  0.31370000  0.47840000  0.70790000  1.0 -0.0829999358
C  C69  1  0.81370000  0.02160000  0.29210000  1.0 -0.0829999358
C  C70  1  0.31370000  0.02160000  0.20790000  1.0 -0.0829999358
C  C71  1  0.81370000  0.47840000  0.79210000  1.0 -0.0829999358
C  C72  1  0.68630000  0.52160000  0.29210000  1.0 -0.0829999358
C  C73  1  0.36490000  0.20850000  0.63270000  1.0 0.1293181157
C  C74  1  0.86490000  0.20850000  0.86730000  1.0 0.1293181157
C  C75  1  0.36490000  0.29150000  0.13270000  1.0 0.1293181157
C  C76  1  0.13510000  0.70850000  0.63270000  1.0 0.1293181157
C  C77  1  0.63510000  0.79150000  0.36730000  1.0 0.1293181157
C  C78  1  0.13510000  0.79150000  0.13270000  1.0 0.1293181157
C  C79  1  0.63510000  0.70850000  0.86730000  1.0 0.1293181157
C  C80  1  0.86490000  0.29150000  0.36730000  1.0 0.1293181157
C  C81  1  0.47300000  0.12250000  0.61980000  1.0 -0.087208094
C  C82  1  0.97300000  0.12250000  0.88020000  1.0 -0.087208094
C  C83  1  0.47300000  0.37750000  0.11980000  1.0 -0.087208094
C  C84  1  0.02700000  0.62250000  0.61980000  1.0 -0.087208094
C  C85  1  0.52700000  0.87750000  0.38020000  1.0 -0.087208094
C  C86  1  0.02700000  0.87750000  0.11980000  1.0 -0.087208094
C  C87  1  0.52700000  0.62250000  0.88020000  1.0 -0.087208094
C  C88  1  0.97300000  0.37750000  0.38020000  1.0 -0.087208094
C  C89  1  0.39890000  0.07880000  0.60340000  1.0 -0.0829999358
C  C90  1  0.89890000  0.07880000  0.89660000  1.0 -0.0829999358
C  C91  1  0.39890000  0.42120000  0.10340000  1.0 -0.0829999358
C  C92  1  0.10110000  0.57880000  0.60340000  1.0 -0.0829999358
C  C93  1  0.60110000  0.92120000  0.39660000  1.0 -0.0829999358
C  C94  1  0.10110000  0.92120000  0.10340000  1.0 -0.0829999358
C  C95  1  0.60110000  0.57880000  0.89660000  1.0 -0.0829999358
C  C96  1  0.89890000  0.42120000  0.39660000  1.0 -0.0829999358
C  C97  1  0.09760000  0.15190000  0.18920000  1.0 -0.0175734819
C  C98  1  0.59760000  0.15190000  0.31080000  1.0 -0.0145174143
C  C99  1  0.09760000  0.34810000  0.68920000  1.0 -0.0175734819
C  C100  1  0.40240000  0.65190000  0.18920000  1.0 -0.0145174143
C  C101  1  0.90240000  0.84810000  0.81080000  1.0 -0.0145174143
C  C102  1  0.40240000  0.84810000  0.68920000  1.0 -0.0175734819
C  C103  1  0.90240000  0.65190000  0.31080000  1.0 -0.0145174143
C  C104  1  0.59760000  0.34810000  0.81080000  1.0 -0.0175734819
C  C105  1  0.13710000  0.19470000  0.13620000  1.0 -0.0373791053
C  C106  1  0.63710000  0.19470000  0.36380000  1.0 -0.0373791053
C  C107  1  0.13710000  0.30530000  0.63620000  1.0 -0.0373791053
C  C108  1  0.36290000  0.69470000  0.13620000  1.0 -0.0373791053
C  C109  1  0.86290000  0.80530000  0.86380000  1.0 -0.0373791053
C  C110  1  0.36290000  0.80530000  0.63620000  1.0 -0.0373791053
C  C111  1  0.86290000  0.69470000  0.36380000  1.0 -0.0373791053
C  C112  1  0.63710000  0.30530000  0.86380000  1.0 -0.0373791053
N  N1  1  0.17760000  0.12400000  0.49670000  1.0 -0.2903041969
N  N2  1  0.67760000  0.12400000  0.00330000  1.0 -0.2903041969
N  N3  1  0.17760000  0.37600000  0.99670000  1.0 -0.2903041969
N  N4  1  0.32240000  0.62400000  0.49670000  1.0 -0.2903041969
N  N5  1  0.82240000  0.87600000  0.50330000  1.0 -0.2903041969
N  N6  1  0.32240000  0.87600000  0.99670000  1.0 -0.2903041969
N  N7  1  0.82240000  0.62400000  0.00330000  1.0 -0.2903041969
N  N8  1  0.67760000  0.37600000  0.50330000  1.0 -0.2903041969
N  N9  1  0.11150000  0.15420000  0.39570000  1.0 -0.2709901668
N  N10  1  0.61150000  0.15420000  0.10430000  1.0 -0.2709901668
N  N11  1  0.11150000  0.34580000  0.89570000  1.0 -0.2709901668
N  N12  1  0.38850000  0.65420000  0.39570000  1.0 -0.2709901668
N  N13  1  0.88850000  0.84580000  0.60430000  1.0 -0.2709901668
N  N14  1  0.38850000  0.84580000  0.89570000  1.0 -0.2709901668
N  N15  1  0.88850000  0.65420000  0.10430000  1.0 -0.2709901668
N  N16  1  0.61150000  0.34580000  0.60430000  1.0 -0.2709901668
N  N17  1  0.07360000  0.28710000  0.73460000  1.0 -0.2477719638
N  N18  1  0.57360000  0.28710000  0.76540000  1.0 -0.244532947
N  N19  1  0.07360000  0.21290000  0.23460000  1.0 -0.244532947
N  N20  1  0.42640000  0.78710000  0.73460000  1.0 -0.2477719638
N  N21  1  0.92640000  0.71290000  0.26540000  1.0 -0.244532947
N  N22  1  0.42640000  0.71290000  0.23460000  1.0 -0.244532947
N  N23  1  0.92640000  0.78710000  0.76540000  1.0 -0.244532947
N  N24  1  0.57360000  0.21290000  0.26540000  1.0 -0.244532947
N  N25  1  0.13960000  0.21700000  0.64710000  1.0 -0.2477719638
N  N26  1  0.63960000  0.21700000  0.85290000  1.0 -0.2477719638
N  N27  1  0.13960000  0.28300000  0.14710000  1.0 -0.2477719638
N  N28  1  0.36040000  0.71700000  0.64710000  1.0 -0.2477719638
N  N29  1  0.86040000  0.78300000  0.35290000  1.0 -0.2477719638
N  N30  1  0.36040000  0.78300000  0.14710000  1.0 -0.2477719638
N  N31  1  0.86040000  0.71700000  0.85290000  1.0 -0.2477719638
N  N32  1  0.63960000  0.28300000  0.35290000  1.0 -0.2477719638
N  N33  1  0.06850000  0.90460000  0.67960000  1.0 -0.2903041969
N  N34  1  0.56850000  0.90460000  0.82040000  1.0 -0.2903041969
N  N35  1  0.06850000  0.59540000  0.17960000  1.0 -0.2903041969
N  N36  1  0.43150000  0.40460000  0.67960000  1.0 -0.2903041969
N  N37  1  0.93150000  0.09540000  0.32040000  1.0 -0.2903041969
N  N38  1  0.43150000  0.09540000  0.17960000  1.0 -0.2903041969
N  N39  1  0.93150000  0.40460000  0.82040000  1.0 -0.2903041969
N  N40  1  0.56850000  0.59540000  0.32040000  1.0 -0.2903041969
N  N41  1  0.15930000  0.00990000  0.64580000  1.0 -0.2779009304
N  N42  1  0.65930000  0.00990000  0.85420000  1.0 -0.2779009304
N  N43  1  0.15930000  0.49010000  0.14580000  1.0 -0.2779009304
N  N44  1  0.34070000  0.50990000  0.64580000  1.0 -0.2779009304
N  N45  1  0.84070000  0.99010000  0.35420000  1.0 -0.2779009304
N  N46  1  0.34070000  0.99010000  0.14580000  1.0 -0.2779009304
N  N47  1  0.84070000  0.50990000  0.85420000  1.0 -0.2779009304
N  N48  1  0.65930000  0.49010000  0.35420000  1.0 -0.2779009304
N  N49  1  0.32920000  0.13380000  0.61260000  1.0 -0.2709901668
N  N50  1  0.82920000  0.13380000  0.88740000  1.0 -0.2709901668
N  N51  1  0.32920000  0.36620000  0.11260000  1.0 -0.2709901668
N  N52  1  0.17080000  0.63380000  0.61260000  1.0 -0.2709901668
N  N53  1  0.67080000  0.86620000  0.38740000  1.0 -0.2709901668
N  N54  1  0.17080000  0.86620000  0.11260000  1.0 -0.2709901668
N  N55  1  0.67080000  0.63380000  0.88740000  1.0 -0.2709901668
N  N56  1  0.82920000  0.36620000  0.38740000  1.0 -0.2709901668
N  N57  1  0.45160000  0.20720000  0.63840000  1.0 -0.2779009304
N  N58  1  0.95160000  0.20720000  0.86160000  1.0 -0.2779009304
N  N59  1  0.45160000  0.29280000  0.13840000  1.0 -0.2779009304
N  N60  1  0.04840000  0.70720000  0.63840000  1.0 -0.2779009304
N  N61  1  0.54840000  0.79280000  0.36160000  1.0 -0.2779009304
N  N62  1  0.04840000  0.79280000  0.13840000  1.0 -0.2779009304
N  N63  1  0.54840000  0.70720000  0.86160000  1.0 -0.2779009304
N  N64  1  0.95160000  0.29280000  0.36160000  1.0 -0.2779009304
