# DDEC6 charges by PACMAN v1.1 (https://github.com/mtap-research/PACMAN-charge/)
data_NAFRUI_ASR_pacman
_symmetry_space_group_name_H-M   'P 1'
_cell_length_a   14.59700000
_cell_length_b   14.59700000
_cell_length_c   14.59700000
_cell_angle_alpha   109.47100000
_cell_angle_beta   109.47100000
_cell_angle_gamma   109.47100000
_symmetry_Int_Tables_number   1
_chemical_formula_structural   Ga3(PO4)4
_chemical_formula_sum   'Ga9 P12 O48'
_cell_volume   2394.26645531
_cell_formula_units_Z   3
loop_
 _symmetry_equiv_pos_site_id
 _symmetry_equiv_pos_as_xyz
  1  'x, y, z'
loop_
 _atom_site_type_symbol
 _atom_site_label
 _atom_site_symmetry_multiplicity
 _atom_site_fract_x
 _atom_site_fract_y
 _atom_site_fract_z
 _atom_site_occupancy
 _atom_site_charge
Ga  Ga1  1  0.50000000  0.00000000  0.50000000  1.0 1.471201704
Ga  Ga2  1  0.50000000  0.50000000  0.00000000  1.0 1.4578514557
Ga  Ga3  1  0.00000000  0.50000000  0.50000000  1.0 1.471201704
Ga  Ga4  1  0.50000000  0.25000000  0.75000000  1.0 1.4840516707
Ga  Ga5  1  0.50000000  0.75000000  0.25000000  1.0 1.485203908
Ga  Ga6  1  0.75000000  0.50000000  0.25000000  1.0 1.485203908
Ga  Ga7  1  0.25000000  0.50000000  0.75000000  1.0 1.4840516707
Ga  Ga8  1  0.25000000  0.75000000  0.50000000  1.0 1.485203908
Ga  Ga9  1  0.75000000  0.25000000  0.50000000  1.0 1.4840516707
P  P1  1  0.69001000  0.24722000  0.69001000  1.0 1.292728524
P  P2  1  0.55721000  0.00000000  0.30999000  1.0 1.292728524
P  P3  1  0.44279000  0.75278000  0.44279000  1.0 1.292728524
P  P4  1  0.30999000  0.00000000  0.55721000  1.0 1.292728524
P  P5  1  0.69001000  0.69001000  0.24722000  1.0 1.292728524
P  P6  1  0.30999000  0.55721000  0.00000000  1.0 1.292728524
P  P7  1  0.44279000  0.44279000  0.75278000  1.0 1.292728524
P  P8  1  0.55721000  0.30999000  0.00000000  1.0 1.292728524
P  P9  1  0.24722000  0.69001000  0.69001000  1.0 1.292728524
P  P10  1  0.00000000  0.30999000  0.55721000  1.0 1.2953398686
P  P11  1  0.75278000  0.44279000  0.44279000  1.0 1.292728524
P  P12  1  0.00000000  0.55721000  0.30999000  1.0 1.292728524
O  O1  1  0.63050000  0.11780000  0.63050000  1.0 -0.6787820001
O  O2  1  0.48730000  0.00000000  0.36950000  1.0 -0.6787820001
O  O3  1  0.51270000  0.88220000  0.51270000  1.0 -0.6787820001
O  O4  1  0.36950000  0.00000000  0.48730000  1.0 -0.6787820001
O  O5  1  0.63050000  0.63050000  0.11780000  1.0 -0.6787820001
O  O6  1  0.36950000  0.48730000  0.00000000  1.0 -0.6787820001
O  O7  1  0.51270000  0.51270000  0.88220000  1.0 -0.6787820001
O  O8  1  0.48730000  0.36950000  0.00000000  1.0 -0.6787820001
O  O9  1  0.11780000  0.63050000  0.63050000  1.0 -0.6851974864
O  O10  1  0.00000000  0.36950000  0.48730000  1.0 -0.6787820001
O  O11  1  0.88220000  0.51270000  0.51270000  1.0 -0.6787820001
O  O12  1  0.00000000  0.48730000  0.36950000  1.0 -0.6787820001
O  O13  1  0.61190000  0.28900000  0.71170000  1.0 -0.6409734626
O  O14  1  0.57730000  0.90020000  0.28830000  1.0 -0.6409734626
O  O15  1  0.42270000  0.71100000  0.32290000  1.0 -0.6409734626
O  O16  1  0.38810000  0.09980000  0.67710000  1.0 -0.6409734626
O  O17  1  0.71170000  0.61190000  0.28900000  1.0 -0.6409734626
O  O18  1  0.28830000  0.57730000  0.90020000  1.0 -0.6409734626
O  O19  1  0.32290000  0.42270000  0.71100000  1.0 -0.6409734626
O  O20  1  0.67710000  0.38810000  0.09980000  1.0 -0.6409734626
O  O21  1  0.28900000  0.71170000  0.61190000  1.0 -0.6409734626
O  O22  1  0.90020000  0.28830000  0.57730000  1.0 -0.6409734626
O  O23  1  0.71100000  0.32290000  0.42270000  1.0 -0.6409734626
O  O24  1  0.09980000  0.67710000  0.38810000  1.0 -0.6409734626
O  O25  1  0.28900000  0.61190000  0.71170000  1.0 -0.6409734626
O  O26  1  0.90020000  0.57730000  0.28830000  1.0 -0.6409734626
O  O27  1  0.71100000  0.42270000  0.32290000  1.0 -0.6409734626
O  O28  1  0.09980000  0.38810000  0.67710000  1.0 -0.6409734626
O  O29  1  0.61190000  0.71170000  0.28900000  1.0 -0.6409734626
O  O30  1  0.57730000  0.28830000  0.90020000  1.0 -0.6409734626
O  O31  1  0.42270000  0.32290000  0.71100000  1.0 -0.6409734626
O  O32  1  0.38810000  0.67710000  0.09980000  1.0 -0.6409734626
O  O33  1  0.71170000  0.28900000  0.61190000  1.0 -0.6409734626
O  O34  1  0.28830000  0.90020000  0.57730000  1.0 -0.6409734626
O  O35  1  0.32290000  0.71100000  0.42270000  1.0 -0.6409734626
O  O36  1  0.67710000  0.09980000  0.38810000  1.0 -0.6409734626
O  O37  1  0.79440000  0.29160000  0.79440000  1.0 -0.440684387
O  O38  1  0.49720000  0.00000000  0.20560000  1.0 -0.440684387
O  O39  1  0.50280000  0.70840000  0.50280000  1.0 -0.440684387
O  O40  1  0.20560000  0.00000000  0.49720000  1.0 -0.440684387
O  O41  1  0.79440000  0.79440000  0.29160000  1.0 -0.440684387
O  O42  1  0.20560000  0.49720000  0.00000000  1.0 -0.440684387
O  O43  1  0.50280000  0.50280000  0.70840000  1.0 -0.440684387
O  O44  1  0.49720000  0.20560000  0.00000000  1.0 -0.440684387
O  O45  1  0.29160000  0.79440000  0.79440000  1.0 -0.440684387
O  O46  1  0.00000000  0.20560000  0.49720000  1.0 -0.440684387
O  O47  1  0.70840000  0.50280000  0.50280000  1.0 -0.440684387
O  O48  1  0.00000000  0.49720000  0.20560000  1.0 -0.440684387
