# DDEC6 charges by PACMAN v1.1 (https://github.com/mtap-research/PACMAN-charge/)
data_NAHHIQ_ASR_pacman
_symmetry_space_group_name_H-M   'P 1'
_cell_length_a   16.58890000
_cell_length_b   16.58890000
_cell_length_c   16.58890000
_cell_angle_alpha   69.05790000
_cell_angle_beta   69.05790000
_cell_angle_gamma   69.05790000
_symmetry_Int_Tables_number   1
_chemical_formula_structural   CuH5C11(NO2)2
_chemical_formula_sum   'Cu6 H30 C66 N12 O24'
_cell_volume   3841.40360638
_cell_formula_units_Z   6
loop_
 _symmetry_equiv_pos_site_id
 _symmetry_equiv_pos_as_xyz
  1  'x, y, z'
loop_
 _atom_site_type_symbol
 _atom_site_label
 _atom_site_symmetry_multiplicity
 _atom_site_fract_x
 _atom_site_fract_y
 _atom_site_fract_z
 _atom_site_occupancy
 _atom_site_charge
Cu  Cu1  1  0.00645000  0.57467000  0.00645000  1.0 0.851757565
Cu  Cu2  1  0.57467000  0.00645000  0.00645000  1.0 0.851757565
Cu  Cu3  1  0.00645000  0.00645000  0.57467000  1.0 0.851757565
Cu  Cu4  1  0.99355000  0.99355000  0.42533000  1.0 0.851757565
Cu  Cu5  1  0.99355000  0.42533000  0.99355000  1.0 0.851757565
Cu  Cu6  1  0.42533000  0.99355000  0.99355000  1.0 0.851757565
H  H1  1  0.73100000  0.73100000  0.02880000  1.0 0.1393618076
H  H2  1  0.73100000  0.02880000  0.73100000  1.0 0.1393618076
H  H3  1  0.02880000  0.73100000  0.73100000  1.0 0.1393618076
H  H4  1  0.26900000  0.97120000  0.26900000  1.0 0.1393618076
H  H5  1  0.97120000  0.26900000  0.26900000  1.0 0.1393618076
H  H6  1  0.26900000  0.26900000  0.97120000  1.0 0.1393618076
H  H7  1  0.71260000  0.50070000  0.01530000  1.0 0.1183482846
H  H8  1  0.50070000  0.01530000  0.71260000  1.0 0.1183482846
H  H9  1  0.01530000  0.71260000  0.50070000  1.0 0.1183482846
H  H10  1  0.28740000  0.98470000  0.49930000  1.0 0.1183482846
H  H11  1  0.98470000  0.49930000  0.28740000  1.0 0.1183482846
H  H12  1  0.49930000  0.28740000  0.98470000  1.0 0.1183482846
H  H13  1  0.28740000  0.49930000  0.98470000  1.0 0.1183482846
H  H14  1  0.49930000  0.98470000  0.28740000  1.0 0.1183482846
H  H15  1  0.98470000  0.28740000  0.49930000  1.0 0.1183482846
H  H16  1  0.71260000  0.01530000  0.50070000  1.0 0.1183482846
H  H17  1  0.01530000  0.50070000  0.71260000  1.0 0.1183482846
H  H18  1  0.50070000  0.71260000  0.01530000  1.0 0.1183482846
H  H19  1  0.46690000  0.65100000  0.94420000  1.0 0.1183482846
H  H20  1  0.65100000  0.94420000  0.46690000  1.0 0.1183482846
H  H21  1  0.94420000  0.46690000  0.65100000  1.0 0.1183482846
H  H22  1  0.53310000  0.05580000  0.34900000  1.0 0.1183482846
H  H23  1  0.05580000  0.34900000  0.53310000  1.0 0.1183482846
H  H24  1  0.34900000  0.53310000  0.05580000  1.0 0.1183482846
H  H25  1  0.53310000  0.34900000  0.05580000  1.0 0.1183482846
H  H26  1  0.34900000  0.05580000  0.53310000  1.0 0.1183482846
H  H27  1  0.05580000  0.53310000  0.34900000  1.0 0.1183482846
H  H28  1  0.46690000  0.94420000  0.65100000  1.0 0.1183482846
H  H29  1  0.94420000  0.65100000  0.46690000  1.0 0.1183482846
H  H30  1  0.65100000  0.46690000  0.94420000  1.0 0.114530587
C  C1  1  0.83460000  0.56780000  0.01970000  1.0 0.5805726437
C  C2  1  0.56780000  0.01970000  0.83460000  1.0 0.5805726437
C  C3  1  0.01970000  0.83460000  0.56780000  1.0 0.5805726437
C  C4  1  0.16540000  0.98030000  0.43220000  1.0 0.5805726437
C  C5  1  0.98030000  0.43220000  0.16540000  1.0 0.5805726437
C  C6  1  0.43220000  0.16540000  0.98030000  1.0 0.5805726437
C  C7  1  0.16540000  0.43220000  0.98030000  1.0 0.5805726437
C  C8  1  0.43220000  0.98030000  0.16540000  1.0 0.5805726437
C  C9  1  0.98030000  0.16540000  0.43220000  1.0 0.5805726437
C  C10  1  0.83460000  0.01970000  0.56780000  1.0 0.5805726437
C  C11  1  0.01970000  0.56780000  0.83460000  1.0 0.5805726437
C  C12  1  0.56780000  0.83460000  0.01970000  1.0 0.5805726437
C  C13  1  0.73711000  0.60951000  0.02331000  1.0 -0.0131031453
C  C14  1  0.60951000  0.02331000  0.73711000  1.0 -0.0131031453
C  C15  1  0.02331000  0.73711000  0.60951000  1.0 -0.0131031453
C  C16  1  0.26289000  0.97669000  0.39049000  1.0 -0.0131031453
C  C17  1  0.97669000  0.39049000  0.26289000  1.0 -0.0131031453
C  C18  1  0.39049000  0.26289000  0.97669000  1.0 -0.0131031453
C  C19  1  0.26289000  0.39049000  0.97669000  1.0 -0.0131031453
C  C20  1  0.39049000  0.97669000  0.26289000  1.0 -0.0131031453
C  C21  1  0.97669000  0.26289000  0.39049000  1.0 -0.0131031453
C  C22  1  0.73711000  0.02331000  0.60951000  1.0 -0.0131031453
C  C23  1  0.02331000  0.60951000  0.73711000  1.0 -0.0131031453
C  C24  1  0.60951000  0.73711000  0.02331000  1.0 -0.0131031453
C  C25  1  0.69781000  0.69781000  0.02561000  1.0 -0.1136914577
C  C26  1  0.69781000  0.02561000  0.69781000  1.0 -0.1136914577
C  C27  1  0.02561000  0.69781000  0.69781000  1.0 -0.1136914577
C  C28  1  0.30219000  0.97439000  0.30219000  1.0 -0.1136914577
C  C29  1  0.97439000  0.30219000  0.30219000  1.0 -0.1136914577
C  C30  1  0.30219000  0.30219000  0.97439000  1.0 -0.1136914577
C  C31  1  0.68629000  0.56009000  0.01729000  1.0 -0.1486134505
C  C32  1  0.56009000  0.01729000  0.68629000  1.0 -0.1486134505
C  C33  1  0.01729000  0.68629000  0.56009000  1.0 -0.1486134505
C  C34  1  0.31371000  0.98271000  0.43991000  1.0 -0.1486134505
C  C35  1  0.98271000  0.43991000  0.31371000  1.0 -0.1486134505
C  C36  1  0.43991000  0.31371000  0.98271000  1.0 -0.1486134505
C  C37  1  0.31371000  0.43991000  0.98271000  1.0 -0.1486134505
C  C38  1  0.43991000  0.98271000  0.31371000  1.0 -0.1486134505
C  C39  1  0.98271000  0.31371000  0.43991000  1.0 -0.1486134505
C  C40  1  0.68629000  0.01729000  0.56009000  1.0 -0.1486134505
C  C41  1  0.01729000  0.56009000  0.68629000  1.0 -0.1486134505
C  C42  1  0.56009000  0.68629000  0.01729000  1.0 -0.1486134505
C  C43  1  0.59870000  0.59870000  0.01410000  1.0 0.0370806426
C  C44  1  0.59870000  0.01410000  0.59870000  1.0 0.0370806426
C  C45  1  0.01410000  0.59870000  0.59870000  1.0 0.0370806426
C  C46  1  0.40130000  0.98590000  0.40130000  1.0 0.0370806426
C  C47  1  0.98590000  0.40130000  0.40130000  1.0 0.0370806426
C  C48  1  0.40130000  0.40130000  0.98590000  1.0 0.0370806426
C  C49  1  0.54695000  0.54695000  0.00900000  1.0 0.0771666431
C  C50  1  0.54695000  0.00900000  0.54695000  1.0 0.0771666431
C  C51  1  0.00900000  0.54695000  0.54695000  1.0 0.0771666431
C  C52  1  0.45305000  0.99100000  0.45305000  1.0 0.0771666431
C  C53  1  0.99100000  0.45305000  0.45305000  1.0 0.0771666431
C  C54  1  0.45305000  0.45305000  0.99100000  1.0 0.0771666431
C  C55  1  0.48140000  0.58750000  0.96950000  1.0 0.0308485861
C  C56  1  0.58750000  0.96950000  0.48140000  1.0 0.0308485861
C  C57  1  0.96950000  0.48140000  0.58750000  1.0 0.0308485861
C  C58  1  0.51860000  0.03050000  0.41250000  1.0 0.0308485861
C  C59  1  0.03050000  0.41250000  0.51860000  1.0 0.0308485861
C  C60  1  0.41250000  0.51860000  0.03050000  1.0 0.0308485861
C  C61  1  0.51860000  0.41250000  0.03050000  1.0 0.0308485861
C  C62  1  0.41250000  0.03050000  0.51860000  1.0 0.0308485861
C  C63  1  0.03050000  0.51860000  0.41250000  1.0 0.0308485861
C  C64  1  0.48140000  0.96950000  0.58750000  1.0 0.0308485861
C  C65  1  0.96950000  0.58750000  0.48140000  1.0 0.0308485861
C  C66  1  0.58750000  0.48140000  0.96950000  1.0 0.0308485861
N  N1  1  0.56440000  0.46130000  0.04150000  1.0 -0.1486134505
N  N2  1  0.46130000  0.04150000  0.56440000  1.0 -0.1432166657
N  N3  1  0.04150000  0.56440000  0.46130000  1.0 -0.1432166657
N  N4  1  0.43560000  0.95850000  0.53870000  1.0 -0.1432166657
N  N5  1  0.95850000  0.53870000  0.43560000  1.0 -0.1432166657
N  N6  1  0.53870000  0.43560000  0.95850000  1.0 -0.1432166657
N  N7  1  0.43560000  0.53870000  0.95850000  1.0 -0.1432166657
N  N8  1  0.53870000  0.95850000  0.43560000  1.0 -0.1432166657
N  N9  1  0.95850000  0.43560000  0.53870000  1.0 -0.1311653914
N  N10  1  0.56440000  0.04150000  0.46130000  1.0 -0.1432166657
N  N11  1  0.04150000  0.46130000  0.56440000  1.0 -0.1432166657
N  N12  1  0.46130000  0.56440000  0.04150000  1.0 -0.1486134505
O  O1  1  0.87649000  0.61567000  0.02228000  1.0 -0.5147462896
O  O2  1  0.61567000  0.02228000  0.87649000  1.0 -0.5147462896
O  O3  1  0.02228000  0.87649000  0.61567000  1.0 -0.5147462896
O  O4  1  0.12351000  0.97772000  0.38433000  1.0 -0.5147462896
O  O5  1  0.97772000  0.38433000  0.12351000  1.0 -0.5147462896
O  O6  1  0.38433000  0.12351000  0.97772000  1.0 -0.5147462896
O  O7  1  0.12351000  0.38433000  0.97772000  1.0 -0.5147462896
O  O8  1  0.38433000  0.97772000  0.12351000  1.0 -0.5147462896
O  O9  1  0.97772000  0.12351000  0.38433000  1.0 -0.5147462896
O  O10  1  0.87649000  0.02228000  0.61567000  1.0 -0.5147462896
O  O11  1  0.02228000  0.61567000  0.87649000  1.0 -0.5147462896
O  O12  1  0.61567000  0.87649000  0.02228000  1.0 -0.5147462896
O  O13  1  0.86620000  0.48928000  0.01229000  1.0 -0.5240625155
O  O14  1  0.48928000  0.01229000  0.86620000  1.0 -0.5240625155
O  O15  1  0.01229000  0.86620000  0.48928000  1.0 -0.5240625155
O  O16  1  0.13380000  0.98771000  0.51072000  1.0 -0.5240625155
O  O17  1  0.98771000  0.51072000  0.13380000  1.0 -0.5240625155
O  O18  1  0.51072000  0.13380000  0.98771000  1.0 -0.5240625155
O  O19  1  0.13380000  0.51072000  0.98771000  1.0 -0.5240625155
O  O20  1  0.51072000  0.98771000  0.13380000  1.0 -0.5240625155
O  O21  1  0.98771000  0.13380000  0.51072000  1.0 -0.5240625155
O  O22  1  0.86620000  0.01229000  0.48928000  1.0 -0.5240625155
O  O23  1  0.01229000  0.48928000  0.86620000  1.0 -0.5240625155
O  O24  1  0.48928000  0.86620000  0.01229000  1.0 -0.5240625155
