# DDEC6 charges by PACMAN v1.1 (https://github.com/mtap-research/PACMAN-charge/)
data_NAHHOW_ASR_pacman
_symmetry_space_group_name_H-M   'P 1'
_cell_length_a   16.64100000
_cell_length_b   16.64100000
_cell_length_c   16.64100000
_cell_angle_alpha   68.19090000
_cell_angle_beta   68.19090000
_cell_angle_gamma   68.19090000
_symmetry_Int_Tables_number   1
_chemical_formula_structural   CuH7C9(NO)4
_chemical_formula_sum   'Cu6 H42 C54 N24 O24'
_cell_volume   3823.71467807
_cell_formula_units_Z   6
loop_
 _symmetry_equiv_pos_site_id
 _symmetry_equiv_pos_as_xyz
  1  'x, y, z'
loop_
 _atom_site_type_symbol
 _atom_site_label
 _atom_site_symmetry_multiplicity
 _atom_site_fract_x
 _atom_site_fract_y
 _atom_site_fract_z
 _atom_site_occupancy
 _atom_site_charge
Cu  Cu1  1  0.42436000  0.99484000  0.99484000  1.0 0.8202158777
Cu  Cu2  1  0.99484000  0.99484000  0.42436000  1.0 0.8202158777
Cu  Cu3  1  0.99484000  0.42436000  0.99484000  1.0 0.8202158777
Cu  Cu4  1  0.57564000  0.00516000  0.00516000  1.0 0.8202158777
Cu  Cu5  1  0.00516000  0.57564000  0.00516000  1.0 0.8202158777
Cu  Cu6  1  0.00516000  0.00516000  0.57564000  1.0 0.8202158777
H  H1  1  0.50130000  0.98270000  0.28670000  1.0 0.0826991367
H  H2  1  0.98270000  0.28670000  0.50130000  1.0 0.0826991367
H  H3  1  0.28670000  0.50130000  0.98270000  1.0 0.0826991367
H  H4  1  0.49870000  0.71330000  0.01730000  1.0 0.0826991367
H  H5  1  0.01730000  0.49870000  0.71330000  1.0 0.0826991367
H  H6  1  0.71330000  0.01730000  0.49870000  1.0 0.0826991367
H  H7  1  0.49870000  0.01730000  0.71330000  1.0 0.0826991367
H  H8  1  0.01730000  0.71330000  0.49870000  1.0 0.0826991367
H  H9  1  0.71330000  0.49870000  0.01730000  1.0 0.0826991367
H  H10  1  0.50130000  0.28670000  0.98270000  1.0 0.0826991367
H  H11  1  0.98270000  0.50130000  0.28670000  1.0 0.0826991367
H  H12  1  0.28670000  0.98270000  0.50130000  1.0 0.0826991367
H  H13  1  0.27140000  0.96990000  0.27140000  1.0 0.1068288503
H  H14  1  0.96990000  0.27140000  0.27140000  1.0 0.1068288503
H  H15  1  0.27140000  0.27140000  0.96990000  1.0 0.1068288503
H  H16  1  0.72860000  0.72860000  0.03010000  1.0 0.1068288503
H  H17  1  0.03010000  0.72860000  0.72860000  1.0 0.1068288503
H  H18  1  0.72860000  0.03010000  0.72860000  1.0 0.1068288503
H  H19  1  0.54100000  0.04900000  0.34450000  1.0 0.1334810196
H  H20  1  0.04900000  0.34450000  0.54100000  1.0 0.1388588234
H  H21  1  0.34450000  0.54100000  0.04900000  1.0 0.1334810196
H  H22  1  0.45900000  0.65550000  0.95100000  1.0 0.1388588234
H  H23  1  0.95100000  0.45900000  0.65550000  1.0 0.1334810196
H  H24  1  0.65550000  0.95100000  0.45900000  1.0 0.1388588234
H  H25  1  0.45900000  0.95100000  0.65550000  1.0 0.1388588234
H  H26  1  0.95100000  0.65550000  0.45900000  1.0 0.1388588234
H  H27  1  0.65550000  0.45900000  0.95100000  1.0 0.1388588234
H  H28  1  0.54100000  0.34450000  0.04900000  1.0 0.1388588234
H  H29  1  0.04900000  0.54100000  0.34450000  1.0 0.1334810196
H  H30  1  0.34450000  0.04900000  0.54100000  1.0 0.1334810196
H  H31  1  0.38600000  0.92740000  0.57520000  1.0 0.1388588234
H  H32  1  0.92740000  0.57520000  0.38600000  1.0 0.1388588234
H  H33  1  0.57520000  0.38600000  0.92740000  1.0 0.1388588234
H  H34  1  0.61400000  0.42480000  0.07260000  1.0 0.1388588234
H  H35  1  0.07260000  0.61400000  0.42480000  1.0 0.1388588234
H  H36  1  0.42480000  0.07260000  0.61400000  1.0 0.1388588234
H  H37  1  0.61400000  0.07260000  0.42480000  1.0 0.1388588234
H  H38  1  0.07260000  0.42480000  0.61400000  1.0 0.1388588234
H  H39  1  0.42480000  0.61400000  0.07260000  1.0 0.1388588234
H  H40  1  0.38600000  0.57520000  0.92740000  1.0 0.1388588234
H  H41  1  0.92740000  0.38600000  0.57520000  1.0 0.1388588234
H  H42  1  0.57520000  0.92740000  0.38600000  1.0 0.1388588234
C  C1  1  0.43393000  0.98039000  0.16633000  1.0 0.5432028888
C  C2  1  0.98039000  0.16633000  0.43393000  1.0 0.5432028888
C  C3  1  0.16633000  0.43393000  0.98039000  1.0 0.5432028888
C  C4  1  0.56607000  0.83367000  0.01961000  1.0 0.5432028888
C  C5  1  0.01961000  0.56607000  0.83367000  1.0 0.5432028888
C  C6  1  0.83367000  0.01961000  0.56607000  1.0 0.5432028888
C  C7  1  0.56607000  0.01961000  0.83367000  1.0 0.5432028888
C  C8  1  0.01961000  0.83367000  0.56607000  1.0 0.5432028888
C  C9  1  0.83367000  0.56607000  0.01961000  1.0 0.5432028888
C  C10  1  0.43393000  0.16633000  0.98039000  1.0 0.5432028888
C  C11  1  0.98039000  0.43393000  0.16633000  1.0 0.5432028888
C  C12  1  0.16633000  0.98039000  0.43393000  1.0 0.5432028888
C  C13  1  0.39248000  0.97624000  0.26386000  1.0 -0.0486211599
C  C14  1  0.97624000  0.26386000  0.39248000  1.0 -0.0486211599
C  C15  1  0.26386000  0.39248000  0.97624000  1.0 -0.0486211599
C  C16  1  0.60752000  0.73614000  0.02376000  1.0 -0.0486211599
C  C17  1  0.02376000  0.60752000  0.73614000  1.0 -0.0486211599
C  C18  1  0.73614000  0.02376000  0.60752000  1.0 -0.0486211599
C  C19  1  0.60752000  0.02376000  0.73614000  1.0 -0.0486211599
C  C20  1  0.02376000  0.73614000  0.60752000  1.0 -0.0486211599
C  C21  1  0.73614000  0.60752000  0.02376000  1.0 -0.0486211599
C  C22  1  0.39248000  0.26386000  0.97624000  1.0 -0.0486211599
C  C23  1  0.97624000  0.39248000  0.26386000  1.0 -0.0486211599
C  C24  1  0.26386000  0.97624000  0.39248000  1.0 -0.0486211599
C  C25  1  0.44163000  0.98118000  0.31345000  1.0 -0.1413707342
C  C26  1  0.98118000  0.31345000  0.44163000  1.0 -0.1413707342
C  C27  1  0.31345000  0.44163000  0.98118000  1.0 -0.1413707342
C  C28  1  0.55837000  0.68655000  0.01882000  1.0 -0.1413707342
C  C29  1  0.01882000  0.55837000  0.68655000  1.0 -0.1413707342
C  C30  1  0.68655000  0.01882000  0.55837000  1.0 -0.1413707342
C  C31  1  0.55837000  0.01882000  0.68655000  1.0 -0.1413707342
C  C32  1  0.01882000  0.68655000  0.55837000  1.0 -0.1413707342
C  C33  1  0.68655000  0.55837000  0.01882000  1.0 -0.1413707342
C  C34  1  0.44163000  0.31345000  0.98118000  1.0 -0.1413707342
C  C35  1  0.98118000  0.44163000  0.31345000  1.0 -0.1413707342
C  C36  1  0.31345000  0.98118000  0.44163000  1.0 -0.1413707342
C  C37  1  0.30409000  0.97355000  0.30409000  1.0 -0.1413707342
C  C38  1  0.97355000  0.30409000  0.30409000  1.0 -0.1413707342
C  C39  1  0.30409000  0.30409000  0.97355000  1.0 -0.1413707342
C  C40  1  0.69591000  0.69591000  0.02645000  1.0 -0.1413707342
C  C41  1  0.02645000  0.69591000  0.69591000  1.0 -0.1413707342
C  C42  1  0.69591000  0.02645000  0.69591000  1.0 -0.1413707342
C  C43  1  0.40209000  0.98392000  0.40209000  1.0 -0.0611364635
C  C44  1  0.98392000  0.40209000  0.40209000  1.0 -0.0611364635
C  C45  1  0.40209000  0.40209000  0.98392000  1.0 -0.0611364635
C  C46  1  0.59791000  0.59791000  0.01608000  1.0 -0.0611364635
C  C47  1  0.01608000  0.59791000  0.59791000  1.0 -0.0653859017
C  C48  1  0.59791000  0.01608000  0.59791000  1.0 -0.0611364635
C  C49  1  0.45365000  0.99180000  0.45365000  1.0 0.1790166714
C  C50  1  0.99180000  0.45365000  0.45365000  1.0 0.1684590447
C  C51  1  0.45365000  0.45365000  0.99180000  1.0 0.1790166714
C  C52  1  0.54635000  0.54635000  0.00820000  1.0 0.1684590447
C  C53  1  0.00820000  0.54635000  0.54635000  1.0 0.1790166714
C  C54  1  0.54635000  0.00820000  0.54635000  1.0 0.1684590447
N  N1  1  0.43162000  0.95992000  0.54422000  1.0 -0.0295031296
N  N2  1  0.95992000  0.54422000  0.43162000  1.0 -0.0215841692
N  N3  1  0.54422000  0.43162000  0.95992000  1.0 -0.0295031296
N  N4  1  0.56838000  0.45578000  0.04008000  1.0 -0.0295031296
N  N5  1  0.04008000  0.56838000  0.45578000  1.0 -0.0295031296
N  N6  1  0.45578000  0.04008000  0.56838000  1.0 -0.0295031296
N  N7  1  0.56838000  0.04008000  0.45578000  1.0 -0.0295031296
N  N8  1  0.04008000  0.45578000  0.56838000  1.0 -0.0295031296
N  N9  1  0.45578000  0.56838000  0.04008000  1.0 -0.0295031296
N  N10  1  0.43162000  0.54422000  0.95992000  1.0 -0.0295031296
N  N11  1  0.95992000  0.43162000  0.54422000  1.0 -0.0295031296
N  N12  1  0.54422000  0.95992000  0.43162000  1.0 -0.0215841692
N  N13  1  0.52299000  0.03089000  0.40909000  1.0 -0.0295031296
N  N14  1  0.03089000  0.40909000  0.52299000  1.0 -0.0295031296
N  N15  1  0.40909000  0.52299000  0.03089000  1.0 -0.0215841692
N  N16  1  0.47701000  0.59091000  0.96911000  1.0 -0.0215841692
N  N17  1  0.96911000  0.47701000  0.59091000  1.0 -0.0215841692
N  N18  1  0.59091000  0.96911000  0.47701000  1.0 -0.0215841692
N  N19  1  0.47701000  0.96911000  0.59091000  1.0 -0.0215841692
N  N20  1  0.96911000  0.59091000  0.47701000  1.0 -0.0215841692
N  N21  1  0.59091000  0.47701000  0.96911000  1.0 -0.0295031296
N  N22  1  0.52299000  0.40909000  0.03089000  1.0 -0.0295031296
N  N23  1  0.03089000  0.52299000  0.40909000  1.0 -0.0215841692
N  N24  1  0.40909000  0.03089000  0.52299000  1.0 -0.0215841692
O  O1  1  0.38550000  0.97844000  0.12455000  1.0 -0.5537289467
O  O2  1  0.97844000  0.12455000  0.38550000  1.0 -0.5537289467
O  O3  1  0.12455000  0.38550000  0.97844000  1.0 -0.5555624397
O  O4  1  0.61450000  0.87545000  0.02156000  1.0 -0.5537289467
O  O5  1  0.02156000  0.61450000  0.87545000  1.0 -0.5537289467
O  O6  1  0.87545000  0.02156000  0.61450000  1.0 -0.5537289467
O  O7  1  0.61450000  0.02156000  0.87545000  1.0 -0.5537289467
O  O8  1  0.02156000  0.87545000  0.61450000  1.0 -0.5537289467
O  O9  1  0.87545000  0.61450000  0.02156000  1.0 -0.5537289467
O  O10  1  0.38550000  0.12455000  0.97844000  1.0 -0.5537289467
O  O11  1  0.97844000  0.38550000  0.12455000  1.0 -0.5537289467
O  O12  1  0.12455000  0.97844000  0.38550000  1.0 -0.5537289467
O  O13  1  0.51340000  0.98636000  0.13333000  1.0 -0.5537289467
O  O14  1  0.98636000  0.13333000  0.51340000  1.0 -0.5537289467
O  O15  1  0.13333000  0.51340000  0.98636000  1.0 -0.5555624397
O  O16  1  0.48660000  0.86667000  0.01364000  1.0 -0.5537289467
O  O17  1  0.01364000  0.48660000  0.86667000  1.0 -0.5537289467
O  O18  1  0.86667000  0.01364000  0.48660000  1.0 -0.5537289467
O  O19  1  0.48660000  0.01364000  0.86667000  1.0 -0.5537289467
O  O20  1  0.01364000  0.86667000  0.48660000  1.0 -0.5537289467
O  O21  1  0.86667000  0.48660000  0.01364000  1.0 -0.5537289467
O  O22  1  0.51340000  0.13333000  0.98636000  1.0 -0.5537289467
O  O23  1  0.98636000  0.51340000  0.13333000  1.0 -0.5537289467
O  O24  1  0.13333000  0.98636000  0.51340000  1.0 -0.5537289467
