# DDEC6 charges by PACMAN v1.1 (https://github.com/mtap-research/PACMAN-charge/)
data_NAJMIV_ion_pacman
_symmetry_space_group_name_H-M   'P 1'
_cell_length_a   29.76110000
_cell_length_b   22.27320000
_cell_length_c   22.20740000
_cell_angle_alpha   83.99200000
_cell_angle_beta   48.09810000
_cell_angle_gamma   47.90990000
_symmetry_Int_Tables_number   1
_chemical_formula_structural   Cu2H32C40N11O12
_chemical_formula_sum   'Cu8 H128 C160 N44 O48'
_cell_volume   6372.95391217
_cell_formula_units_Z   4
loop_
 _symmetry_equiv_pos_site_id
 _symmetry_equiv_pos_as_xyz
  1  'x, y, z'
loop_
 _atom_site_type_symbol
 _atom_site_label
 _atom_site_symmetry_multiplicity
 _atom_site_fract_x
 _atom_site_fract_y
 _atom_site_fract_z
 _atom_site_occupancy
 _atom_site_charge
Cu  Cu1  1  0.60152000  0.57844000  0.65084000  1.0 0.6067075679
Cu  Cu2  1  0.57844000  0.60152000  0.16920000  1.0 0.6067075679
Cu  Cu3  1  0.59916000  0.08080000  0.64848000  1.0 0.6067075679
Cu  Cu4  1  0.08080000  0.59916000  0.67156000  1.0 0.6067075679
Cu  Cu5  1  0.02626000  0.50488000  0.22058000  1.0 0.6177639166
Cu  Cu6  1  0.50488000  0.02626000  0.24828000  1.0 0.6177639166
Cu  Cu7  1  0.02942000  0.00172000  0.22374000  1.0 0.6177639166
Cu  Cu8  1  0.00172000  0.02942000  0.74512000  1.0 0.6177639166
H  H1  1  0.49700000  0.56900000  0.67260000  1.0 0.1006988412
H  H2  1  0.56900000  0.49700000  0.26140000  1.0 0.1006988412
H  H3  1  0.57740000  0.98860000  0.75300000  1.0 0.1006988412
H  H4  1  0.98860000  0.57740000  0.68100000  1.0 0.1006988412
H  H5  1  0.49160000  0.46920000  0.67620000  1.0 0.1386386635
H  H6  1  0.46920000  0.49160000  0.36300000  1.0 0.1386386635
H  H7  1  0.57380000  0.88700000  0.75840000  1.0 0.1386386635
H  H8  1  0.88700000  0.57380000  0.78080000  1.0 0.1386386635
H  H9  1  0.70260000  0.28420000  0.64120000  1.0 0.1311073037
H  H10  1  0.28420000  0.70260000  0.37200000  1.0 0.1311073037
H  H11  1  0.60880000  0.87800000  0.54740000  1.0 0.1311073037
H  H12  1  0.87800000  0.60880000  0.96580000  1.0 0.1311073037
H  H13  1  0.70490000  0.38750000  0.63330000  1.0 0.1093352098
H  H14  1  0.38750000  0.70490000  0.27430000  1.0 0.1093352098
H  H15  1  0.61670000  0.97570000  0.54510000  1.0 0.1093352098
H  H16  1  0.97570000  0.61670000  0.86250000  1.0 0.1093352098
H  H17  1  0.44280000  0.41440000  0.76240000  1.0 0.1311073037
H  H18  1  0.41440000  0.44280000  0.38040000  1.0 0.1311073037
H  H19  1  0.48760000  0.86960000  0.80720000  1.0 0.1311073037
H  H20  1  0.86960000  0.48760000  0.83560000  1.0 0.1311073037
H  H21  1  0.44700000  0.30680000  0.75900000  1.0 0.1006988412
H  H22  1  0.30680000  0.44700000  0.48720000  1.0 0.1006988412
H  H23  1  0.49100000  0.76280000  0.80300000  1.0 0.1006988412
H  H24  1  0.76280000  0.49100000  0.94320000  1.0 0.1006988412
H  H25  1  0.74350000  0.06150000  0.55770000  1.0 0.1006988412
H  H26  1  0.06150000  0.74350000  0.63730000  1.0 0.1006988412
H  H27  1  0.69230000  0.61270000  0.50650000  1.0 0.1006988412
H  H28  1  0.61270000  0.69230000  0.18850000  1.0 0.1006988412
H  H29  1  0.74730000  0.16190000  0.55990000  1.0 0.1311073037
H  H30  1  0.16190000  0.74730000  0.53090000  1.0 0.1311073037
H  H31  1  0.69010000  0.71910000  0.50270000  1.0 0.1311073037
H  H32  1  0.71910000  0.69010000  0.08810000  1.0 0.1311073037
H  H33  1  0.47430000  0.73930000  0.65050000  1.0 0.1093352098
H  H34  1  0.73930000  0.47430000  0.13590000  1.0 0.1093352098
H  H35  1  0.59950000  0.11410000  0.77570000  1.0 0.1093352098
H  H36  1  0.11410000  0.59950000  0.51070000  1.0 0.1093352098
H  H37  1  0.46730000  0.74730000  0.55070000  1.0 0.1311073037
H  H38  1  0.74730000  0.46730000  0.23470000  1.0 0.1311073037
H  H39  1  0.69930000  0.01530000  0.78270000  1.0 0.1311073037
H  H40  1  0.01530000  0.69930000  0.50270000  1.0 0.1311073037
H  H41  1  0.72620000  0.43580000  0.34580000  1.0 0.1311073037
H  H42  1  0.43580000  0.72620000  0.49220000  1.0 0.1311073037
H  H43  1  0.90420000  0.75780000  0.52380000  1.0 0.1311073037
H  H44  1  0.75780000  0.90420000  0.81420000  1.0 0.1311073037
H  H45  1  0.72490000  0.43470000  0.45190000  1.0 0.1093352098
H  H46  1  0.43470000  0.72490000  0.38850000  1.0 0.1093352098
H  H47  1  0.79810000  0.86150000  0.52510000  1.0 0.1093352098
H  H48  1  0.86150000  0.79810000  0.81530000  1.0 0.1093352098
H  H49  1  0.48700000  0.60560000  0.84700000  1.0 0.1093352098
H  H50  1  0.60560000  0.48700000  0.06040000  1.0 0.1093352098
H  H51  1  0.40300000  0.18960000  0.76300000  1.0 0.1093352098
H  H52  1  0.18960000  0.40300000  0.64440000  1.0 0.1093352098
H  H53  1  0.47890000  0.60550000  0.95850000  1.0 0.1386386635
H  H54  1  0.60550000  0.47890000  0.95710000  1.0 0.1386386635
H  H55  1  0.29150000  0.29290000  0.77110000  1.0 0.1386386635
H  H56  1  0.29290000  0.29150000  0.64450000  1.0 0.1386386635
H  H57  1  0.70400000  0.55060000  0.77120000  1.0 0.1386386635
H  H58  1  0.55060000  0.70400000  0.97420000  1.0 0.1386386635
H  H59  1  0.47880000  0.27580000  0.54600000  1.0 0.1386386635
H  H60  1  0.27580000  0.47880000  0.69940000  1.0 0.1386386635
H  H61  1  0.71450000  0.53830000  0.65970000  1.0 0.1093352098
H  H62  1  0.53830000  0.71450000  0.08750000  1.0 0.1093352098
H  H63  1  0.59030000  0.16250000  0.53550000  1.0 0.1093352098
H  H64  1  0.16250000  0.59030000  0.71170000  1.0 0.1093352098
H  H65  1  0.04500000  0.60080000  0.11980000  1.0 0.1006988412
H  H66  1  0.60080000  0.04500000  0.23440000  1.0 0.1006988412
H  H67  1  0.13020000  0.01560000  0.20500000  1.0 0.1006988412
H  H68  1  0.01560000  0.13020000  0.64920000  1.0 0.1006988412
H  H69  1  0.04930000  0.70150000  0.11590000  1.0 0.1311073037
H  H70  1  0.70150000  0.04930000  0.13330000  1.0 0.1311073037
H  H71  1  0.13410000  0.11670000  0.20070000  1.0 0.1311073037
H  H72  1  0.11670000  0.13410000  0.54850000  1.0 0.1311073037
H  H73  1  0.00930000  0.71230000  0.33010000  1.0 0.1311073037
H  H74  1  0.71230000  0.00930000  0.94830000  1.0 0.1311073037
H  H75  1  0.91990000  0.30170000  0.24070000  1.0 0.1311073037
H  H76  1  0.30170000  0.91990000  0.53770000  1.0 0.1311073037
H  H77  1  0.00590000  0.61130000  0.32850000  1.0 0.1006988412
H  H78  1  0.61130000  0.00590000  0.05430000  1.0 0.1006988412
H  H79  1  0.92150000  0.19570000  0.24410000  1.0 0.1006988412
H  H80  1  0.19570000  0.92150000  0.63870000  1.0 0.1006988412
H  H81  1  0.13730000  0.71630000  0.07010000  1.0 0.1311073037
H  H82  1  0.71630000  0.13730000  0.07630000  1.0 0.1311073037
H  H83  1  0.17990000  0.17370000  0.11270000  1.0 0.1311073037
H  H84  1  0.17370000  0.17990000  0.53370000  1.0 0.1311073037
H  H85  1  0.13690000  0.82050000  0.07330000  1.0 0.1006988412
H  H86  1  0.82050000  0.13690000  0.96930000  1.0 0.1006988412
H  H87  1  0.17670000  0.28070000  0.11310000  1.0 0.1006988412
H  H88  1  0.28070000  0.17670000  0.42950000  1.0 0.1006988412
H  H89  1  0.93110000  0.97230000  0.37150000  1.0 0.1006988412
H  H90  1  0.97230000  0.93110000  0.72510000  1.0 0.1006988412
H  H91  1  0.87850000  0.52490000  0.31890000  1.0 0.1006988412
H  H92  1  0.52490000  0.87850000  0.27770000  1.0 0.1006988412
H  H93  1  0.92810000  0.87170000  0.37510000  1.0 0.1199454852
H  H94  1  0.87170000  0.92810000  0.82510000  1.0 0.1199454852
H  H95  1  0.87490000  0.42490000  0.32190000  1.0 0.1199454852
H  H96  1  0.42490000  0.87490000  0.37830000  1.0 0.1199454852
H  H97  1  0.01070000  0.48410000  0.10690000  1.0 0.1093352098
H  H98  1  0.48410000  0.01070000  0.39830000  1.0 0.1093352098
H  H99  1  0.14310000  0.85170000  0.23930000  1.0 0.1093352098
H  H100  1  0.85170000  0.14310000  0.76590000  1.0 0.1093352098
H  H101  1  0.90090000  0.58630000  0.11310000  1.0 0.1311073037
H  H102  1  0.58630000  0.90090000  0.39970000  1.0 0.1311073037
H  H103  1  0.13690000  0.85030000  0.34910000  1.0 0.1311073037
H  H104  1  0.85030000  0.13690000  0.66370000  1.0 0.1311073037
H  H105  1  0.70650000  0.83750000  0.36990000  1.0 0.1311073037
H  H106  1  0.83750000  0.70650000  0.08610000  1.0 0.1311073037
H  H107  1  0.88010000  0.16390000  0.54350000  1.0 0.1311073037
H  H108  1  0.16390000  0.88010000  0.41250000  1.0 0.1311073037
H  H109  1  0.82190000  0.72710000  0.35670000  1.0 0.1093352098
H  H110  1  0.72710000  0.82190000  0.09430000  1.0 0.1093352098
H  H111  1  0.89330000  0.15570000  0.42810000  1.0 0.1093352098
H  H112  1  0.15570000  0.89330000  0.52290000  1.0 0.1093352098
H  H113  1  0.21788000  0.40132000  0.11548000  1.0 0.1006988412
H  H114  1  0.40132000  0.21788000  0.26532000  1.0 0.1006988412
H  H115  1  0.13452000  0.98468000  0.03212000  1.0 0.1006988412
H  H116  1  0.98468000  0.13452000  0.84868000  1.0 0.1006988412
H  H117  1  0.32240000  0.30280000  0.11660000  1.0 0.1386386635
H  H118  1  0.30280000  0.32240000  0.25820000  1.0 0.1386386635
H  H119  1  0.13340000  0.99180000  0.92760000  1.0 0.1386386635
H  H120  1  0.99180000  0.13340000  0.94720000  1.0 0.1386386635
H  H121  1  0.12880000  0.32720000  0.34160000  1.0 0.1386386635
H  H122  1  0.32720000  0.12880000  0.20240000  1.0 0.1386386635
H  H123  1  0.90840000  0.04760000  0.12120000  1.0 0.1386386635
H  H124  1  0.04760000  0.90840000  0.92280000  1.0 0.1386386635
H  H125  1  0.02800000  0.42660000  0.33740000  1.0 0.1006988412
H  H126  1  0.42660000  0.02800000  0.20800000  1.0 0.1006988412
H  H127  1  0.91260000  0.04200000  0.22200000  1.0 0.1006988412
H  H128  1  0.04200000  0.91260000  0.82340000  1.0 0.1006988412
C  C1  1  0.53983000  0.50971000  0.66529000  1.0 0.0811385076
C  C2  1  0.50971000  0.53983000  0.28517000  1.0 0.0811385076
C  C3  1  0.58471000  0.96483000  0.71017000  1.0 0.0811385076
C  C4  1  0.96483000  0.58471000  0.74029000  1.0 0.0811385076
C  C5  1  0.53546000  0.45122000  0.66838000  1.0 -0.1723759572
C  C6  1  0.45122000  0.53546000  0.34494000  1.0 -0.1723759572
C  C7  1  0.58162000  0.90506000  0.71454000  1.0 -0.1723759572
C  C8  1  0.90506000  0.58162000  0.79878000  1.0 -0.1723759572
C  C9  1  0.59586000  0.36652000  0.65988000  1.0 0.1199454852
C  C10  1  0.36652000  0.59586000  0.37774000  1.0 0.1199454852
C  C11  1  0.59012000  0.87226000  0.65414000  1.0 0.1199454852
C  C12  1  0.87226000  0.59012000  0.88348000  1.0 0.1199454852
C  C13  1  0.66023000  0.34193000  0.64707000  1.0 -0.189069142
C  C14  1  0.34193000  0.66023000  0.35077000  1.0 -0.189069142
C  C15  1  0.60293000  0.89923000  0.58977000  1.0 -0.189069142
C  C16  1  0.89923000  0.60293000  0.90807000  1.0 -0.189069142
C  C17  1  0.66042000  0.40448000  0.64312000  1.0 0.1006988412
C  C18  1  0.40448000  0.66042000  0.29198000  1.0 0.1006988412
C  C19  1  0.60688000  0.95802000  0.58958000  1.0 0.1006988412
C  C20  1  0.95802000  0.60688000  0.84552000  1.0 0.1006988412
C  C21  1  0.59553000  0.29931000  0.66069000  1.0 0.1199454852
C  C22  1  0.29931000  0.59553000  0.44447000  1.0 0.1199454852
C  C23  1  0.58931000  0.80553000  0.65447000  1.0 0.1199454852
C  C24  1  0.80553000  0.58931000  0.95069000  1.0 0.1199454852
C  C25  1  0.50526000  0.34220000  0.72040000  1.0 -0.1808713823
C  C26  1  0.34220000  0.50526000  0.43214000  1.0 -0.1808713823
C  C27  1  0.52960000  0.81786000  0.74474000  1.0 -0.1808713823
C  C28  1  0.81786000  0.52960000  0.90780000  1.0 -0.1808713823
C  C29  1  0.50880000  0.27724000  0.71696000  1.0 0.0811385076
C  C30  1  0.27724000  0.50880000  0.49700000  1.0 0.0811385076
C  C31  1  0.53304000  0.75300000  0.74120000  1.0 0.0811385076
C  C32  1  0.75300000  0.53304000  0.97276000  1.0 0.0811385076
C  C33  1  0.68168000  0.13406000  0.60014000  1.0 0.088311652
C  C34  1  0.13406000  0.68168000  0.58412000  1.0 0.088311652
C  C35  1  0.64986000  0.66588000  0.56832000  1.0 0.088311652
C  C36  1  0.66588000  0.64986000  0.11594000  1.0 0.088311652
C  C37  1  0.68495000  0.19329000  0.60031000  1.0 -0.189069142
C  C38  1  0.19329000  0.68495000  0.52145000  1.0 -0.189069142
C  C39  1  0.64969000  0.72855000  0.56505000  1.0 -0.189069142
C  C40  1  0.72855000  0.64969000  0.05671000  1.0 -0.189069142
C  C41  1  0.52570000  0.67708000  0.58832000  1.0 0.0811385076
C  C42  1  0.67708000  0.52570000  0.20890000  1.0 0.0811385076
C  C43  1  0.66168000  0.04110000  0.72430000  1.0 0.0811385076
C  C44  1  0.04110000  0.66168000  0.57292000  1.0 0.0811385076
C  C45  1  0.52181000  0.68221000  0.52839000  1.0 -0.1808713823
C  C46  1  0.68221000  0.52181000  0.26759000  1.0 -0.1808713823
C  C47  1  0.72161000  0.98241000  0.72819000  1.0 -0.1808713823
C  C48  1  0.98241000  0.72161000  0.56779000  1.0 -0.1808713823
C  C49  1  0.59658000  0.59332000  0.43768000  1.0 0.1093352098
C  C50  1  0.59332000  0.59658000  0.37242000  1.0 0.1093352098
C  C51  1  0.81232000  0.87758000  0.65342000  1.0 0.1093352098
C  C52  1  0.87758000  0.81232000  0.65668000  1.0 0.1093352098
C  C53  1  0.67397000  0.49871000  0.40789000  1.0 -0.1808713823
C  C54  1  0.49871000  0.67397000  0.41943000  1.0 -0.1808713823
C  C55  1  0.84211000  0.83057000  0.57603000  1.0 -0.1808713823
C  C56  1  0.83057000  0.84211000  0.75129000  1.0 -0.1808713823
C  C57  1  0.67240000  0.49918000  0.47162000  1.0 0.088311652
C  C58  1  0.49918000  0.67240000  0.35680000  1.0 0.088311652
C  C59  1  0.77838000  0.89320000  0.57760000  1.0 0.088311652
C  C60  1  0.89320000  0.77838000  0.75082000  1.0 0.088311652
C  C61  1  0.53270000  0.59252000  0.83088000  1.0 0.088311652
C  C62  1  0.59252000  0.53270000  0.04390000  1.0 0.088311652
C  C63  1  0.41912000  0.20610000  0.71730000  1.0 0.088311652
C  C64  1  0.20610000  0.41912000  0.65748000  1.0 0.088311652
C  C65  1  0.52577000  0.59467000  0.89913000  1.0 -0.1622676117
C  C66  1  0.59467000  0.52577000  0.98043000  1.0 -0.1622676117
C  C67  1  0.35087000  0.26957000  0.72423000  1.0 -0.1622676117
C  C68  1  0.26957000  0.35087000  0.65533000  1.0 -0.1622676117
C  C69  1  0.58849000  0.58067000  0.87913000  1.0 0.1093352098
C  C70  1  0.58067000  0.58849000  0.95171000  1.0 0.1093352098
C  C71  1  0.37087000  0.29829000  0.66151000  1.0 0.1093352098
C  C72  1  0.29829000  0.37087000  0.66933000  1.0 0.1093352098
C  C73  1  0.65964000  0.56048000  0.78772000  1.0 -0.1723759572
C  C74  1  0.56048000  0.65964000  0.99216000  1.0 -0.1723759572
C  C75  1  0.46228000  0.25784000  0.59036000  1.0 -0.1723759572
C  C76  1  0.25784000  0.46228000  0.68952000  1.0 -0.1723759572
C  C77  1  0.66391000  0.55527000  0.72293000  1.0 0.0811385076
C  C78  1  0.55527000  0.66391000  0.05789000  1.0 0.0811385076
C  C79  1  0.52707000  0.19211000  0.58609000  1.0 0.0811385076
C  C80  1  0.19211000  0.52707000  0.69473000  1.0 0.0811385076
C  C81  1  0.03733000  0.62397000  0.16323000  1.0 0.088311652
C  C82  1  0.62397000  0.03733000  0.17547000  1.0 0.088311652
C  C83  1  0.08677000  0.07453000  0.21267000  1.0 0.088311652
C  C84  1  0.07453000  0.08677000  0.62603000  1.0 0.088311652
C  C85  1  0.04003000  0.68423000  0.16057000  1.0 -0.1723759572
C  C86  1  0.68423000  0.04003000  0.11517000  1.0 -0.1723759572
C  C87  1  0.08943000  0.13483000  0.20997000  1.0 -0.1723759572
C  C88  1  0.13483000  0.08943000  0.56577000  1.0 -0.1723759572
C  C89  1  0.02905000  0.71931000  0.22309000  1.0 0.1199454852
C  C90  1  0.71931000  0.02905000  0.02855000  1.0 0.1199454852
C  C91  1  0.02691000  0.22145000  0.22095000  1.0 0.1199454852
C  C92  1  0.22145000  0.02691000  0.53069000  1.0 0.1199454852
C  C93  1  0.01652000  0.69064000  0.28636000  1.0 -0.189069142
C  C94  1  0.69064000  0.01652000  0.00648000  1.0 -0.189069142
C  C95  1  0.96364000  0.24352000  0.23348000  1.0 -0.189069142
C  C96  1  0.24352000  0.96364000  0.55936000  1.0 -0.189069142
C  C97  1  0.01461000  0.63023000  0.28497000  1.0 0.0707301317
C  C98  1  0.63023000  0.01461000  0.07019000  1.0 0.0707301317
C  C99  1  0.96503000  0.17981000  0.23539000  1.0 0.0707301317
C  C100  1  0.17981000  0.96503000  0.61977000  1.0 0.0707301317
C  C101  1  0.03151000  0.78271000  0.22229000  1.0 0.1093352098
C  C102  1  0.78271000  0.03151000  0.96349000  1.0 0.1093352098
C  C103  1  0.02771000  0.28651000  0.21849000  1.0 0.1093352098
C  C104  1  0.28651000  0.02771000  0.46729000  1.0 0.1093352098
C  C105  1  0.09378000  0.76898000  0.13322000  1.0 -0.1808713823
C  C106  1  0.76898000  0.09378000  0.00402000  1.0 -0.1808713823
C  C107  1  0.11678000  0.24598000  0.15622000  1.0 -0.1808713823
C  C108  1  0.24598000  0.11678000  0.48102000  1.0 -0.1808713823
C  C109  1  0.09326000  0.83160000  0.13540000  1.0 0.0811385076
C  C110  1  0.83160000  0.09326000  0.93974000  1.0 0.088311652
C  C111  1  0.11460000  0.31026000  0.15674000  1.0 0.0811385076
C  C112  1  0.31026000  0.11460000  0.41840000  1.0 0.088311652
C  C113  1  0.97330000  0.91972000  0.30948000  1.0 0.0644497821
C  C114  1  0.91972000  0.97330000  0.79750000  1.0 0.0644497821
C  C115  1  0.94052000  0.45250000  0.27670000  1.0 0.0644497821
C  C116  1  0.45250000  0.94052000  0.33028000  1.0 0.0644497821
C  C117  1  0.97089000  0.86037000  0.31223000  1.0 -0.1808713823
C  C118  1  0.86037000  0.97089000  0.85651000  1.0 -0.1808713823
C  C119  1  0.93777000  0.39349000  0.27911000  1.0 -0.1808713823
C  C120  1  0.39349000  0.93777000  0.38963000  1.0 -0.1808713823
C  C121  1  0.94833000  0.55661000  0.16059000  1.0 0.088311652
C  C122  1  0.55661000  0.94833000  0.33447000  1.0 0.088311652
C  C123  1  0.08941000  0.91553000  0.30167000  1.0 0.088311652
C  C124  1  0.91553000  0.08941000  0.69339000  1.0 0.088311652
C  C125  1  0.88373000  0.61729000  0.16311000  1.0 -0.1808713823
C  C126  1  0.61729000  0.88373000  0.33587000  1.0 -0.1808713823
C  C127  1  0.08689000  0.91413000  0.36627000  1.0 -0.1808713823
C  C128  1  0.91413000  0.08689000  0.63271000  1.0 -0.1808713823
C  C129  1  0.79289000  0.72465000  0.23975000  1.0 0.1093352098
C  C130  1  0.72465000  0.79289000  0.24271000  1.0 0.1093352098
C  C131  1  0.01025000  0.00729000  0.45711000  1.0 0.1093352098
C  C132  1  0.00729000  0.01025000  0.52535000  1.0 0.1093352098
C  C133  1  0.76893000  0.76541000  0.31459000  1.0 -0.189069142
C  C134  1  0.76541000  0.76893000  0.15107000  1.0 -0.189069142
C  C135  1  0.93541000  0.09893000  0.48107000  1.0 -0.189069142
C  C136  1  0.09893000  0.93541000  0.48459000  1.0 -0.189069142
C  C137  1  0.83778000  0.69898000  0.30662000  1.0 0.0811385076
C  C138  1  0.69898000  0.83778000  0.15662000  1.0 0.0811385076
C  C139  1  0.94338000  0.09338000  0.41222000  1.0 0.0811385076
C  C140  1  0.09338000  0.94338000  0.55102000  1.0 0.0811385076
C  C141  1  0.19953000  0.38635000  0.16245000  1.0 0.088311652
C  C142  1  0.38635000  0.19953000  0.25167000  1.0 0.088311652
C  C143  1  0.08755000  0.99833000  0.05047000  1.0 0.088311652
C  C144  1  0.99833000  0.08755000  0.86365000  1.0 0.088311652
C  C145  1  0.26274000  0.32678000  0.16182000  1.0 -0.1808713823
C  C146  1  0.32678000  0.26274000  0.24866000  1.0 -0.1808713823
C  C147  1  0.08818000  0.00134000  0.98726000  1.0 -0.1808713823
C  C148  1  0.00134000  0.08818000  0.92322000  1.0 -0.1808713823
C  C149  1  0.23699000  0.30249000  0.22951000  1.0 0.1093352098
C  C150  1  0.30249000  0.23699000  0.23101000  1.0 0.1093352098
C  C151  1  0.02049000  0.01899000  0.01301000  1.0 0.1093352098
C  C152  1  0.01899000  0.02049000  0.94751000  1.0 0.1093352098
C  C153  1  0.14875000  0.34145000  0.29435000  1.0 -0.1808713823
C  C154  1  0.34145000  0.14875000  0.21545000  1.0 -0.1808713823
C  C155  1  0.95565000  0.03455000  0.10125000  1.0 -0.1808713823
C  C156  1  0.03455000  0.95565000  0.90855000  1.0 -0.1808713823
C  C157  1  0.08863000  0.40085000  0.29195000  1.0 0.0707301317
C  C158  1  0.40085000  0.08863000  0.21857000  1.0 0.0707301317
C  C159  1  0.95805000  0.03143000  0.16137000  1.0 0.0707301317
C  C160  1  0.03143000  0.95805000  0.84915000  1.0 0.0707301317
N  N1  1  0.60184000  0.48656000  0.65244000  1.0 -0.22309233
N  N2  1  0.48656000  0.60184000  0.25916000  1.0 -0.22309233
N  N3  1  0.59756000  0.99084000  0.64816000  1.0 -0.22309233
N  N4  1  0.99084000  0.59756000  0.76344000  1.0 -0.22309233
N  N5  1  0.60080000  0.58574000  0.55966000  1.0 -0.2275464427
N  N6  1  0.58574000  0.60080000  0.25380000  1.0 -0.2275464427
N  N7  1  0.69034000  0.99620000  0.64920000  1.0 -0.2275464427
N  N8  1  0.99620000  0.69034000  0.66426000  1.0 -0.2275464427
N  N9  1  0.60039000  0.57291000  0.74369000  1.0 -0.2358284345
N  N10  1  0.57291000  0.60039000  0.08301000  1.0 -0.2358284345
N  N11  1  0.50631000  0.16699000  0.64961000  1.0 -0.2358284345
N  N12  1  0.16699000  0.50631000  0.67709000  1.0 -0.2358284345
N  N13  1  0.59635000  0.17363000  0.65637000  1.0 -0.22309233
N  N14  1  0.17363000  0.59635000  0.57365000  1.0 -0.22309233
N  N15  1  0.59363000  0.67635000  0.65365000  1.0 -0.22309233
N  N16  1  0.67635000  0.59363000  0.07637000  1.0 -0.22309233
N  N17  1  0.02474000  0.59716000  0.22404000  1.0 -0.2358284345
N  N18  1  0.59716000  0.02474000  0.15406000  1.0 -0.2358284345
N  N19  1  0.02596000  0.09594000  0.22526000  1.0 -0.2358284345
N  N20  1  0.09594000  0.02596000  0.65284000  1.0 -0.2358284345
N  N21  1  0.92596000  0.59648000  0.23092000  1.0 -0.2275464427
N  N22  1  0.59648000  0.92596000  0.24664000  1.0 -0.2275464427
N  N23  1  0.01908000  0.00336000  0.32404000  1.0 -0.2275464427
N  N24  1  0.00336000  0.01908000  0.65352000  1.0 -0.2275464427
N  N25  1  0.11409000  0.42339000  0.22621000  1.0 -0.2275464427
N  N26  1  0.42339000  0.11409000  0.23631000  1.0 -0.2275464427
N  N27  1  0.02379000  0.01369000  0.13591000  1.0 -0.2275464427
N  N28  1  0.01369000  0.02379000  0.82661000  1.0 -0.2275464427
N  N29  1  0.03292000  0.90718000  0.22262000  1.0 -0.2275464427
N  N30  1  0.90718000  0.03292000  0.83728000  1.0 -0.2275464427
N  N31  1  0.02738000  0.41272000  0.21708000  1.0 -0.2275464427
N  N32  1  0.41272000  0.02738000  0.34282000  1.0 -0.2275464427
N  N33  1  0.31037000  0.80563000  0.18617000  1.0 0.6474461803
N  N34  1  0.80563000  0.31037000  0.69783000  1.0 0.6474461803
N  N35  1  0.06383000  0.55217000  0.93963000  1.0 0.6474461803
N  N36  1  0.55217000  0.06383000  0.44437000  1.0 0.6474461803
N  N37  1  0.94756000  0.28796000  0.79744000  1.0 0.5942974189
N  N38  1  0.28796000  0.94756000  0.96704000  1.0 0.5942974189
N  N39  1  0.45256000  0.28296000  0.30244000  1.0 0.5942974189
N  N40  1  0.28296000  0.45256000  0.96204000  1.0 0.5942974189
N  N41  1  0.23078000  0.76372000  0.60328000  1.0 0.6712537507
N  N42  1  0.76372000  0.23078000  0.40222000  1.0 0.6712537507
N  N43  1  0.64672000  0.84778000  0.01922000  1.0 0.6712537507
N  N44  1  0.84778000  0.64672000  0.48628000  1.0 0.6712537507
O  O1  1  0.78383000  0.43707000  0.50053000  1.0 -0.426854392
O  O2  1  0.43707000  0.78383000  0.27857000  1.0 -0.4227547547
O  O3  1  0.74947000  0.97143000  0.46617000  1.0 -0.426854392
O  O4  1  0.97143000  0.74947000  0.81293000  1.0 -0.426854392
O  O5  1  0.40897000  0.73143000  0.80657000  1.0 -0.3306267312
O  O6  1  0.73143000  0.40897000  0.05303000  1.0 -0.3306267312
O  O7  1  0.44343000  0.19697000  0.84103000  1.0 -0.3306267312
O  O8  1  0.19697000  0.44343000  0.51857000  1.0 -0.3306267312
O  O9  1  0.17294000  0.39456000  0.03924000  1.0 -0.2892210236
O  O10  1  0.39456000  0.17294000  0.39326000  1.0 -0.2824719847
O  O11  1  0.21076000  0.85674000  0.07706000  1.0 -0.2824719847
O  O12  1  0.85674000  0.21076000  0.85544000  1.0 -0.2824719847
O  O13  1  0.32431000  0.75769000  0.21851000  1.0 -0.3919765672
O  O14  1  0.31868000  0.79032000  0.12648000  1.0 -0.3687651059
O  O15  1  0.28730000  0.87750000  0.21270000  1.0 -0.3919765672
O  O16  1  0.75769000  0.32431000  0.69949000  1.0 -0.3919765672
O  O17  1  0.79032000  0.31868000  0.76452000  1.0 -0.3687651059
O  O18  1  0.87750000  0.28730000  0.62250000  1.0 -0.3849805495
O  O19  1  0.03149000  0.55051000  0.92569000  1.0 -0.3919765672
O  O20  1  0.12352000  0.48548000  0.93132000  1.0 -0.3687651059
O  O21  1  0.03730000  0.62750000  0.96270000  1.0 -0.3849805495
O  O22  1  0.55051000  0.03149000  0.49231000  1.0 -0.3919765672
O  O23  1  0.48548000  0.12352000  0.45968000  1.0 -0.3687651059
O  O24  1  0.62750000  0.03730000  0.37250000  1.0 -0.3849805495
O  O25  1  0.94482000  0.27082000  0.85058000  1.0 -0.2972043228
O  O26  1  0.88955000  0.31235000  0.81485000  1.0 -0.2972043228
O  O27  1  0.00367000  0.28647000  0.73293000  1.0 -0.4082668946
O  O28  1  0.27082000  0.94482000  0.93378000  1.0 -0.2972043228
O  O29  1  0.31235000  0.88955000  0.98325000  1.0 -0.2972043228
O  O30  1  0.28647000  0.00367000  0.97693000  1.0 -0.4082668946
O  O31  1  0.39942000  0.31622000  0.30518000  1.0 -0.2972043228
O  O32  1  0.43515000  0.26675000  0.36045000  1.0 -0.2972043228
O  O33  1  0.51707000  0.27307000  0.24633000  1.0 -0.4082668946
O  O34  1  0.31622000  0.39942000  0.97918000  1.0 -0.2972043228
O  O35  1  0.26675000  0.43515000  0.93765000  1.0 -0.2892210236
O  O36  1  0.27307000  0.51707000  0.96353000  1.0 -0.4082668946
O  O37  1  0.15703000  0.83095000  0.62885000  1.0 -0.450755035
O  O38  1  0.30150000  0.73930000  0.56110000  1.0 -0.4082668946
O  O39  1  0.23630000  0.70690000  0.62890000  1.0 -0.4082668946
O  O40  1  0.83095000  0.15703000  0.38317000  1.0 -0.450755035
O  O41  1  0.73930000  0.30150000  0.39810000  1.0 -0.4082668946
O  O42  1  0.70690000  0.23630000  0.42790000  1.0 -0.4082668946
O  O43  1  0.62115000  0.86683000  0.09297000  1.0 -0.450755035
O  O44  1  0.68890000  0.85190000  0.94850000  1.0 -0.4082668946
O  O45  1  0.62110000  0.82210000  0.01370000  1.0 -0.4082668946
O  O46  1  0.86683000  0.62115000  0.41905000  1.0 -0.450755035
O  O47  1  0.85190000  0.68890000  0.51070000  1.0 -0.4082668946
O  O48  1  0.82210000  0.62110000  0.54310000  1.0 -0.4082668946
