# DDEC6 charges by PACMAN v1.1 (https://github.com/mtap-research/PACMAN-charge/)
data_NAJZII_ASR_pacman
_symmetry_space_group_name_H-M   'P 1'
_cell_length_a   22.59200000
_cell_length_b   22.59200000
_cell_length_c   22.59200000
_cell_angle_alpha   90.00000000
_cell_angle_beta   90.00000000
_cell_angle_gamma   90.00000000
_symmetry_Int_Tables_number   1
_chemical_formula_structural   NiH16(C5N)4
_chemical_formula_sum   'Ni6 H96 C120 N24'
_cell_volume   11530.92209869
_cell_formula_units_Z   6
loop_
 _symmetry_equiv_pos_site_id
 _symmetry_equiv_pos_as_xyz
  1  'x, y, z'
loop_
 _atom_site_type_symbol
 _atom_site_label
 _atom_site_symmetry_multiplicity
 _atom_site_fract_x
 _atom_site_fract_y
 _atom_site_fract_z
 _atom_site_occupancy
 _atom_site_charge
Ni  Ni1  1  0.50000000  0.00000000  0.00000000  1.0 0.1648588593
Ni  Ni2  1  0.00000000  0.50000000  0.00000000  1.0 0.1648588593
Ni  Ni3  1  0.00000000  0.00000000  0.50000000  1.0 0.1648588593
Ni  Ni4  1  0.00000000  0.50000000  0.50000000  1.0 0.1648588593
Ni  Ni5  1  0.50000000  0.00000000  0.50000000  1.0 0.1648588593
Ni  Ni6  1  0.50000000  0.50000000  0.00000000  1.0 0.1648588593
H  H1  1  0.53530000  0.10530000  0.07830000  1.0 0.0986554886
H  H2  1  0.07830000  0.53530000  0.10530000  1.0 0.0986554886
H  H3  1  0.10530000  0.07830000  0.53530000  1.0 0.0986554886
H  H4  1  0.46470000  0.89470000  0.07830000  1.0 0.0986554886
H  H5  1  0.46470000  0.10530000  0.92170000  1.0 0.0986554886
H  H6  1  0.53530000  0.89470000  0.92170000  1.0 0.0986554886
H  H7  1  0.07830000  0.46470000  0.89470000  1.0 0.0986554886
H  H8  1  0.92170000  0.46470000  0.10530000  1.0 0.0986554886
H  H9  1  0.92170000  0.53530000  0.89470000  1.0 0.0986554886
H  H10  1  0.89470000  0.07830000  0.46470000  1.0 0.0986554886
H  H11  1  0.10530000  0.92170000  0.46470000  1.0 0.0986554886
H  H12  1  0.89470000  0.92170000  0.53530000  1.0 0.0986554886
H  H13  1  0.96470000  0.39470000  0.42170000  1.0 0.0986554886
H  H14  1  0.42170000  0.96470000  0.39470000  1.0 0.0986554886
H  H15  1  0.39470000  0.42170000  0.96470000  1.0 0.0986554886
H  H16  1  0.03530000  0.60530000  0.42170000  1.0 0.0986554886
H  H17  1  0.03530000  0.39470000  0.57830000  1.0 0.0986554886
H  H18  1  0.96470000  0.60530000  0.57830000  1.0 0.0986554886
H  H19  1  0.42170000  0.03530000  0.60530000  1.0 0.0986554886
H  H20  1  0.57830000  0.03530000  0.39470000  1.0 0.0986554886
H  H21  1  0.57830000  0.96470000  0.60530000  1.0 0.0986554886
H  H22  1  0.60530000  0.42170000  0.03530000  1.0 0.0986554886
H  H23  1  0.39470000  0.57830000  0.03530000  1.0 0.0986554886
H  H24  1  0.60530000  0.57830000  0.96470000  1.0 0.0986554886
H  H25  1  0.53420000  0.20570000  0.08110000  1.0 0.1250248368
H  H26  1  0.08110000  0.53420000  0.20570000  1.0 0.1250248368
H  H27  1  0.20570000  0.08110000  0.53420000  1.0 0.1250248368
H  H28  1  0.46580000  0.79430000  0.08110000  1.0 0.1250248368
H  H29  1  0.46580000  0.20570000  0.91890000  1.0 0.1250248368
H  H30  1  0.53420000  0.79430000  0.91890000  1.0 0.1250248368
H  H31  1  0.08110000  0.46580000  0.79430000  1.0 0.1250248368
H  H32  1  0.91890000  0.46580000  0.20570000  1.0 0.1250248368
H  H33  1  0.91890000  0.53420000  0.79430000  1.0 0.1250248368
H  H34  1  0.79430000  0.08110000  0.46580000  1.0 0.1250248368
H  H35  1  0.20570000  0.91890000  0.46580000  1.0 0.1250248368
H  H36  1  0.79430000  0.91890000  0.53420000  1.0 0.1250248368
H  H37  1  0.96580000  0.29430000  0.41890000  1.0 0.1250248368
H  H38  1  0.41890000  0.96580000  0.29430000  1.0 0.1250248368
H  H39  1  0.29430000  0.41890000  0.96580000  1.0 0.1250248368
H  H40  1  0.03420000  0.70570000  0.41890000  1.0 0.1250248368
H  H41  1  0.03420000  0.29430000  0.58110000  1.0 0.1250248368
H  H42  1  0.96580000  0.70570000  0.58110000  1.0 0.1250248368
H  H43  1  0.41890000  0.03420000  0.70570000  1.0 0.1250248368
H  H44  1  0.58110000  0.03420000  0.29430000  1.0 0.1250248368
H  H45  1  0.58110000  0.96580000  0.70570000  1.0 0.1250248368
H  H46  1  0.70570000  0.41890000  0.03420000  1.0 0.1250248368
H  H47  1  0.29430000  0.58110000  0.03420000  1.0 0.1250248368
H  H48  1  0.70570000  0.58110000  0.96580000  1.0 0.1250248368
H  H49  1  0.46380000  0.29560000  0.08080000  1.0 0.1239699985
H  H50  1  0.08080000  0.46380000  0.29560000  1.0 0.1239699985
H  H51  1  0.29560000  0.08080000  0.46380000  1.0 0.1239699985
H  H52  1  0.53620000  0.70440000  0.08080000  1.0 0.1239699985
H  H53  1  0.53620000  0.29560000  0.91920000  1.0 0.1239699985
H  H54  1  0.46380000  0.70440000  0.91920000  1.0 0.1239699985
H  H55  1  0.08080000  0.53620000  0.70440000  1.0 0.1239699985
H  H56  1  0.91920000  0.53620000  0.29560000  1.0 0.1239699985
H  H57  1  0.91920000  0.46380000  0.70440000  1.0 0.1239699985
H  H58  1  0.70440000  0.08080000  0.53620000  1.0 0.1239699985
H  H59  1  0.29560000  0.91920000  0.53620000  1.0 0.1239699985
H  H60  1  0.70440000  0.91920000  0.46380000  1.0 0.1239699985
H  H61  1  0.03620000  0.20440000  0.41920000  1.0 0.1239699985
H  H62  1  0.41920000  0.03620000  0.20440000  1.0 0.1239699985
H  H63  1  0.20440000  0.41920000  0.03620000  1.0 0.1239699985
H  H64  1  0.96380000  0.79560000  0.41920000  1.0 0.1239699985
H  H65  1  0.96380000  0.20440000  0.58080000  1.0 0.1239699985
H  H66  1  0.03620000  0.79560000  0.58080000  1.0 0.1239699985
H  H67  1  0.41920000  0.96380000  0.79560000  1.0 0.1239699985
H  H68  1  0.58080000  0.96380000  0.20440000  1.0 0.1239699985
H  H69  1  0.58080000  0.03620000  0.79560000  1.0 0.1239699985
H  H70  1  0.79560000  0.41920000  0.96380000  1.0 0.1239699985
H  H71  1  0.20440000  0.58080000  0.96380000  1.0 0.1239699985
H  H72  1  0.79560000  0.58080000  0.03620000  1.0 0.1239699985
H  H73  1  0.57850000  0.03680000  0.89630000  1.0 0.0986554886
H  H74  1  0.89630000  0.57850000  0.03680000  1.0 0.0986554886
H  H75  1  0.03680000  0.89630000  0.57850000  1.0 0.0986554886
H  H76  1  0.42150000  0.96320000  0.89630000  1.0 0.0986554886
H  H77  1  0.42150000  0.03680000  0.10370000  1.0 0.0986554886
H  H78  1  0.57850000  0.96320000  0.10370000  1.0 0.0986554886
H  H79  1  0.89630000  0.42150000  0.96320000  1.0 0.0986554886
H  H80  1  0.10370000  0.42150000  0.03680000  1.0 0.0986554886
H  H81  1  0.10370000  0.57850000  0.96320000  1.0 0.0986554886
H  H82  1  0.96320000  0.89630000  0.42150000  1.0 0.0986554886
H  H83  1  0.03680000  0.10370000  0.42150000  1.0 0.0986554886
H  H84  1  0.96320000  0.10370000  0.57850000  1.0 0.0986554886
H  H85  1  0.92150000  0.46320000  0.60370000  1.0 0.0986554886
H  H86  1  0.60370000  0.92150000  0.46320000  1.0 0.0986554886
H  H87  1  0.46320000  0.60370000  0.92150000  1.0 0.0986554886
H  H88  1  0.07850000  0.53680000  0.60370000  1.0 0.0986554886
H  H89  1  0.07850000  0.46320000  0.39630000  1.0 0.0986554886
H  H90  1  0.92150000  0.53680000  0.39630000  1.0 0.0986554886
H  H91  1  0.60370000  0.07850000  0.53680000  1.0 0.0986554886
H  H92  1  0.39630000  0.07850000  0.46320000  1.0 0.0986554886
H  H93  1  0.39630000  0.92150000  0.53680000  1.0 0.0986554886
H  H94  1  0.53680000  0.60370000  0.07850000  1.0 0.0986554886
H  H95  1  0.46320000  0.39630000  0.07850000  1.0 0.0986554886
H  H96  1  0.53680000  0.39630000  0.92150000  1.0 0.0986554886
C  C1  1  0.52040000  0.12580000  0.04590000  1.0 0.0242426775
C  C2  1  0.04590000  0.52040000  0.12580000  1.0 0.0242426775
C  C3  1  0.12580000  0.04590000  0.52040000  1.0 0.0242426775
C  C4  1  0.47960000  0.87420000  0.04590000  1.0 0.0242426775
C  C5  1  0.47960000  0.12580000  0.95410000  1.0 0.0242426775
C  C6  1  0.52040000  0.87420000  0.95410000  1.0 0.0242426775
C  C7  1  0.04590000  0.47960000  0.87420000  1.0 0.0242426775
C  C8  1  0.95410000  0.47960000  0.12580000  1.0 0.0242426775
C  C9  1  0.95410000  0.52040000  0.87420000  1.0 0.0255649167
C  C10  1  0.87420000  0.04590000  0.47960000  1.0 0.0242426775
C  C11  1  0.12580000  0.95410000  0.47960000  1.0 0.0242426775
C  C12  1  0.87420000  0.95410000  0.52040000  1.0 0.0242426775
C  C13  1  0.97960000  0.37420000  0.45410000  1.0 0.0255649167
C  C14  1  0.45410000  0.97960000  0.37420000  1.0 0.0242426775
C  C15  1  0.37420000  0.45410000  0.97960000  1.0 0.0242426775
C  C16  1  0.02040000  0.62580000  0.45410000  1.0 0.0242426775
C  C17  1  0.02040000  0.37420000  0.54590000  1.0 0.0242426775
C  C18  1  0.97960000  0.62580000  0.54590000  1.0 0.0255649167
C  C19  1  0.45410000  0.02040000  0.62580000  1.0 0.0242426775
C  C20  1  0.54590000  0.02040000  0.37420000  1.0 0.0242426775
C  C21  1  0.54590000  0.97960000  0.62580000  1.0 0.0242426775
C  C22  1  0.62580000  0.45410000  0.02040000  1.0 0.0242426775
C  C23  1  0.37420000  0.54590000  0.02040000  1.0 0.0242426775
C  C24  1  0.62580000  0.54590000  0.97960000  1.0 0.0242426775
C  C25  1  0.52040000  0.18600000  0.04760000  1.0 -0.205594688
C  C26  1  0.04760000  0.52040000  0.18600000  1.0 -0.205594688
C  C27  1  0.18600000  0.04760000  0.52040000  1.0 -0.205594688
C  C28  1  0.47960000  0.81400000  0.04760000  1.0 -0.205594688
C  C29  1  0.47960000  0.18600000  0.95240000  1.0 -0.205594688
C  C30  1  0.52040000  0.81400000  0.95240000  1.0 -0.205594688
C  C31  1  0.04760000  0.47960000  0.81400000  1.0 -0.205594688
C  C32  1  0.95240000  0.47960000  0.18600000  1.0 -0.205594688
C  C33  1  0.95240000  0.52040000  0.81400000  1.0 -0.205594688
C  C34  1  0.81400000  0.04760000  0.47960000  1.0 -0.205594688
C  C35  1  0.18600000  0.95240000  0.47960000  1.0 -0.205594688
C  C36  1  0.81400000  0.95240000  0.52040000  1.0 -0.205594688
C  C37  1  0.97960000  0.31400000  0.45240000  1.0 -0.205594688
C  C38  1  0.45240000  0.97960000  0.31400000  1.0 -0.205594688
C  C39  1  0.31400000  0.45240000  0.97960000  1.0 -0.205594688
C  C40  1  0.02040000  0.68600000  0.45240000  1.0 -0.205594688
C  C41  1  0.02040000  0.31400000  0.54760000  1.0 -0.205594688
C  C42  1  0.97960000  0.68600000  0.54760000  1.0 -0.205594688
C  C43  1  0.45240000  0.02040000  0.68600000  1.0 -0.205594688
C  C44  1  0.54760000  0.02040000  0.31400000  1.0 -0.205594688
C  C45  1  0.54760000  0.97960000  0.68600000  1.0 -0.205594688
C  C46  1  0.68600000  0.45240000  0.02040000  1.0 -0.205594688
C  C47  1  0.31400000  0.54760000  0.02040000  1.0 -0.205594688
C  C48  1  0.68600000  0.54760000  0.97960000  1.0 -0.205594688
C  C49  1  0.50000000  0.21770000  0.00000000  1.0 0.0720470054
C  C50  1  0.00000000  0.50000000  0.21770000  1.0 0.0720470054
C  C51  1  0.21770000  0.00000000  0.50000000  1.0 0.0720470054
C  C52  1  0.50000000  0.78230000  0.00000000  1.0 0.0720470054
C  C53  1  0.00000000  0.50000000  0.78230000  1.0 0.0720470054
C  C54  1  0.78230000  0.00000000  0.50000000  1.0 0.0720470054
C  C55  1  0.00000000  0.28230000  0.50000000  1.0 0.0720470054
C  C56  1  0.50000000  0.00000000  0.28230000  1.0 0.0720470054
C  C57  1  0.28230000  0.50000000  0.00000000  1.0 0.0720470054
C  C58  1  0.00000000  0.71770000  0.50000000  1.0 0.0720470054
C  C59  1  0.50000000  0.00000000  0.71770000  1.0 0.0720470054
C  C60  1  0.71770000  0.50000000  0.00000000  1.0 0.0720470054
C  C61  1  0.50000000  0.28320000  0.00000000  1.0 0.0879968333
C  C62  1  0.00000000  0.50000000  0.28320000  1.0 0.0879968333
C  C63  1  0.28320000  0.00000000  0.50000000  1.0 0.0879968333
C  C64  1  0.50000000  0.71680000  0.00000000  1.0 0.0879968333
C  C65  1  0.00000000  0.50000000  0.71680000  1.0 0.0879968333
C  C66  1  0.71680000  0.00000000  0.50000000  1.0 0.0879968333
C  C67  1  0.00000000  0.21680000  0.50000000  1.0 0.0879968333
C  C68  1  0.50000000  0.00000000  0.21680000  1.0 0.0879968333
C  C69  1  0.21680000  0.50000000  0.00000000  1.0 0.0879968333
C  C70  1  0.00000000  0.78320000  0.50000000  1.0 0.0879968333
C  C71  1  0.50000000  0.00000000  0.78320000  1.0 0.0879968333
C  C72  1  0.78320000  0.50000000  0.00000000  1.0 0.0879968333
C  C73  1  0.47840000  0.31530000  0.04770000  1.0 -0.2005705526
C  C74  1  0.04770000  0.47840000  0.31530000  1.0 -0.2005705526
C  C75  1  0.31530000  0.04770000  0.47840000  1.0 -0.2005705526
C  C76  1  0.52160000  0.68470000  0.04770000  1.0 -0.2005705526
C  C77  1  0.52160000  0.31530000  0.95230000  1.0 -0.2005705526
C  C78  1  0.47840000  0.68470000  0.95230000  1.0 -0.2005705526
C  C79  1  0.04770000  0.52160000  0.68470000  1.0 -0.2005705526
C  C80  1  0.95230000  0.52160000  0.31530000  1.0 -0.2005705526
C  C81  1  0.95230000  0.47840000  0.68470000  1.0 -0.2005705526
C  C82  1  0.68470000  0.04770000  0.52160000  1.0 -0.2005705526
C  C83  1  0.31530000  0.95230000  0.52160000  1.0 -0.2005705526
C  C84  1  0.68470000  0.95230000  0.47840000  1.0 -0.2005705526
C  C85  1  0.02160000  0.18470000  0.45230000  1.0 -0.2005705526
C  C86  1  0.45230000  0.02160000  0.18470000  1.0 -0.2005705526
C  C87  1  0.18470000  0.45230000  0.02160000  1.0 -0.2005705526
C  C88  1  0.97840000  0.81530000  0.45230000  1.0 -0.2005705526
C  C89  1  0.97840000  0.18470000  0.54770000  1.0 -0.2005705526
C  C90  1  0.02160000  0.81530000  0.54770000  1.0 -0.2005705526
C  C91  1  0.45230000  0.97840000  0.81530000  1.0 -0.2005705526
C  C92  1  0.54770000  0.97840000  0.18470000  1.0 -0.2005705526
C  C93  1  0.54770000  0.02160000  0.81530000  1.0 -0.2005705526
C  C94  1  0.81530000  0.45230000  0.97840000  1.0 -0.2005705526
C  C95  1  0.18470000  0.54770000  0.97840000  1.0 -0.2005705526
C  C96  1  0.81530000  0.54770000  0.02160000  1.0 -0.2005705526
C  C97  1  0.54630000  0.02150000  0.87570000  1.0 0.0085287539
C  C98  1  0.87570000  0.54630000  0.02150000  1.0 0.0085287539
C  C99  1  0.02150000  0.87570000  0.54630000  1.0 0.0085287539
C  C100  1  0.45370000  0.97850000  0.87570000  1.0 0.0085287539
C  C101  1  0.45370000  0.02150000  0.12430000  1.0 0.0085287539
C  C102  1  0.54630000  0.97850000  0.12430000  1.0 0.0085287539
C  C103  1  0.87570000  0.45370000  0.97850000  1.0 0.0085287539
C  C104  1  0.12430000  0.45370000  0.02150000  1.0 0.0085287539
C  C105  1  0.12430000  0.54630000  0.97850000  1.0 0.0085287539
C  C106  1  0.97850000  0.87570000  0.45370000  1.0 0.0085287539
C  C107  1  0.02150000  0.12430000  0.45370000  1.0 0.0085287539
C  C108  1  0.97850000  0.12430000  0.54630000  1.0 0.0085287539
C  C109  1  0.95370000  0.47850000  0.62430000  1.0 0.0085287539
C  C110  1  0.62430000  0.95370000  0.47850000  1.0 0.0085287539
C  C111  1  0.47850000  0.62430000  0.95370000  1.0 0.0085287539
C  C112  1  0.04630000  0.52150000  0.62430000  1.0 0.0085287539
C  C113  1  0.04630000  0.47850000  0.37570000  1.0 0.0085287539
C  C114  1  0.95370000  0.52150000  0.37570000  1.0 0.0085287539
C  C115  1  0.62430000  0.04630000  0.52150000  1.0 0.0085287539
C  C116  1  0.37570000  0.04630000  0.47850000  1.0 0.0085287539
C  C117  1  0.37570000  0.95370000  0.52150000  1.0 0.0085287539
C  C118  1  0.52150000  0.62430000  0.04630000  1.0 0.0085287539
C  C119  1  0.47850000  0.37570000  0.04630000  1.0 0.0085287539
C  C120  1  0.52150000  0.37570000  0.95370000  1.0 0.0085287539
N  N1  1  0.50000000  0.09460000  0.00000000  1.0 -0.1872199262
N  N2  1  0.00000000  0.50000000  0.09460000  1.0 -0.1872199262
N  N3  1  0.09460000  0.00000000  0.50000000  1.0 -0.1872199262
N  N4  1  0.50000000  0.90540000  0.00000000  1.0 -0.1872199262
N  N5  1  0.00000000  0.50000000  0.90540000  1.0 -0.1872199262
N  N6  1  0.90540000  0.00000000  0.50000000  1.0 -0.1872199262
N  N7  1  0.00000000  0.40540000  0.50000000  1.0 -0.1872199262
N  N8  1  0.50000000  0.00000000  0.40540000  1.0 -0.1872199262
N  N9  1  0.40540000  0.50000000  0.00000000  1.0 -0.1872199262
N  N10  1  0.00000000  0.59460000  0.50000000  1.0 -0.1872199262
N  N11  1  0.50000000  0.00000000  0.59460000  1.0 -0.1872199262
N  N12  1  0.59460000  0.50000000  0.00000000  1.0 -0.1872199262
N  N13  1  0.50000000  0.00000000  0.90650000  1.0 -0.2005705526
N  N14  1  0.90650000  0.50000000  0.00000000  1.0 -0.205594688
N  N15  1  0.00000000  0.90650000  0.50000000  1.0 -0.2005705526
N  N16  1  0.50000000  0.00000000  0.09350000  1.0 -0.2005705526
N  N17  1  0.09350000  0.50000000  0.00000000  1.0 -0.2005705526
N  N18  1  0.00000000  0.09350000  0.50000000  1.0 -0.2005705526
N  N19  1  0.00000000  0.50000000  0.59350000  1.0 -0.2005705526
N  N20  1  0.59350000  0.00000000  0.50000000  1.0 -0.2005705526
N  N21  1  0.50000000  0.59350000  0.00000000  1.0 -0.2005705526
N  N22  1  0.00000000  0.50000000  0.40650000  1.0 -0.205594688
N  N23  1  0.40650000  0.00000000  0.50000000  1.0 -0.2005705526
N  N24  1  0.50000000  0.40650000  0.00000000  1.0 -0.2005705526
