# DDEC6 charges by PACMAN v1.1 (https://github.com/mtap-research/PACMAN-charge/)
data_NAMDUD_ASR_pacman
_symmetry_space_group_name_H-M   'P 1'
_cell_length_a   22.58240000
_cell_length_b   22.58240000
_cell_length_c   22.58240000
_cell_angle_alpha   109.47100000
_cell_angle_beta   109.47100000
_cell_angle_gamma   109.47100000
_symmetry_Int_Tables_number   1
_chemical_formula_structural   Mn4H32C72ClO16
_chemical_formula_sum   'Mn12 H96 C216 Cl3 O48'
_cell_volume   8865.26953328
_cell_formula_units_Z   3
loop_
 _symmetry_equiv_pos_site_id
 _symmetry_equiv_pos_as_xyz
  1  'x, y, z'
loop_
 _atom_site_type_symbol
 _atom_site_label
 _atom_site_symmetry_multiplicity
 _atom_site_fract_x
 _atom_site_fract_y
 _atom_site_fract_z
 _atom_site_occupancy
 _atom_site_charge
Mn  Mn1  1  0.50000000  0.10644000  0.60644000  1.0 1.0411906675
Mn  Mn2  1  0.50000000  0.89356000  0.39356000  1.0 1.0411906675
Mn  Mn3  1  0.60644000  0.50000000  0.10644000  1.0 1.0411906675
Mn  Mn4  1  0.39356000  0.50000000  0.89356000  1.0 1.0411906675
Mn  Mn5  1  0.10644000  0.60644000  0.50000000  1.0 1.0411906675
Mn  Mn6  1  0.89356000  0.39356000  0.50000000  1.0 1.0411906675
Mn  Mn7  1  0.10644000  0.50000000  0.60644000  1.0 1.0411906675
Mn  Mn8  1  0.89356000  0.50000000  0.39356000  1.0 1.0411906675
Mn  Mn9  1  0.50000000  0.60644000  0.10644000  1.0 1.0411906675
Mn  Mn10  1  0.50000000  0.39356000  0.89356000  1.0 1.0411906675
Mn  Mn11  1  0.39356000  0.89356000  0.50000000  1.0 1.0411906675
Mn  Mn12  1  0.60644000  0.10644000  0.50000000  1.0 1.0411906675
H  H1  1  0.80517000  0.25241000  0.69750000  1.0 0.1275611063
H  H2  1  0.55491000  0.10767000  0.30250000  1.0 0.1275611063
H  H3  1  0.44509000  0.74759000  0.55276000  1.0 0.1275611063
H  H4  1  0.19483000  0.89233000  0.44724000  1.0 0.1275611063
H  H5  1  0.69750000  0.80517000  0.25241000  1.0 0.1275611063
H  H6  1  0.30250000  0.55491000  0.10767000  1.0 0.1275611063
H  H7  1  0.55276000  0.44509000  0.74759000  1.0 0.1275611063
H  H8  1  0.44724000  0.19483000  0.89233000  1.0 0.1275611063
H  H9  1  0.25241000  0.69750000  0.80517000  1.0 0.1275611063
H  H10  1  0.10767000  0.30250000  0.55491000  1.0 0.1275611063
H  H11  1  0.74759000  0.55276000  0.44509000  1.0 0.1275611063
H  H12  1  0.89233000  0.44724000  0.19483000  1.0 0.1275611063
H  H13  1  0.89233000  0.44509000  0.69750000  1.0 0.1275611063
H  H14  1  0.74759000  0.19483000  0.30250000  1.0 0.1275611063
H  H15  1  0.10767000  0.80517000  0.55276000  1.0 0.1275611063
H  H16  1  0.25241000  0.55491000  0.44724000  1.0 0.1275611063
H  H17  1  0.55491000  0.44724000  0.25241000  1.0 0.1275611063
H  H18  1  0.80517000  0.55276000  0.10767000  1.0 0.1275611063
H  H19  1  0.19483000  0.30250000  0.74759000  1.0 0.1275611063
H  H20  1  0.44509000  0.69750000  0.89233000  1.0 0.1275611063
H  H21  1  0.55276000  0.10767000  0.80517000  1.0 0.1275611063
H  H22  1  0.44724000  0.25241000  0.55491000  1.0 0.1275611063
H  H23  1  0.69750000  0.89233000  0.44509000  1.0 0.1275611063
H  H24  1  0.30250000  0.74759000  0.19483000  1.0 0.1275611063
H  H25  1  0.19483000  0.74759000  0.30250000  1.0 0.1275611063
H  H26  1  0.44509000  0.89233000  0.69750000  1.0 0.1275611063
H  H27  1  0.55491000  0.25241000  0.44724000  1.0 0.1275611063
H  H28  1  0.80517000  0.10767000  0.55276000  1.0 0.1275611063
H  H29  1  0.30250000  0.19483000  0.74759000  1.0 0.1275611063
H  H30  1  0.69750000  0.44509000  0.89233000  1.0 0.1275611063
H  H31  1  0.44724000  0.55491000  0.25241000  1.0 0.1275611063
H  H32  1  0.55276000  0.80517000  0.10767000  1.0 0.1275611063
H  H33  1  0.74759000  0.30250000  0.19483000  1.0 0.1275611063
H  H34  1  0.89233000  0.69750000  0.44509000  1.0 0.1275611063
H  H35  1  0.25241000  0.44724000  0.55491000  1.0 0.1275611063
H  H36  1  0.10767000  0.55276000  0.80517000  1.0 0.1275611063
H  H37  1  0.10767000  0.55491000  0.30250000  1.0 0.1275611063
H  H38  1  0.25241000  0.80517000  0.69750000  1.0 0.1275611063
H  H39  1  0.89233000  0.19483000  0.44724000  1.0 0.1275611063
H  H40  1  0.74759000  0.44509000  0.55276000  1.0 0.1275611063
H  H41  1  0.44509000  0.55276000  0.74759000  1.0 0.1275611063
H  H42  1  0.19483000  0.44724000  0.89233000  1.0 0.1275611063
H  H43  1  0.80517000  0.69750000  0.25241000  1.0 0.1275611063
H  H44  1  0.55491000  0.30250000  0.10767000  1.0 0.1275611063
H  H45  1  0.44724000  0.89233000  0.19483000  1.0 0.1275611063
H  H46  1  0.55276000  0.74759000  0.44509000  1.0 0.1275611063
H  H47  1  0.30250000  0.10767000  0.55491000  1.0 0.1275611063
H  H48  1  0.69750000  0.25241000  0.80517000  1.0 0.1275611063
H  H49  1  0.91151000  0.33019000  0.80380000  1.0 0.1275611063
H  H50  1  0.52639000  0.10771000  0.19620000  1.0 0.1275611063
H  H51  1  0.47361000  0.66981000  0.58132000  1.0 0.1275611063
H  H52  1  0.08849000  0.89229000  0.41868000  1.0 0.1275611063
H  H53  1  0.80380000  0.91151000  0.33019000  1.0 0.1275611063
H  H54  1  0.19620000  0.52639000  0.10771000  1.0 0.1275611063
H  H55  1  0.58132000  0.47361000  0.66981000  1.0 0.1275611063
H  H56  1  0.41868000  0.08849000  0.89229000  1.0 0.1275611063
H  H57  1  0.33019000  0.80380000  0.91151000  1.0 0.1275611063
H  H58  1  0.10771000  0.19620000  0.52639000  1.0 0.1275611063
H  H59  1  0.66981000  0.58132000  0.47361000  1.0 0.1275611063
H  H60  1  0.89229000  0.41868000  0.08849000  1.0 0.1275611063
H  H61  1  0.89229000  0.47361000  0.80380000  1.0 0.1275611063
H  H62  1  0.66981000  0.08849000  0.19620000  1.0 0.1275611063
H  H63  1  0.10771000  0.91151000  0.58132000  1.0 0.1275611063
H  H64  1  0.33019000  0.52639000  0.41868000  1.0 0.1275611063
H  H65  1  0.52639000  0.41868000  0.33019000  1.0 0.1275611063
H  H66  1  0.91151000  0.58132000  0.10771000  1.0 0.1275611063
H  H67  1  0.08849000  0.19620000  0.66981000  1.0 0.1275611063
H  H68  1  0.47361000  0.80380000  0.89229000  1.0 0.1275611063
H  H69  1  0.58132000  0.10771000  0.91151000  1.0 0.1275611063
H  H70  1  0.41868000  0.33019000  0.52639000  1.0 0.1275611063
H  H71  1  0.80380000  0.89229000  0.47361000  1.0 0.1275611063
H  H72  1  0.19620000  0.66981000  0.08849000  1.0 0.1275611063
H  H73  1  0.08849000  0.66981000  0.19620000  1.0 0.1275611063
H  H74  1  0.47361000  0.89229000  0.80380000  1.0 0.1275611063
H  H75  1  0.52639000  0.33019000  0.41868000  1.0 0.1275611063
H  H76  1  0.91151000  0.10771000  0.58132000  1.0 0.1275611063
H  H77  1  0.19620000  0.08849000  0.66981000  1.0 0.1275611063
H  H78  1  0.80380000  0.47361000  0.89229000  1.0 0.1275611063
H  H79  1  0.41868000  0.52639000  0.33019000  1.0 0.1275611063
H  H80  1  0.58132000  0.91151000  0.10771000  1.0 0.1275611063
H  H81  1  0.66981000  0.19620000  0.08849000  1.0 0.1275611063
H  H82  1  0.89229000  0.80380000  0.47361000  1.0 0.1275611063
H  H83  1  0.33019000  0.41868000  0.52639000  1.0 0.1275611063
H  H84  1  0.10771000  0.58132000  0.91151000  1.0 0.1275611063
H  H85  1  0.10771000  0.52639000  0.19620000  1.0 0.1275611063
H  H86  1  0.33019000  0.91151000  0.80380000  1.0 0.1275611063
H  H87  1  0.89229000  0.08849000  0.41868000  1.0 0.1275611063
H  H88  1  0.66981000  0.47361000  0.58132000  1.0 0.1275611063
H  H89  1  0.47361000  0.58132000  0.66981000  1.0 0.1275611063
H  H90  1  0.08849000  0.41868000  0.89229000  1.0 0.1275611063
H  H91  1  0.91151000  0.80380000  0.33019000  1.0 0.1275611063
H  H92  1  0.52639000  0.19620000  0.10771000  1.0 0.1275611063
H  H93  1  0.41868000  0.89229000  0.08849000  1.0 0.1275611063
H  H94  1  0.58132000  0.66981000  0.47361000  1.0 0.1275611063
H  H95  1  0.19620000  0.10771000  0.52639000  1.0 0.1275611063
H  H96  1  0.80380000  0.33019000  0.91151000  1.0 0.1275611063
C  C1  1  0.73885000  0.24230000  0.73885000  1.0 -0.0311408875
C  C2  1  0.50345000  0.00000000  0.26115000  1.0 -0.0311408875
C  C3  1  0.49655000  0.75770000  0.49655000  1.0 -0.0311408875
C  C4  1  0.26115000  0.00000000  0.50345000  1.0 -0.0311408875
C  C5  1  0.73885000  0.73885000  0.24230000  1.0 -0.0311408875
C  C6  1  0.26115000  0.50345000  0.00000000  1.0 -0.0311408875
C  C7  1  0.49655000  0.49655000  0.75770000  1.0 -0.0311408875
C  C8  1  0.50345000  0.26115000  0.00000000  1.0 -0.0311408875
C  C9  1  0.24230000  0.73885000  0.73885000  1.0 -0.0311408875
C  C10  1  0.00000000  0.26115000  0.50345000  1.0 -0.0311408875
C  C11  1  0.75770000  0.49655000  0.49655000  1.0 -0.0311408875
C  C12  1  0.00000000  0.50345000  0.26115000  1.0 -0.0311408875
C  C13  1  0.00000000  0.49655000  0.73885000  1.0 -0.0311408875
C  C14  1  0.75770000  0.26115000  0.26115000  1.0 -0.0311408875
C  C15  1  0.00000000  0.73885000  0.49655000  1.0 -0.0311408875
C  C16  1  0.24230000  0.50345000  0.50345000  1.0 -0.0311408875
C  C17  1  0.50345000  0.50345000  0.24230000  1.0 -0.0311408875
C  C18  1  0.73885000  0.49655000  0.00000000  1.0 -0.0311408875
C  C19  1  0.26115000  0.26115000  0.75770000  1.0 -0.0311408875
C  C20  1  0.49655000  0.73885000  0.00000000  1.0 -0.0311408875
C  C21  1  0.49655000  0.00000000  0.73885000  1.0 -0.0311408875
C  C22  1  0.50345000  0.24230000  0.50345000  1.0 -0.0311408875
C  C23  1  0.73885000  0.00000000  0.49655000  1.0 -0.0311408875
C  C24  1  0.26115000  0.75770000  0.26115000  1.0 -0.0311408875
C  C25  1  0.66918000  0.19028000  0.66918000  1.0 0.5893580105
C  C26  1  0.52110000  0.00000000  0.33082000  1.0 0.5893580105
C  C27  1  0.47890000  0.80972000  0.47890000  1.0 0.5893580105
C  C28  1  0.33082000  0.00000000  0.52110000  1.0 0.5893580105
C  C29  1  0.66918000  0.66918000  0.19028000  1.0 0.5893580105
C  C30  1  0.33082000  0.52110000  0.00000000  1.0 0.5893580105
C  C31  1  0.47890000  0.47890000  0.80972000  1.0 0.5893580105
C  C32  1  0.52110000  0.33082000  0.00000000  1.0 0.5893580105
C  C33  1  0.19028000  0.66918000  0.66918000  1.0 0.5893580105
C  C34  1  0.00000000  0.33082000  0.52110000  1.0 0.5893580105
C  C35  1  0.80972000  0.47890000  0.47890000  1.0 0.5893580105
C  C36  1  0.00000000  0.52110000  0.33082000  1.0 0.5893580105
C  C37  1  0.00000000  0.47890000  0.66918000  1.0 0.5893580105
C  C38  1  0.80972000  0.33082000  0.33082000  1.0 0.5893580105
C  C39  1  0.00000000  0.66918000  0.47890000  1.0 0.5893580105
C  C40  1  0.19028000  0.52110000  0.52110000  1.0 0.5893580105
C  C41  1  0.52110000  0.52110000  0.19028000  1.0 0.5893580105
C  C42  1  0.66918000  0.47890000  0.00000000  1.0 0.5893580105
C  C43  1  0.33082000  0.33082000  0.80972000  1.0 0.5893580105
C  C44  1  0.47890000  0.66918000  0.00000000  1.0 0.5893580105
C  C45  1  0.47890000  0.00000000  0.66918000  1.0 0.5893580105
C  C46  1  0.52110000  0.19028000  0.52110000  1.0 0.5893580105
C  C47  1  0.66918000  0.00000000  0.47890000  1.0 0.5893580105
C  C48  1  0.33082000  0.80972000  0.33082000  1.0 0.5893580105
C  C49  1  0.93583000  0.40497000  0.00000000  1.0 -0.1116449642
C  C50  1  0.40497000  0.93583000  0.00000000  1.0 -0.1116449642
C  C51  1  0.59503000  0.59503000  0.53086000  1.0 -0.1116449642
C  C52  1  0.06417000  0.06417000  0.46914000  1.0 -0.1116449642
C  C53  1  0.00000000  0.93583000  0.40497000  1.0 -0.1116449642
C  C54  1  0.00000000  0.40497000  0.93583000  1.0 -0.1116449642
C  C55  1  0.53086000  0.59503000  0.59503000  1.0 -0.1116449642
C  C56  1  0.46914000  0.06417000  0.06417000  1.0 -0.1116449642
C  C57  1  0.40497000  0.00000000  0.93583000  1.0 -0.1116449642
C  C58  1  0.93583000  0.00000000  0.40497000  1.0 -0.1116449642
C  C59  1  0.59503000  0.53086000  0.59503000  1.0 -0.1116449642
C  C60  1  0.06417000  0.46914000  0.06417000  1.0 -0.1116449642
C  C61  1  0.06417000  0.59503000  0.00000000  1.0 -0.1116449642
C  C62  1  0.59503000  0.06417000  0.00000000  1.0 -0.1116449642
C  C63  1  0.93583000  0.93583000  0.53086000  1.0 -0.1116449642
C  C64  1  0.40497000  0.40497000  0.46914000  1.0 -0.1116449642
C  C65  1  0.40497000  0.46914000  0.40497000  1.0 -0.1116449642
C  C66  1  0.93583000  0.53086000  0.93583000  1.0 -0.1116449642
C  C67  1  0.06417000  0.00000000  0.59503000  1.0 -0.1116449642
C  C68  1  0.59503000  0.00000000  0.06417000  1.0 -0.1116449642
C  C69  1  0.53086000  0.93583000  0.93583000  1.0 -0.1116449642
C  C70  1  0.46914000  0.40497000  0.40497000  1.0 -0.1116449642
C  C71  1  0.00000000  0.06417000  0.59503000  1.0 -0.1116449642
C  C72  1  0.00000000  0.59503000  0.06417000  1.0 -0.1116449642
C  C73  1  0.86960000  0.33760000  0.86960000  1.0 0.0916293677
C  C74  1  0.46800000  0.00000000  0.13040000  1.0 0.0916293677
C  C75  1  0.53200000  0.66240000  0.53200000  1.0 0.0916293677
C  C76  1  0.13040000  0.00000000  0.46800000  1.0 0.0916293677
C  C77  1  0.86960000  0.86960000  0.33760000  1.0 0.0916293677
C  C78  1  0.13040000  0.46800000  0.00000000  1.0 0.0916293677
C  C79  1  0.53200000  0.53200000  0.66240000  1.0 0.0916293677
C  C80  1  0.46800000  0.13040000  0.00000000  1.0 0.0916293677
C  C81  1  0.33760000  0.86960000  0.86960000  1.0 0.0916293677
C  C82  1  0.00000000  0.13040000  0.46800000  1.0 0.0916293677
C  C83  1  0.66240000  0.53200000  0.53200000  1.0 0.0916293677
C  C84  1  0.00000000  0.46800000  0.13040000  1.0 0.0916293677
C  C85  1  0.00000000  0.53200000  0.86960000  1.0 0.0916293677
C  C86  1  0.66240000  0.13040000  0.13040000  1.0 0.0916293677
C  C87  1  0.00000000  0.86960000  0.53200000  1.0 0.0916293677
C  C88  1  0.33760000  0.46800000  0.46800000  1.0 0.0916293677
C  C89  1  0.46800000  0.46800000  0.33760000  1.0 0.0916293677
C  C90  1  0.86960000  0.53200000  0.00000000  1.0 0.0916293677
C  C91  1  0.13040000  0.13040000  0.66240000  1.0 0.0916293677
C  C92  1  0.53200000  0.86960000  0.00000000  1.0 0.0916293677
C  C93  1  0.53200000  0.00000000  0.86960000  1.0 0.0916293677
C  C94  1  0.46800000  0.33760000  0.46800000  1.0 0.0916293677
C  C95  1  0.86960000  0.00000000  0.53200000  1.0 0.0916293677
C  C96  1  0.13040000  0.66240000  0.13040000  1.0 0.0916293677
C  C97  1  0.80450000  0.26760000  0.74090000  1.0 -0.0920070977
C  C98  1  0.52670000  0.06360000  0.25910000  1.0 -0.0920070977
C  C99  1  0.47330000  0.73240000  0.53690000  1.0 -0.0920070977
C  C100  1  0.19550000  0.93640000  0.46310000  1.0 -0.0920070977
C  C101  1  0.74090000  0.80450000  0.26760000  1.0 -0.0920070977
C  C102  1  0.25910000  0.52670000  0.06360000  1.0 -0.0920070977
C  C103  1  0.53690000  0.47330000  0.73240000  1.0 -0.0920070977
C  C104  1  0.46310000  0.19550000  0.93640000  1.0 -0.0920070977
C  C105  1  0.26760000  0.74090000  0.80450000  1.0 -0.0920070977
C  C106  1  0.06360000  0.25910000  0.52670000  1.0 -0.0920070977
C  C107  1  0.73240000  0.53690000  0.47330000  1.0 -0.0920070977
C  C108  1  0.93640000  0.46310000  0.19550000  1.0 -0.0920070977
C  C109  1  0.93640000  0.47330000  0.74090000  1.0 -0.0920070977
C  C110  1  0.73240000  0.19550000  0.25910000  1.0 -0.0920070977
C  C111  1  0.06360000  0.80450000  0.53690000  1.0 -0.0920070977
C  C112  1  0.26760000  0.52670000  0.46310000  1.0 -0.0920070977
C  C113  1  0.52670000  0.46310000  0.26760000  1.0 -0.0920070977
C  C114  1  0.80450000  0.53690000  0.06360000  1.0 -0.0920070977
C  C115  1  0.19550000  0.25910000  0.73240000  1.0 -0.0920070977
C  C116  1  0.47330000  0.74090000  0.93640000  1.0 -0.0920070977
C  C117  1  0.53690000  0.06360000  0.80450000  1.0 -0.0920070977
C  C118  1  0.46310000  0.26760000  0.52670000  1.0 -0.0920070977
C  C119  1  0.74090000  0.93640000  0.47330000  1.0 -0.0920070977
C  C120  1  0.25910000  0.73240000  0.19550000  1.0 -0.0920070977
C  C121  1  0.19550000  0.73240000  0.25910000  1.0 -0.0920070977
C  C122  1  0.47330000  0.93640000  0.74090000  1.0 -0.0920070977
C  C123  1  0.52670000  0.26760000  0.46310000  1.0 -0.0920070977
C  C124  1  0.80450000  0.06360000  0.53690000  1.0 -0.0920070977
C  C125  1  0.25910000  0.19550000  0.73240000  1.0 -0.0920070977
C  C126  1  0.74090000  0.47330000  0.93640000  1.0 -0.0920070977
C  C127  1  0.46310000  0.52670000  0.26760000  1.0 -0.0920070977
C  C128  1  0.53690000  0.80450000  0.06360000  1.0 -0.0920070977
C  C129  1  0.73240000  0.25910000  0.19550000  1.0 -0.0920070977
C  C130  1  0.93640000  0.74090000  0.47330000  1.0 -0.0920070977
C  C131  1  0.26760000  0.46310000  0.52670000  1.0 -0.0920070977
C  C132  1  0.06360000  0.53690000  0.80450000  1.0 -0.0920070977
C  C133  1  0.06360000  0.52670000  0.25910000  1.0 -0.0920070977
C  C134  1  0.26760000  0.80450000  0.74090000  1.0 -0.0920070977
C  C135  1  0.93640000  0.19550000  0.46310000  1.0 -0.0920070977
C  C136  1  0.73240000  0.47330000  0.53690000  1.0 -0.0920070977
C  C137  1  0.47330000  0.53690000  0.73240000  1.0 -0.0920070977
C  C138  1  0.19550000  0.46310000  0.93640000  1.0 -0.0920070977
C  C139  1  0.80450000  0.74090000  0.26760000  1.0 -0.0920070977
C  C140  1  0.52670000  0.25910000  0.06360000  1.0 -0.0920070977
C  C141  1  0.46310000  0.93640000  0.19550000  1.0 -0.0920070977
C  C142  1  0.53690000  0.73240000  0.47330000  1.0 -0.0920070977
C  C143  1  0.25910000  0.06360000  0.52670000  1.0 -0.0920070977
C  C144  1  0.74090000  0.26760000  0.80450000  1.0 -0.0920070977
C  C145  1  0.93860000  0.38580000  0.93860000  1.0 0.0289925706
C  C146  1  0.44720000  0.00000000  0.06140000  1.0 0.0289925706
C  C147  1  0.55280000  0.61420000  0.55280000  1.0 0.0289925706
C  C148  1  0.06140000  0.00000000  0.44720000  1.0 0.0289925706
C  C149  1  0.93860000  0.93860000  0.38580000  1.0 0.0289925706
C  C150  1  0.06140000  0.44720000  0.00000000  1.0 0.0289925706
C  C151  1  0.55280000  0.55280000  0.61420000  1.0 0.0289925706
C  C152  1  0.44720000  0.06140000  0.00000000  1.0 0.0289925706
C  C153  1  0.38580000  0.93860000  0.93860000  1.0 0.0289925706
C  C154  1  0.00000000  0.06140000  0.44720000  1.0 0.0289925706
C  C155  1  0.61420000  0.55280000  0.55280000  1.0 0.0289925706
C  C156  1  0.00000000  0.44720000  0.06140000  1.0 0.0289925706
C  C157  1  0.00000000  0.55280000  0.93860000  1.0 0.0289925706
C  C158  1  0.61420000  0.06140000  0.06140000  1.0 0.0289925706
C  C159  1  0.00000000  0.93860000  0.55280000  1.0 0.0289925706
C  C160  1  0.38580000  0.44720000  0.44720000  1.0 0.0289925706
C  C161  1  0.44720000  0.44720000  0.38580000  1.0 0.0289925706
C  C162  1  0.93860000  0.55280000  0.00000000  1.0 0.0289925706
C  C163  1  0.06140000  0.06140000  0.61420000  1.0 0.0289925706
C  C164  1  0.55280000  0.93860000  0.00000000  1.0 0.0289925706
C  C165  1  0.55280000  0.00000000  0.93860000  1.0 0.0289925706
C  C166  1  0.44720000  0.38580000  0.44720000  1.0 0.0289925706
C  C167  1  0.93860000  0.00000000  0.55280000  1.0 0.0289925706
C  C168  1  0.06140000  0.61420000  0.06140000  1.0 0.0289925706
C  C169  1  0.86820000  0.31410000  0.80450000  1.0 -0.1373870536
C  C170  1  0.50960000  0.06370000  0.19550000  1.0 -0.1373870536
C  C171  1  0.49040000  0.68590000  0.55410000  1.0 -0.1373870536
C  C172  1  0.13180000  0.93630000  0.44590000  1.0 -0.1373870536
C  C173  1  0.80450000  0.86820000  0.31410000  1.0 -0.1373870536
C  C174  1  0.19550000  0.50960000  0.06370000  1.0 -0.1373870536
C  C175  1  0.55410000  0.49040000  0.68590000  1.0 -0.1373870536
C  C176  1  0.44590000  0.13180000  0.93630000  1.0 -0.1373870536
C  C177  1  0.31410000  0.80450000  0.86820000  1.0 -0.1373870536
C  C178  1  0.06370000  0.19550000  0.50960000  1.0 -0.1373870536
C  C179  1  0.68590000  0.55410000  0.49040000  1.0 -0.1373870536
C  C180  1  0.93630000  0.44590000  0.13180000  1.0 -0.1373870536
C  C181  1  0.93630000  0.49040000  0.80450000  1.0 -0.1373870536
C  C182  1  0.68590000  0.13180000  0.19550000  1.0 -0.1373870536
C  C183  1  0.06370000  0.86820000  0.55410000  1.0 -0.1373870536
C  C184  1  0.31410000  0.50960000  0.44590000  1.0 -0.1373870536
C  C185  1  0.50960000  0.44590000  0.31410000  1.0 -0.1373870536
C  C186  1  0.86820000  0.55410000  0.06370000  1.0 -0.1373870536
C  C187  1  0.13180000  0.19550000  0.68590000  1.0 -0.1373870536
C  C188  1  0.49040000  0.80450000  0.93630000  1.0 -0.1373870536
C  C189  1  0.55410000  0.06370000  0.86820000  1.0 -0.1373870536
C  C190  1  0.44590000  0.31410000  0.50960000  1.0 -0.1373870536
C  C191  1  0.80450000  0.93630000  0.49040000  1.0 -0.1373870536
C  C192  1  0.19550000  0.68590000  0.13180000  1.0 -0.1373870536
C  C193  1  0.13180000  0.68590000  0.19550000  1.0 -0.1373870536
C  C194  1  0.49040000  0.93630000  0.80450000  1.0 -0.1373870536
C  C195  1  0.50960000  0.31410000  0.44590000  1.0 -0.1373870536
C  C196  1  0.86820000  0.06370000  0.55410000  1.0 -0.1373870536
C  C197  1  0.19550000  0.13180000  0.68590000  1.0 -0.1373870536
C  C198  1  0.80450000  0.49040000  0.93630000  1.0 -0.1373870536
C  C199  1  0.44590000  0.50960000  0.31410000  1.0 -0.1373870536
C  C200  1  0.55410000  0.86820000  0.06370000  1.0 -0.1373870536
C  C201  1  0.68590000  0.19550000  0.13180000  1.0 -0.1373870536
C  C202  1  0.93630000  0.80450000  0.49040000  1.0 -0.1373870536
C  C203  1  0.31410000  0.44590000  0.50960000  1.0 -0.1373870536
C  C204  1  0.06370000  0.55410000  0.86820000  1.0 -0.1373870536
C  C205  1  0.06370000  0.50960000  0.19550000  1.0 -0.1373870536
C  C206  1  0.31410000  0.86820000  0.80450000  1.0 -0.1373870536
C  C207  1  0.93630000  0.13180000  0.44590000  1.0 -0.1373870536
C  C208  1  0.68590000  0.49040000  0.55410000  1.0 -0.1373870536
C  C209  1  0.49040000  0.55410000  0.68590000  1.0 -0.1373870536
C  C210  1  0.13180000  0.44590000  0.93630000  1.0 -0.1373870536
C  C211  1  0.86820000  0.80450000  0.31410000  1.0 -0.1373870536
C  C212  1  0.50960000  0.19550000  0.06370000  1.0 -0.1373870536
C  C213  1  0.44590000  0.93630000  0.13180000  1.0 -0.1373870536
C  C214  1  0.55410000  0.68590000  0.49040000  1.0 -0.1373870536
C  C215  1  0.19550000  0.06370000  0.50960000  1.0 -0.1373870536
C  C216  1  0.80450000  0.31410000  0.86820000  1.0 -0.1373870536
Cl  Cl1  1  0.50000000  0.00000000  0.50000000  1.0 -0.65298546
Cl  Cl2  1  0.50000000  0.50000000  0.00000000  1.0 -0.6562052433
Cl  Cl3  1  0.00000000  0.50000000  0.50000000  1.0 -0.65298546
O  O1  1  0.61353000  0.16965000  0.67294000  1.0 -0.5287441067
O  O2  1  0.49671000  0.94059000  0.32706000  1.0 -0.5287441067
O  O3  1  0.50329000  0.83035000  0.44388000  1.0 -0.5287441067
O  O4  1  0.38647000  0.05941000  0.55612000  1.0 -0.5287441067
O  O5  1  0.67294000  0.61353000  0.16965000  1.0 -0.5287441067
O  O6  1  0.32706000  0.49671000  0.94059000  1.0 -0.5287441067
O  O7  1  0.44388000  0.50329000  0.83035000  1.0 -0.5287441067
O  O8  1  0.55612000  0.38647000  0.05941000  1.0 -0.5287441067
O  O9  1  0.16965000  0.67294000  0.61353000  1.0 -0.5287441067
O  O10  1  0.94059000  0.32706000  0.49671000  1.0 -0.5287441067
O  O11  1  0.83035000  0.44388000  0.50329000  1.0 -0.5287441067
O  O12  1  0.05941000  0.55612000  0.38647000  1.0 -0.5287441067
O  O13  1  0.05941000  0.50329000  0.67294000  1.0 -0.5287441067
O  O14  1  0.83035000  0.38647000  0.32706000  1.0 -0.5287441067
O  O15  1  0.94059000  0.61353000  0.44388000  1.0 -0.5287441067
O  O16  1  0.16965000  0.49671000  0.55612000  1.0 -0.5287441067
O  O17  1  0.49671000  0.55612000  0.16965000  1.0 -0.5287441067
O  O18  1  0.61353000  0.44388000  0.94059000  1.0 -0.5287441067
O  O19  1  0.38647000  0.32706000  0.83035000  1.0 -0.5287441067
O  O20  1  0.50329000  0.67294000  0.05941000  1.0 -0.5287441067
O  O21  1  0.44388000  0.94059000  0.61353000  1.0 -0.5287441067
O  O22  1  0.55612000  0.16965000  0.49671000  1.0 -0.5287441067
O  O23  1  0.67294000  0.05941000  0.50329000  1.0 -0.5287441067
O  O24  1  0.32706000  0.83035000  0.38647000  1.0 -0.5287441067
O  O25  1  0.38647000  0.83035000  0.32706000  1.0 -0.5287441067
O  O26  1  0.50329000  0.05941000  0.67294000  1.0 -0.5287441067
O  O27  1  0.49671000  0.16965000  0.55612000  1.0 -0.5287441067
O  O28  1  0.61353000  0.94059000  0.44388000  1.0 -0.5287441067
O  O29  1  0.32706000  0.38647000  0.83035000  1.0 -0.5287441067
O  O30  1  0.67294000  0.50329000  0.05941000  1.0 -0.5287441067
O  O31  1  0.55612000  0.49671000  0.16965000  1.0 -0.5287441067
O  O32  1  0.44388000  0.61353000  0.94059000  1.0 -0.5287441067
O  O33  1  0.83035000  0.32706000  0.38647000  1.0 -0.5287441067
O  O34  1  0.05941000  0.67294000  0.50329000  1.0 -0.5287441067
O  O35  1  0.16965000  0.55612000  0.49671000  1.0 -0.5287441067
O  O36  1  0.94059000  0.44388000  0.61353000  1.0 -0.5287441067
O  O37  1  0.94059000  0.49671000  0.32706000  1.0 -0.5287441067
O  O38  1  0.16965000  0.61353000  0.67294000  1.0 -0.5287441067
O  O39  1  0.05941000  0.38647000  0.55612000  1.0 -0.5287441067
O  O40  1  0.83035000  0.50329000  0.44388000  1.0 -0.5287441067
O  O41  1  0.50329000  0.44388000  0.83035000  1.0 -0.5287441067
O  O42  1  0.38647000  0.55612000  0.05941000  1.0 -0.5287441067
O  O43  1  0.61353000  0.67294000  0.16965000  1.0 -0.5287441067
O  O44  1  0.49671000  0.32706000  0.94059000  1.0 -0.5287441067
O  O45  1  0.55612000  0.05941000  0.38647000  1.0 -0.5287441067
O  O46  1  0.44388000  0.83035000  0.50329000  1.0 -0.5287441067
O  O47  1  0.32706000  0.94059000  0.49671000  1.0 -0.5287441067
O  O48  1  0.67294000  0.16965000  0.61353000  1.0 -0.5287441067
