# DDEC6 charges by PACMAN v1.1 (https://github.com/mtap-research/PACMAN-charge/)
data_NANMEW_ASR_pacman
_symmetry_space_group_name_H-M   'P 1'
_cell_length_a   15.67700000
_cell_length_b   15.67700000
_cell_length_c   15.10000000
_cell_angle_alpha   90.00000000
_cell_angle_beta   90.00000000
_cell_angle_gamma   120.00000000
_symmetry_Int_Tables_number   1
_chemical_formula_structural   La2Mg3H18C42(NO4)6
_chemical_formula_sum   'La4 Mg6 H36 C84 N12 O48'
_cell_volume   3213.90840703
_cell_formula_units_Z   2
loop_
 _symmetry_equiv_pos_site_id
 _symmetry_equiv_pos_as_xyz
  1  'x, y, z'
loop_
 _atom_site_type_symbol
 _atom_site_label
 _atom_site_symmetry_multiplicity
 _atom_site_fract_x
 _atom_site_fract_y
 _atom_site_fract_z
 _atom_site_occupancy
 _atom_site_charge
La  La1  1  0.66666667  0.33333333  0.25000000  1.0 1.6095335759
La  La2  1  0.33333333  0.66666667  0.25000000  1.0 1.6095335759
La  La3  1  0.33333333  0.66666667  0.75000000  1.0 1.6095335759
La  La4  1  0.66666667  0.33333333  0.75000000  1.0 1.6095335759
Mg  Mg1  1  0.50000000  0.50000000  0.00000000  1.0 1.3775032041
Mg  Mg2  1  0.50000000  0.00000000  0.00000000  1.0 1.3775032041
Mg  Mg3  1  0.00000000  0.50000000  0.00000000  1.0 1.3775032041
Mg  Mg4  1  0.50000000  0.50000000  0.50000000  1.0 1.3775032041
Mg  Mg5  1  0.00000000  0.50000000  0.50000000  1.0 1.3775032041
Mg  Mg6  1  0.50000000  0.00000000  0.50000000  1.0 1.3775032041
H  H1  1  0.89900000  0.79800000  0.25000000  1.0 0.1068143226
H  H2  1  0.20200000  0.10100000  0.25000000  1.0 0.1068143226
H  H3  1  0.89900000  0.10100000  0.25000000  1.0 0.1068143226
H  H4  1  0.10100000  0.20200000  0.25000000  1.0 0.1068143226
H  H5  1  0.79800000  0.89900000  0.25000000  1.0 0.1068143226
H  H6  1  0.10100000  0.89900000  0.25000000  1.0 0.1068143226
H  H7  1  0.10100000  0.20200000  0.75000000  1.0 0.1068143226
H  H8  1  0.79800000  0.89900000  0.75000000  1.0 0.1068143226
H  H9  1  0.10100000  0.89900000  0.75000000  1.0 0.1068143226
H  H10  1  0.89900000  0.79800000  0.75000000  1.0 0.1068143226
H  H11  1  0.20200000  0.10100000  0.75000000  1.0 0.1068143226
H  H12  1  0.89900000  0.10100000  0.75000000  1.0 0.1068143226
H  H13  1  0.76500000  0.71160000  0.15600000  1.0 0.1348238267
H  H14  1  0.28840000  0.05340000  0.15600000  1.0 0.1348238267
H  H15  1  0.94660000  0.23500000  0.15600000  1.0 0.1348238267
H  H16  1  0.23500000  0.28840000  0.15600000  1.0 0.1348238267
H  H17  1  0.71160000  0.94660000  0.15600000  1.0 0.1348238267
H  H18  1  0.05340000  0.76500000  0.15600000  1.0 0.1348238267
H  H19  1  0.71160000  0.76500000  0.34400000  1.0 0.1348238267
H  H20  1  0.05340000  0.28840000  0.34400000  1.0 0.1348238267
H  H21  1  0.23500000  0.94660000  0.34400000  1.0 0.1348238267
H  H22  1  0.28840000  0.23500000  0.34400000  1.0 0.1348238267
H  H23  1  0.94660000  0.71160000  0.34400000  1.0 0.1348238267
H  H24  1  0.76500000  0.05340000  0.34400000  1.0 0.1348238267
H  H25  1  0.23500000  0.28840000  0.84400000  1.0 0.1348238267
H  H26  1  0.71160000  0.94660000  0.84400000  1.0 0.1348238267
H  H27  1  0.05340000  0.76500000  0.84400000  1.0 0.1348238267
H  H28  1  0.76500000  0.71160000  0.84400000  1.0 0.1348238267
H  H29  1  0.28840000  0.05340000  0.84400000  1.0 0.1348238267
H  H30  1  0.94660000  0.23500000  0.84400000  1.0 0.1348238267
H  H31  1  0.28840000  0.23500000  0.65600000  1.0 0.1348238267
H  H32  1  0.94660000  0.71160000  0.65600000  1.0 0.1348238267
H  H33  1  0.76500000  0.05340000  0.65600000  1.0 0.1348238267
H  H34  1  0.71160000  0.76500000  0.65600000  1.0 0.1348238267
H  H35  1  0.05340000  0.28840000  0.65600000  1.0 0.1348238267
H  H36  1  0.23500000  0.94660000  0.65600000  1.0 0.1348238267
C  C1  1  0.86475000  0.72950000  0.25000000  1.0 -0.0597544285
C  C2  1  0.27050000  0.13525000  0.25000000  1.0 -0.0597544285
C  C3  1  0.86475000  0.13525000  0.25000000  1.0 -0.0597544285
C  C4  1  0.13525000  0.27050000  0.25000000  1.0 -0.0597544285
C  C5  1  0.72950000  0.86475000  0.25000000  1.0 -0.0597544285
C  C6  1  0.13525000  0.86475000  0.25000000  1.0 -0.0597544285
C  C7  1  0.13525000  0.27050000  0.75000000  1.0 -0.0597544285
C  C8  1  0.72950000  0.86475000  0.75000000  1.0 -0.0597544285
C  C9  1  0.13525000  0.86475000  0.75000000  1.0 -0.0597544285
C  C10  1  0.86475000  0.72950000  0.75000000  1.0 -0.0597544285
C  C11  1  0.27050000  0.13525000  0.75000000  1.0 -0.0597544285
C  C12  1  0.86475000  0.13525000  0.75000000  1.0 -0.0597544285
C  C13  1  0.78489000  0.67837000  0.19426000  1.0 -0.1357359352
C  C14  1  0.32163000  0.10652000  0.19426000  1.0 -0.1357359352
C  C15  1  0.89348000  0.21511000  0.19426000  1.0 -0.1357359352
C  C16  1  0.21511000  0.32163000  0.19426000  1.0 -0.1357359352
C  C17  1  0.67837000  0.89348000  0.19426000  1.0 -0.1357359352
C  C18  1  0.10652000  0.78489000  0.19426000  1.0 -0.1357359352
C  C19  1  0.67837000  0.78489000  0.30574000  1.0 -0.1357359352
C  C20  1  0.10652000  0.32163000  0.30574000  1.0 -0.1357359352
C  C21  1  0.21511000  0.89348000  0.30574000  1.0 -0.1357359352
C  C22  1  0.32163000  0.21511000  0.30574000  1.0 -0.1357359352
C  C23  1  0.89348000  0.67837000  0.30574000  1.0 -0.1357359352
C  C24  1  0.78489000  0.10652000  0.30574000  1.0 -0.1343567543
C  C25  1  0.21511000  0.32163000  0.80574000  1.0 -0.1357359352
C  C26  1  0.67837000  0.89348000  0.80574000  1.0 -0.1357359352
C  C27  1  0.10652000  0.78489000  0.80574000  1.0 -0.1357359352
C  C28  1  0.78489000  0.67837000  0.80574000  1.0 -0.1357359352
C  C29  1  0.32163000  0.10652000  0.80574000  1.0 -0.1357359352
C  C30  1  0.89348000  0.21511000  0.80574000  1.0 -0.1357359352
C  C31  1  0.32163000  0.21511000  0.69426000  1.0 -0.1357359352
C  C32  1  0.89348000  0.67837000  0.69426000  1.0 -0.1357359352
C  C33  1  0.78489000  0.10652000  0.69426000  1.0 -0.1357359352
C  C34  1  0.67837000  0.78489000  0.69426000  1.0 -0.1357359352
C  C35  1  0.10652000  0.32163000  0.69426000  1.0 -0.1357359352
C  C36  1  0.21511000  0.89348000  0.69426000  1.0 -0.1357359352
C  C37  1  0.73531000  0.57639000  0.19694000  1.0 0.1225098796
C  C38  1  0.42361000  0.15892000  0.19694000  1.0 0.1225098796
C  C39  1  0.84108000  0.26469000  0.19694000  1.0 0.1225098796
C  C40  1  0.26469000  0.42361000  0.19694000  1.0 0.1225098796
C  C41  1  0.57639000  0.84108000  0.19694000  1.0 0.1225098796
C  C42  1  0.15892000  0.73531000  0.19694000  1.0 0.1225098796
C  C43  1  0.57639000  0.73531000  0.30306000  1.0 0.1225098796
C  C44  1  0.15892000  0.42361000  0.30306000  1.0 0.1225098796
C  C45  1  0.26469000  0.84108000  0.30306000  1.0 0.1225098796
C  C46  1  0.42361000  0.26469000  0.30306000  1.0 0.1225098796
C  C47  1  0.84108000  0.57639000  0.30306000  1.0 0.1225098796
C  C48  1  0.73531000  0.15892000  0.30306000  1.0 0.1225098796
C  C49  1  0.26469000  0.42361000  0.80306000  1.0 0.1225098796
C  C50  1  0.57639000  0.84108000  0.80306000  1.0 0.1225098796
C  C51  1  0.15892000  0.73531000  0.80306000  1.0 0.1225098796
C  C52  1  0.73531000  0.57639000  0.80306000  1.0 0.1225098796
C  C53  1  0.42361000  0.15892000  0.80306000  1.0 0.1225098796
C  C54  1  0.84108000  0.26469000  0.80306000  1.0 0.1225098796
C  C55  1  0.42361000  0.26469000  0.69694000  1.0 0.1225098796
C  C56  1  0.84108000  0.57639000  0.69694000  1.0 0.1225098796
C  C57  1  0.73531000  0.15892000  0.69694000  1.0 0.1225098796
C  C58  1  0.57639000  0.73531000  0.69694000  1.0 0.1225098796
C  C59  1  0.15892000  0.42361000  0.69694000  1.0 0.1225098796
C  C60  1  0.26469000  0.84108000  0.69694000  1.0 0.1225098796
C  C61  1  0.64744000  0.51342000  0.13906000  1.0 0.5733316816
C  C62  1  0.48658000  0.13402000  0.13906000  1.0 0.5733316816
C  C63  1  0.86598000  0.35256000  0.13906000  1.0 0.5733316816
C  C64  1  0.35256000  0.48658000  0.13906000  1.0 0.5733316816
C  C65  1  0.51342000  0.86598000  0.13906000  1.0 0.5733316816
C  C66  1  0.13402000  0.64744000  0.13906000  1.0 0.5733316816
C  C67  1  0.51342000  0.64744000  0.36094000  1.0 0.5733316816
C  C68  1  0.13402000  0.48658000  0.36094000  1.0 0.5733316816
C  C69  1  0.35256000  0.86598000  0.36094000  1.0 0.5733316816
C  C70  1  0.48658000  0.35256000  0.36094000  1.0 0.5733316816
C  C71  1  0.86598000  0.51342000  0.36094000  1.0 0.5733316816
C  C72  1  0.64744000  0.13402000  0.36094000  1.0 0.5733316816
C  C73  1  0.35256000  0.48658000  0.86094000  1.0 0.5733316816
C  C74  1  0.51342000  0.86598000  0.86094000  1.0 0.5733316816
C  C75  1  0.13402000  0.64744000  0.86094000  1.0 0.5733316816
C  C76  1  0.64744000  0.51342000  0.86094000  1.0 0.5733316816
C  C77  1  0.48658000  0.13402000  0.86094000  1.0 0.5733316816
C  C78  1  0.86598000  0.35256000  0.86094000  1.0 0.5733316816
C  C79  1  0.48658000  0.35256000  0.63906000  1.0 0.5733316816
C  C80  1  0.86598000  0.51342000  0.63906000  1.0 0.5733316816
C  C81  1  0.64744000  0.13402000  0.63906000  1.0 0.5733316816
C  C82  1  0.51342000  0.64744000  0.63906000  1.0 0.5733316816
C  C83  1  0.13402000  0.48658000  0.63906000  1.0 0.5733316816
C  C84  1  0.35256000  0.86598000  0.63906000  1.0 0.5733316816
N  N1  1  0.76347000  0.52695000  0.25000000  1.0 -0.3020155751
N  N2  1  0.47305000  0.23653000  0.25000000  1.0 -0.3020155751
N  N3  1  0.76347000  0.23653000  0.25000000  1.0 -0.3020155751
N  N4  1  0.23653000  0.47305000  0.25000000  1.0 -0.3020155751
N  N5  1  0.52695000  0.76348000  0.25000000  1.0 -0.3020155751
N  N6  1  0.23653000  0.76348000  0.25000000  1.0 -0.3020155751
N  N7  1  0.23653000  0.47305000  0.75000000  1.0 -0.3020155751
N  N8  1  0.52695000  0.76348000  0.75000000  1.0 -0.3020155751
N  N9  1  0.23653000  0.76348000  0.75000000  1.0 -0.3020155751
N  N10  1  0.76347000  0.52695000  0.75000000  1.0 -0.3020155751
N  N11  1  0.47305000  0.23653000  0.75000000  1.0 -0.3020155751
N  N12  1  0.76347000  0.23653000  0.75000000  1.0 -0.3020155751
O  O1  1  0.61157000  0.55418000  0.09461000  1.0 -0.6168829523
O  O2  1  0.44582000  0.05739000  0.09461000  1.0 -0.6168829523
O  O3  1  0.94261000  0.38843000  0.09461000  1.0 -0.6168829523
O  O4  1  0.38843000  0.44582000  0.09461000  1.0 -0.6168829523
O  O5  1  0.55418000  0.94261000  0.09461000  1.0 -0.6168829523
O  O6  1  0.05739000  0.61157000  0.09461000  1.0 -0.6168829523
O  O7  1  0.55418000  0.61157000  0.40539000  1.0 -0.6168829523
O  O8  1  0.05739000  0.44582000  0.40539000  1.0 -0.6168829523
O  O9  1  0.38843000  0.94261000  0.40539000  1.0 -0.6168829523
O  O10  1  0.44582000  0.38843000  0.40539000  1.0 -0.6168829523
O  O11  1  0.94261000  0.55418000  0.40539000  1.0 -0.6168829523
O  O12  1  0.61157000  0.05739000  0.40539000  1.0 -0.6168829523
O  O13  1  0.38843000  0.44582000  0.90539000  1.0 -0.6168829523
O  O14  1  0.55418000  0.94261000  0.90539000  1.0 -0.6168829523
O  O15  1  0.05739000  0.61157000  0.90539000  1.0 -0.6168829523
O  O16  1  0.61157000  0.55418000  0.90539000  1.0 -0.6168829523
O  O17  1  0.44582000  0.05739000  0.90539000  1.0 -0.6168829523
O  O18  1  0.94261000  0.38843000  0.90539000  1.0 -0.6168829523
O  O19  1  0.44582000  0.38843000  0.59461000  1.0 -0.6168829523
O  O20  1  0.94261000  0.55418000  0.59461000  1.0 -0.6168829523
O  O21  1  0.61157000  0.05739000  0.59461000  1.0 -0.6168829523
O  O22  1  0.55418000  0.61157000  0.59461000  1.0 -0.6168829523
O  O23  1  0.05739000  0.44582000  0.59461000  1.0 -0.6168829523
O  O24  1  0.38843000  0.94261000  0.59461000  1.0 -0.6168829523
O  O25  1  0.61656000  0.42149000  0.14062000  1.0 -0.5632575227
O  O26  1  0.57851000  0.19507000  0.14062000  1.0 -0.5632575227
O  O27  1  0.80493000  0.38344000  0.14062000  1.0 -0.5632575227
O  O28  1  0.38344000  0.57851000  0.14062000  1.0 -0.5632575227
O  O29  1  0.42149000  0.80493000  0.14062000  1.0 -0.5632575227
O  O30  1  0.19507000  0.61656000  0.14062000  1.0 -0.5632575227
O  O31  1  0.42149000  0.61656000  0.35938000  1.0 -0.5632575227
O  O32  1  0.19507000  0.57851000  0.35938000  1.0 -0.5632575227
O  O33  1  0.38344000  0.80493000  0.35938000  1.0 -0.5632575227
O  O34  1  0.57851000  0.38344000  0.35938000  1.0 -0.5632575227
O  O35  1  0.80493000  0.42149000  0.35938000  1.0 -0.5632575227
O  O36  1  0.61656000  0.19507000  0.35938000  1.0 -0.5632575227
O  O37  1  0.38344000  0.57851000  0.85938000  1.0 -0.5632575227
O  O38  1  0.42149000  0.80493000  0.85938000  1.0 -0.5632575227
O  O39  1  0.19507000  0.61656000  0.85938000  1.0 -0.5632575227
O  O40  1  0.61656000  0.42149000  0.85938000  1.0 -0.5632575227
O  O41  1  0.57851000  0.19507000  0.85938000  1.0 -0.5632575227
O  O42  1  0.80493000  0.38344000  0.85938000  1.0 -0.5632575227
O  O43  1  0.57851000  0.38344000  0.64062000  1.0 -0.5632575227
O  O44  1  0.80493000  0.42149000  0.64062000  1.0 -0.5632575227
O  O45  1  0.61656000  0.19507000  0.64062000  1.0 -0.5632575227
O  O46  1  0.42149000  0.61656000  0.64062000  1.0 -0.5632575227
O  O47  1  0.19507000  0.57851000  0.64062000  1.0 -0.5632575227
O  O48  1  0.38344000  0.80493000  0.64062000  1.0 -0.5632575227
