# DDEC6 charges by PACMAN v1.1 (https://github.com/mtap-research/PACMAN-charge/)
data_NANPUN_ASR_pacman
_symmetry_space_group_name_H-M   'P 1'
_cell_length_a   15.68500000
_cell_length_b   16.63200000
_cell_length_c   17.39100000
_cell_angle_alpha   90.00000000
_cell_angle_beta   90.00000000
_cell_angle_gamma   90.00000000
_symmetry_Int_Tables_number   1
_chemical_formula_structural   Cd5(C9N)2
_chemical_formula_sum   'Cd20 C72 N8'
_cell_volume   4536.84095172
_cell_formula_units_Z   4
loop_
 _symmetry_equiv_pos_site_id
 _symmetry_equiv_pos_as_xyz
  1  'x, y, z'
loop_
 _atom_site_type_symbol
 _atom_site_label
 _atom_site_symmetry_multiplicity
 _atom_site_fract_x
 _atom_site_fract_y
 _atom_site_fract_z
 _atom_site_occupancy
 _atom_site_charge
Cd  Cd1  1  0.25000000  0.00000000  0.04750000  1.0 0.1894104398
Cd  Cd2  1  0.75000000  0.50000000  0.45250000  1.0 0.1894104398
Cd  Cd3  1  0.75000000  0.00000000  0.95250000  1.0 0.1843882667
Cd  Cd4  1  0.25000000  0.50000000  0.54750000  1.0 0.1894104398
Cd  Cd5  1  0.56220000  0.11980000  0.35440000  1.0 0.742542723
Cd  Cd6  1  0.06220000  0.38020000  0.14560000  1.0 0.742542723
Cd  Cd7  1  0.43780000  0.61980000  0.14560000  1.0 0.742542723
Cd  Cd8  1  0.93780000  0.88020000  0.35440000  1.0 0.742542723
Cd  Cd9  1  0.43780000  0.88020000  0.64560000  1.0 0.742542723
Cd  Cd10  1  0.93780000  0.61980000  0.85440000  1.0 0.742542723
Cd  Cd11  1  0.56220000  0.38020000  0.85440000  1.0 0.742542723
Cd  Cd12  1  0.06220000  0.11980000  0.64560000  1.0 0.742542723
Cd  Cd13  1  0.39990000  0.29210000  0.12290000  1.0 0.7813938277
Cd  Cd14  1  0.89990000  0.20790000  0.37710000  1.0 0.7813938277
Cd  Cd15  1  0.60010000  0.79210000  0.37710000  1.0 0.7813938277
Cd  Cd16  1  0.10010000  0.70790000  0.12290000  1.0 0.7813938277
Cd  Cd17  1  0.60010000  0.70790000  0.87710000  1.0 0.7813938277
Cd  Cd18  1  0.10010000  0.79210000  0.62290000  1.0 0.7813938277
Cd  Cd19  1  0.39990000  0.20790000  0.62290000  1.0 0.7813938277
Cd  Cd20  1  0.89990000  0.29210000  0.87710000  1.0 0.7813938277
C  C1  1  0.50300000  0.16200000  0.46500000  1.0 -0.1706144325
C  C2  1  0.00300000  0.33800000  0.03500000  1.0 -0.1706144325
C  C3  1  0.49700000  0.66200000  0.03500000  1.0 -0.1638910009
C  C4  1  0.99700000  0.83800000  0.46500000  1.0 -0.1638910009
C  C5  1  0.49700000  0.83800000  0.53500000  1.0 -0.1638910009
C  C6  1  0.99700000  0.66200000  0.96500000  1.0 -0.1706144325
C  C7  1  0.50300000  0.33800000  0.96500000  1.0 -0.1706144325
C  C8  1  0.00300000  0.16200000  0.53500000  1.0 -0.1706144325
C  C9  1  0.43700000  0.42200000  0.16700000  1.0 -0.0663528289
C  C10  1  0.93700000  0.07800000  0.33300000  1.0 -0.0636129996
C  C11  1  0.56300000  0.92200000  0.33300000  1.0 -0.0663528289
C  C12  1  0.06300000  0.57800000  0.16700000  1.0 -0.0663528289
C  C13  1  0.56300000  0.57800000  0.83300000  1.0 -0.0663528289
C  C14  1  0.06300000  0.92200000  0.66700000  1.0 -0.0663528289
C  C15  1  0.43700000  0.07800000  0.66700000  1.0 -0.0663528289
C  C16  1  0.93700000  0.42200000  0.83300000  1.0 -0.0636129996
C  C17  1  0.69600000  0.16200000  0.35000000  1.0 -0.1706144325
C  C18  1  0.19600000  0.33800000  0.15000000  1.0 -0.1706144325
C  C19  1  0.30400000  0.66200000  0.15000000  1.0 -0.1706144325
C  C20  1  0.80400000  0.83800000  0.35000000  1.0 -0.1706144325
C  C21  1  0.30400000  0.83800000  0.65000000  1.0 -0.1706144325
C  C22  1  0.80400000  0.66200000  0.85000000  1.0 -0.1706144325
C  C23  1  0.69600000  0.33800000  0.85000000  1.0 -0.1706144325
C  C24  1  0.19600000  0.16200000  0.65000000  1.0 -0.1706144325
C  C25  1  0.47000000  0.23000000  0.21600000  1.0 -0.1706144325
C  C26  1  0.97000000  0.27000000  0.28400000  1.0 -0.1706144325
C  C27  1  0.53000000  0.73000000  0.28400000  1.0 -0.1706144325
C  C28  1  0.03000000  0.77000000  0.21600000  1.0 -0.1706144325
C  C29  1  0.53000000  0.77000000  0.78400000  1.0 -0.1706144325
C  C30  1  0.03000000  0.73000000  0.71600000  1.0 -0.1706144325
C  C31  1  0.47000000  0.27000000  0.71600000  1.0 -0.1706144325
C  C32  1  0.97000000  0.23000000  0.78400000  1.0 -0.1706144325
C  C33  1  0.50500000  0.18800000  0.25900000  1.0 -0.231566543
C  C34  1  0.00500000  0.31200000  0.24100000  1.0 -0.231566543
C  C35  1  0.49500000  0.68800000  0.24100000  1.0 -0.231566543
C  C36  1  0.99500000  0.81200000  0.25900000  1.0 -0.231566543
C  C37  1  0.49500000  0.81200000  0.74100000  1.0 -0.231566543
C  C38  1  0.99500000  0.68800000  0.75900000  1.0 -0.231566543
C  C39  1  0.50500000  0.31200000  0.75900000  1.0 -0.231566543
C  C40  1  0.00500000  0.18800000  0.74100000  1.0 -0.231566543
C  C41  1  0.44000000  0.48700000  0.16500000  1.0 -0.2101508205
C  C42  1  0.94000000  0.01300000  0.33500000  1.0 -0.2101508205
C  C43  1  0.56000000  0.98700000  0.33500000  1.0 -0.204831375
C  C44  1  0.06000000  0.51300000  0.16500000  1.0 -0.204831375
C  C45  1  0.56000000  0.51300000  0.83500000  1.0 -0.2101508205
C  C46  1  0.06000000  0.98700000  0.66500000  1.0 -0.2101508205
C  C47  1  0.44000000  0.01300000  0.66500000  1.0 -0.2101508205
C  C48  1  0.94000000  0.48700000  0.83500000  1.0 -0.2101508205
C  C49  1  0.26600000  0.31900000  0.14100000  1.0 -0.2170494868
C  C50  1  0.76600000  0.18100000  0.35900000  1.0 -0.2101508205
C  C51  1  0.73400000  0.81900000  0.35900000  1.0 -0.2170494868
C  C52  1  0.23400000  0.68100000  0.14100000  1.0 -0.2170494868
C  C53  1  0.73400000  0.68100000  0.85900000  1.0 -0.2170494868
C  C54  1  0.23400000  0.81900000  0.64100000  1.0 -0.2170494868
C  C55  1  0.26600000  0.18100000  0.64100000  1.0 -0.2101508205
C  C56  1  0.76600000  0.31900000  0.85900000  1.0 -0.2101508205
C  C57  1  0.47500000  0.31800000  0.02100000  1.0 -0.2101508205
C  C58  1  0.97500000  0.18200000  0.47900000  1.0 -0.2101508205
C  C59  1  0.52500000  0.81800000  0.47900000  1.0 -0.2101508205
C  C60  1  0.02500000  0.68200000  0.02100000  1.0 -0.2101508205
C  C61  1  0.52500000  0.68200000  0.97900000  1.0 -0.2101508205
C  C62  1  0.02500000  0.81800000  0.52100000  1.0 -0.2101508205
C  C63  1  0.47500000  0.18200000  0.52100000  1.0 -0.2101508205
C  C64  1  0.97500000  0.31800000  0.97900000  1.0 -0.2101508205
C  C65  1  0.31900000  0.11200000  0.05400000  1.0 0.1182587368
C  C66  1  0.81900000  0.38800000  0.44600000  1.0 0.1182587368
C  C67  1  0.68100000  0.61200000  0.44600000  1.0 0.1182587368
C  C68  1  0.18100000  0.88800000  0.05400000  1.0 0.1182587368
C  C69  1  0.68100000  0.88800000  0.94600000  1.0 0.1182587368
C  C70  1  0.18100000  0.61200000  0.55400000  1.0 0.1182587368
C  C71  1  0.31900000  0.38800000  0.55400000  1.0 0.1182587368
C  C72  1  0.81900000  0.11200000  0.94600000  1.0 0.1182587368
N  N1  1  0.35800000  0.16900000  0.06800000  1.0 -0.2962820439
N  N2  1  0.85800000  0.33100000  0.43200000  1.0 -0.2962820439
N  N3  1  0.64200000  0.66900000  0.43200000  1.0 -0.2962820439
N  N4  1  0.14200000  0.83100000  0.06800000  1.0 -0.2962820439
N  N5  1  0.64200000  0.83100000  0.93200000  1.0 -0.2962820439
N  N6  1  0.14200000  0.66900000  0.56800000  1.0 -0.2962820439
N  N7  1  0.35800000  0.33100000  0.56800000  1.0 -0.2962820439
N  N8  1  0.85800000  0.16900000  0.93200000  1.0 -0.2962820439
