# DDEC6 charges by PACMAN v1.1 (https://github.com/mtap-research/PACMAN-charge/)
data_NAPHIY_ASR_pacman
_symmetry_space_group_name_H-M   'P 1'
_cell_length_a   5.63420000
_cell_length_b   8.94630000
_cell_length_c   10.80360000
_cell_angle_alpha   92.71400000
_cell_angle_beta   97.60300000
_cell_angle_gamma   90.49000000
_symmetry_Int_Tables_number   1
_chemical_formula_structural   CoH20C22(NO2)2
_chemical_formula_sum   'Co1 H20 C22 N2 O4'
_cell_volume   539.10484857
_cell_formula_units_Z   1
loop_
 _symmetry_equiv_pos_site_id
 _symmetry_equiv_pos_as_xyz
  1  'x, y, z'
loop_
 _atom_site_type_symbol
 _atom_site_label
 _atom_site_symmetry_multiplicity
 _atom_site_fract_x
 _atom_site_fract_y
 _atom_site_fract_z
 _atom_site_occupancy
 _atom_site_charge
Co  Co1  1  0.50000000  0.50000000  0.00000000  1.0 0.7452089461
H  H1  1  0.15660000  0.74960000  0.07970000  1.0 0.1277629631
H  H2  1  0.12500000  0.92510000  0.23430000  1.0 0.1476191441
H  H3  1  0.76830000  0.81250000  0.39790000  1.0 0.1366800043
H  H4  1  0.78720000  0.64150000  0.23660000  1.0 0.1116724732
H  H5  1  0.25010000  0.98710000  0.46650000  1.0 0.1116724732
H  H6  1  0.41190000  0.10180000  0.41000000  1.0 0.1277629631
H  H7  1  0.87350000  0.16800000  0.34370000  1.0 0.1215364981
H  H8  1  0.05430000  0.24400000  0.26630000  1.0 0.1476191441
H  H9  1  0.67210000  0.34390000  0.49400000  1.0 0.1215364981
H  H10  1  0.26260000  0.46630000  0.35540000  1.0 0.1277629631
H  H11  1  0.84340000  0.25040000  0.92030000  1.0 0.1277629631
H  H12  1  0.87500000  0.07490000  0.76570000  1.0 0.1476191441
H  H13  1  0.23170000  0.18750000  0.60210000  1.0 0.1366800043
H  H14  1  0.21280000  0.35850000  0.76340000  1.0 0.1116724732
H  H15  1  0.74990000  0.01290000  0.53350000  1.0 0.1116724732
H  H16  1  0.58810000  0.89820000  0.59000000  1.0 0.1277629631
H  H17  1  0.12650000  0.83200000  0.65630000  1.0 0.1215364981
H  H18  1  0.94570000  0.75600000  0.73370000  1.0 0.1476191441
H  H19  1  0.32790000  0.65610000  0.50600000  1.0 0.1215364981
H  H20  1  0.73740000  0.53370000  0.64460000  1.0 0.1277629631
C  C1  1  0.28250000  0.76220000  0.14450000  1.0 0.0746727856
C  C2  1  0.26200000  0.86730000  0.23810000  1.0 -0.1882334751
C  C3  1  0.44020000  0.88990000  0.33820000  1.0 0.1738467785
C  C4  1  0.64020000  0.80190000  0.33420000  1.0 -0.2083768797
C  C5  1  0.65010000  0.69870000  0.23630000  1.0 0.081144658
C  C6  1  0.40780000  0.00250000  0.44210000  1.0 -0.2297759158
C  C7  1  0.70490000  0.30040000  0.20900000  1.0 0.6328480514
C  C8  1  0.91180000  0.26020000  0.30640000  1.0 -0.4128098962
C  C9  1  0.96030000  0.38370000  0.40710000  1.0 0.1366800043
C  C10  1  0.80500000  0.40670000  0.49590000  1.0 -0.15940171
C  C11  1  0.15560000  0.47920000  0.41340000  1.0 -0.1539358375
C  C12  1  0.71750000  0.23780000  0.85550000  1.0 0.0746727856
C  C13  1  0.73800000  0.13270000  0.76190000  1.0 -0.1882334751
C  C14  1  0.55980000  0.11010000  0.66180000  1.0 0.1738467785
C  C15  1  0.35980000  0.19810000  0.66580000  1.0 -0.2083768797
C  C16  1  0.34990000  0.30130000  0.76370000  1.0 0.081144658
C  C17  1  0.59220000  0.99750000  0.55790000  1.0 -0.2297759158
C  C18  1  0.29510000  0.69960000  0.79100000  1.0 0.6328480514
C  C19  1  0.08820000  0.73980000  0.69360000  1.0 -0.4128098962
C  C20  1  0.03970000  0.61630000  0.59290000  1.0 0.1366800043
C  C21  1  0.19500000  0.59330000  0.50410000  1.0 -0.15940171
C  C22  1  0.84440000  0.52080000  0.58660000  1.0 -0.1539358375
N  N1  1  0.47660000  0.67590000  0.14160000  1.0 -0.2297759158
N  N2  1  0.52340000  0.32410000  0.85840000  1.0 -0.2297759158
O  O1  1  0.50340000  0.24870000  0.21940000  1.0 -0.5840728012
O  O2  1  0.74910000  0.38850000  0.12643000  1.0 -0.5870394436
O  O3  1  0.49660000  0.75130000  0.78060000  1.0 -0.5840728012
O  O4  1  0.25090000  0.61150000  0.87357000  1.0 -0.5870394436
