# DDEC6 charges by PACMAN v1.1 (https://github.com/mtap-research/PACMAN-charge/)
data_NASHAS_ASR_pacman
_symmetry_space_group_name_H-M   'P 1'
_cell_length_a   12.62200000
_cell_length_b   8.11570000
_cell_length_c   23.66530000
_cell_angle_alpha   90.00000000
_cell_angle_beta   105.61400000
_cell_angle_gamma   90.00000000
_symmetry_Int_Tables_number   1
_chemical_formula_structural   SmBiH12C10N3O14
_chemical_formula_sum   'Sm4 Bi4 H48 C40 N12 O56'
_cell_volume   2334.72711784
_cell_formula_units_Z   4
loop_
 _symmetry_equiv_pos_site_id
 _symmetry_equiv_pos_as_xyz
  1  'x, y, z'
loop_
 _atom_site_type_symbol
 _atom_site_label
 _atom_site_symmetry_multiplicity
 _atom_site_fract_x
 _atom_site_fract_y
 _atom_site_fract_z
 _atom_site_occupancy
 _atom_site_charge
Sm  Sm1  1  0.20870000  0.99898000  0.11457000  1.0 1.9618368689
Sm  Sm2  1  0.79130000  0.49898000  0.38543000  1.0 1.9618368689
Sm  Sm3  1  0.79130000  0.00102000  0.88543000  1.0 1.9618368689
Sm  Sm4  1  0.20870000  0.50102000  0.61457000  1.0 1.9618368689
Bi  Bi1  1  0.27483000  0.17291000  0.86837000  1.0 1.177634919
Bi  Bi2  1  0.72517000  0.67291000  0.63163000  1.0 1.177634919
Bi  Bi3  1  0.72517000  0.82709000  0.13163000  1.0 1.177634919
Bi  Bi4  1  0.27483000  0.32709000  0.36837000  1.0 1.177634919
H  H1  1  0.21090000  0.76670000  0.91930000  1.0 0.1284445036
H  H2  1  0.78910000  0.26670000  0.58070000  1.0 0.1284445036
H  H3  1  0.78910000  0.23330000  0.08070000  1.0 0.1284445036
H  H4  1  0.21090000  0.73330000  0.41930000  1.0 0.1284445036
H  H5  1  0.33220000  0.72600000  0.95900000  1.0 0.1284445036
H  H6  1  0.66780000  0.22600000  0.54100000  1.0 0.1284445036
H  H7  1  0.66780000  0.27400000  0.04100000  1.0 0.1284445036
H  H8  1  0.33220000  0.77400000  0.45900000  1.0 0.1284445036
H  H9  1  0.47480000  0.93130000  0.95210000  1.0 0.1284445036
H  H10  1  0.52520000  0.43130000  0.54790000  1.0 0.1284445036
H  H11  1  0.52520000  0.06870000  0.04790000  1.0 0.1284445036
H  H12  1  0.47480000  0.56870000  0.45210000  1.0 0.1284445036
H  H13  1  0.48330000  0.77630000  0.91170000  1.0 0.136502238
H  H14  1  0.51670000  0.27630000  0.58830000  1.0 0.136502238
H  H15  1  0.51670000  0.22370000  0.08830000  1.0 0.136502238
H  H16  1  0.48330000  0.72370000  0.41170000  1.0 0.136502238
H  H17  1  0.34940000  0.79680000  0.81270000  1.0 0.1076892982
H  H18  1  0.65060000  0.29680000  0.68730000  1.0 0.1076892982
H  H19  1  0.65060000  0.20320000  0.18730000  1.0 0.1076892982
H  H20  1  0.34940000  0.70320000  0.31270000  1.0 0.1076892982
H  H21  1  0.30040000  0.66030000  0.84760000  1.0 0.1076892982
H  H22  1  0.69960000  0.16030000  0.65240000  1.0 0.1076892982
H  H23  1  0.69960000  0.33970000  0.15240000  1.0 0.1076892982
H  H24  1  0.30040000  0.83970000  0.34760000  1.0 0.1076892982
H  H25  1  0.12880000  0.79560000  0.82410000  1.0 0.09143495
H  H26  1  0.87120000  0.29560000  0.67590000  1.0 0.09143495
H  H27  1  0.87120000  0.20440000  0.17590000  1.0 0.09143495
H  H28  1  0.12880000  0.70440000  0.32410000  1.0 0.09143495
H  H29  1  0.16190000  0.75480000  0.76490000  1.0 0.1076892982
H  H30  1  0.83810000  0.25480000  0.73510000  1.0 0.1076892982
H  H31  1  0.83810000  0.24520000  0.23510000  1.0 0.1076892982
H  H32  1  0.16190000  0.74520000  0.26490000  1.0 0.1076892982
H  H33  1  0.27900000  0.96600000  0.73550000  1.0 0.1284445036
H  H34  1  0.72100000  0.46600000  0.76450000  1.0 0.1284445036
H  H35  1  0.72100000  0.03400000  0.26450000  1.0 0.1284445036
H  H36  1  0.27900000  0.53400000  0.23550000  1.0 0.1284445036
H  H37  1  0.15400000  0.98860000  0.69760000  1.0 0.1182569284
H  H38  1  0.84600000  0.48860000  0.80240000  1.0 0.1182569284
H  H39  1  0.84600000  0.01140000  0.30240000  1.0 0.1182569284
H  H40  1  0.15400000  0.51140000  0.19760000  1.0 0.1182569284
H  H41  1  0.04860000  0.16560000  0.75710000  1.0 0.1182569284
H  H42  1  0.95140000  0.66560000  0.74290000  1.0 0.1182569284
H  H43  1  0.95140000  0.83440000  0.24290000  1.0 0.1182569284
H  H44  1  0.04860000  0.33440000  0.25710000  1.0 0.1182569284
H  H45  1  0.00820000  0.97800000  0.74660000  1.0 0.1284445036
H  H46  1  0.99180000  0.47800000  0.75340000  1.0 0.1284445036
H  H47  1  0.99180000  0.02200000  0.25340000  1.0 0.1284445036
H  H48  1  0.00820000  0.52200000  0.24660000  1.0 0.1284445036
C  C1  1  0.28410000  0.81490000  0.93760000  1.0 -0.3090603408
C  C2  1  0.71590000  0.31490000  0.56240000  1.0 -0.3090603408
C  C3  1  0.71590000  0.18510000  0.06240000  1.0 -0.3090603408
C  C4  1  0.28410000  0.68510000  0.43760000  1.0 -0.3090603408
C  C5  1  0.27283000  0.94750000  0.98063000  1.0 0.6415739003
C  C6  1  0.72717000  0.44750000  0.51937000  1.0 0.6415739003
C  C7  1  0.72717000  0.05250000  0.01937000  1.0 0.6415739003
C  C8  1  0.27283000  0.55250000  0.48063000  1.0 0.6415739003
C  C9  1  0.45256000  0.88870000  0.91146000  1.0 -0.3180768546
C  C10  1  0.54744000  0.38870000  0.58854000  1.0 -0.3180768546
C  C11  1  0.54744000  0.11130000  0.08854000  1.0 -0.3180768546
C  C12  1  0.45256000  0.61130000  0.41146000  1.0 -0.3180768546
C  C13  1  0.49969000  0.99890000  0.87249000  1.0 0.6415739003
C  C14  1  0.50031000  0.49890000  0.62751000  1.0 0.6415739003
C  C15  1  0.50031000  0.00110000  0.12751000  1.0 0.6415739003
C  C16  1  0.49969000  0.50110000  0.37249000  1.0 0.6415739003
C  C17  1  0.29738000  0.77840000  0.83678000  1.0 -0.1534950976
C  C18  1  0.70262000  0.27840000  0.66322000  1.0 -0.1534950976
C  C19  1  0.70262000  0.22160000  0.16322000  1.0 -0.1534950976
C  C20  1  0.29738000  0.72160000  0.33678000  1.0 -0.1534950976
C  C21  1  0.18151000  0.82200000  0.80111000  1.0 -0.161429001
C  C22  1  0.81849000  0.32200000  0.69889000  1.0 -0.161429001
C  C23  1  0.81849000  0.17800000  0.19889000  1.0 -0.161429001
C  C24  1  0.18151000  0.67800000  0.30111000  1.0 -0.161429001
C  C25  1  0.21046000  0.02890000  0.73246000  1.0 -0.3090603408
C  C26  1  0.78954000  0.52890000  0.76754000  1.0 -0.3090603408
C  C27  1  0.78954000  0.97110000  0.26754000  1.0 -0.3090603408
C  C28  1  0.21046000  0.47110000  0.23246000  1.0 -0.3090603408
C  C29  1  0.23158000  0.21040000  0.72468000  1.0 0.650986338
C  C30  1  0.76842000  0.71040000  0.77532000  1.0 0.650986338
C  C31  1  0.76842000  0.78960000  0.27532000  1.0 0.650986338
C  C32  1  0.23158000  0.28960000  0.22468000  1.0 0.650986338
C  C33  1  0.05701000  0.05390000  0.77461000  1.0 -0.3090603408
C  C34  1  0.94299000  0.55390000  0.72539000  1.0 -0.3090603408
C  C35  1  0.94299000  0.94610000  0.22539000  1.0 -0.3090603408
C  C36  1  0.05701000  0.44610000  0.27461000  1.0 -0.3090603408
C  C37  1  0.02410000  0.05640000  0.83210000  1.0 0.6144684497
C  C38  1  0.97590000  0.55640000  0.66790000  1.0 0.6144684497
C  C39  1  0.97590000  0.94360000  0.16790000  1.0 0.6144684497
C  C40  1  0.02410000  0.44360000  0.33210000  1.0 0.6144684497
N  N1  1  0.33109000  0.88050000  0.89109000  1.0 -0.0621069894
N  N2  1  0.66891000  0.38050000  0.60891000  1.0 -0.0621069894
N  N3  1  0.66891000  0.11950000  0.10891000  1.0 -0.0621069894
N  N4  1  0.33109000  0.61950000  0.39109000  1.0 -0.0621069894
N  N5  1  0.17270000  0.99930000  0.78540000  1.0 -0.0698788455
N  N6  1  0.82730000  0.49930000  0.71460000  1.0 -0.0698788455
N  N7  1  0.82730000  0.00070000  0.21460000  1.0 -0.0698788455
N  N8  1  0.17270000  0.50070000  0.28540000  1.0 -0.0698788455
N  N9  1  0.14370000  0.84110000  0.57660000  1.0 0.4719407949
N  N10  1  0.85630000  0.34110000  0.92340000  1.0 0.4719407949
N  N11  1  0.85630000  0.15890000  0.42340000  1.0 0.4719407949
N  N12  1  0.14370000  0.65890000  0.07660000  1.0 0.4719407949
O  O1  1  0.30392000  0.09240000  0.97342000  1.0 -0.5704562303
O  O2  1  0.69608000  0.59240000  0.52658000  1.0 -0.5704562303
O  O3  1  0.69608000  0.90760000  0.02658000  1.0 -0.5704562303
O  O4  1  0.30392000  0.40760000  0.47342000  1.0 -0.5704562303
O  O5  1  0.23199000  0.90480000  0.02119000  1.0 -0.6702391487
O  O6  1  0.76801000  0.40480000  0.47881000  1.0 -0.6702391487
O  O7  1  0.76801000  0.09520000  0.97881000  1.0 -0.6702391487
O  O8  1  0.23199000  0.59520000  0.52119000  1.0 -0.6702391487
O  O9  1  0.43327000  0.10090000  0.83967000  1.0 -0.5328448173
O  O10  1  0.56673000  0.60090000  0.66033000  1.0 -0.5328448173
O  O11  1  0.56673000  0.89910000  0.16033000  1.0 -0.5328448173
O  O12  1  0.43327000  0.39910000  0.33967000  1.0 -0.5328448173
O  O13  1  0.59815000  0.98750000  0.87475000  1.0 -0.6510523018
O  O14  1  0.40185000  0.48750000  0.62525000  1.0 -0.6510523018
O  O15  1  0.40185000  0.01250000  0.12525000  1.0 -0.6510523018
O  O16  1  0.59815000  0.51250000  0.37475000  1.0 -0.6510523018
O  O17  1  0.25934000  0.29910000  0.77014000  1.0 -0.5704562303
O  O18  1  0.74066000  0.79910000  0.72986000  1.0 -0.5591605172
O  O19  1  0.74066000  0.70090000  0.22986000  1.0 -0.5591605172
O  O20  1  0.25934000  0.20090000  0.27014000  1.0 -0.5591605172
O  O21  1  0.22192000  0.25920000  0.67322000  1.0 -0.7018515077
O  O22  1  0.77808000  0.75920000  0.82678000  1.0 -0.7018515077
O  O23  1  0.77808000  0.74080000  0.32678000  1.0 -0.7018515077
O  O24  1  0.22192000  0.24080000  0.17322000  1.0 -0.7018515077
O  O25  1  0.10060000  0.07040000  0.87940000  1.0 -0.5591605172
O  O26  1  0.89940000  0.57040000  0.62060000  1.0 -0.5591605172
O  O27  1  0.89940000  0.92960000  0.12060000  1.0 -0.5591605172
O  O28  1  0.10060000  0.42960000  0.37940000  1.0 -0.5591605172
O  O29  1  0.92405000  0.04570000  0.82845000  1.0 -0.6702391487
O  O30  1  0.07595000  0.54570000  0.67155000  1.0 -0.6702391487
O  O31  1  0.07595000  0.95430000  0.17155000  1.0 -0.6702391487
O  O32  1  0.92405000  0.45430000  0.32845000  1.0 -0.6702391487
O  O33  1  0.25490000  0.70100000  0.11710000  1.0 -0.5591605172
O  O34  1  0.74510000  0.20100000  0.38290000  1.0 -0.5591605172
O  O35  1  0.74510000  0.29900000  0.88290000  1.0 -0.5591605172
O  O36  1  0.25490000  0.79900000  0.61710000  1.0 -0.5591605172
O  O37  1  0.04300000  0.82820000  0.05500000  1.0 -0.0969269593
O  O38  1  0.95700000  0.32820000  0.44500000  1.0 -0.0969269593
O  O39  1  0.95700000  0.17180000  0.94500000  1.0 -0.0969269593
O  O40  1  0.04300000  0.67180000  0.55500000  1.0 -0.0969269593
O  O41  1  0.08730000  0.00100000  0.53890000  1.0 -0.0194443391
O  O42  1  0.91270000  0.50100000  0.96110000  1.0 -0.0194443391
O  O43  1  0.91270000  0.99900000  0.46110000  1.0 -0.0194443391
O  O44  1  0.08730000  0.49900000  0.03890000  1.0 -0.0194443391
O  O45  1  0.22950000  0.81500000  0.61660000  1.0 -0.3821591568
O  O46  1  0.77050000  0.31500000  0.88340000  1.0 -0.3821591568
O  O47  1  0.77050000  0.18500000  0.38340000  1.0 -0.3821591568
O  O48  1  0.22950000  0.68500000  0.11660000  1.0 -0.3821591568
O  O49  1  0.07400000  0.72800000  0.56540000  1.0 -0.0194443391
O  O50  1  0.92600000  0.22800000  0.93460000  1.0 -0.0194443391
O  O51  1  0.92600000  0.27200000  0.43460000  1.0 -0.0194443391
O  O52  1  0.07400000  0.77200000  0.06540000  1.0 -0.0194443391
O  O53  1  0.12710000  0.97320000  0.55120000  1.0 0.1076892982
O  O54  1  0.87290000  0.47320000  0.94880000  1.0 0.09143495
O  O55  1  0.87290000  0.02680000  0.44880000  1.0 0.09143495
O  O56  1  0.12710000  0.52680000  0.05120000  1.0 0.0989392418
