# DDEC6 charges by PACMAN v1.1 (https://github.com/mtap-research/PACMAN-charge/)
data_NASRIL_FSR_pacman
_symmetry_space_group_name_H-M   'P 1'
_cell_length_a   16.94000000
_cell_length_b   16.94000000
_cell_length_c   16.94000000
_cell_angle_alpha   143.03400000
_cell_angle_beta   127.65500000
_cell_angle_gamma   65.80140000
_symmetry_Int_Tables_number   1
_chemical_formula_structural   CuH9C15NO5
_chemical_formula_sum   'Cu4 H36 C60 N4 O20'
_cell_volume   2282.88067204
_cell_formula_units_Z   4
loop_
 _symmetry_equiv_pos_site_id
 _symmetry_equiv_pos_as_xyz
  1  'x, y, z'
loop_
 _atom_site_type_symbol
 _atom_site_label
 _atom_site_symmetry_multiplicity
 _atom_site_fract_x
 _atom_site_fract_y
 _atom_site_fract_z
 _atom_site_occupancy
 _atom_site_charge
Cu  Cu1  1  0.46710000  0.05603000  0.58893000  1.0 0.8533413993
Cu  Cu2  1  0.03290000  0.62183000  0.58893000  1.0 0.8533413993
Cu  Cu3  1  0.53290000  0.94397000  0.41107000  1.0 0.8533413993
Cu  Cu4  1  0.96710000  0.37817000  0.41107000  1.0 0.8533413993
H  H1  1  0.23210000  0.73210000  0.00000000  1.0 0.1376823422
H  H2  1  0.26790000  0.26790000  0.50000000  1.0 0.1376823422
H  H3  1  0.76790000  0.26790000  0.00000000  1.0 0.1376823422
H  H4  1  0.73210000  0.73210000  0.50000000  1.0 0.1376823422
H  H5  1  0.21320000  0.73350000  0.22590000  1.0 0.1376823422
H  H6  1  0.28680000  0.51270000  0.52030000  1.0 0.1376823422
H  H7  1  0.49240000  0.26650000  0.47970000  1.0 0.1376823422
H  H8  1  0.00760000  0.48730000  0.77410000  1.0 0.1376823422
H  H9  1  0.78680000  0.26650000  0.77410000  1.0 0.1376823422
H  H10  1  0.71320000  0.48730000  0.47970000  1.0 0.1376823422
H  H11  1  0.50760000  0.73350000  0.52030000  1.0 0.1376823422
H  H12  1  0.99240000  0.51270000  0.22590000  1.0 0.1376823422
H  H13  1  0.88640000  0.68730000  0.95670000  1.0 0.1310598166
H  H14  1  0.61360000  0.57030000  0.80090000  1.0 0.1310598166
H  H15  1  0.26940000  0.31270000  0.19910000  1.0 0.1310598166
H  H16  1  0.23060000  0.42970000  0.04330000  1.0 0.1310598166
H  H17  1  0.11360000  0.31270000  0.04330000  1.0 0.1310598166
H  H18  1  0.38640000  0.42970000  0.19910000  1.0 0.1310598166
H  H19  1  0.73060000  0.68730000  0.80090000  1.0 0.1310598166
H  H20  1  0.76940000  0.57030000  0.95670000  1.0 0.1310598166
H  H21  1  0.99500000  0.77530000  0.10790000  1.0 0.1310598166
H  H22  1  0.50500000  0.61290000  0.78030000  1.0 0.1310598166
H  H23  1  0.33260000  0.22470000  0.21970000  1.0 0.1310598166
H  H24  1  0.16740000  0.38710000  0.89210000  1.0 0.1310598166
H  H25  1  0.00500000  0.22470000  0.89210000  1.0 0.1310598166
H  H26  1  0.49500000  0.38710000  0.21970000  1.0 0.1310598166
H  H27  1  0.66740000  0.77530000  0.78030000  1.0 0.1310598166
H  H28  1  0.83260000  0.61290000  0.10790000  1.0 0.1310598166
H  H29  1  0.90680000  0.77670000  0.11850000  1.0 0.124280891
H  H30  1  0.59320000  0.71170000  0.86990000  1.0 0.124280891
H  H31  1  0.34180000  0.22330000  0.13010000  1.0 0.124280891
H  H32  1  0.15820000  0.28830000  0.88150000  1.0 0.124280891
H  H33  1  0.09320000  0.22330000  0.88150000  1.0 0.124280891
H  H34  1  0.40680000  0.28830000  0.13010000  1.0 0.124280891
H  H35  1  0.65820000  0.77670000  0.86990000  1.0 0.124280891
H  H36  1  0.84180000  0.71170000  0.11850000  1.0 0.124280891
C  C1  1  0.23850000  0.74620000  0.13370000  1.0 0.0002506211
C  C2  1  0.26150000  0.39520000  0.50770000  1.0 0.0002506211
C  C3  1  0.38750000  0.25380000  0.49230000  1.0 0.0002506211
C  C4  1  0.11250000  0.60480000  0.86630000  1.0 0.0002506211
C  C5  1  0.76150000  0.25380000  0.86630000  1.0 0.0002506211
C  C6  1  0.73850000  0.60480000  0.49230000  1.0 0.0002506211
C  C7  1  0.61250000  0.74620000  0.50770000  1.0 0.0002506211
C  C8  1  0.88750000  0.39520000  0.13370000  1.0 0.0002506211
C  C9  1  0.10180000  0.60180000  0.00000000  1.0 0.1026659166
C  C10  1  0.39820000  0.39820000  0.50000000  1.0 0.1026659166
C  C11  1  0.89820000  0.39820000  0.00000000  1.0 0.1026659166
C  C12  1  0.60180000  0.60180000  0.50000000  1.0 0.1026659166
C  C13  1  0.33530000  0.84410000  0.27420000  1.0 0.5782885985
C  C14  1  0.16470000  0.43890000  0.50880000  1.0 0.5782885985
C  C15  1  0.43010000  0.15590000  0.49120000  1.0 0.5782885985
C  C16  1  0.06990000  0.56110000  0.72580000  1.0 0.5782885985
C  C17  1  0.66470000  0.15590000  0.72580000  1.0 0.5782885985
C  C18  1  0.83530000  0.56110000  0.49120000  1.0 0.5782885985
C  C19  1  0.56990000  0.84410000  0.50880000  1.0 0.5782885985
C  C20  1  0.93010000  0.43890000  0.27420000  1.0 0.5782885985
C  C21  1  0.97060000  0.60560000  0.02620000  1.0 0.0759885847
C  C22  1  0.52940000  0.55560000  0.63500000  1.0 0.0759885847
C  C23  1  0.42060000  0.39440000  0.36500000  1.0 0.0759885847
C  C24  1  0.07940000  0.44440000  0.97380000  1.0 0.0759885847
C  C25  1  0.02940000  0.39440000  0.97380000  1.0 0.0759885847
C  C26  1  0.47060000  0.44440000  0.36500000  1.0 0.0759885847
C  C27  1  0.57940000  0.60560000  0.63500000  1.0 0.0759885847
C  C28  1  0.92060000  0.55560000  0.02620000  1.0 0.0759885847
C  C29  1  0.19870000  0.69870000  0.00000000  1.0 -0.1285684569
C  C30  1  0.30130000  0.30130000  0.50000000  1.0 -0.1285684569
C  C31  1  0.80130000  0.30130000  0.00000000  1.0 -0.1285684569
C  C32  1  0.69870000  0.69870000  0.50000000  1.0 -0.1285684569
C  C33  1  0.18850000  0.69920000  0.13370000  1.0 -0.150854954
C  C34  1  0.31150000  0.44520000  0.51070000  1.0 -0.150854954
C  C35  1  0.43450000  0.30080000  0.48930000  1.0 -0.150854954
C  C36  1  0.06550000  0.55480000  0.86630000  1.0 -0.150854954
C  C37  1  0.81150000  0.30080000  0.86630000  1.0 -0.150854954
C  C38  1  0.68850000  0.55480000  0.48930000  1.0 -0.150854954
C  C39  1  0.56550000  0.69920000  0.51070000  1.0 -0.150854954
C  C40  1  0.93450000  0.44520000  0.13370000  1.0 -0.150854954
C  C41  1  0.04920000  0.54920000  0.00000000  1.0 -0.0690118907
C  C42  1  0.45080000  0.45080000  0.50000000  1.0 -0.0690118907
C  C43  1  0.95080000  0.45080000  0.00000000  1.0 -0.0690118907
C  C44  1  0.54920000  0.54920000  0.50000000  1.0 -0.0690118907
C  C45  1  0.42550000  0.26630000  0.84080000  1.0 0.5131165074
C  C46  1  0.07450000  0.91530000  0.84080000  1.0 0.5131165074
C  C47  1  0.57450000  0.73370000  0.15920000  1.0 0.5131165074
C  C48  1  0.92550000  0.08470000  0.15920000  1.0 0.5131165074
C  C49  1  0.43110000  0.51190000  0.08080000  1.0 -0.0317488947
C  C50  1  0.06890000  0.14970000  0.08080000  1.0 -0.0317488947
C  C51  1  0.56890000  0.48810000  0.91920000  1.0 -0.0317488947
C  C52  1  0.93110000  0.85030000  0.91920000  1.0 -0.0351789942
C  C53  1  0.93670000  0.72160000  0.05490000  1.0 -0.436248356
C  C54  1  0.56330000  0.61820000  0.78490000  1.0 -0.436248356
C  C55  1  0.33333333  0.27840000  0.21510000  1.0 -0.436248356
C  C56  1  0.16670000  0.38180000  0.94510000  1.0 -0.436248356
C  C57  1  0.06330000  0.27840000  0.94510000  1.0 -0.436248356
C  C58  1  0.43670000  0.38180000  0.21510000  1.0 -0.436248356
C  C59  1  0.66666667  0.72160000  0.78490000  1.0 -0.436248356
C  C60  1  0.83330000  0.61820000  0.05490000  1.0 -0.436248356
N  N1  1  0.42980000  0.37790000  0.94810000  1.0 -0.241094747
N  N2  1  0.07020000  0.01830000  0.94810000  1.0 -0.241094747
N  N3  1  0.57020000  0.62210000  0.05190000  1.0 -0.241094747
N  N4  1  0.92980000  0.98170000  0.05190000  1.0 -0.241094747
O  O1  1  0.34454000  0.92724000  0.40210000  1.0 -0.5122905238
O  O2  1  0.15546000  0.55756000  0.58270000  1.0 -0.5122905238
O  O3  1  0.47486000  0.07276000  0.41730000  1.0 -0.5122905238
O  O4  1  0.02514000  0.44244000  0.59790000  1.0 -0.5122905238
O  O5  1  0.65546000  0.07276000  0.59790000  1.0 -0.5122905238
O  O6  1  0.84454000  0.44244000  0.41730000  1.0 -0.5122905238
O  O7  1  0.52514000  0.92724000  0.58270000  1.0 -0.5122905238
O  O8  1  0.97486000  0.55756000  0.40210000  1.0 -0.5122905238
O  O9  1  0.39781000  0.83851000  0.25530000  1.0 -0.516792552
O  O10  1  0.10219000  0.35749000  0.44070000  1.0 -0.516792552
O  O11  1  0.41679000  0.16149000  0.55930000  1.0 -0.516792552
O  O12  1  0.08321000  0.64251000  0.74470000  1.0 -0.516792552
O  O13  1  0.60219000  0.16149000  0.74470000  1.0 -0.516792552
O  O14  1  0.89781000  0.64251000  0.55930000  1.0 -0.516792552
O  O15  1  0.58321000  0.83851000  0.44070000  1.0 -0.516792552
O  O16  1  0.91679000  0.35749000  0.25530000  1.0 -0.516792552
O  O17  1  0.42260000  0.17060000  0.74800000  1.0 -0.2603732212
O  O18  1  0.07740000  0.82540000  0.74800000  1.0 -0.2603732212
O  O19  1  0.57740000  0.82940000  0.25200000  1.0 -0.2603732212
O  O20  1  0.92260000  0.17460000  0.25200000  1.0 -0.2603732212
