# DDEC6 charges by PACMAN v1.1 (https://github.com/mtap-research/PACMAN-charge/)
data_NATHIC_ASR_pacman
_symmetry_space_group_name_H-M   'P 1'
_cell_length_a   20.77510000
_cell_length_b   20.77510000
_cell_length_c   7.62620000
_cell_angle_alpha   90.00000000
_cell_angle_beta   90.00000000
_cell_angle_gamma   91.47430000
_symmetry_Int_Tables_number   1
_chemical_formula_structural   ZnSiH24C40(N2F3)2
_chemical_formula_sum   'Zn2 Si2 H48 C80 N8 F12'
_cell_volume   3290.41477369
_cell_formula_units_Z   2
loop_
 _symmetry_equiv_pos_site_id
 _symmetry_equiv_pos_as_xyz
  1  'x, y, z'
loop_
 _atom_site_type_symbol
 _atom_site_label
 _atom_site_symmetry_multiplicity
 _atom_site_fract_x
 _atom_site_fract_y
 _atom_site_fract_z
 _atom_site_occupancy
 _atom_site_charge
Zn  Zn1  1  0.82698000  0.82698000  0.25000000  1.0 0.7471442209
Zn  Zn2  1  0.17302000  0.17302000  0.75000000  1.0 0.7471442209
Si  Si1  1  0.82530000  0.82530000  0.75000000  1.0 1.6800657795
Si  Si2  1  0.17470000  0.17470000  0.25000000  1.0 1.6800657795
H  H1  1  0.82730000  0.94150000  0.50580000  1.0 0.1217954583
H  H2  1  0.94150000  0.82730000  0.99420000  1.0 0.1217954583
H  H3  1  0.82730000  0.94150000  0.99420000  1.0 0.1217954583
H  H4  1  0.94150000  0.82730000  0.50580000  1.0 0.1217954583
H  H5  1  0.83710000  0.05230000  0.51230000  1.0 0.1289277386
H  H6  1  0.05230000  0.83710000  0.98770000  1.0 0.1289277386
H  H7  1  0.83710000  0.05230000  0.98770000  1.0 0.1289277386
H  H8  1  0.05230000  0.83710000  0.51230000  1.0 0.1289277386
H  H9  1  0.83550000  0.27270000  0.51820000  1.0 0.1145972521
H  H10  1  0.27270000  0.83550000  0.98180000  1.0 0.1145972521
H  H11  1  0.83550000  0.27270000  0.98180000  1.0 0.1145972521
H  H12  1  0.27270000  0.83550000  0.51820000  1.0 0.1145972521
H  H13  1  0.83120000  0.38560000  0.50870000  1.0 0.1289277386
H  H14  1  0.38560000  0.83120000  0.99130000  1.0 0.1289277386
H  H15  1  0.83120000  0.38560000  0.99130000  1.0 0.1289277386
H  H16  1  0.38560000  0.83120000  0.50870000  1.0 0.1289277386
H  H17  1  0.82090000  0.71150000  0.49600000  1.0 0.1217954583
H  H18  1  0.71150000  0.82090000  0.00400000  1.0 0.1217954583
H  H19  1  0.82090000  0.71150000  0.00400000  1.0 0.1217954583
H  H20  1  0.71150000  0.82090000  0.49600000  1.0 0.1217954583
H  H21  1  0.83430000  0.60230000  0.50540000  1.0 0.1418580995
H  H22  1  0.60230000  0.83430000  0.99460000  1.0 0.1418580995
H  H23  1  0.83430000  0.60230000  0.99460000  1.0 0.1418580995
H  H24  1  0.60230000  0.83430000  0.50540000  1.0 0.1418580995
H  H25  1  0.17270000  0.05850000  0.00580000  1.0 0.1217954583
H  H26  1  0.05850000  0.17270000  0.49420000  1.0 0.1217954583
H  H27  1  0.17270000  0.05850000  0.49420000  1.0 0.1217954583
H  H28  1  0.05850000  0.17270000  0.00580000  1.0 0.1217954583
H  H29  1  0.16290000  0.94770000  0.01230000  1.0 0.1289277386
H  H30  1  0.94770000  0.16290000  0.48770000  1.0 0.1289277386
H  H31  1  0.16290000  0.94770000  0.48770000  1.0 0.1289277386
H  H32  1  0.94770000  0.16290000  0.01230000  1.0 0.1289277386
H  H33  1  0.16450000  0.72730000  0.01820000  1.0 0.1145972521
H  H34  1  0.72730000  0.16450000  0.48180000  1.0 0.1145972521
H  H35  1  0.16450000  0.72730000  0.48180000  1.0 0.1145972521
H  H36  1  0.72730000  0.16450000  0.01820000  1.0 0.1145972521
H  H37  1  0.16880000  0.61440000  0.00870000  1.0 0.1289277386
H  H38  1  0.61440000  0.16880000  0.49130000  1.0 0.1289277386
H  H39  1  0.16880000  0.61440000  0.49130000  1.0 0.1289277386
H  H40  1  0.61440000  0.16880000  0.00870000  1.0 0.1289277386
H  H41  1  0.17910000  0.28850000  0.99600000  1.0 0.1217954583
H  H42  1  0.28850000  0.17910000  0.50400000  1.0 0.1217954583
H  H43  1  0.17910000  0.28850000  0.50400000  1.0 0.1217954583
H  H44  1  0.28850000  0.17910000  0.99600000  1.0 0.1217954583
H  H45  1  0.16570000  0.39770000  0.00540000  1.0 0.1418580995
H  H46  1  0.39770000  0.16570000  0.49460000  1.0 0.1418580995
H  H47  1  0.16570000  0.39770000  0.49460000  1.0 0.1418580995
H  H48  1  0.39770000  0.16570000  0.00540000  1.0 0.1418580995
C  C1  1  0.82710000  0.52310000  0.25000000  1.0 -0.1098396941
C  C2  1  0.52310000  0.82710000  0.25000000  1.0 -0.1098396941
C  C3  1  0.83500000  0.06560000  0.25000000  1.0 0.1652025343
C  C4  1  0.06560000  0.83500000  0.25000000  1.0 0.1652025343
C  C5  1  0.83380000  0.19200000  0.25000000  1.0 -0.0945938802
C  C6  1  0.19200000  0.83380000  0.25000000  1.0 -0.0945938802
C  C7  1  0.82690000  0.59130000  0.25000000  1.0 0.1580355228
C  C8  1  0.59130000  0.82690000  0.25000000  1.0 0.1580355228
C  C9  1  0.83320000  0.25960000  0.25000000  1.0 0.1289277386
C  C10  1  0.25960000  0.83320000  0.25000000  1.0 0.1289277386
C  C11  1  0.82960000  0.96420000  0.39770000  1.0 0.1003121534
C  C12  1  0.96420000  0.82960000  0.10230000  1.0 0.1003121534
C  C13  1  0.82960000  0.96420000  0.10230000  1.0 0.1003121534
C  C14  1  0.96420000  0.82960000  0.39770000  1.0 0.1003121534
C  C15  1  0.83430000  0.03070000  0.40260000  1.0 -0.1891441694
C  C16  1  0.03070000  0.83430000  0.09740000  1.0 -0.1891441694
C  C17  1  0.83430000  0.03070000  0.09740000  1.0 -0.1891441694
C  C18  1  0.03070000  0.83430000  0.40260000  1.0 -0.1891441694
C  C19  1  0.82840000  0.39300000  0.25000000  1.0 0.1289277386
C  C20  1  0.39300000  0.82840000  0.25000000  1.0 0.1289277386
C  C21  1  0.83350000  0.29450000  0.40900000  1.0 -0.1336025386
C  C22  1  0.29450000  0.83350000  0.09100000  1.0 -0.1336025386
C  C23  1  0.83350000  0.29450000  0.09100000  1.0 -0.1336025386
C  C24  1  0.29450000  0.83350000  0.40900000  1.0 -0.1336025386
C  C25  1  0.82230000  0.46230000  0.25000000  1.0 -0.0746330186
C  C26  1  0.46230000  0.82230000  0.25000000  1.0 -0.0746330186
C  C27  1  0.83100000  0.36180000  0.40200000  1.0 -0.1361485435
C  C28  1  0.36180000  0.83100000  0.09800000  1.0 -0.1361485435
C  C29  1  0.83100000  0.36180000  0.09800000  1.0 -0.1361485435
C  C30  1  0.36180000  0.83100000  0.40200000  1.0 -0.1361485435
C  C31  1  0.82420000  0.68960000  0.38700000  1.0 0.1003121534
C  C32  1  0.68960000  0.82420000  0.11300000  1.0 0.1003121534
C  C33  1  0.82420000  0.68960000  0.11300000  1.0 0.1003121534
C  C34  1  0.68960000  0.82420000  0.38700000  1.0 0.1003121534
C  C35  1  0.82920000  0.62360000  0.39600000  1.0 -0.1891441694
C  C36  1  0.62360000  0.82920000  0.10400000  1.0 -0.1891441694
C  C37  1  0.82920000  0.62360000  0.10400000  1.0 -0.1891441694
C  C38  1  0.62360000  0.82920000  0.39600000  1.0 -0.1891441694
C  C39  1  0.83510000  0.13530000  0.25000000  1.0 -0.1011344953
C  C40  1  0.13530000  0.83510000  0.25000000  1.0 -0.1011344953
C  C41  1  0.17290000  0.47690000  0.75000000  1.0 -0.1098396941
C  C42  1  0.47690000  0.17290000  0.75000000  1.0 -0.1098396941
C  C43  1  0.16500000  0.93440000  0.75000000  1.0 0.1652025343
C  C44  1  0.93440000  0.16500000  0.75000000  1.0 0.1652025343
C  C45  1  0.16620000  0.80800000  0.75000000  1.0 -0.0945938802
C  C46  1  0.80800000  0.16620000  0.75000000  1.0 -0.0945938802
C  C47  1  0.17310000  0.40870000  0.75000000  1.0 0.1580355228
C  C48  1  0.40870000  0.17310000  0.75000000  1.0 0.1580355228
C  C49  1  0.16680000  0.74040000  0.75000000  1.0 0.1289277386
C  C50  1  0.74040000  0.16680000  0.75000000  1.0 0.1289277386
C  C51  1  0.17040000  0.03580000  0.89770000  1.0 0.1003121534
C  C52  1  0.03580000  0.17040000  0.60230000  1.0 0.1003121534
C  C53  1  0.17040000  0.03580000  0.60230000  1.0 0.1003121534
C  C54  1  0.03580000  0.17040000  0.89770000  1.0 0.1003121534
C  C55  1  0.16570000  0.96930000  0.90260000  1.0 -0.1891441694
C  C56  1  0.96930000  0.16570000  0.59740000  1.0 -0.1891441694
C  C57  1  0.16570000  0.96930000  0.59740000  1.0 -0.1891441694
C  C58  1  0.96930000  0.16570000  0.90260000  1.0 -0.1891441694
C  C59  1  0.17160000  0.60700000  0.75000000  1.0 0.1289277386
C  C60  1  0.60700000  0.17160000  0.75000000  1.0 0.1289277386
C  C61  1  0.16650000  0.70550000  0.90900000  1.0 -0.1336025386
C  C62  1  0.70550000  0.16650000  0.59100000  1.0 -0.1336025386
C  C63  1  0.16650000  0.70550000  0.59100000  1.0 -0.1336025386
C  C64  1  0.70550000  0.16650000  0.90900000  1.0 -0.1336025386
C  C65  1  0.17770000  0.53770000  0.75000000  1.0 -0.0751243396
C  C66  1  0.53770000  0.17770000  0.75000000  1.0 -0.0751243396
C  C67  1  0.16900000  0.63820000  0.90200000  1.0 -0.1361485435
C  C68  1  0.63820000  0.16900000  0.59800000  1.0 -0.1361485435
C  C69  1  0.16900000  0.63820000  0.59800000  1.0 -0.1361485435
C  C70  1  0.63820000  0.16900000  0.90200000  1.0 -0.1361485435
C  C71  1  0.17580000  0.31040000  0.88700000  1.0 0.1003121534
C  C72  1  0.31040000  0.17580000  0.61300000  1.0 0.1003121534
C  C73  1  0.17580000  0.31040000  0.61300000  1.0 0.1003121534
C  C74  1  0.31040000  0.17580000  0.88700000  1.0 0.1003121534
C  C75  1  0.17080000  0.37640000  0.89600000  1.0 -0.1891441694
C  C76  1  0.37640000  0.17080000  0.60400000  1.0 -0.1891441694
C  C77  1  0.17080000  0.37640000  0.60400000  1.0 -0.1891441694
C  C78  1  0.37640000  0.17080000  0.89600000  1.0 -0.1891441694
C  C79  1  0.16490000  0.86470000  0.75000000  1.0 -0.1011344953
C  C80  1  0.86470000  0.16490000  0.75000000  1.0 -0.1011344953
N  N1  1  0.82360000  0.72420000  0.25000000  1.0 -0.2266134
N  N2  1  0.72420000  0.82360000  0.25000000  1.0 -0.2266134
N  N3  1  0.82820000  0.93020000  0.25000000  1.0 -0.2266134
N  N4  1  0.93020000  0.82820000  0.25000000  1.0 -0.2266134
N  N5  1  0.17640000  0.27580000  0.75000000  1.0 -0.2266134
N  N6  1  0.27580000  0.17640000  0.75000000  1.0 -0.2266134
N  N7  1  0.17180000  0.06980000  0.75000000  1.0 -0.2266134
N  N8  1  0.06980000  0.17180000  0.75000000  1.0 -0.2266134
F  F1  1  0.88260000  0.77060000  0.75000000  1.0 -0.5386658325
F  F2  1  0.77060000  0.88260000  0.75000000  1.0 -0.5386658325
F  F3  1  0.82620000  0.82620000  0.97250000  1.0 -0.5051732375
F  F4  1  0.82620000  0.82620000  0.52750000  1.0 -0.5046074702
F  F5  1  0.76780000  0.76780000  0.75000000  1.0 -0.5578892245
F  F6  1  0.88300000  0.88300000  0.75000000  1.0 -0.5187120153
F  F7  1  0.11740000  0.22940000  0.25000000  1.0 -0.5386658325
F  F8  1  0.22940000  0.11740000  0.25000000  1.0 -0.5386658325
F  F9  1  0.17380000  0.17380000  0.47250000  1.0 -0.5051732375
F  F10  1  0.17380000  0.17380000  0.02750000  1.0 -0.5051732375
F  F11  1  0.23220000  0.23220000  0.25000000  1.0 -0.5578892245
F  F12  1  0.11700000  0.11700000  0.25000000  1.0 -0.5187120153
