# DDEC6 charges by PACMAN v1.1 (https://github.com/mtap-research/PACMAN-charge/)
data_NATHOH_ASR_pacman
_symmetry_space_group_name_H-M   'P 1'
_cell_length_a   17.04970000
_cell_length_b   17.04970000
_cell_length_c   24.90800000
_cell_angle_alpha   59.92860000
_cell_angle_beta   120.07100000
_cell_angle_gamma   129.40200000
_symmetry_Int_Tables_number   1
_chemical_formula_structural   Na2Mn2Zn3Mo12P10H16C12(N4O25)2
_chemical_formula_sum   'Na4 Mn4 Zn6 Mo24 P20 H32 C24 N16 O100'
_cell_volume   4656.95417998
_cell_formula_units_Z   2
loop_
 _symmetry_equiv_pos_site_id
 _symmetry_equiv_pos_as_xyz
  1  'x, y, z'
loop_
 _atom_site_type_symbol
 _atom_site_label
 _atom_site_symmetry_multiplicity
 _atom_site_fract_x
 _atom_site_fract_y
 _atom_site_fract_z
 _atom_site_occupancy
 _atom_site_charge
Na  Na1  1  0.78977000  0.72543000  0.70599000  1.0 0.8916451898
Na  Na2  1  0.72543000  0.78977000  0.79401000  1.0 0.8916451898
Na  Na3  1  0.21023000  0.27457000  0.29401000  1.0 0.8916451898
Na  Na4  1  0.27457000  0.21023000  0.20599000  1.0 0.8916451898
Mn  Mn1  1  0.00000000  0.50000000  0.00000000  1.0 1.278048512
Mn  Mn2  1  0.50000000  0.00000000  0.50000000  1.0 1.278048512
Mn  Mn3  1  0.58248000  0.58248000  0.75000000  1.0 1.0861116019
Mn  Mn4  1  0.41752000  0.41752000  0.25000000  1.0 1.0861116019
Zn  Zn1  1  0.52252000  0.43896000  0.59271000  1.0 0.9478516545
Zn  Zn2  1  0.43896000  0.52252000  0.90729000  1.0 0.9478516545
Zn  Zn3  1  0.47748000  0.56104000  0.40729000  1.0 0.9478516545
Zn  Zn4  1  0.56104000  0.47748000  0.09271000  1.0 0.9478516545
Zn  Zn5  1  0.14334000  0.14334000  0.75000000  1.0 0.6785560218
Zn  Zn6  1  0.85666000  0.85666000  0.25000000  1.0 0.6785560218
Mo  Mo1  1  0.73231000  0.35405000  0.88856000  1.0 1.8736750649
Mo  Mo2  1  0.35405000  0.73231000  0.61144000  1.0 1.8736750649
Mo  Mo3  1  0.26769000  0.64595000  0.11144000  1.0 1.8736750649
Mo  Mo4  1  0.64595000  0.26769000  0.38856000  1.0 1.8762938943
Mo  Mo5  1  0.93295000  0.57973000  0.81511000  1.0 1.929988977
Mo  Mo6  1  0.57973000  0.93295000  0.68489000  1.0 1.929988977
Mo  Mo7  1  0.06705000  0.42027000  0.18489000  1.0 1.9371378786
Mo  Mo8  1  0.42027000  0.06705000  0.31511000  1.0 1.9371378786
Mo  Mo9  1  0.70514000  0.35602000  0.98178000  1.0 1.929988977
Mo  Mo10  1  0.35602000  0.70514000  0.51822000  1.0 1.9371378786
Mo  Mo11  1  0.29486000  0.64398000  0.01822000  1.0 1.929988977
Mo  Mo12  1  0.64398000  0.29486000  0.48178000  1.0 1.929988977
Mo  Mo13  1  0.86956000  0.58378000  0.03486000  1.0 1.8625039544
Mo  Mo14  1  0.58378000  0.86956000  0.46514000  1.0 1.8625039544
Mo  Mo15  1  0.13044000  0.41622000  0.96514000  1.0 1.8625039544
Mo  Mo16  1  0.41622000  0.13044000  0.53486000  1.0 1.8625039544
Mo  Mo17  1  0.01923000  0.74899000  0.98212000  1.0 1.8401717511
Mo  Mo18  1  0.74899000  0.01923000  0.51788000  1.0 1.8472831216
Mo  Mo19  1  0.98077000  0.25101000  0.01788000  1.0 1.8625039544
Mo  Mo20  1  0.25101000  0.98077000  0.48212000  1.0 1.8401717511
Mo  Mo21  1  0.05379000  0.74723000  0.85531000  1.0 1.7196472254
Mo  Mo22  1  0.74723000  0.05379000  0.64469000  1.0 1.7196472254
Mo  Mo23  1  0.94621000  0.25277000  0.14469000  1.0 1.7409822908
Mo  Mo24  1  0.25277000  0.94621000  0.35531000  1.0 1.7333203521
P  P1  1  0.80777000  0.60321000  0.87445000  1.0 1.49985778
P  P2  1  0.60321000  0.80777000  0.62555000  1.0 1.49985778
P  P3  1  0.19223000  0.39679000  0.12555000  1.0 1.49985778
P  P4  1  0.39679000  0.19223000  0.37445000  1.0 1.49985778
P  P5  1  0.60759000  0.46291000  0.99375000  1.0 1.5111601618
P  P6  1  0.46291000  0.60759000  0.50625000  1.0 1.5111601618
P  P7  1  0.39241000  0.53709000  0.00625000  1.0 1.5111601618
P  P8  1  0.53709000  0.39241000  0.49375000  1.0 1.5111601618
P  P9  1  0.68245000  0.46913000  0.73111000  1.0 1.5338858929
P  P10  1  0.46913000  0.68245000  0.76889000  1.0 1.5338858929
P  P11  1  0.31755000  0.53087000  0.26889000  1.0 1.5338858929
P  P12  1  0.53087000  0.31755000  0.23111000  1.0 1.5338858929
P  P13  1  0.02309000  0.93071000  0.84231000  1.0 0.5824963715
P  P14  1  0.93071000  0.02309000  0.65769000  1.0 0.5824963715
P  P15  1  0.97691000  0.06929000  0.15769000  1.0 0.5824963715
P  P16  1  0.06929000  0.97691000  0.34231000  1.0 0.5824963715
P  P17  1  0.09870000  0.96130000  0.85850000  1.0 0.3801778522
P  P18  1  0.96130000  0.09870000  0.64150000  1.0 0.3896479971
P  P19  1  0.90130000  0.03870000  0.14150000  1.0 0.3896479971
P  P20  1  0.03870000  0.90130000  0.35850000  1.0 0.3896479971
H  H1  1  0.20800000  0.09300000  0.62570000  1.0 0.2987555828
H  H2  1  0.09300000  0.20800000  0.87430000  1.0 0.2987555828
H  H3  1  0.79200000  0.90700000  0.37430000  1.0 0.2987555828
H  H4  1  0.90700000  0.79200000  0.12570000  1.0 0.2987555828
H  H5  1  0.27020000  0.51200000  0.71480000  1.0 0.2946916487
H  H6  1  0.51200000  0.27020000  0.78520000  1.0 0.2946916487
H  H7  1  0.72980000  0.48800000  0.28520000  1.0 0.2946916487
H  H8  1  0.48800000  0.72980000  0.21480000  1.0 0.2946916487
H  H9  1  0.40050000  0.18790000  0.64820000  1.0 0.11992735
H  H10  1  0.18790000  0.40050000  0.85180000  1.0 0.11992735
H  H11  1  0.59950000  0.81210000  0.35180000  1.0 0.11992735
H  H12  1  0.81210000  0.59950000  0.14820000  1.0 0.11992735
H  H13  1  0.30130000  0.38650000  0.57690000  1.0 0.1406828579
H  H14  1  0.38650000  0.30130000  0.92310000  1.0 0.1406828579
H  H15  1  0.69870000  0.61350000  0.42310000  1.0 0.1406828579
H  H16  1  0.61350000  0.69870000  0.07690000  1.0 0.1406828579
H  H17  1  0.14270000  0.20270000  0.59770000  1.0 0.11992735
H  H18  1  0.20270000  0.14270000  0.90230000  1.0 0.11992735
H  H19  1  0.85730000  0.79730000  0.40230000  1.0 0.11992735
H  H20  1  0.79730000  0.85730000  0.09770000  1.0 0.11992735
H  H21  1  0.31040000  0.37860000  0.75800000  1.0 0.1031797495
H  H22  1  0.37860000  0.31040000  0.74200000  1.0 0.1031797495
H  H23  1  0.68960000  0.62140000  0.24200000  1.0 0.1031797495
H  H24  1  0.62140000  0.68960000  0.25800000  1.0 0.1031797495
H  H25  1  0.00510000  0.24250000  0.69620000  1.0 0.1125835637
H  H26  1  0.24250000  0.00510000  0.80380000  1.0 0.1125835637
H  H27  1  0.99490000  0.75750000  0.30380000  1.0 0.1125835637
H  H28  1  0.75750000  0.99490000  0.19620000  1.0 0.1125835637
H  H29  1  0.07710000  0.43250000  0.67920000  1.0 0.1313697365
H  H30  1  0.43250000  0.07710000  0.82080000  1.0 0.1313697365
H  H31  1  0.92290000  0.56750000  0.32080000  1.0 0.1313697365
H  H32  1  0.56750000  0.92290000  0.17920000  1.0 0.1313697365
C  C1  1  0.35580000  0.21460000  0.62800000  1.0 0.1125835637
C  C2  1  0.21460000  0.35580000  0.87200000  1.0 0.1125835637
C  C3  1  0.64420000  0.78540000  0.37200000  1.0 0.11992735
C  C4  1  0.78540000  0.64420000  0.12800000  1.0 0.1125835637
C  C5  1  0.29870000  0.32370000  0.58940000  1.0 -0.0232018293
C  C6  1  0.32370000  0.29870000  0.91060000  1.0 -0.0232018293
C  C7  1  0.70130000  0.67630000  0.41060000  1.0 -0.0232018293
C  C8  1  0.67630000  0.70130000  0.08940000  1.0 -0.0232018293
C  C9  1  0.20950000  0.22190000  0.60140000  1.0 -0.0232018293
C  C10  1  0.22190000  0.20950000  0.89860000  1.0 -0.0232018293
C  C11  1  0.79050000  0.77810000  0.39860000  1.0 -0.0232018293
C  C12  1  0.77810000  0.79050000  0.10140000  1.0 -0.0232018293
C  C13  1  0.24310000  0.36930000  0.73800000  1.0 0.1406828579
C  C14  1  0.36930000  0.24310000  0.76200000  1.0 0.1406828579
C  C15  1  0.75690000  0.63070000  0.26200000  1.0 0.1406828579
C  C16  1  0.63070000  0.75690000  0.23800000  1.0 0.1406828579
C  C17  1  0.07600000  0.29460000  0.70490000  1.0 -0.0490012579
C  C18  1  0.29460000  0.07600000  0.79510000  1.0 -0.0490012579
C  C19  1  0.92400000  0.70540000  0.29510000  1.0 -0.0490012579
C  C20  1  0.70540000  0.92400000  0.20490000  1.0 -0.0490012579
C  C21  1  0.11560000  0.40020000  0.69560000  1.0 -0.0490012579
C  C22  1  0.40020000  0.11560000  0.80440000  1.0 -0.0490012579
C  C23  1  0.88440000  0.59980000  0.30440000  1.0 -0.0490012579
C  C24  1  0.59980000  0.88440000  0.19560000  1.0 -0.0490012579
N  N1  1  0.37940000  0.31700000  0.59870000  1.0 -0.2938645664
N  N2  1  0.31700000  0.37940000  0.90130000  1.0 -0.2938645664
N  N3  1  0.62060000  0.68300000  0.40130000  1.0 -0.2938645664
N  N4  1  0.68300000  0.62060000  0.09870000  1.0 -0.2938645664
N  N5  1  0.24750000  0.16030000  0.61970000  1.0 -0.1681939546
N  N6  1  0.16030000  0.24750000  0.88030000  1.0 -0.1681939546
N  N7  1  0.75250000  0.83970000  0.38030000  1.0 -0.1681939546
N  N8  1  0.83970000  0.75250000  0.11970000  1.0 -0.1681939546
N  N9  1  0.15980000  0.28140000  0.72910000  1.0 -0.3020900223
N  N10  1  0.28140000  0.15980000  0.77090000  1.0 -0.3020900223
N  N11  1  0.84020000  0.71860000  0.27090000  1.0 -0.3020900223
N  N12  1  0.71860000  0.84020000  0.22910000  1.0 -0.3020900223
N  N13  1  0.22420000  0.44660000  0.71600000  1.0 -0.1944560814
N  N14  1  0.44660000  0.22420000  0.78400000  1.0 -0.1944560814
N  N15  1  0.77580000  0.55340000  0.28400000  1.0 -0.1944560814
N  N16  1  0.55340000  0.77580000  0.21600000  1.0 -0.1944560814
O  O1  1  0.80726000  0.53154000  0.85320000  1.0 -0.8898922983
O  O2  1  0.53154000  0.80726000  0.64680000  1.0 -0.8898922983
O  O3  1  0.19274000  0.46846000  0.14680000  1.0 -0.8898922983
O  O4  1  0.46846000  0.19274000  0.35320000  1.0 -0.8898922983
O  O5  1  0.92348000  0.69492000  0.89030000  1.0 -0.8522262309
O  O6  1  0.69492000  0.92348000  0.60970000  1.0 -0.8522262309
O  O7  1  0.07652000  0.30508000  0.10970000  1.0 -0.8522262309
O  O8  1  0.30508000  0.07652000  0.39030000  1.0 -0.8522262309
O  O9  1  0.77587000  0.53593000  0.93860000  1.0 -0.868244696
O  O10  1  0.53593000  0.77587000  0.56140000  1.0 -0.868244696
O  O11  1  0.22413000  0.46407000  0.06140000  1.0 -0.868244696
O  O12  1  0.46407000  0.22413000  0.43860000  1.0 -0.868244696
O  O13  1  0.83178000  0.39062000  0.97080000  1.0 -0.9262537841
O  O14  1  0.39062000  0.83178000  0.52920000  1.0 -0.9262537841
O  O15  1  0.16822000  0.60938000  0.02920000  1.0 -0.9262537841
O  O16  1  0.60938000  0.16822000  0.47080000  1.0 -0.9262537841
O  O17  1  0.02012000  0.60028000  0.90230000  1.0 -0.9096542375
O  O18  1  0.60028000  0.02012000  0.59770000  1.0 -0.8995327387
O  O19  1  0.97988000  0.39972000  0.09770000  1.0 -0.9096542375
O  O20  1  0.39972000  0.97988000  0.40230000  1.0 -0.9096542375
O  O21  1  0.98338000  0.60042000  0.02000000  1.0 -0.9096542375
O  O22  1  0.60042000  0.98338000  0.48000000  1.0 -0.9096542375
O  O23  1  0.01662000  0.39958000  0.98000000  1.0 -0.9096542375
O  O24  1  0.39958000  0.01662000  0.52000000  1.0 -0.9096542375
O  O25  1  0.12470000  0.77290000  0.94710000  1.0 -0.980539653
O  O26  1  0.77290000  0.12470000  0.55290000  1.0 -0.980539653
O  O27  1  0.87530000  0.22710000  0.05290000  1.0 -0.980539653
O  O28  1  0.22710000  0.87530000  0.44710000  1.0 -0.980539653
O  O29  1  0.88851000  0.72169000  0.97870000  1.0 -0.8225673247
O  O30  1  0.72169000  0.88851000  0.52130000  1.0 -0.8225673247
O  O31  1  0.11149000  0.27831000  0.02130000  1.0 -0.8225673247
O  O32  1  0.27831000  0.11149000  0.47870000  1.0 -0.8225673247
O  O33  1  0.80751000  0.42129000  0.05990000  1.0 -0.9672345403
O  O34  1  0.42129000  0.80751000  0.44010000  1.0 -0.9672345403
O  O35  1  0.19249000  0.57871000  0.94010000  1.0 -0.9672345403
O  O36  1  0.57871000  0.19249000  0.55990000  1.0 -0.9672345403
O  O37  1  0.62130000  0.35250000  0.89350000  1.0 -0.8522262309
O  O38  1  0.35250000  0.62130000  0.60650000  1.0 -0.8522262309
O  O39  1  0.37870000  0.64750000  0.10650000  1.0 -0.8522262309
O  O40  1  0.64750000  0.37870000  0.39350000  1.0 -0.8522262309
O  O41  1  0.86486000  0.41654000  0.86130000  1.0 -0.980539653
O  O42  1  0.41654000  0.86486000  0.63870000  1.0 -0.980539653
O  O43  1  0.13514000  0.58346000  0.13870000  1.0 -0.980539653
O  O44  1  0.58346000  0.13514000  0.36130000  1.0 -0.980539653
O  O45  1  0.94070000  0.71470000  0.77660000  1.0 -0.8995327387
O  O46  1  0.71470000  0.94070000  0.72340000  1.0 -0.8995327387
O  O47  1  0.05930000  0.28530000  0.22340000  1.0 -0.8995327387
O  O48  1  0.28530000  0.05930000  0.27660000  1.0 -0.8995327387
O  O49  1  0.65830000  0.37190000  0.79180000  1.0 -0.8225673247
O  O50  1  0.37190000  0.65830000  0.70820000  1.0 -0.8225673247
O  O51  1  0.34170000  0.62810000  0.20820000  1.0 -0.8225673247
O  O52  1  0.62810000  0.34170000  0.29180000  1.0 -0.8225673247
O  O53  1  0.80270000  0.53250000  0.73900000  1.0 -0.8225673247
O  O54  1  0.53250000  0.80270000  0.76100000  1.0 -0.8225673247
O  O55  1  0.19730000  0.46750000  0.26100000  1.0 -0.8225673247
O  O56  1  0.46750000  0.19730000  0.23900000  1.0 -0.8225673247
O  O57  1  0.62570000  0.42430000  0.67420000  1.0 -0.7996546287
O  O58  1  0.42430000  0.62570000  0.82580000  1.0 -0.7996546287
O  O59  1  0.37430000  0.57570000  0.32580000  1.0 -0.7996546287
O  O60  1  0.57570000  0.37430000  0.17420000  1.0 -0.7996546287
O  O61  1  0.64930000  0.53970000  0.72290000  1.0 -0.8898922983
O  O62  1  0.53970000  0.64930000  0.77710000  1.0 -0.8898922983
O  O63  1  0.35070000  0.46030000  0.27710000  1.0 -0.8898922983
O  O64  1  0.46030000  0.35070000  0.22290000  1.0 -0.8898922983
O  O65  1  0.73640000  0.64500000  0.82160000  1.0 -0.8522262309
O  O66  1  0.64500000  0.73640000  0.67840000  1.0 -0.8522262309
O  O67  1  0.26360000  0.35500000  0.17840000  1.0 -0.8522262309
O  O68  1  0.35500000  0.26360000  0.32160000  1.0 -0.8522262309
O  O69  1  0.06190000  0.88770000  0.82470000  1.0 -0.5355191264
O  O70  1  0.88770000  0.06190000  0.67530000  1.0 -0.5355191264
O  O71  1  0.93810000  0.11230000  0.17530000  1.0 -0.5355191264
O  O72  1  0.11230000  0.93810000  0.32470000  1.0 -0.5355191264
O  O73  1  0.03730000  0.89070000  0.91550000  1.0 -0.55757359
O  O74  1  0.89070000  0.03730000  0.58450000  1.0 -0.55757359
O  O75  1  0.96270000  0.10930000  0.08450000  1.0 -0.55757359
O  O76  1  0.10930000  0.96270000  0.41550000  1.0 -0.55757359
O  O77  1  0.08740000  0.04960000  0.82420000  1.0 -0.5036481205
O  O78  1  0.04960000  0.08740000  0.67580000  1.0 -0.5036481205
O  O79  1  0.91260000  0.95040000  0.17580000  1.0 -0.5036481205
O  O80  1  0.95040000  0.91260000  0.32420000  1.0 -0.5036481205
O  O81  1  0.60098000  0.37342000  0.98700000  1.0 -0.7836307171
O  O82  1  0.37342000  0.60098000  0.51300000  1.0 -0.7836307171
O  O83  1  0.39902000  0.62658000  0.01300000  1.0 -0.7836307171
O  O84  1  0.62658000  0.39902000  0.48700000  1.0 -0.7836307171
O  O85  1  0.53840000  0.41360000  0.03640000  1.0 -0.8225673247
O  O86  1  0.41360000  0.53840000  0.46360000  1.0 -0.8225673247
O  O87  1  0.46160000  0.58640000  0.96360000  1.0 -0.8225673247
O  O88  1  0.58640000  0.46160000  0.53640000  1.0 -0.8225673247
O  O89  1  0.72141000  0.53979000  0.02430000  1.0 -0.8073738847
O  O90  1  0.53979000  0.72141000  0.47570000  1.0 -0.8073738847
O  O91  1  0.27859000  0.46021000  0.97570000  1.0 -0.8073738847
O  O92  1  0.46021000  0.27859000  0.52430000  1.0 -0.8073738847
O  O93  1  0.56517000  0.52243000  0.92640000  1.0 -0.7996546287
O  O94  1  0.52243000  0.56517000  0.57360000  1.0 -0.7996546287
O  O95  1  0.43483000  0.47757000  0.07360000  1.0 -0.7996546287
O  O96  1  0.47757000  0.43483000  0.42640000  1.0 -0.7996546287
O  O97  1  0.90660000  0.89520000  0.80550000  1.0 -0.6739398125
O  O98  1  0.89520000  0.90660000  0.69450000  1.0 -0.6739398125
O  O99  1  0.09340000  0.10480000  0.19450000  1.0 -0.6739398125
O  O100  1  0.10480000  0.09340000  0.30550000  1.0 -0.6739398125
