# DDEC6 charges by PACMAN v1.1 (https://github.com/mtap-research/PACMAN-charge/)
data_NATNOM_ion_pacman
_symmetry_space_group_name_H-M   'P 1'
_cell_length_a   9.81081000
_cell_length_b   9.81081000
_cell_length_c   23.41700000
_cell_angle_alpha   90.00000000
_cell_angle_beta   90.00000000
_cell_angle_gamma   108.96700000
_symmetry_Int_Tables_number   1
_chemical_formula_structural   CuH24C26N6ClO10
_chemical_formula_sum   'Cu2 H48 C52 N12 Cl2 O20'
_cell_volume   2131.55773092
_cell_formula_units_Z   2
loop_
 _symmetry_equiv_pos_site_id
 _symmetry_equiv_pos_as_xyz
  1  'x, y, z'
loop_
 _atom_site_type_symbol
 _atom_site_label
 _atom_site_symmetry_multiplicity
 _atom_site_fract_x
 _atom_site_fract_y
 _atom_site_fract_z
 _atom_site_occupancy
 _atom_site_charge
Cu  Cu1  1  0.00000000  0.00000000  0.25000000  1.0 0.334338705
Cu  Cu2  1  0.00000000  0.00000000  0.75000000  1.0 0.334338705
H  H1  1  0.81400000  0.14160000  0.30830000  1.0 0.1222768863
H  H2  1  0.18600000  0.85840000  0.30830000  1.0 0.1222768863
H  H3  1  0.85840000  0.18600000  0.19170000  1.0 0.1222768863
H  H4  1  0.14160000  0.81400000  0.19170000  1.0 0.1222768863
H  H5  1  0.18600000  0.85840000  0.69170000  1.0 0.1222768863
H  H6  1  0.81400000  0.14160000  0.69170000  1.0 0.1222768863
H  H7  1  0.14160000  0.81400000  0.80830000  1.0 0.1222768863
H  H8  1  0.85840000  0.18600000  0.80830000  1.0 0.1222768863
H  H9  1  0.82260000  0.29280000  0.38360000  1.0 0.1597154242
H  H10  1  0.17740000  0.70720000  0.38360000  1.0 0.1597154242
H  H11  1  0.70720000  0.17740000  0.11640000  1.0 0.1597154242
H  H12  1  0.29280000  0.82260000  0.11640000  1.0 0.1597154242
H  H13  1  0.17740000  0.70720000  0.61640000  1.0 0.1597154242
H  H14  1  0.82260000  0.29280000  0.61640000  1.0 0.1597154242
H  H15  1  0.29280000  0.82260000  0.88360000  1.0 0.1597154242
H  H16  1  0.70720000  0.17740000  0.88360000  1.0 0.1597154242
H  H17  1  0.25260000  0.39160000  0.38510000  1.0 0.1597154242
H  H18  1  0.74740000  0.60840000  0.38510000  1.0 0.1597154242
H  H19  1  0.60840000  0.74740000  0.11490000  1.0 0.1597154242
H  H20  1  0.39160000  0.25260000  0.11490000  1.0 0.1597154242
H  H21  1  0.74740000  0.60840000  0.61490000  1.0 0.1597154242
H  H22  1  0.25260000  0.39160000  0.61490000  1.0 0.1597154242
H  H23  1  0.39160000  0.25260000  0.88510000  1.0 0.1597154242
H  H24  1  0.60840000  0.74740000  0.88510000  1.0 0.1597154242
H  H25  1  0.23030000  0.23710000  0.31010000  1.0 0.1222768863
H  H26  1  0.76970000  0.76290000  0.31010000  1.0 0.1222768863
H  H27  1  0.76290000  0.76970000  0.18990000  1.0 0.1222768863
H  H28  1  0.23710000  0.23030000  0.18990000  1.0 0.1222768863
H  H29  1  0.76970000  0.76290000  0.68990000  1.0 0.1222768863
H  H30  1  0.23030000  0.23710000  0.68990000  1.0 0.1222768863
H  H31  1  0.23710000  0.23030000  0.81010000  1.0 0.1222768863
H  H32  1  0.76290000  0.76970000  0.81010000  1.0 0.1222768863
H  H33  1  0.93430000  0.29190000  0.50000000  1.0 0.1377132637
H  H34  1  0.06570000  0.70810000  0.50000000  1.0 0.1377132637
H  H35  1  0.70810000  0.06570000  0.00000000  1.0 0.1377132637
H  H36  1  0.29190000  0.93430000  0.00000000  1.0 0.1377132637
H  H37  1  0.10270000  0.30950000  0.50000000  1.0 0.1468734396
H  H38  1  0.89730000  0.69050000  0.50000000  1.0 0.1468734396
H  H39  1  0.69050000  0.89730000  0.00000000  1.0 0.1468734396
H  H40  1  0.30950000  0.10270000  0.00000000  1.0 0.1468734396
H  H41  1  0.21580000  0.58040000  0.48560000  1.0 0.2560219718
H  H42  1  0.78420000  0.41960000  0.48560000  1.0 0.2560219718
H  H43  1  0.41960000  0.78420000  0.01440000  1.0 0.2560219718
H  H44  1  0.58040000  0.21580000  0.01440000  1.0 0.2560219718
H  H45  1  0.78420000  0.41960000  0.51440000  1.0 0.2560219718
H  H46  1  0.21580000  0.58040000  0.51440000  1.0 0.2560219718
H  H47  1  0.58040000  0.21580000  0.98560000  1.0 0.2560219718
H  H48  1  0.41960000  0.78420000  0.98560000  1.0 0.2560219718
C  C1  1  0.90530000  0.19190000  0.32450000  1.0 0.0917362561
C  C2  1  0.09470000  0.80810000  0.32450000  1.0 0.0917362561
C  C3  1  0.80810000  0.09470000  0.17550000  1.0 0.0917362561
C  C4  1  0.19190000  0.90530000  0.17550000  1.0 0.0917362561
C  C5  1  0.09470000  0.80810000  0.67550000  1.0 0.0917362561
C  C6  1  0.90530000  0.19190000  0.67550000  1.0 0.0917362561
C  C7  1  0.19190000  0.90530000  0.82450000  1.0 0.0917362561
C  C8  1  0.80810000  0.09470000  0.82450000  1.0 0.0917362561
C  C9  1  0.90960000  0.28320000  0.36930000  1.0 -0.1598369098
C  C10  1  0.09040000  0.71680000  0.36930000  1.0 -0.1598369098
C  C11  1  0.71680000  0.09040000  0.13070000  1.0 -0.1598369098
C  C12  1  0.28320000  0.90960000  0.13070000  1.0 -0.1598369098
C  C13  1  0.09040000  0.71680000  0.63070000  1.0 -0.1598369098
C  C14  1  0.90960000  0.28320000  0.63070000  1.0 -0.1598369098
C  C15  1  0.28320000  0.90960000  0.86930000  1.0 -0.1598369098
C  C16  1  0.71680000  0.09040000  0.86930000  1.0 -0.1598369098
C  C17  1  0.03870000  0.36090000  0.39365000  1.0 0.0917362561
C  C18  1  0.96130000  0.63910000  0.39365000  1.0 0.0917362561
C  C19  1  0.63910000  0.96130000  0.10635000  1.0 0.0917362561
C  C20  1  0.36090000  0.03870000  0.10635000  1.0 0.0917362561
C  C21  1  0.96130000  0.63910000  0.60635000  1.0 0.0917362561
C  C22  1  0.03870000  0.36090000  0.60635000  1.0 0.0917362561
C  C23  1  0.36090000  0.03870000  0.89365000  1.0 0.0917362561
C  C24  1  0.63910000  0.96130000  0.89365000  1.0 0.0917362561
C  C25  1  0.15970000  0.34090000  0.37034000  1.0 -0.149208312
C  C26  1  0.84030000  0.65910000  0.37034000  1.0 -0.149208312
C  C27  1  0.65910000  0.84030000  0.12966000  1.0 -0.149208312
C  C28  1  0.34090000  0.15970000  0.12966000  1.0 -0.149208312
C  C29  1  0.84030000  0.65910000  0.62966000  1.0 -0.149208312
C  C30  1  0.15970000  0.34090000  0.62966000  1.0 -0.149208312
C  C31  1  0.34090000  0.15970000  0.87034000  1.0 -0.149208312
C  C32  1  0.65910000  0.84030000  0.87034000  1.0 -0.149208312
C  C33  1  0.14480000  0.24740000  0.32572000  1.0 0.0688303028
C  C34  1  0.85520000  0.75260000  0.32572000  1.0 0.0688303028
C  C35  1  0.75260000  0.85520000  0.17428000  1.0 0.0688303028
C  C36  1  0.24740000  0.14480000  0.17428000  1.0 0.0688303028
C  C37  1  0.85520000  0.75260000  0.67428000  1.0 0.0688303028
C  C38  1  0.14480000  0.24740000  0.67428000  1.0 0.0688303028
C  C39  1  0.24740000  0.14480000  0.82572000  1.0 0.0688303028
C  C40  1  0.75260000  0.85520000  0.82572000  1.0 0.0688303028
C  C41  1  0.05450000  0.45850000  0.44572000  1.0 0.2028297809
C  C42  1  0.94550000  0.54150000  0.44572000  1.0 0.2028297809
C  C43  1  0.54150000  0.94550000  0.05428000  1.0 0.2028297809
C  C44  1  0.45850000  0.05450000  0.05428000  1.0 0.2028297809
C  C45  1  0.94550000  0.54150000  0.55428000  1.0 0.2028297809
C  C46  1  0.05450000  0.45850000  0.55428000  1.0 0.2028297809
C  C47  1  0.45850000  0.05450000  0.94572000  1.0 0.2028297809
C  C48  1  0.54150000  0.94550000  0.94572000  1.0 0.2028297809
C  C49  1  0.03270000  0.36290000  0.50000000  1.0 -0.360264162
C  C50  1  0.96730000  0.63710000  0.50000000  1.0 -0.360264162
C  C51  1  0.63710000  0.96730000  0.00000000  1.0 -0.360264162
C  C52  1  0.36290000  0.03270000  0.00000000  1.0 -0.360264162
N  N1  1  0.01976000  0.16944000  0.30245000  1.0 -0.1880382458
N  N2  1  0.98024000  0.83056000  0.30245000  1.0 -0.1880382458
N  N3  1  0.83056000  0.98024000  0.19755000  1.0 -0.1880382458
N  N4  1  0.16944000  0.01976000  0.19755000  1.0 -0.1880382458
N  N5  1  0.98024000  0.83056000  0.69755000  1.0 -0.1880382458
N  N6  1  0.01976000  0.16944000  0.69755000  1.0 -0.1880382458
N  N7  1  0.16944000  0.01976000  0.80245000  1.0 -0.1880382458
N  N8  1  0.83056000  0.98024000  0.80245000  1.0 -0.1880382458
N  N9  1  0.00000000  0.50000000  0.86650000  1.0 0.6853472394
N  N10  1  0.50000000  0.00000000  0.63350000  1.0 0.6853472394
N  N11  1  0.00000000  0.50000000  0.13350000  1.0 0.6853472394
N  N12  1  0.50000000  0.00000000  0.36650000  1.0 0.6853472394
Cl  Cl1  1  0.50000000  0.50000000  0.00000000  1.0 -0.360264162
Cl  Cl2  1  0.50000000  0.50000000  0.50000000  1.0 -0.360264162
O  O1  1  0.19500000  0.56460000  0.45090000  1.0 -0.4529057043
O  O2  1  0.80500000  0.43540000  0.45090000  1.0 -0.4529057043
O  O3  1  0.43540000  0.80500000  0.04910000  1.0 -0.4529057043
O  O4  1  0.56460000  0.19500000  0.04910000  1.0 -0.4529057043
O  O5  1  0.80500000  0.43540000  0.54910000  1.0 -0.4529057043
O  O6  1  0.19500000  0.56460000  0.54910000  1.0 -0.4529057043
O  O7  1  0.56460000  0.19500000  0.95090000  1.0 -0.4529057043
O  O8  1  0.43540000  0.80500000  0.95090000  1.0 -0.4529057043
O  O9  1  0.00000000  0.50000000  0.81290000  1.0 -0.4440335753
O  O10  1  0.11710000  0.54510000  0.89310000  1.0 -0.4014867554
O  O11  1  0.88290000  0.45490000  0.89310000  1.0 -0.4014867554
O  O12  1  0.50000000  0.00000000  0.68710000  1.0 -0.4440335753
O  O13  1  0.45490000  0.88290000  0.60690000  1.0 -0.4014867554
O  O14  1  0.54510000  0.11710000  0.60690000  1.0 -0.4014867554
O  O15  1  0.00000000  0.50000000  0.18710000  1.0 -0.4440335753
O  O16  1  0.88290000  0.45490000  0.10690000  1.0 -0.4014867554
O  O17  1  0.11710000  0.54510000  0.10690000  1.0 -0.4014867554
O  O18  1  0.50000000  0.00000000  0.31290000  1.0 -0.4440335753
O  O19  1  0.54510000  0.11710000  0.39310000  1.0 -0.4014867554
O  O20  1  0.45490000  0.88290000  0.39310000  1.0 -0.4014867554
