# DDEC6 charges by PACMAN v1.1 (https://github.com/mtap-research/PACMAN-charge/)
data_NATYAK_ion_pacman
_symmetry_space_group_name_H-M   'P 1'
_cell_length_a   9.71030000
_cell_length_b   9.71030000
_cell_length_c   6.85530000
_cell_angle_alpha   90.00000000
_cell_angle_beta   90.00000000
_cell_angle_gamma   90.00000000
_symmetry_Int_Tables_number   1
_chemical_formula_structural   TaCuH9C8(NF2)4
_chemical_formula_sum   'Ta2 Cu2 H18 C16 N8 F16'
_cell_volume   646.38573032
_cell_formula_units_Z   2
loop_
 _symmetry_equiv_pos_site_id
 _symmetry_equiv_pos_as_xyz
  1  'x, y, z'
loop_
 _atom_site_type_symbol
 _atom_site_label
 _atom_site_symmetry_multiplicity
 _atom_site_fract_x
 _atom_site_fract_y
 _atom_site_fract_z
 _atom_site_occupancy
 _atom_site_charge
Ta  Ta1  1  0.50000000  0.00000000  0.44866000  1.0 1.8894905676
Ta  Ta2  1  0.00000000  0.50000000  0.55134000  1.0 1.8894905676
Cu  Cu1  1  0.00000000  0.00000000  0.00000000  1.0 0.6970327129
Cu  Cu2  1  0.50000000  0.50000000  0.00000000  1.0 0.6970327129
H  H1  1  0.00000000  0.00000000  0.50000000  1.0 0.3868519892
H  H2  1  0.50000000  0.50000000  0.50000000  1.0 0.3868519892
H  H3  1  0.86060000  0.80840000  0.28320000  1.0 0.1440343861
H  H4  1  0.13940000  0.19160000  0.28320000  1.0 0.1440343861
H  H5  1  0.30840000  0.63940000  0.28320000  1.0 0.1440343861
H  H6  1  0.69160000  0.36060000  0.28320000  1.0 0.1440343861
H  H7  1  0.36060000  0.69160000  0.71680000  1.0 0.1440343861
H  H8  1  0.63940000  0.30840000  0.71680000  1.0 0.1440343861
H  H9  1  0.80840000  0.86060000  0.71680000  1.0 0.1440343861
H  H10  1  0.19160000  0.13940000  0.71680000  1.0 0.1440343861
H  H11  1  0.63940000  0.69160000  0.71680000  1.0 0.1440343861
H  H12  1  0.36060000  0.30840000  0.71680000  1.0 0.1440343861
H  H13  1  0.19160000  0.86060000  0.71680000  1.0 0.1440343861
H  H14  1  0.80840000  0.13940000  0.71680000  1.0 0.1440343861
H  H15  1  0.13940000  0.80840000  0.28320000  1.0 0.1440343861
H  H16  1  0.86060000  0.19160000  0.28320000  1.0 0.1440343861
H  H17  1  0.69160000  0.63940000  0.28320000  1.0 0.1440343861
H  H18  1  0.30840000  0.36060000  0.28320000  1.0 0.1440343861
C  C1  1  0.81574000  0.78543000  0.16440000  1.0 0.0839860519
C  C2  1  0.18426000  0.21457000  0.16440000  1.0 0.0839860519
C  C3  1  0.28543000  0.68426000  0.16440000  1.0 0.0839860519
C  C4  1  0.71457000  0.31574000  0.16440000  1.0 0.0839860519
C  C5  1  0.31574000  0.71457000  0.83560000  1.0 0.0839860519
C  C6  1  0.68426000  0.28543000  0.83560000  1.0 0.0839860519
C  C7  1  0.78543000  0.81574000  0.83560000  1.0 0.0839860519
C  C8  1  0.21457000  0.18426000  0.83560000  1.0 0.0839860519
C  C9  1  0.68426000  0.71457000  0.83560000  1.0 0.0839860519
C  C10  1  0.31574000  0.28543000  0.83560000  1.0 0.0839860519
C  C11  1  0.21457000  0.81574000  0.83560000  1.0 0.0839860519
C  C12  1  0.78543000  0.18426000  0.83560000  1.0 0.0839860519
C  C13  1  0.18426000  0.78543000  0.16440000  1.0 0.0839860519
C  C14  1  0.81574000  0.21457000  0.16440000  1.0 0.0839860519
C  C15  1  0.71457000  0.68426000  0.16440000  1.0 0.0839860519
C  C16  1  0.28543000  0.31574000  0.16440000  1.0 0.0839860519
N  N1  1  0.85128000  0.85128000  0.00000000  1.0 -0.1700430116
N  N2  1  0.14872000  0.14872000  0.00000000  1.0 -0.1700430116
N  N3  1  0.35128000  0.64872000  0.00000000  1.0 -0.1700430116
N  N4  1  0.64872000  0.35128000  0.00000000  1.0 -0.1700430116
N  N5  1  0.64872000  0.64872000  0.00000000  1.0 -0.1700430116
N  N6  1  0.35128000  0.35128000  0.00000000  1.0 -0.1700430116
N  N7  1  0.14872000  0.85128000  0.00000000  1.0 -0.1700430116
N  N8  1  0.85128000  0.14872000  0.00000000  1.0 -0.1700430116
F  F1  1  0.00000000  0.00000000  0.66600000  1.0 -0.4645833741
F  F2  1  0.50000000  0.50000000  0.66600000  1.0 -0.4645833741
F  F3  1  0.50000000  0.50000000  0.33400000  1.0 -0.4650408397
F  F4  1  0.00000000  0.00000000  0.33400000  1.0 -0.4650408397
F  F5  1  0.50000000  0.00000000  0.72390000  1.0 -0.5219678651
F  F6  1  0.50000000  0.00000000  0.17340000  1.0 -0.5219678651
F  F7  1  0.50000000  0.80420000  0.45240000  1.0 -0.5359516959
F  F8  1  0.50000000  0.19580000  0.45240000  1.0 -0.5359516959
F  F9  1  0.69580000  0.00000000  0.45240000  1.0 -0.5359516959
F  F10  1  0.30420000  0.00000000  0.45240000  1.0 -0.5359516959
F  F11  1  0.00000000  0.50000000  0.27610000  1.0 -0.5219678651
F  F12  1  0.00000000  0.50000000  0.82660000  1.0 -0.5219678651
F  F13  1  0.00000000  0.69580000  0.54760000  1.0 -0.5359516959
F  F14  1  0.00000000  0.30420000  0.54760000  1.0 -0.5359516959
F  F15  1  0.19580000  0.50000000  0.54760000  1.0 -0.5359516959
F  F16  1  0.80420000  0.50000000  0.54760000  1.0 -0.5359516959
