# DDEC6 charges by PACMAN v1.1 (https://github.com/mtap-research/PACMAN-charge/)
data_NAVCAO_FSR_pacman
_symmetry_space_group_name_H-M   'P 1'
_cell_length_a   13.52740000
_cell_length_b   13.52740000
_cell_length_c   19.26450000
_cell_angle_alpha   90.00000000
_cell_angle_beta   90.00000000
_cell_angle_gamma   120.00000000
_symmetry_Int_Tables_number   1
_chemical_formula_structural   Fe4P7O31
_chemical_formula_sum   'Fe16 P28 O124'
_cell_volume   3052.93134276
_cell_formula_units_Z   4
loop_
 _symmetry_equiv_pos_site_id
 _symmetry_equiv_pos_as_xyz
  1  'x, y, z'
loop_
 _atom_site_type_symbol
 _atom_site_label
 _atom_site_symmetry_multiplicity
 _atom_site_fract_x
 _atom_site_fract_y
 _atom_site_fract_z
 _atom_site_occupancy
 _atom_site_charge
Fe  Fe1  1  0.85560000  0.56550000  0.45037000  1.0 1.5024120453
Fe  Fe2  1  0.43450000  0.29010000  0.45037000  1.0 1.5024120453
Fe  Fe3  1  0.56550000  0.85560000  0.04963000  1.0 1.5024120453
Fe  Fe4  1  0.70990000  0.14440000  0.45037000  1.0 1.5024120453
Fe  Fe5  1  0.14440000  0.70990000  0.04963000  1.0 1.5024120453
Fe  Fe6  1  0.29010000  0.43450000  0.04963000  1.0 1.5024120453
Fe  Fe7  1  0.14440000  0.43450000  0.54963000  1.0 1.5024120453
Fe  Fe8  1  0.56550000  0.70990000  0.54963000  1.0 1.5024120453
Fe  Fe9  1  0.43450000  0.14440000  0.95037000  1.0 1.5024120453
Fe  Fe10  1  0.29010000  0.85560000  0.54963000  1.0 1.5024120453
Fe  Fe11  1  0.85560000  0.29010000  0.95037000  1.0 1.5024120453
Fe  Fe12  1  0.70990000  0.56550000  0.95037000  1.0 1.5024120453
Fe  Fe13  1  0.00000000  0.00000000  0.25000000  1.0 1.5120811131
Fe  Fe14  1  0.00000000  0.00000000  0.75000000  1.0 1.5265019692
Fe  Fe15  1  0.00000000  0.00000000  0.50000000  1.0 1.5614436425
Fe  Fe16  1  0.00000000  0.00000000  0.00000000  1.0 1.5614436425
P  P1  1  0.96350000  0.81210000  0.37120000  1.0 1.5120811131
P  P2  1  0.18790000  0.15140000  0.37120000  1.0 1.5120811131
P  P3  1  0.81210000  0.96350000  0.12880000  1.0 1.5120811131
P  P4  1  0.84860000  0.03650000  0.37120000  1.0 1.5120811131
P  P5  1  0.03650000  0.84860000  0.12880000  1.0 1.5120811131
P  P6  1  0.15140000  0.18790000  0.12880000  1.0 1.5120811131
P  P7  1  0.03650000  0.18790000  0.62880000  1.0 1.5166812099
P  P8  1  0.81210000  0.84860000  0.62880000  1.0 1.5120811131
P  P9  1  0.18790000  0.03650000  0.87120000  1.0 1.5166812099
P  P10  1  0.15140000  0.96350000  0.62880000  1.0 1.5120811131
P  P11  1  0.96350000  0.15140000  0.87120000  1.0 1.5120811131
P  P12  1  0.84860000  0.81210000  0.87120000  1.0 1.5120811131
P  P13  1  0.63210000  0.50510000  0.54390000  1.0 1.4921011127
P  P14  1  0.49490000  0.12700000  0.54390000  1.0 1.4921011127
P  P15  1  0.50510000  0.63210000  0.95610000  1.0 1.4921011127
P  P16  1  0.87300000  0.36790000  0.54390000  1.0 1.4921011127
P  P17  1  0.36790000  0.87300000  0.95610000  1.0 1.4921011127
P  P18  1  0.12700000  0.49490000  0.95610000  1.0 1.5024120453
P  P19  1  0.36790000  0.49490000  0.45610000  1.0 1.4921011127
P  P20  1  0.50510000  0.87300000  0.45610000  1.0 1.4921011127
P  P21  1  0.49490000  0.36790000  0.04390000  1.0 1.4921011127
P  P22  1  0.12700000  0.63210000  0.45610000  1.0 1.5024120453
P  P23  1  0.63210000  0.12700000  0.04390000  1.0 1.4921011127
P  P24  1  0.87300000  0.50510000  0.04390000  1.0 1.4921011127
P  P25  1  0.66666667  0.33333333  0.36250000  1.0 1.5166812099
P  P26  1  0.33333333  0.66666667  0.13750000  1.0 1.5166812099
P  P27  1  0.33333333  0.66666667  0.63750000  1.0 1.5166812099
P  P28  1  0.66666667  0.33333333  0.86250000  1.0 1.5166812099
O  O1  1  0.88090000  0.68600000  0.38310000  1.0 -0.6690000106
O  O2  1  0.31400000  0.19490000  0.38310000  1.0 -0.6690000106
O  O3  1  0.68600000  0.88090000  0.11690000  1.0 -0.6690000106
O  O4  1  0.80510000  0.11910000  0.38310000  1.0 -0.6690000106
O  O5  1  0.11910000  0.80510000  0.11690000  1.0 -0.6690000106
O  O6  1  0.19490000  0.31400000  0.11690000  1.0 -0.6690000106
O  O7  1  0.11910000  0.31400000  0.61690000  1.0 -0.6690000106
O  O8  1  0.68600000  0.80510000  0.61690000  1.0 -0.6690000106
O  O9  1  0.31400000  0.11910000  0.88310000  1.0 -0.6690000106
O  O10  1  0.19490000  0.88090000  0.61690000  1.0 -0.6690000106
O  O11  1  0.88090000  0.19490000  0.88310000  1.0 -0.6690000106
O  O12  1  0.80510000  0.68600000  0.88310000  1.0 -0.6690000106
O  O13  1  0.71350000  0.56410000  0.48370000  1.0 -0.6690000106
O  O14  1  0.43590000  0.14940000  0.48370000  1.0 -0.6690000106
O  O15  1  0.56410000  0.71350000  0.01630000  1.0 -0.6690000106
O  O16  1  0.85060000  0.28650000  0.48370000  1.0 -0.6690000106
O  O17  1  0.28650000  0.85060000  0.01630000  1.0 -0.6690000106
O  O18  1  0.14940000  0.43590000  0.01630000  1.0 -0.6690000106
O  O19  1  0.28650000  0.43590000  0.51630000  1.0 -0.6690000106
O  O20  1  0.56410000  0.85060000  0.51630000  1.0 -0.6690000106
O  O21  1  0.43590000  0.28650000  0.98370000  1.0 -0.6690000106
O  O22  1  0.14940000  0.71350000  0.51630000  1.0 -0.6690000106
O  O23  1  0.71350000  0.14940000  0.98370000  1.0 -0.6690000106
O  O24  1  0.85060000  0.56410000  0.98370000  1.0 -0.6690000106
O  O25  1  0.77220000  0.44320000  0.38620000  1.0 -0.6690000106
O  O26  1  0.55680000  0.32900000  0.38620000  1.0 -0.6690000106
O  O27  1  0.44320000  0.77220000  0.11380000  1.0 -0.6690000106
O  O28  1  0.67100000  0.22780000  0.38620000  1.0 -0.6690000106
O  O29  1  0.22780000  0.67100000  0.11380000  1.0 -0.6690000106
O  O30  1  0.32900000  0.55680000  0.11380000  1.0 -0.6690000106
O  O31  1  0.22780000  0.55680000  0.61380000  1.0 -0.6690000106
O  O32  1  0.44320000  0.67100000  0.61380000  1.0 -0.6690000106
O  O33  1  0.55680000  0.22780000  0.88620000  1.0 -0.6690000106
O  O34  1  0.32900000  0.77220000  0.61380000  1.0 -0.6690000106
O  O35  1  0.77220000  0.32900000  0.88620000  1.0 -0.6690000106
O  O36  1  0.67100000  0.44320000  0.88620000  1.0 -0.6690000106
O  O37  1  0.93900000  0.69170000  0.52930000  1.0 0.3476645507
O  O38  1  0.30830000  0.24730000  0.52930000  1.0 0.3626756079
O  O39  1  0.69170000  0.93900000  0.97070000  1.0 0.341069781
O  O40  1  0.75270000  0.06100000  0.52930000  1.0 0.3626756079
O  O41  1  0.06100000  0.75270000  0.97070000  1.0 0.341069781
O  O42  1  0.24730000  0.30830000  0.97070000  1.0 0.341069781
O  O43  1  0.06100000  0.30830000  0.47070000  1.0 0.341069781
O  O44  1  0.69170000  0.75270000  0.47070000  1.0 0.3476645507
O  O45  1  0.30830000  0.06100000  0.02930000  1.0 0.3476645507
O  O46  1  0.24730000  0.93900000  0.47070000  1.0 0.3476645507
O  O47  1  0.93900000  0.24730000  0.02930000  1.0 0.3476645507
O  O48  1  0.75270000  0.69170000  0.02930000  1.0 0.3476645507
O  O49  1  0.83920000  0.45720000  0.52730000  1.0 -0.6506844454
O  O50  1  0.54280000  0.38200000  0.52730000  1.0 -0.6506844454
O  O51  1  0.45720000  0.83920000  0.97270000  1.0 -0.6506844454
O  O52  1  0.61800000  0.16080000  0.52730000  1.0 -0.6506844454
O  O53  1  0.16080000  0.61800000  0.97270000  1.0 -0.6506844454
O  O54  1  0.38200000  0.54280000  0.97270000  1.0 -0.6506844454
O  O55  1  0.16080000  0.54280000  0.47270000  1.0 -0.6506844454
O  O56  1  0.45720000  0.61800000  0.47270000  1.0 -0.6506844454
O  O57  1  0.54280000  0.16080000  0.02730000  1.0 -0.6506844454
O  O58  1  0.38200000  0.83920000  0.47270000  1.0 -0.6506844454
O  O59  1  0.83920000  0.38200000  0.02730000  1.0 -0.6506844454
O  O60  1  0.61800000  0.45720000  0.02730000  1.0 -0.6506844454
O  O61  1  0.00590000  0.58000000  0.42890000  1.0 -0.699354123
O  O62  1  0.42000000  0.42590000  0.42890000  1.0 -0.705283507
O  O63  1  0.58000000  0.00590000  0.07110000  1.0 -0.705283507
O  O64  1  0.57410000  0.99410000  0.42890000  1.0 -0.705283507
O  O65  1  0.99410000  0.57410000  0.07110000  1.0 -0.699354123
O  O66  1  0.42590000  0.42000000  0.07110000  1.0 -0.699354123
O  O67  1  0.99410000  0.42000000  0.57110000  1.0 -0.699354123
O  O68  1  0.58000000  0.57410000  0.57110000  1.0 -0.705283507
O  O69  1  0.42000000  0.99410000  0.92890000  1.0 -0.705283507
O  O70  1  0.42590000  0.00590000  0.57110000  1.0 -0.699354123
O  O71  1  0.00590000  0.42590000  0.92890000  1.0 -0.699354123
O  O72  1  0.57410000  0.58000000  0.92890000  1.0 -0.699354123
O  O73  1  0.08120000  0.82490000  0.34750000  1.0 -0.533383877
O  O74  1  0.17510000  0.25630000  0.34750000  1.0 -0.53540264
O  O75  1  0.82490000  0.08120000  0.15250000  1.0 -0.533383877
O  O76  1  0.74370000  0.91880000  0.34750000  1.0 -0.533383877
O  O77  1  0.91880000  0.74370000  0.15250000  1.0 -0.533383877
O  O78  1  0.25630000  0.17510000  0.15250000  1.0 -0.533383877
O  O79  1  0.91880000  0.17510000  0.65250000  1.0 -0.53540264
O  O80  1  0.82490000  0.74370000  0.65250000  1.0 -0.533383877
O  O81  1  0.17510000  0.91880000  0.84750000  1.0 -0.533383877
O  O82  1  0.25630000  0.08120000  0.65250000  1.0 -0.53540264
O  O83  1  0.08120000  0.25630000  0.84750000  1.0 -0.533383877
O  O84  1  0.74370000  0.82490000  0.84750000  1.0 -0.533383877
O  O85  1  0.92340000  0.85970000  0.31280000  1.0 -0.699354123
O  O86  1  0.14030000  0.06370000  0.31280000  1.0 -0.699354123
O  O87  1  0.85970000  0.92340000  0.18720000  1.0 -0.699354123
O  O88  1  0.93630000  0.07660000  0.31280000  1.0 -0.699354123
O  O89  1  0.07660000  0.93630000  0.18720000  1.0 -0.699354123
O  O90  1  0.06370000  0.14030000  0.18720000  1.0 -0.699354123
O  O91  1  0.07660000  0.14030000  0.68720000  1.0 -0.699354123
O  O92  1  0.85970000  0.93630000  0.68720000  1.0 -0.699354123
O  O93  1  0.14030000  0.07660000  0.81280000  1.0 -0.699354123
O  O94  1  0.06370000  0.92340000  0.68720000  1.0 -0.699354123
O  O95  1  0.92340000  0.06370000  0.81280000  1.0 -0.6937882148
O  O96  1  0.93630000  0.85970000  0.81280000  1.0 -0.699354123
O  O97  1  0.98360000  0.87480000  0.44020000  1.0 -0.6812493446
O  O98  1  0.12520000  0.10880000  0.44020000  1.0 -0.6812493446
O  O99  1  0.87480000  0.98360000  0.05980000  1.0 -0.6812493446
O  O100  1  0.89120000  0.01640000  0.44020000  1.0 -0.6812493446
O  O101  1  0.01640000  0.89120000  0.05980000  1.0 -0.6812493446
O  O102  1  0.10880000  0.12520000  0.05980000  1.0 -0.6812493446
O  O103  1  0.01640000  0.12520000  0.55980000  1.0 -0.6812493446
O  O104  1  0.87480000  0.89120000  0.55980000  1.0 -0.6812493446
O  O105  1  0.12520000  0.01640000  0.94020000  1.0 -0.6812493446
O  O106  1  0.10880000  0.98360000  0.55980000  1.0 -0.6812493446
O  O107  1  0.98360000  0.10880000  0.94020000  1.0 -0.6812493446
O  O108  1  0.89120000  0.87480000  0.94020000  1.0 -0.6812493446
O  O109  1  0.70250000  0.49500000  0.60660000  1.0 -0.4622872415
O  O110  1  0.50500000  0.20750000  0.60660000  1.0 -0.4622872415
O  O111  1  0.49500000  0.70250000  0.89340000  1.0 -0.4622872415
O  O112  1  0.79250000  0.29750000  0.60660000  1.0 -0.4622872415
O  O113  1  0.29750000  0.79250000  0.89340000  1.0 -0.4622872415
O  O114  1  0.20750000  0.50500000  0.89340000  1.0 -0.4622872415
O  O115  1  0.29750000  0.50500000  0.39340000  1.0 -0.4622872415
O  O116  1  0.49500000  0.79250000  0.39340000  1.0 -0.4622872415
O  O117  1  0.50500000  0.29750000  0.10660000  1.0 -0.4622872415
O  O118  1  0.20750000  0.70250000  0.39340000  1.0 -0.4622872415
O  O119  1  0.70250000  0.20750000  0.10660000  1.0 -0.4622872415
O  O120  1  0.79250000  0.49500000  0.10660000  1.0 -0.4622872415
O  O121  1  0.66666667  0.33333333  0.28180000  1.0 -0.4207176559
O  O122  1  0.33333333  0.66666667  0.21820000  1.0 -0.4207176559
O  O123  1  0.33333333  0.66666667  0.71820000  1.0 -0.4207176559
O  O124  1  0.66666667  0.33333333  0.78180000  1.0 -0.4207176559
