# DDEC6 charges by PACMAN v1.1 (https://github.com/mtap-research/PACMAN-charge/)
data_NAVJAW01_FSR_pacman
_symmetry_space_group_name_H-M   'P 1'
_cell_length_a   15.26740000
_cell_length_b   15.26740000
_cell_length_c   15.26740000
_cell_angle_alpha   117.88700000
_cell_angle_beta   117.88700000
_cell_angle_gamma   117.88700000
_symmetry_Int_Tables_number   1
_chemical_formula_structural   CoH(CO)4
_chemical_formula_sum   'Co6 H6 C24 O24'
_cell_volume   1326.96822006
_cell_formula_units_Z   6
loop_
 _symmetry_equiv_pos_site_id
 _symmetry_equiv_pos_as_xyz
  1  'x, y, z'
loop_
 _atom_site_type_symbol
 _atom_site_label
 _atom_site_symmetry_multiplicity
 _atom_site_fract_x
 _atom_site_fract_y
 _atom_site_fract_z
 _atom_site_occupancy
 _atom_site_charge
Co  Co1  1  0.38029000  0.96024000  0.69582000  1.0 1.0189406153
Co  Co2  1  0.96024000  0.69582000  0.38029000  1.0 1.0189406153
Co  Co3  1  0.69582000  0.38029000  0.96024000  1.0 1.0189406153
Co  Co4  1  0.61971000  0.03976000  0.30418000  1.0 1.0189406153
Co  Co5  1  0.03976000  0.30418000  0.61971000  1.0 1.0189406153
Co  Co6  1  0.30418000  0.61971000  0.03976000  1.0 1.0189406153
H  H1  1  0.71530000  0.14498000  0.16409000  1.0 0.1464595573
H  H2  1  0.14498000  0.16409000  0.71530000  1.0 0.1464595573
H  H3  1  0.16409000  0.71530000  0.14498000  1.0 0.1464595573
H  H4  1  0.28470000  0.85502000  0.83591000  1.0 0.1464595573
H  H5  1  0.85502000  0.83591000  0.28470000  1.0 0.1464595573
H  H6  1  0.83591000  0.28470000  0.85502000  1.0 0.1464595573
C  C1  1  0.76496000  0.33239000  0.15952000  1.0 0.6034337557
C  C2  1  0.33239000  0.15952000  0.76496000  1.0 0.6034337557
C  C3  1  0.15952000  0.76496000  0.33239000  1.0 0.6034337557
C  C4  1  0.23504000  0.66761000  0.84048000  1.0 0.6034337557
C  C5  1  0.66761000  0.84048000  0.23504000  1.0 0.6034337557
C  C6  1  0.84048000  0.23504000  0.66761000  1.0 0.6034337557
C  C7  1  0.87765000  0.41662000  0.32998000  1.0 -0.1780712925
C  C8  1  0.41662000  0.32998000  0.87765000  1.0 -0.1780712925
C  C9  1  0.32998000  0.87765000  0.41662000  1.0 -0.1780712925
C  C10  1  0.12235000  0.58338000  0.67002000  1.0 -0.1780712925
C  C11  1  0.58338000  0.67002000  0.12235000  1.0 -0.1780712925
C  C12  1  0.67002000  0.12235000  0.58338000  1.0 -0.1780712925
C  C13  1  0.06499000  0.63313000  0.53369000  1.0 0.2955475129
C  C14  1  0.63313000  0.53369000  0.06499000  1.0 0.2955475129
C  C15  1  0.53369000  0.06499000  0.63313000  1.0 0.2955475129
C  C16  1  0.93501000  0.36687000  0.46631000  1.0 0.2955475129
C  C17  1  0.36687000  0.46631000  0.93501000  1.0 0.2955475129
C  C18  1  0.46631000  0.93501000  0.36687000  1.0 0.2955475129
C  C19  1  0.83091000  0.28866000  0.30125000  1.0 -0.2091366821
C  C20  1  0.28866000  0.30125000  0.83091000  1.0 -0.2091366821
C  C21  1  0.30125000  0.83091000  0.28866000  1.0 -0.2091366821
C  C22  1  0.16909000  0.71134000  0.69875000  1.0 -0.2091366821
C  C23  1  0.71134000  0.69875000  0.16909000  1.0 -0.2091366821
C  C24  1  0.69875000  0.16909000  0.71134000  1.0 -0.2091366821
O  O1  1  0.62998000  0.15001000  0.98929000  1.0 -0.5040429357
O  O2  1  0.15001000  0.98929000  0.62998000  1.0 -0.5040429357
O  O3  1  0.98929000  0.62998000  0.15001000  1.0 -0.5040429357
O  O4  1  0.37002000  0.84999000  0.01071000  1.0 -0.5040429357
O  O5  1  0.84999000  0.01071000  0.37002000  1.0 -0.5040429357
O  O6  1  0.01071000  0.37002000  0.84999000  1.0 -0.5040429357
O  O7  1  0.83131000  0.45224000  0.19079000  1.0 -0.5697563015
O  O8  1  0.45224000  0.19079000  0.83131000  1.0 -0.5697563015
O  O9  1  0.19079000  0.83131000  0.45224000  1.0 -0.5697563015
O  O10  1  0.16869000  0.54776000  0.80921000  1.0 -0.5697563015
O  O11  1  0.54776000  0.80921000  0.16869000  1.0 -0.5697563015
O  O12  1  0.80921000  0.16869000  0.54776000  1.0 -0.5697563015
O  O13  1  0.12837000  0.76273000  0.56670000  1.0 -0.6205366575
O  O14  1  0.76273000  0.56670000  0.12837000  1.0 -0.6205366575
O  O15  1  0.56670000  0.12837000  0.76273000  1.0 -0.6205366575
O  O16  1  0.87163000  0.23727000  0.43330000  1.0 -0.6205366575
O  O17  1  0.23727000  0.43330000  0.87163000  1.0 -0.6205366575
O  O18  1  0.43330000  0.87163000  0.23727000  1.0 -0.6205366575
O  O19  1  0.31556000  0.73726000  0.53401000  1.0 0.0176369359
O  O20  1  0.73726000  0.53401000  0.31556000  1.0 0.0176369359
O  O21  1  0.53401000  0.31556000  0.73726000  1.0 0.0147898882
O  O22  1  0.68444000  0.26274000  0.46599000  1.0 0.0176369359
O  O23  1  0.26274000  0.46599000  0.68444000  1.0 0.0176369359
O  O24  1  0.46599000  0.68444000  0.26274000  1.0 0.0176369359
