# DDEC6 charges by PACMAN v1.1 (https://github.com/mtap-research/PACMAN-charge/)
data_NAWWUG_ASR_pacman
_symmetry_space_group_name_H-M   'P 1'
_cell_length_a   20.07000000
_cell_length_b   6.94100000
_cell_length_c   20.39500000
_cell_angle_alpha   90.00000000
_cell_angle_beta   119.18000000
_cell_angle_gamma   90.00000000
_symmetry_Int_Tables_number   1
_chemical_formula_structural   NiH6C10(NO2)2
_chemical_formula_sum   'Ni6 H36 C60 N12 O24'
_cell_volume   2480.58032204
_cell_formula_units_Z   6
loop_
 _symmetry_equiv_pos_site_id
 _symmetry_equiv_pos_as_xyz
  1  'x, y, z'
loop_
 _atom_site_type_symbol
 _atom_site_label
 _atom_site_symmetry_multiplicity
 _atom_site_fract_x
 _atom_site_fract_y
 _atom_site_fract_z
 _atom_site_occupancy
 _atom_site_charge
Ni  Ni1  1  0.86959000  0.48956000  0.57929000  1.0 0.7764705534
Ni  Ni2  1  0.63041000  0.48956000  0.42071000  1.0 0.7764705534
Ni  Ni3  1  0.13041000  0.51044000  0.42071000  1.0 0.7764705534
Ni  Ni4  1  0.36959000  0.51044000  0.57929000  1.0 0.7764705534
Ni  Ni5  1  0.75000000  0.59770000  0.00000000  1.0 0.7087864991
Ni  Ni6  1  0.25000000  0.40230000  0.00000000  1.0 0.7087864991
H  H1  1  0.59380000  0.49910000  0.56900000  1.0 0.1281689483
H  H2  1  0.90620000  0.49910000  0.43100000  1.0 0.1281689483
H  H3  1  0.40620000  0.50090000  0.43100000  1.0 0.1281689483
H  H4  1  0.09380000  0.50090000  0.56900000  1.0 0.1281689483
H  H5  1  0.61500000  0.54430000  0.77450000  1.0 0.1281689483
H  H6  1  0.88500000  0.54430000  0.22550000  1.0 0.1281689483
H  H7  1  0.38500000  0.45570000  0.22550000  1.0 0.1281689483
H  H8  1  0.11500000  0.45570000  0.77450000  1.0 0.1281689483
H  H9  1  0.80490000  0.52330000  0.75240000  1.0 0.1281689483
H  H10  1  0.69510000  0.52330000  0.24760000  1.0 0.1281689483
H  H11  1  0.19510000  0.47670000  0.24760000  1.0 0.1281689483
H  H12  1  0.30490000  0.47670000  0.75240000  1.0 0.1281689483
H  H13  1  0.85030000  0.82560000  0.47630000  1.0 0.1281689483
H  H14  1  0.64970000  0.82560000  0.52370000  1.0 0.1281689483
H  H15  1  0.14970000  0.17440000  0.52370000  1.0 0.1281689483
H  H16  1  0.35030000  0.17440000  0.47630000  1.0 0.1281689483
H  H17  1  0.84890000  0.14940000  0.47480000  1.0 0.1281689483
H  H18  1  0.65110000  0.14940000  0.52520000  1.0 0.1281689483
H  H19  1  0.15110000  0.85060000  0.52520000  1.0 0.1281689483
H  H20  1  0.34890000  0.85060000  0.47480000  1.0 0.1281689483
H  H21  1  0.87660000  0.15100000  0.67910000  1.0 0.1383748803
H  H22  1  0.62340000  0.15100000  0.32090000  1.0 0.1383748803
H  H23  1  0.12340000  0.84900000  0.32090000  1.0 0.1383748803
H  H24  1  0.37660000  0.84900000  0.67910000  1.0 0.1383748803
H  H25  1  0.87930000  0.82850000  0.68010000  1.0 0.1383748803
H  H26  1  0.62070000  0.82850000  0.31990000  1.0 0.1383748803
H  H27  1  0.12070000  0.17150000  0.31990000  1.0 0.1383748803
H  H28  1  0.37930000  0.17150000  0.68010000  1.0 0.1383748803
H  H29  1  0.65070000  0.93170000  0.90500000  1.0 0.1383748803
H  H30  1  0.84930000  0.93170000  0.09500000  1.0 0.1383748803
H  H31  1  0.34930000  0.06830000  0.09500000  1.0 0.1383748803
H  H32  1  0.15070000  0.06830000  0.90500000  1.0 0.1383748803
H  H33  1  0.65320000  0.26490000  0.90640000  1.0 0.1383748803
H  H34  1  0.84680000  0.26490000  0.09360000  1.0 0.1383748803
H  H35  1  0.34680000  0.73510000  0.09360000  1.0 0.1383748803
H  H36  1  0.15320000  0.73510000  0.90640000  1.0 0.1383748803
C  C1  1  0.50880000  0.51520000  0.63520000  1.0 0.5340819325
C  C2  1  0.99120000  0.51520000  0.36480000  1.0 0.5340819325
C  C3  1  0.49120000  0.48480000  0.36480000  1.0 0.5340819325
C  C4  1  0.00880000  0.48480000  0.63520000  1.0 0.5340819325
C  C5  1  0.59490000  0.51750000  0.66860000  1.0 -0.0007395188
C  C6  1  0.90510000  0.51750000  0.33140000  1.0 -0.0007395188
C  C7  1  0.40510000  0.48250000  0.33140000  1.0 -0.0007395188
C  C8  1  0.09490000  0.48250000  0.66860000  1.0 -0.0007395188
C  C9  1  0.62570000  0.50680000  0.62190000  1.0 -0.1334658597
C  C10  1  0.87430000  0.50680000  0.37810000  1.0 -0.1334658597
C  C11  1  0.37430000  0.49320000  0.37810000  1.0 -0.1334658597
C  C12  1  0.12570000  0.49320000  0.62190000  1.0 -0.1334658597
C  C13  1  0.63870000  0.53500000  0.74410000  1.0 -0.1082038811
C  C14  1  0.86130000  0.53500000  0.25590000  1.0 -0.1082038811
C  C15  1  0.36130000  0.46500000  0.25590000  1.0 -0.1082038811
C  C16  1  0.13870000  0.46500000  0.74410000  1.0 -0.1082038811
C  C17  1  0.73870000  0.49470000  0.60280000  1.0 0.5546142276
C  C18  1  0.76130000  0.49470000  0.39720000  1.0 0.5546142276
C  C19  1  0.26130000  0.50530000  0.39720000  1.0 0.5546142276
C  C20  1  0.23870000  0.50530000  0.60280000  1.0 0.5546142276
C  C21  1  0.70490000  0.50730000  0.65340000  1.0 -0.0404682622
C  C22  1  0.79510000  0.50730000  0.34660000  1.0 -0.0404682622
C  C23  1  0.29510000  0.49270000  0.34660000  1.0 -0.0404682622
C  C24  1  0.20490000  0.49270000  0.65340000  1.0 -0.0404682622
C  C25  1  0.75090000  0.52340000  0.73130000  1.0 -0.1082038811
C  C26  1  0.74910000  0.52340000  0.26870000  1.0 -0.1082038811
C  C27  1  0.24910000  0.47660000  0.26870000  1.0 -0.1082038811
C  C28  1  0.25090000  0.47660000  0.73130000  1.0 -0.1082038811
C  C29  1  0.71900000  0.53970000  0.77830000  1.0 -0.0341198795
C  C30  1  0.78100000  0.53970000  0.22170000  1.0 -0.0341198795
C  C31  1  0.28100000  0.46030000  0.22170000  1.0 -0.0341198795
C  C32  1  0.21900000  0.46030000  0.77830000  1.0 -0.0341198795
C  C33  1  0.76270000  0.56040000  0.86080000  1.0 0.5573730137
C  C34  1  0.73730000  0.56040000  0.13920000  1.0 0.5573730137
C  C35  1  0.23730000  0.43960000  0.13920000  1.0 0.5573730137
C  C36  1  0.26270000  0.43960000  0.86080000  1.0 0.5573730137
C  C37  1  0.85790000  0.89220000  0.52010000  1.0 0.0058633657
C  C38  1  0.64210000  0.89220000  0.47990000  1.0 0.0058633657
C  C39  1  0.14210000  0.10780000  0.47990000  1.0 0.0058633657
C  C40  1  0.35790000  0.10780000  0.52010000  1.0 0.0058633657
C  C41  1  0.85710000  0.08550000  0.51930000  1.0 0.0058633657
C  C42  1  0.64290000  0.08550000  0.48070000  1.0 0.0058633657
C  C43  1  0.14290000  0.91450000  0.48070000  1.0 0.0058633657
C  C44  1  0.35710000  0.91450000  0.51930000  1.0 0.0058633657
C  C45  1  0.87320000  0.08640000  0.63650000  1.0 0.0034127034
C  C46  1  0.62680000  0.08640000  0.36350000  1.0 0.0034127034
C  C47  1  0.12680000  0.91360000  0.36350000  1.0 0.0034127034
C  C48  1  0.37320000  0.91360000  0.63650000  1.0 0.0034127034
C  C49  1  0.87430000  0.89350000  0.63690000  1.0 0.0331777215
C  C50  1  0.62570000  0.89350000  0.36310000  1.0 0.0331777215
C  C51  1  0.12570000  0.10650000  0.36310000  1.0 0.0331777215
C  C52  1  0.37430000  0.10650000  0.63690000  1.0 0.0331777215
C  C53  1  0.69230000  0.99790000  0.94460000  1.0 0.0457942266
C  C54  1  0.80770000  0.99790000  0.05540000  1.0 0.0457942266
C  C55  1  0.30770000  0.00210000  0.05540000  1.0 0.0457942266
C  C56  1  0.19230000  0.00210000  0.94460000  1.0 0.0457942266
C  C57  1  0.69440000  0.19880000  0.94640000  1.0 0.0331777215
C  C58  1  0.80560000  0.19880000  0.05360000  1.0 0.0331777215
C  C59  1  0.30560000  0.80120000  0.05360000  1.0 0.0359716717
C  C60  1  0.19440000  0.80120000  0.94640000  1.0 0.0331777215
N  N1  1  0.86890000  0.78880000  0.58040000  1.0 -0.170529978
N  N2  1  0.63110000  0.78880000  0.41960000  1.0 -0.170529978
N  N3  1  0.13110000  0.21120000  0.41960000  1.0 -0.170529978
N  N4  1  0.36890000  0.21120000  0.58040000  1.0 -0.170529978
N  N5  1  0.86760000  0.19410000  0.57890000  1.0 -0.170529978
N  N6  1  0.63240000  0.19410000  0.42110000  1.0 -0.170529978
N  N7  1  0.13240000  0.80590000  0.42110000  1.0 -0.170529978
N  N8  1  0.36760000  0.80590000  0.57890000  1.0 -0.170529978
N  N9  1  0.75000000  0.89980000  0.00000000  1.0 -0.1574210509
N  N10  1  0.25000000  0.10020000  0.00000000  1.0 -0.1532099579
N  N11  1  0.75000000  0.30710000  0.00000000  1.0 -0.1574210509
N  N12  1  0.25000000  0.69290000  0.00000000  1.0 -0.1574210509
O  O1  1  0.46710000  0.51120000  0.56600000  1.0 -0.4911531691
O  O2  1  0.03290000  0.51120000  0.43400000  1.0 -0.4911531691
O  O3  1  0.53290000  0.48880000  0.43400000  1.0 -0.4911531691
O  O4  1  0.96710000  0.48880000  0.56600000  1.0 -0.4911531691
O  O5  1  0.47890000  0.51580000  0.67820000  1.0 -0.5188608352
O  O6  1  0.02110000  0.51580000  0.32180000  1.0 -0.5188608352
O  O7  1  0.52110000  0.48420000  0.32180000  1.0 -0.5188608352
O  O8  1  0.97890000  0.48420000  0.67820000  1.0 -0.5188608352
O  O9  1  0.81180000  0.49330000  0.63540000  1.0 -0.533578578
O  O10  1  0.68820000  0.49330000  0.36460000  1.0 -0.533578578
O  O11  1  0.18820000  0.50670000  0.36460000  1.0 -0.533578578
O  O12  1  0.31180000  0.50670000  0.63540000  1.0 -0.533578578
O  O13  1  0.69650000  0.48860000  0.53480000  1.0 -0.5384975258
O  O14  1  0.80350000  0.48860000  0.46520000  1.0 -0.5384975258
O  O15  1  0.30350000  0.51140000  0.46520000  1.0 -0.5384975258
O  O16  1  0.19650000  0.51140000  0.53480000  1.0 -0.5384975258
O  O17  1  0.72470000  0.59600000  0.89310000  1.0 -0.5485261861
O  O18  1  0.77530000  0.59600000  0.10690000  1.0 -0.5485261861
O  O19  1  0.27530000  0.40400000  0.10690000  1.0 -0.5485261861
O  O20  1  0.22470000  0.40400000  0.89310000  1.0 -0.5485261861
O  O21  1  0.83430000  0.54230000  0.89460000  1.0 -0.5384975258
O  O22  1  0.66570000  0.54230000  0.10540000  1.0 -0.5485261861
O  O23  1  0.16570000  0.45770000  0.10540000  1.0 -0.5485261861
O  O24  1  0.33430000  0.45770000  0.89460000  1.0 -0.5485261861
