# DDEC6 charges by PACMAN v1.1 (https://github.com/mtap-research/PACMAN-charge/)
data_NAXKOO_ASR_pacman
_symmetry_space_group_name_H-M   'P 1'
_cell_length_a   11.08330000
_cell_length_b   11.08330000
_cell_length_c   11.08330000
_cell_angle_alpha   145.12500000
_cell_angle_beta   105.82000000
_cell_angle_gamma   84.66210000
_symmetry_Int_Tables_number   1
_chemical_formula_structural   AlC8N4O5
_chemical_formula_sum   'Al2 C16 N8 O10'
_cell_volume   727.56434926
_cell_formula_units_Z   2
loop_
 _symmetry_equiv_pos_site_id
 _symmetry_equiv_pos_as_xyz
  1  'x, y, z'
loop_
 _atom_site_type_symbol
 _atom_site_label
 _atom_site_symmetry_multiplicity
 _atom_site_fract_x
 _atom_site_fract_y
 _atom_site_fract_z
 _atom_site_occupancy
 _atom_site_charge
Al  Al1  1  0.50000000  0.50000000  0.50000000  1.0 1.6699320438
Al  Al2  1  0.50000000  0.00000000  0.00000000  1.0 1.6699320438
C  C1  1  0.93338000  0.65003000  0.65135000  1.0 0.1404070879
C  C2  1  0.50132000  0.84997000  0.28335000  1.0 0.1404070879
C  C3  1  0.06662000  0.71797000  0.71665000  1.0 0.1404070879
C  C4  1  0.49868000  0.78203000  0.34865000  1.0 0.1404070879
C  C5  1  0.06662000  0.34997000  0.34865000  1.0 0.1404070879
C  C6  1  0.49868000  0.15003000  0.71665000  1.0 0.1404070879
C  C7  1  0.93338000  0.28203000  0.28335000  1.0 0.1404070879
C  C8  1  0.50132000  0.21797000  0.65135000  1.0 0.1404070879
C  C9  1  0.86677000  0.43207000  0.43470000  1.0 -0.1980249223
C  C10  1  0.50263000  0.06793000  0.43470000  1.0 -0.1980249223
C  C11  1  0.13323000  0.56793000  0.56530000  1.0 -0.1980249223
C  C12  1  0.49737000  0.93207000  0.56530000  1.0 -0.1980249223
C  C13  1  0.73350000  0.36410000  0.36940000  1.0 0.6407930615
C  C14  1  0.50530000  0.13590000  0.36940000  1.0 0.6407930615
C  C15  1  0.26650000  0.63590000  0.63060000  1.0 0.6407930615
C  C16  1  0.49470000  0.86410000  0.63060000  1.0 0.6407930615
N  N1  1  0.86700000  0.80100000  0.80400000  1.0 -0.0964751424
N  N2  1  0.50300000  0.69900000  0.06600000  1.0 -0.0964751424
N  N3  1  0.13300000  0.93700000  0.93400000  1.0 -0.0964751424
N  N4  1  0.49700000  0.56300000  0.19600000  1.0 -0.0964751424
N  N5  1  0.13300000  0.19900000  0.19600000  1.0 -0.0964751424
N  N6  1  0.49700000  0.30100000  0.93400000  1.0 -0.0964751424
N  N7  1  0.86700000  0.06300000  0.06600000  1.0 -0.0964751424
N  N8  1  0.50300000  0.43700000  0.80400000  1.0 -0.0964751424
O  O1  1  0.43840000  0.25000000  0.18840000  1.0 -0.8940946696
O  O2  1  0.56160000  0.75000000  0.81160000  1.0 -0.8940946696
O  O3  1  0.67508000  0.49623000  0.50265000  1.0 -0.4592753587
O  O4  1  0.50642000  0.00377000  0.17885000  1.0 -0.4592753587
O  O5  1  0.32492000  0.82757000  0.82115000  1.0 -0.4592753587
O  O6  1  0.49358000  0.67243000  0.49735000  1.0 -0.4592753587
O  O7  1  0.32492000  0.50377000  0.49735000  1.0 -0.4592753587
O  O8  1  0.49358000  0.99623000  0.82115000  1.0 -0.4592753587
O  O9  1  0.67508000  0.17243000  0.17885000  1.0 -0.4592753587
O  O10  1  0.50642000  0.32757000  0.50265000  1.0 -0.4592753587
