# DDEC6 charges by PACMAN v1.1 (https://github.com/mtap-research/PACMAN-charge/)
data_NAYZOE_FSR_pacman
_symmetry_space_group_name_H-M   'P 1'
_cell_length_a   23.21100000
_cell_length_b   23.21100000
_cell_length_c   23.21100000
_cell_angle_alpha   90.00000000
_cell_angle_beta   90.00000000
_cell_angle_gamma   90.00000000
_symmetry_Int_Tables_number   1
_chemical_formula_structural   Cu3H24C42N2O15
_chemical_formula_sum   'Cu12 H96 C168 N8 O60'
_cell_volume   12504.93834293
_cell_formula_units_Z   4
loop_
 _symmetry_equiv_pos_site_id
 _symmetry_equiv_pos_as_xyz
  1  'x, y, z'
loop_
 _atom_site_type_symbol
 _atom_site_label
 _atom_site_symmetry_multiplicity
 _atom_site_fract_x
 _atom_site_fract_y
 _atom_site_fract_z
 _atom_site_occupancy
 _atom_site_charge
Cu  Cu1  1  0.30648000  0.50000000  0.00000000  1.0 0.9180301387
Cu  Cu2  1  0.69352000  0.50000000  0.00000000  1.0 0.9180301387
Cu  Cu3  1  0.00000000  0.30648000  0.50000000  1.0 0.9180301387
Cu  Cu4  1  0.00000000  0.69352000  0.50000000  1.0 0.9180301387
Cu  Cu5  1  0.50000000  0.00000000  0.30648000  1.0 0.9180301387
Cu  Cu6  1  0.50000000  0.00000000  0.69352000  1.0 0.9180301387
Cu  Cu7  1  0.00000000  0.80648000  0.50000000  1.0 0.9180301387
Cu  Cu8  1  0.00000000  0.19352000  0.50000000  1.0 0.9180301387
Cu  Cu9  1  0.80648000  0.50000000  0.00000000  1.0 0.9180301387
Cu  Cu10  1  0.19352000  0.50000000  0.00000000  1.0 0.9180301387
Cu  Cu11  1  0.50000000  0.00000000  0.19352000  1.0 0.9180301387
Cu  Cu12  1  0.50000000  0.00000000  0.80648000  1.0 0.9180301387
H  H1  1  0.33450000  0.37020000  0.12890000  1.0 0.1346057594
H  H2  1  0.66550000  0.62980000  0.12890000  1.0 0.1346057594
H  H3  1  0.66550000  0.37020000  0.87110000  1.0 0.1346057594
H  H4  1  0.33450000  0.62980000  0.87110000  1.0 0.1346057594
H  H5  1  0.12890000  0.33450000  0.37020000  1.0 0.1346057594
H  H6  1  0.12890000  0.66550000  0.62980000  1.0 0.1346057594
H  H7  1  0.87110000  0.66550000  0.37020000  1.0 0.1346057594
H  H8  1  0.87110000  0.33450000  0.62980000  1.0 0.1346057594
H  H9  1  0.37020000  0.12890000  0.33450000  1.0 0.1346057594
H  H10  1  0.62980000  0.12890000  0.66550000  1.0 0.1346057594
H  H11  1  0.37020000  0.87110000  0.66550000  1.0 0.1346057594
H  H12  1  0.62980000  0.87110000  0.33450000  1.0 0.1346057594
H  H13  1  0.87020000  0.83450000  0.37110000  1.0 0.1346057594
H  H14  1  0.12980000  0.16550000  0.37110000  1.0 0.1346057594
H  H15  1  0.87020000  0.16550000  0.62890000  1.0 0.1346057594
H  H16  1  0.12980000  0.83450000  0.62890000  1.0 0.1346057594
H  H17  1  0.83450000  0.62890000  0.12980000  1.0 0.1346057594
H  H18  1  0.16550000  0.62890000  0.87020000  1.0 0.1346057594
H  H19  1  0.16550000  0.37110000  0.12980000  1.0 0.1346057594
H  H20  1  0.83450000  0.37110000  0.87020000  1.0 0.1346057594
H  H21  1  0.62890000  0.87020000  0.16550000  1.0 0.1346057594
H  H22  1  0.62890000  0.12980000  0.83450000  1.0 0.1346057594
H  H23  1  0.37110000  0.87020000  0.83450000  1.0 0.1346057594
H  H24  1  0.37110000  0.12980000  0.16550000  1.0 0.1346057594
H  H25  1  0.66550000  0.62980000  0.87110000  1.0 0.1346057594
H  H26  1  0.33450000  0.37020000  0.87110000  1.0 0.1346057594
H  H27  1  0.33450000  0.62980000  0.12890000  1.0 0.1346057594
H  H28  1  0.66550000  0.37020000  0.12890000  1.0 0.1346057594
H  H29  1  0.87110000  0.66550000  0.62980000  1.0 0.1346057594
H  H30  1  0.87110000  0.33450000  0.37020000  1.0 0.1346057594
H  H31  1  0.12890000  0.33450000  0.62980000  1.0 0.1346057594
H  H32  1  0.12890000  0.66550000  0.37020000  1.0 0.1346057594
H  H33  1  0.62980000  0.87110000  0.66550000  1.0 0.1346057594
H  H34  1  0.37020000  0.87110000  0.33450000  1.0 0.1346057594
H  H35  1  0.62980000  0.12890000  0.33450000  1.0 0.1346057594
H  H36  1  0.37020000  0.12890000  0.66550000  1.0 0.1346057594
H  H37  1  0.12980000  0.16550000  0.62890000  1.0 0.1346057594
H  H38  1  0.87020000  0.83450000  0.62890000  1.0 0.1346057594
H  H39  1  0.12980000  0.83450000  0.37110000  1.0 0.1346057594
H  H40  1  0.87020000  0.16550000  0.37110000  1.0 0.1346057594
H  H41  1  0.16550000  0.37110000  0.87020000  1.0 0.1346057594
H  H42  1  0.83450000  0.37110000  0.12980000  1.0 0.1346057594
H  H43  1  0.83450000  0.62890000  0.87020000  1.0 0.1346057594
H  H44  1  0.16550000  0.62890000  0.12980000  1.0 0.1346057594
H  H45  1  0.37110000  0.12980000  0.83450000  1.0 0.1346057594
H  H46  1  0.37110000  0.87020000  0.16550000  1.0 0.1346057594
H  H47  1  0.62890000  0.12980000  0.16550000  1.0 0.1346057594
H  H48  1  0.62890000  0.87020000  0.83450000  1.0 0.1346057594
H  H49  1  0.33520000  0.30430000  0.20330000  1.0 0.1384605002
H  H50  1  0.66480000  0.69570000  0.20330000  1.0 0.1384605002
H  H51  1  0.66480000  0.30430000  0.79670000  1.0 0.1384605002
H  H52  1  0.33520000  0.69570000  0.79670000  1.0 0.1384605002
H  H53  1  0.20330000  0.33520000  0.30430000  1.0 0.1384605002
H  H54  1  0.20330000  0.66480000  0.69570000  1.0 0.1384605002
H  H55  1  0.79670000  0.66480000  0.30430000  1.0 0.1384605002
H  H56  1  0.79670000  0.33520000  0.69570000  1.0 0.1384605002
H  H57  1  0.30430000  0.20330000  0.33520000  1.0 0.1384605002
H  H58  1  0.69570000  0.20330000  0.66480000  1.0 0.1384605002
H  H59  1  0.30430000  0.79670000  0.66480000  1.0 0.1384605002
H  H60  1  0.69570000  0.79670000  0.33520000  1.0 0.1384605002
H  H61  1  0.80430000  0.83520000  0.29670000  1.0 0.1384605002
H  H62  1  0.19570000  0.16480000  0.29670000  1.0 0.1384605002
H  H63  1  0.80430000  0.16480000  0.70330000  1.0 0.1384605002
H  H64  1  0.19570000  0.83520000  0.70330000  1.0 0.1384605002
H  H65  1  0.83520000  0.70330000  0.19570000  1.0 0.1384605002
H  H66  1  0.16480000  0.70330000  0.80430000  1.0 0.1384605002
H  H67  1  0.16480000  0.29670000  0.19570000  1.0 0.1384605002
H  H68  1  0.83520000  0.29670000  0.80430000  1.0 0.1384605002
H  H69  1  0.70330000  0.80430000  0.16480000  1.0 0.1384605002
H  H70  1  0.70330000  0.19570000  0.83520000  1.0 0.1384605002
H  H71  1  0.29670000  0.80430000  0.83520000  1.0 0.1384605002
H  H72  1  0.29670000  0.19570000  0.16480000  1.0 0.1384605002
H  H73  1  0.66480000  0.69570000  0.79670000  1.0 0.1384605002
H  H74  1  0.33520000  0.30430000  0.79670000  1.0 0.1384605002
H  H75  1  0.33520000  0.69570000  0.20330000  1.0 0.1384605002
H  H76  1  0.66480000  0.30430000  0.20330000  1.0 0.1384605002
H  H77  1  0.79670000  0.66480000  0.69570000  1.0 0.1384605002
H  H78  1  0.79670000  0.33520000  0.30430000  1.0 0.1384605002
H  H79  1  0.20330000  0.33520000  0.69570000  1.0 0.1384605002
H  H80  1  0.20330000  0.66480000  0.30430000  1.0 0.1384605002
H  H81  1  0.69570000  0.79670000  0.66480000  1.0 0.1384605002
H  H82  1  0.30430000  0.79670000  0.33520000  1.0 0.1384605002
H  H83  1  0.69570000  0.20330000  0.33520000  1.0 0.1384605002
H  H84  1  0.30430000  0.20330000  0.66480000  1.0 0.1384605002
H  H85  1  0.19570000  0.16480000  0.70330000  1.0 0.1384605002
H  H86  1  0.80430000  0.83520000  0.70330000  1.0 0.1384605002
H  H87  1  0.19570000  0.83520000  0.29670000  1.0 0.1384605002
H  H88  1  0.80430000  0.16480000  0.29670000  1.0 0.1384605002
H  H89  1  0.16480000  0.29670000  0.80430000  1.0 0.1384605002
H  H90  1  0.83520000  0.29670000  0.19570000  1.0 0.1384605002
H  H91  1  0.83520000  0.70330000  0.80430000  1.0 0.1384605002
H  H92  1  0.16480000  0.70330000  0.19570000  1.0 0.1384605002
H  H93  1  0.29670000  0.19570000  0.83520000  1.0 0.1384605002
H  H94  1  0.29670000  0.80430000  0.16480000  1.0 0.1384605002
H  H95  1  0.70330000  0.19570000  0.16480000  1.0 0.1384605002
H  H96  1  0.70330000  0.80430000  0.83520000  1.0 0.1384605002
C  C1  1  0.25000000  0.42240000  0.07760000  1.0 0.5667089606
C  C2  1  0.75000000  0.57760000  0.07760000  1.0 0.5667089606
C  C3  1  0.75000000  0.42240000  0.92240000  1.0 0.5667089606
C  C4  1  0.25000000  0.57760000  0.92240000  1.0 0.5667089606
C  C5  1  0.07760000  0.25000000  0.42240000  1.0 0.5667089606
C  C6  1  0.07760000  0.75000000  0.57760000  1.0 0.5667089606
C  C7  1  0.92240000  0.75000000  0.42240000  1.0 0.5667089606
C  C8  1  0.92240000  0.25000000  0.57760000  1.0 0.5667089606
C  C9  1  0.42240000  0.07760000  0.25000000  1.0 0.5667089606
C  C10  1  0.57760000  0.07760000  0.75000000  1.0 0.5667089606
C  C11  1  0.42240000  0.92240000  0.75000000  1.0 0.5667089606
C  C12  1  0.57760000  0.92240000  0.25000000  1.0 0.5667089606
C  C13  1  0.75000000  0.57760000  0.92240000  1.0 0.5667089606
C  C14  1  0.25000000  0.42240000  0.92240000  1.0 0.5667089606
C  C15  1  0.25000000  0.57760000  0.07760000  1.0 0.5667089606
C  C16  1  0.75000000  0.42240000  0.07760000  1.0 0.5667089606
C  C17  1  0.92240000  0.75000000  0.57760000  1.0 0.5667089606
C  C18  1  0.92240000  0.25000000  0.42240000  1.0 0.5667089606
C  C19  1  0.07760000  0.25000000  0.57760000  1.0 0.5667089606
C  C20  1  0.07760000  0.75000000  0.42240000  1.0 0.5667089606
C  C21  1  0.57760000  0.92240000  0.75000000  1.0 0.5667089606
C  C22  1  0.42240000  0.92240000  0.25000000  1.0 0.5667089606
C  C23  1  0.57760000  0.07760000  0.25000000  1.0 0.5667089606
C  C24  1  0.42240000  0.07760000  0.75000000  1.0 0.5667089606
C  C25  1  0.25000000  0.37900000  0.12100000  1.0 -0.1040994889
C  C26  1  0.75000000  0.62100000  0.12100000  1.0 -0.1040994889
C  C27  1  0.75000000  0.37900000  0.87900000  1.0 -0.1040994889
C  C28  1  0.25000000  0.62100000  0.87900000  1.0 -0.1040994889
C  C29  1  0.12100000  0.25000000  0.37900000  1.0 -0.1040994889
C  C30  1  0.12100000  0.75000000  0.62100000  1.0 -0.1040994889
C  C31  1  0.87900000  0.75000000  0.37900000  1.0 -0.1040994889
C  C32  1  0.87900000  0.25000000  0.62100000  1.0 -0.1040994889
C  C33  1  0.37900000  0.12100000  0.25000000  1.0 -0.1040994889
C  C34  1  0.62100000  0.12100000  0.75000000  1.0 -0.1040994889
C  C35  1  0.37900000  0.87900000  0.75000000  1.0 -0.1040994889
C  C36  1  0.62100000  0.87900000  0.25000000  1.0 -0.1040994889
C  C37  1  0.75000000  0.62100000  0.87900000  1.0 -0.1040994889
C  C38  1  0.25000000  0.37900000  0.87900000  1.0 -0.1040994889
C  C39  1  0.25000000  0.62100000  0.12100000  1.0 -0.1040994889
C  C40  1  0.75000000  0.37900000  0.12100000  1.0 -0.1040994889
C  C41  1  0.87900000  0.75000000  0.62100000  1.0 -0.1040994889
C  C42  1  0.87900000  0.25000000  0.37900000  1.0 -0.1040994889
C  C43  1  0.12100000  0.25000000  0.62100000  1.0 -0.1040994889
C  C44  1  0.12100000  0.75000000  0.37900000  1.0 -0.1040994889
C  C45  1  0.62100000  0.87900000  0.75000000  1.0 -0.1040994889
C  C46  1  0.37900000  0.87900000  0.25000000  1.0 -0.1040994889
C  C47  1  0.62100000  0.12100000  0.25000000  1.0 -0.1040994889
C  C48  1  0.37900000  0.12100000  0.75000000  1.0 -0.1040994889
C  C49  1  0.29960000  0.35720000  0.14350000  1.0 -0.0528896821
C  C50  1  0.70040000  0.64280000  0.14350000  1.0 -0.0528896821
C  C51  1  0.70040000  0.35720000  0.85650000  1.0 -0.0528896821
C  C52  1  0.29960000  0.64280000  0.85650000  1.0 -0.0528896821
C  C53  1  0.14350000  0.29960000  0.35720000  1.0 -0.0528896821
C  C54  1  0.14350000  0.70040000  0.64280000  1.0 -0.0528896821
C  C55  1  0.85650000  0.70040000  0.35720000  1.0 -0.0528896821
C  C56  1  0.85650000  0.29960000  0.64280000  1.0 -0.0528896821
C  C57  1  0.35720000  0.14350000  0.29960000  1.0 -0.0528896821
C  C58  1  0.64280000  0.14350000  0.70040000  1.0 -0.0528896821
C  C59  1  0.35720000  0.85650000  0.70040000  1.0 -0.0528896821
C  C60  1  0.64280000  0.85650000  0.29960000  1.0 -0.0528896821
C  C61  1  0.85720000  0.79960000  0.35650000  1.0 -0.0528896821
C  C62  1  0.14280000  0.20040000  0.35650000  1.0 -0.0528896821
C  C63  1  0.85720000  0.20040000  0.64350000  1.0 -0.0528896821
C  C64  1  0.14280000  0.79960000  0.64350000  1.0 -0.0528896821
C  C65  1  0.79960000  0.64350000  0.14280000  1.0 -0.0528896821
C  C66  1  0.20040000  0.64350000  0.85720000  1.0 -0.0528896821
C  C67  1  0.20040000  0.35650000  0.14280000  1.0 -0.0528896821
C  C68  1  0.79960000  0.35650000  0.85720000  1.0 -0.0528896821
C  C69  1  0.64350000  0.85720000  0.20040000  1.0 -0.0528896821
C  C70  1  0.64350000  0.14280000  0.79960000  1.0 -0.0528896821
C  C71  1  0.35650000  0.85720000  0.79960000  1.0 -0.0528896821
C  C72  1  0.35650000  0.14280000  0.20040000  1.0 -0.0528896821
C  C73  1  0.70040000  0.64280000  0.85650000  1.0 -0.0528896821
C  C74  1  0.29960000  0.35720000  0.85650000  1.0 -0.0528896821
C  C75  1  0.29960000  0.64280000  0.14350000  1.0 -0.0528896821
C  C76  1  0.70040000  0.35720000  0.14350000  1.0 -0.0528896821
C  C77  1  0.85650000  0.70040000  0.64280000  1.0 -0.0528896821
C  C78  1  0.85650000  0.29960000  0.35720000  1.0 -0.0528896821
C  C79  1  0.14350000  0.29960000  0.64280000  1.0 -0.0528896821
C  C80  1  0.14350000  0.70040000  0.35720000  1.0 -0.0528896821
C  C81  1  0.64280000  0.85650000  0.70040000  1.0 -0.0528896821
C  C82  1  0.35720000  0.85650000  0.29960000  1.0 -0.0528896821
C  C83  1  0.64280000  0.14350000  0.29960000  1.0 -0.0528896821
C  C84  1  0.35720000  0.14350000  0.70040000  1.0 -0.0528896821
C  C85  1  0.14280000  0.20040000  0.64350000  1.0 -0.0528896821
C  C86  1  0.85720000  0.79960000  0.64350000  1.0 -0.0528896821
C  C87  1  0.14280000  0.79960000  0.35650000  1.0 -0.0528896821
C  C88  1  0.85720000  0.20040000  0.35650000  1.0 -0.0528896821
C  C89  1  0.20040000  0.35650000  0.85720000  1.0 -0.0528896821
C  C90  1  0.79960000  0.35650000  0.14280000  1.0 -0.0528896821
C  C91  1  0.79960000  0.64350000  0.85720000  1.0 -0.0528896821
C  C92  1  0.20040000  0.64350000  0.14280000  1.0 -0.0528896821
C  C93  1  0.35650000  0.14280000  0.79960000  1.0 -0.0528896821
C  C94  1  0.35650000  0.85720000  0.20040000  1.0 -0.0528896821
C  C95  1  0.64350000  0.14280000  0.20040000  1.0 -0.0528896821
C  C96  1  0.64350000  0.85720000  0.79960000  1.0 -0.0528896821
C  C97  1  0.30030000  0.31600000  0.18740000  1.0 -0.1855230745
C  C98  1  0.69970000  0.68400000  0.18740000  1.0 -0.1855230745
C  C99  1  0.69970000  0.31600000  0.81260000  1.0 -0.1855230745
C  C100  1  0.30030000  0.68400000  0.81260000  1.0 -0.1855230745
C  C101  1  0.18740000  0.30030000  0.31600000  1.0 -0.1855230745
C  C102  1  0.18740000  0.69970000  0.68400000  1.0 -0.1855230745
C  C103  1  0.81260000  0.69970000  0.31600000  1.0 -0.1855230745
C  C104  1  0.81260000  0.30030000  0.68400000  1.0 -0.1855230745
C  C105  1  0.31600000  0.18740000  0.30030000  1.0 -0.1855230745
C  C106  1  0.68400000  0.18740000  0.69970000  1.0 -0.1855230745
C  C107  1  0.31600000  0.81260000  0.69970000  1.0 -0.1855230745
C  C108  1  0.68400000  0.81260000  0.30030000  1.0 -0.1855230745
C  C109  1  0.81600000  0.80030000  0.31260000  1.0 -0.1855230745
C  C110  1  0.18400000  0.19970000  0.31260000  1.0 -0.1855230745
C  C111  1  0.81600000  0.19970000  0.68740000  1.0 -0.1855230745
C  C112  1  0.18400000  0.80030000  0.68740000  1.0 -0.1855230745
C  C113  1  0.80030000  0.68740000  0.18400000  1.0 -0.1855230745
C  C114  1  0.19970000  0.68740000  0.81600000  1.0 -0.1855230745
C  C115  1  0.19970000  0.31260000  0.18400000  1.0 -0.1855230745
C  C116  1  0.80030000  0.31260000  0.81600000  1.0 -0.1855230745
C  C117  1  0.68740000  0.81600000  0.19970000  1.0 -0.1855230745
C  C118  1  0.68740000  0.18400000  0.80030000  1.0 -0.1855230745
C  C119  1  0.31260000  0.81600000  0.80030000  1.0 -0.1855230745
C  C120  1  0.31260000  0.18400000  0.19970000  1.0 -0.1855230745
C  C121  1  0.69970000  0.68400000  0.81260000  1.0 -0.1855230745
C  C122  1  0.30030000  0.31600000  0.81260000  1.0 -0.1855230745
C  C123  1  0.30030000  0.68400000  0.18740000  1.0 -0.1855230745
C  C124  1  0.69970000  0.31600000  0.18740000  1.0 -0.1855230745
C  C125  1  0.81260000  0.69970000  0.68400000  1.0 -0.1855230745
C  C126  1  0.81260000  0.30030000  0.31600000  1.0 -0.1855230745
C  C127  1  0.18740000  0.30030000  0.68400000  1.0 -0.1855230745
C  C128  1  0.18740000  0.69970000  0.31600000  1.0 -0.1855230745
C  C129  1  0.68400000  0.81260000  0.69970000  1.0 -0.1855230745
C  C130  1  0.31600000  0.81260000  0.30030000  1.0 -0.1855230745
C  C131  1  0.68400000  0.18740000  0.30030000  1.0 -0.1855230745
C  C132  1  0.31600000  0.18740000  0.69970000  1.0 -0.1855230745
C  C133  1  0.18400000  0.19970000  0.68740000  1.0 -0.1855230745
C  C134  1  0.81600000  0.80030000  0.68740000  1.0 -0.1855230745
C  C135  1  0.18400000  0.80030000  0.31260000  1.0 -0.1855230745
C  C136  1  0.81600000  0.19970000  0.31260000  1.0 -0.1855230745
C  C137  1  0.19970000  0.31260000  0.81600000  1.0 -0.1855230745
C  C138  1  0.80030000  0.31260000  0.18400000  1.0 -0.1855230745
C  C139  1  0.80030000  0.68740000  0.81600000  1.0 -0.1855230745
C  C140  1  0.19970000  0.68740000  0.18400000  1.0 -0.1855230745
C  C141  1  0.31260000  0.18400000  0.80030000  1.0 -0.1855230745
C  C142  1  0.31260000  0.81600000  0.19970000  1.0 -0.1855230745
C  C143  1  0.68740000  0.18400000  0.19970000  1.0 -0.1855230745
C  C144  1  0.68740000  0.81600000  0.80030000  1.0 -0.1855230745
C  C145  1  0.25000000  0.29310000  0.20690000  1.0 0.1752414277
C  C146  1  0.75000000  0.70690000  0.20690000  1.0 0.1752414277
C  C147  1  0.75000000  0.29310000  0.79310000  1.0 0.1752414277
C  C148  1  0.25000000  0.70690000  0.79310000  1.0 0.1752414277
C  C149  1  0.20690000  0.25000000  0.29310000  1.0 0.1752414277
C  C150  1  0.20690000  0.75000000  0.70690000  1.0 0.1752414277
C  C151  1  0.79310000  0.75000000  0.29310000  1.0 0.1752414277
C  C152  1  0.79310000  0.25000000  0.70690000  1.0 0.1752414277
C  C153  1  0.29310000  0.20690000  0.25000000  1.0 0.1752414277
C  C154  1  0.70690000  0.20690000  0.75000000  1.0 0.1752414277
C  C155  1  0.29310000  0.79310000  0.75000000  1.0 0.1752414277
C  C156  1  0.70690000  0.79310000  0.25000000  1.0 0.1752414277
C  C157  1  0.75000000  0.70690000  0.79310000  1.0 0.1752414277
C  C158  1  0.25000000  0.29310000  0.79310000  1.0 0.1752414277
C  C159  1  0.25000000  0.70690000  0.20690000  1.0 0.1752414277
C  C160  1  0.75000000  0.29310000  0.20690000  1.0 0.1752414277
C  C161  1  0.79310000  0.75000000  0.70690000  1.0 0.1752414277
C  C162  1  0.79310000  0.25000000  0.29310000  1.0 0.1752414277
C  C163  1  0.20690000  0.25000000  0.70690000  1.0 0.1752414277
C  C164  1  0.20690000  0.75000000  0.29310000  1.0 0.1752414277
C  C165  1  0.70690000  0.79310000  0.75000000  1.0 0.1752414277
C  C166  1  0.29310000  0.79310000  0.25000000  1.0 0.1752414277
C  C167  1  0.70690000  0.20690000  0.25000000  1.0 0.1752414277
C  C168  1  0.29310000  0.20690000  0.75000000  1.0 0.1752414277
N  N1  1  0.25000000  0.25000000  0.25000000  1.0 -0.1587548874
N  N2  1  0.75000000  0.75000000  0.25000000  1.0 -0.1587548874
N  N3  1  0.75000000  0.25000000  0.75000000  1.0 -0.1587548874
N  N4  1  0.25000000  0.75000000  0.75000000  1.0 -0.1587548874
N  N5  1  0.75000000  0.75000000  0.75000000  1.0 -0.1587548874
N  N6  1  0.25000000  0.25000000  0.75000000  1.0 -0.1587548874
N  N7  1  0.25000000  0.75000000  0.25000000  1.0 -0.1587548874
N  N8  1  0.75000000  0.25000000  0.25000000  1.0 -0.1587548874
O  O1  1  0.29728000  0.44100000  0.05897000  1.0 -0.493828415
O  O2  1  0.70272000  0.55900000  0.05897000  1.0 -0.493828415
O  O3  1  0.70272000  0.44100000  0.94103000  1.0 -0.493828415
O  O4  1  0.29728000  0.55900000  0.94103000  1.0 -0.493828415
O  O5  1  0.05897000  0.29728000  0.44100000  1.0 -0.493828415
O  O6  1  0.05897000  0.70272000  0.55900000  1.0 -0.493828415
O  O7  1  0.94103000  0.70272000  0.44100000  1.0 -0.493828415
O  O8  1  0.94103000  0.29728000  0.55900000  1.0 -0.493828415
O  O9  1  0.44100000  0.05897000  0.29728000  1.0 -0.493828415
O  O10  1  0.55900000  0.05897000  0.70272000  1.0 -0.493828415
O  O11  1  0.44100000  0.94103000  0.70272000  1.0 -0.493828415
O  O12  1  0.55900000  0.94103000  0.29728000  1.0 -0.493828415
O  O13  1  0.94100000  0.79728000  0.44103000  1.0 -0.493828415
O  O14  1  0.05900000  0.20272000  0.44103000  1.0 -0.493828415
O  O15  1  0.94100000  0.20272000  0.55897000  1.0 -0.493828415
O  O16  1  0.05900000  0.79728000  0.55897000  1.0 -0.493828415
O  O17  1  0.79728000  0.55897000  0.05900000  1.0 -0.493828415
O  O18  1  0.20272000  0.55897000  0.94100000  1.0 -0.493828415
O  O19  1  0.20272000  0.44103000  0.05900000  1.0 -0.493828415
O  O20  1  0.79728000  0.44103000  0.94100000  1.0 -0.493828415
O  O21  1  0.55897000  0.94100000  0.20272000  1.0 -0.493828415
O  O22  1  0.55897000  0.05900000  0.79728000  1.0 -0.493828415
O  O23  1  0.44103000  0.94100000  0.79728000  1.0 -0.493828415
O  O24  1  0.44103000  0.05900000  0.20272000  1.0 -0.493828415
O  O25  1  0.70272000  0.55900000  0.94103000  1.0 -0.493828415
O  O26  1  0.29728000  0.44100000  0.94103000  1.0 -0.493828415
O  O27  1  0.29728000  0.55900000  0.05897000  1.0 -0.493828415
O  O28  1  0.70272000  0.44100000  0.05897000  1.0 -0.493828415
O  O29  1  0.94103000  0.70272000  0.55900000  1.0 -0.493828415
O  O30  1  0.94103000  0.29728000  0.44100000  1.0 -0.493828415
O  O31  1  0.05897000  0.29728000  0.55900000  1.0 -0.493828415
O  O32  1  0.05897000  0.70272000  0.44100000  1.0 -0.493828415
O  O33  1  0.55900000  0.94103000  0.70272000  1.0 -0.493828415
O  O34  1  0.44100000  0.94103000  0.29728000  1.0 -0.493828415
O  O35  1  0.55900000  0.05897000  0.29728000  1.0 -0.493828415
O  O36  1  0.44100000  0.05897000  0.70272000  1.0 -0.493828415
O  O37  1  0.05900000  0.20272000  0.55897000  1.0 -0.493828415
O  O38  1  0.94100000  0.79728000  0.55897000  1.0 -0.493828415
O  O39  1  0.05900000  0.79728000  0.44103000  1.0 -0.493828415
O  O40  1  0.94100000  0.20272000  0.44103000  1.0 -0.493828415
O  O41  1  0.20272000  0.44103000  0.94100000  1.0 -0.493828415
O  O42  1  0.79728000  0.44103000  0.05900000  1.0 -0.493828415
O  O43  1  0.79728000  0.55897000  0.94100000  1.0 -0.493828415
O  O44  1  0.20272000  0.55897000  0.05900000  1.0 -0.493828415
O  O45  1  0.44103000  0.05900000  0.79728000  1.0 -0.493828415
O  O46  1  0.44103000  0.94100000  0.20272000  1.0 -0.493828415
O  O47  1  0.55897000  0.05900000  0.20272000  1.0 -0.493828415
O  O48  1  0.55897000  0.94100000  0.79728000  1.0 -0.493828415
O  O49  1  0.39980000  0.50000000  0.00000000  1.0 -0.2511956981
O  O50  1  0.60020000  0.50000000  0.00000000  1.0 -0.2511956981
O  O51  1  0.00000000  0.39980000  0.50000000  1.0 -0.2511956981
O  O52  1  0.00000000  0.60020000  0.50000000  1.0 -0.2511956981
O  O53  1  0.50000000  0.00000000  0.39980000  1.0 -0.2511956981
O  O54  1  0.50000000  0.00000000  0.60020000  1.0 -0.2511956981
O  O55  1  0.00000000  0.89980000  0.50000000  1.0 -0.2511956981
O  O56  1  0.00000000  0.10020000  0.50000000  1.0 -0.2511956981
O  O57  1  0.89980000  0.50000000  0.00000000  1.0 -0.2511956981
O  O58  1  0.10020000  0.50000000  0.00000000  1.0 -0.2511956981
O  O59  1  0.50000000  0.00000000  0.10020000  1.0 -0.2511956981
O  O60  1  0.50000000  0.00000000  0.89980000  1.0 -0.2511956981
