# DDEC6 charges by PACMAN v1.1 (https://github.com/mtap-research/PACMAN-charge/)
data_NAZZEV_FSR_pacman
_symmetry_space_group_name_H-M   'P 1'
_cell_length_a   17.03010000
_cell_length_b   15.58640000
_cell_length_c   25.47500000
_cell_angle_alpha   90.00000000
_cell_angle_beta   98.42800000
_cell_angle_gamma   90.00000000
_symmetry_Int_Tables_number   1
_chemical_formula_structural   Sm2H18C46N8O15
_chemical_formula_sum   'Sm8 H72 C184 N32 O60'
_cell_volume   6689.00742923
_cell_formula_units_Z   4
loop_
 _symmetry_equiv_pos_site_id
 _symmetry_equiv_pos_as_xyz
  1  'x, y, z'
loop_
 _atom_site_type_symbol
 _atom_site_label
 _atom_site_symmetry_multiplicity
 _atom_site_fract_x
 _atom_site_fract_y
 _atom_site_fract_z
 _atom_site_occupancy
 _atom_site_charge
Sm  Sm1  1  0.96244000  0.29514000  0.25036000  1.0 2.1427978634
Sm  Sm2  1  0.53756000  0.79514000  0.74964000  1.0 2.1427978634
Sm  Sm3  1  0.03756000  0.70486000  0.74964000  1.0 2.1427978634
Sm  Sm4  1  0.46244000  0.20486000  0.25036000  1.0 2.1427978634
Sm  Sm5  1  0.18493000  0.17593000  0.24829000  1.0 2.1113478898
Sm  Sm6  1  0.31507000  0.67593000  0.75171000  1.0 2.1113478898
Sm  Sm7  1  0.81507000  0.82407000  0.75171000  1.0 2.1113478898
Sm  Sm8  1  0.68493000  0.32407000  0.24829000  1.0 2.1113478898
H  H1  1  0.11330000  0.99570000  0.38490000  1.0 0.119876567
H  H2  1  0.38670000  0.49570000  0.61510000  1.0 0.119876567
H  H3  1  0.88670000  0.00430000  0.61510000  1.0 0.119876567
H  H4  1  0.61330000  0.50430000  0.38490000  1.0 0.119876567
H  H5  1  0.09330000  0.93980000  0.46340000  1.0 0.119876567
H  H6  1  0.40670000  0.43980000  0.53660000  1.0 0.119876567
H  H7  1  0.90670000  0.06020000  0.53660000  1.0 0.119876567
H  H8  1  0.59330000  0.56020000  0.46340000  1.0 0.119876567
H  H9  1  0.93330000  0.16280000  0.38760000  1.0 0.1294064739
H  H10  1  0.56670000  0.66280000  0.61240000  1.0 0.1294064739
H  H11  1  0.06670000  0.83720000  0.61240000  1.0 0.1294064739
H  H12  1  0.43330000  0.33720000  0.38760000  1.0 0.1294064739
H  H13  1  0.23750000  0.34850000  0.12630000  1.0 0.1386060289
H  H14  1  0.26250000  0.84850000  0.87370000  1.0 0.1386060289
H  H15  1  0.76250000  0.65150000  0.87370000  1.0 0.1386060289
H  H16  1  0.73750000  0.15150000  0.12630000  1.0 0.1386060289
H  H17  1  0.26120000  0.42390000  0.05080000  1.0 0.1113187729
H  H18  1  0.23880000  0.92390000  0.94920000  1.0 0.1113187729
H  H19  1  0.73880000  0.57610000  0.94920000  1.0 0.1113187729
H  H20  1  0.76120000  0.07610000  0.05080000  1.0 0.1113187729
H  H21  1  0.03180000  0.47940000  0.12620000  1.0 0.119876567
H  H22  1  0.46820000  0.97940000  0.87380000  1.0 0.119876567
H  H23  1  0.96820000  0.52060000  0.87380000  1.0 0.119876567
H  H24  1  0.53180000  0.02060000  0.12620000  1.0 0.1113187729
H  H25  1  0.28050000  0.50150000  0.99760000  1.0 0.119876567
H  H26  1  0.21950000  0.00150000  0.00240000  1.0 0.119876567
H  H27  1  0.71950000  0.49850000  0.00240000  1.0 0.119876567
H  H28  1  0.78050000  0.99850000  0.99760000  1.0 0.119876567
H  H29  1  0.29620000  0.55730000  0.91450000  1.0 0.119876567
H  H30  1  0.20380000  0.05730000  0.08550000  1.0 0.119876567
H  H31  1  0.70380000  0.44270000  0.08550000  1.0 0.119876567
H  H32  1  0.79620000  0.94270000  0.91450000  1.0 0.119876567
H  H33  1  0.06890000  0.64230000  0.89480000  1.0 0.119876567
H  H34  1  0.43110000  0.14230000  0.10520000  1.0 0.119876567
H  H35  1  0.93110000  0.35770000  0.10520000  1.0 0.119876567
H  H36  1  0.56890000  0.85770000  0.89480000  1.0 0.119876567
H  H37  1  0.87680000  0.13250000  0.08600000  1.0 0.1294064739
H  H38  1  0.62320000  0.63250000  0.91400000  1.0 0.1294064739
H  H39  1  0.12320000  0.86750000  0.91400000  1.0 0.1294064739
H  H40  1  0.37680000  0.36750000  0.08600000  1.0 0.1294064739
H  H41  1  0.88300000  0.05400000  0.00890000  1.0 0.119876567
H  H42  1  0.61700000  0.55400000  0.99110000  1.0 0.119876567
H  H43  1  0.11700000  0.94600000  0.99110000  1.0 0.119876567
H  H44  1  0.38300000  0.44600000  0.00890000  1.0 0.119876567
H  H45  1  0.10480000  0.07500000  0.12970000  1.0 0.119876567
H  H46  1  0.39520000  0.57500000  0.87030000  1.0 0.119876567
H  H47  1  0.89520000  0.92500000  0.87030000  1.0 0.119876567
H  H48  1  0.60480000  0.42500000  0.12970000  1.0 0.119876567
H  H49  1  0.27830000  0.35200000  0.40410000  1.0 0.1386060289
H  H50  1  0.22170000  0.85200000  0.59590000  1.0 0.1386060289
H  H51  1  0.72170000  0.64800000  0.59590000  1.0 0.1386060289
H  H52  1  0.77830000  0.14800000  0.40410000  1.0 0.1386060289
H  H53  1  0.28050000  0.44100000  0.47820000  1.0 0.1294064739
H  H54  1  0.21950000  0.94100000  0.52180000  1.0 0.1294064739
H  H55  1  0.71950000  0.55900000  0.52180000  1.0 0.1294064739
H  H56  1  0.78050000  0.05900000  0.47820000  1.0 0.1294064739
H  H57  1  0.04550000  0.40760000  0.36290000  1.0 0.119876567
H  H58  1  0.45450000  0.90760000  0.63710000  1.0 0.119876567
H  H59  1  0.95450000  0.59240000  0.63710000  1.0 0.119876567
H  H60  1  0.54550000  0.09240000  0.36290000  1.0 0.119876567
H  H61  1  0.27330000  0.48870000  0.54680000  1.0 0.119876567
H  H62  1  0.22670000  0.98870000  0.45320000  1.0 0.119876567
H  H63  1  0.72670000  0.51130000  0.45320000  1.0 0.119876567
H  H64  1  0.77330000  0.01130000  0.54680000  1.0 0.119876567
H  H65  1  0.26640000  0.55330000  0.62580000  1.0 0.1294064739
H  H66  1  0.23360000  0.05330000  0.37420000  1.0 0.1294064739
H  H67  1  0.73360000  0.44670000  0.37420000  1.0 0.1294064739
H  H68  1  0.76640000  0.94670000  0.62580000  1.0 0.1294064739
H  H69  1  0.04880000  0.63680000  0.57420000  1.0 0.119876567
H  H70  1  0.45120000  0.13680000  0.42580000  1.0 0.119876567
H  H71  1  0.95120000  0.36320000  0.42580000  1.0 0.119876567
H  H72  1  0.54880000  0.86320000  0.57420000  1.0 0.119876567
C  C1  1  0.04270000  0.12470000  0.32540000  1.0 0.6418054461
C  C2  1  0.45730000  0.62470000  0.67460000  1.0 0.6418054461
C  C3  1  0.95730000  0.87530000  0.67460000  1.0 0.6418054461
C  C4  1  0.54270000  0.37530000  0.32540000  1.0 0.6418054461
C  C5  1  0.02790000  0.08640000  0.37780000  1.0 -0.047271657
C  C6  1  0.47210000  0.58640000  0.62220000  1.0 -0.047271657
C  C7  1  0.97210000  0.91360000  0.62220000  1.0 -0.047271657
C  C8  1  0.52790000  0.41360000  0.37780000  1.0 -0.047271657
C  C9  1  0.07250000  0.01930000  0.40220000  1.0 -0.0788060014
C  C10  1  0.42750000  0.51930000  0.59780000  1.0 -0.0788060014
C  C11  1  0.92750000  0.98070000  0.59780000  1.0 -0.0788060014
C  C12  1  0.57250000  0.48070000  0.40220000  1.0 -0.0788060014
C  C13  1  0.06120000  0.98620000  0.44860000  1.0 -0.1318898403
C  C14  1  0.43880000  0.48620000  0.55140000  1.0 -0.1318898403
C  C15  1  0.93880000  0.01380000  0.55140000  1.0 -0.1318898403
C  C16  1  0.56120000  0.51380000  0.44860000  1.0 -0.1318898403
C  C17  1  0.00490000  0.01780000  0.47440000  1.0 0.1492421785
C  C18  1  0.49510000  0.51780000  0.52560000  1.0 0.1492421785
C  C19  1  0.99510000  0.98220000  0.52560000  1.0 0.1492421785
C  C20  1  0.50490000  0.48220000  0.47440000  1.0 0.1492421785
C  C21  1  0.96630000  0.11800000  0.40340000  1.0 0.0499330604
C  C22  1  0.53370000  0.61800000  0.59660000  1.0 0.0499330604
C  C23  1  0.03370000  0.88200000  0.59660000  1.0 0.0499330604
C  C24  1  0.46630000  0.38200000  0.40340000  1.0 0.0499330604
C  C25  1  0.11530000  0.35290000  0.17910000  1.0 0.6418054461
C  C26  1  0.38470000  0.85290000  0.82090000  1.0 0.6418054461
C  C27  1  0.88470000  0.64710000  0.82090000  1.0 0.6418054461
C  C28  1  0.61530000  0.14710000  0.17910000  1.0 0.6418054461
C  C29  1  0.13240000  0.40680000  0.13340000  1.0 -0.0607461012
C  C30  1  0.36760000  0.90680000  0.86660000  1.0 -0.0607461012
C  C31  1  0.86760000  0.59320000  0.86660000  1.0 -0.0607461012
C  C32  1  0.63240000  0.09320000  0.13340000  1.0 -0.0607461012
C  C33  1  0.20060000  0.39040000  0.11100000  1.0 -0.0667005188
C  C34  1  0.29940000  0.89040000  0.88900000  1.0 -0.0667005188
C  C35  1  0.79940000  0.60960000  0.88900000  1.0 -0.0667005188
C  C36  1  0.70060000  0.10960000  0.11100000  1.0 -0.0667005188
C  C37  1  0.21470000  0.43520000  0.06610000  1.0 -0.1716633362
C  C38  1  0.28530000  0.93520000  0.93390000  1.0 -0.1716633362
C  C39  1  0.78530000  0.56480000  0.93390000  1.0 -0.1716633362
C  C40  1  0.71470000  0.06480000  0.06610000  1.0 -0.1716633362
C  C41  1  0.16060000  0.49640000  0.04360000  1.0 0.1492421785
C  C42  1  0.33940000  0.99640000  0.95640000  1.0 0.1492421785
C  C43  1  0.83940000  0.50360000  0.95640000  1.0 0.1492421785
C  C44  1  0.66060000  0.00360000  0.04360000  1.0 0.1492421785
C  C45  1  0.07840000  0.46810000  0.11090000  1.0 0.0564862958
C  C46  1  0.42160000  0.96810000  0.88910000  1.0 0.0564862958
C  C47  1  0.92160000  0.53190000  0.88910000  1.0 0.0564862958
C  C48  1  0.57840000  0.03190000  0.11090000  1.0 0.0564862958
C  C49  1  0.19420000  0.63280000  0.84220000  1.0 0.6317951887
C  C50  1  0.30580000  0.13280000  0.15780000  1.0 0.6317951887
C  C51  1  0.80580000  0.36720000  0.15780000  1.0 0.6317951887
C  C52  1  0.69420000  0.86720000  0.84220000  1.0 0.6317951887
C  C53  1  0.16540000  0.53880000  0.99550000  1.0 0.1492421785
C  C54  1  0.33460000  0.03880000  0.00450000  1.0 0.1492421785
C  C55  1  0.83460000  0.46120000  0.00450000  1.0 0.1492421785
C  C56  1  0.66540000  0.96120000  0.99550000  1.0 0.1492421785
C  C57  1  0.23750000  0.53010000  0.97670000  1.0 -0.1716633362
C  C58  1  0.26250000  0.03010000  0.02330000  1.0 -0.1716633362
C  C59  1  0.76250000  0.46990000  0.02330000  1.0 -0.1716633362
C  C60  1  0.73750000  0.96990000  0.97670000  1.0 -0.1716633362
C  C61  1  0.24690000  0.56320000  0.92740000  1.0 -0.0607461012
C  C62  1  0.25310000  0.06320000  0.07260000  1.0 -0.0607461012
C  C63  1  0.75310000  0.43680000  0.07260000  1.0 -0.0607461012
C  C64  1  0.74690000  0.93680000  0.92740000  1.0 -0.0607461012
C  C65  1  0.18400000  0.60510000  0.89680000  1.0 -0.0667005188
C  C66  1  0.31600000  0.10510000  0.10320000  1.0 -0.0667005188
C  C67  1  0.81600000  0.39490000  0.10320000  1.0 -0.0667005188
C  C68  1  0.68400000  0.89490000  0.89680000  1.0 -0.0667005188
C  C69  1  0.11180000  0.61370000  0.91560000  1.0 0.0499330604
C  C70  1  0.38820000  0.11370000  0.08440000  1.0 0.0499330604
C  C71  1  0.88820000  0.38630000  0.08440000  1.0 0.0499330604
C  C72  1  0.61180000  0.88630000  0.91560000  1.0 0.0499330604
C  C73  1  0.99450000  0.16670000  0.16530000  1.0 0.6317951887
C  C74  1  0.50550000  0.66666667  0.83470000  1.0 0.6317951887
C  C75  1  0.00550000  0.83330000  0.83470000  1.0 0.6317951887
C  C76  1  0.49450000  0.33333333  0.16530000  1.0 0.6317951887
C  C77  1  0.99270000  0.11520000  0.11540000  1.0 -0.0607461012
C  C78  1  0.50730000  0.61520000  0.88460000  1.0 -0.0607461012
C  C79  1  0.00730000  0.88480000  0.88460000  1.0 -0.0607461012
C  C80  1  0.49270000  0.38480000  0.11540000  1.0 -0.0607461012
C  C81  1  0.92530000  0.10700000  0.07970000  1.0 -0.047271657
C  C82  1  0.57470000  0.60700000  0.92030000  1.0 -0.047271657
C  C83  1  0.07470000  0.89300000  0.92030000  1.0 -0.047271657
C  C84  1  0.42530000  0.39300000  0.07970000  1.0 -0.047271657
C  C85  1  0.92950000  0.06000000  0.03410000  1.0 -0.153090419
C  C86  1  0.57050000  0.56000000  0.96590000  1.0 -0.153090419
C  C87  1  0.07050000  0.94000000  0.96590000  1.0 -0.153090419
C  C88  1  0.42950000  0.44000000  0.03410000  1.0 -0.153090419
C  C89  1  0.99540000  0.02500000  0.02450000  1.0 0.1792058407
C  C90  1  0.50460000  0.52500000  0.97550000  1.0 0.1792058407
C  C91  1  0.00460000  0.97500000  0.97550000  1.0 0.1792058407
C  C92  1  0.49540000  0.47500000  0.02450000  1.0 0.1792058407
C  C93  1  0.05820000  0.07300000  0.10410000  1.0 0.0732656859
C  C94  1  0.44180000  0.57300000  0.89590000  1.0 0.0732656859
C  C95  1  0.94180000  0.92700000  0.89590000  1.0 0.0732656859
C  C96  1  0.55820000  0.42700000  0.10410000  1.0 0.0732656859
C  C97  1  0.15790000  0.31250000  0.32930000  1.0 0.6193958728
C  C98  1  0.34210000  0.81250000  0.67070000  1.0 0.6193958728
C  C99  1  0.84210000  0.68750000  0.67070000  1.0 0.6193958728
C  C100  1  0.65790000  0.18750000  0.32930000  1.0 0.6193958728
C  C101  1  0.16150000  0.37050000  0.37570000  1.0 -0.0667005188
C  C102  1  0.33850000  0.87050000  0.62430000  1.0 -0.0667005188
C  C103  1  0.83850000  0.62950000  0.62430000  1.0 -0.0667005188
C  C104  1  0.66150000  0.12950000  0.37570000  1.0 -0.0667005188
C  C105  1  0.23130000  0.38100000  0.41060000  1.0 -0.0441127659
C  C106  1  0.26870000  0.88100000  0.58940000  1.0 -0.0441127659
C  C107  1  0.76870000  0.61900000  0.58940000  1.0 -0.0441127659
C  C108  1  0.73130000  0.11900000  0.41060000  1.0 -0.0441127659
C  C109  1  0.23250000  0.43220000  0.45470000  1.0 -0.1770436966
C  C110  1  0.26750000  0.93220000  0.54530000  1.0 -0.1770436966
C  C111  1  0.76750000  0.56780000  0.54530000  1.0 -0.1770436966
C  C112  1  0.73250000  0.06780000  0.45470000  1.0 -0.1770436966
C  C113  1  0.16420000  0.47020000  0.46410000  1.0 0.1861252135
C  C114  1  0.33580000  0.97020000  0.53590000  1.0 0.1861252135
C  C115  1  0.83580000  0.52980000  0.53590000  1.0 0.1861252135
C  C116  1  0.66420000  0.02980000  0.46410000  1.0 0.1861252135
C  C117  1  0.09400000  0.41400000  0.38640000  1.0 0.0732656859
C  C118  1  0.40600000  0.91400000  0.61360000  1.0 0.0732656859
C  C119  1  0.90600000  0.58600000  0.61360000  1.0 0.0732656859
C  C120  1  0.59400000  0.08600000  0.38640000  1.0 0.0732656859
C  C121  1  0.16340000  0.52080000  0.51340000  1.0 0.1592397748
C  C122  1  0.33660000  0.02080000  0.48660000  1.0 0.1592397748
C  C123  1  0.83660000  0.47920000  0.48660000  1.0 0.1592397748
C  C124  1  0.66340000  0.97920000  0.51340000  1.0 0.1592397748
C  C125  1  0.22620000  0.51790000  0.55230000  1.0 -0.153090419
C  C126  1  0.27380000  0.01790000  0.44770000  1.0 -0.153090419
C  C127  1  0.77380000  0.48210000  0.44770000  1.0 -0.153090419
C  C128  1  0.72620000  0.98210000  0.55230000  1.0 -0.153090419
C  C129  1  0.22180000  0.55600000  0.59860000  1.0 -0.0667005188
C  C130  1  0.27820000  0.05600000  0.40140000  1.0 -0.0667005188
C  C131  1  0.77820000  0.44400000  0.40140000  1.0 -0.0667005188
C  C132  1  0.72180000  0.94400000  0.59860000  1.0 -0.0667005188
C  C133  1  0.15600000  0.59890000  0.60840000  1.0 -0.0607461012
C  C134  1  0.34400000  0.09890000  0.39160000  1.0 -0.0607461012
C  C135  1  0.84400000  0.40110000  0.39160000  1.0 -0.0607461012
C  C136  1  0.65600000  0.90110000  0.60840000  1.0 -0.0607461012
C  C137  1  0.09430000  0.60500000  0.56840000  1.0 0.042360714
C  C138  1  0.40570000  0.10500000  0.43160000  1.0 0.042360714
C  C139  1  0.90570000  0.39500000  0.43160000  1.0 0.042360714
C  C140  1  0.59430000  0.89500000  0.56840000  1.0 0.042360714
C  C141  1  0.15030000  0.63530000  0.66200000  1.0 0.6479389428
C  C142  1  0.34970000  0.13530000  0.33800000  1.0 0.6479389428
C  C143  1  0.84970000  0.36470000  0.33800000  1.0 0.6479389428
C  C144  1  0.65030000  0.86470000  0.66200000  1.0 0.6479389428
C  C145  1  0.96300000  0.50800000  0.24120000  1.0 0.3022799491
C  C146  1  0.53700000  0.00800000  0.75880000  1.0 0.3221063758
C  C147  1  0.03700000  0.49200000  0.75880000  1.0 0.3221063758
C  C148  1  0.46300000  0.99200000  0.24120000  1.0 0.3221063758
C  C149  1  0.05900000  0.60500000  0.30800000  1.0 0.3665296494
C  C150  1  0.44100000  0.10500000  0.69200000  1.0 0.3665296494
C  C151  1  0.94100000  0.39500000  0.69200000  1.0 0.3665296494
C  C152  1  0.55900000  0.89500000  0.30800000  1.0 0.3665296494
C  C153  1  0.99500000  0.61600000  0.34400000  1.0 -0.2491338105
C  C154  1  0.50500000  0.11600000  0.65600000  1.0 -0.2280080111
C  C155  1  0.00500000  0.38400000  0.65600000  1.0 -0.2280080111
C  C156  1  0.49500000  0.88400000  0.34400000  1.0 -0.2233465464
C  C157  1  0.97800000  0.66900000  0.22200000  1.0 0.3283498197
C  C158  1  0.52200000  0.16900000  0.77800000  1.0 0.3283498197
C  C159  1  0.02200000  0.33100000  0.77800000  1.0 0.3283498197
C  C160  1  0.47800000  0.83100000  0.22200000  1.0 0.3283498197
C  C161  1  0.05000000  0.66800000  0.19200000  1.0 -0.4320817531
C  C162  1  0.45000000  0.16800000  0.80800000  1.0 -0.4135231019
C  C163  1  0.95000000  0.33200000  0.80800000  1.0 -0.4370081068
C  C164  1  0.55000000  0.83200000  0.19200000  1.0 -0.4135231019
C  C165  1  0.18200000  0.96800000  0.26090000  1.0 0.2749391555
C  C166  1  0.31800000  0.46800000  0.73910000  1.0 0.2793016393
C  C167  1  0.81800000  0.03200000  0.73910000  1.0 0.2793016393
C  C168  1  0.68200000  0.53200000  0.26090000  1.0 0.2793016393
C  C169  1  0.17700000  0.82600000  0.28500000  1.0 0.3221063758
C  C170  1  0.32300000  0.32600000  0.71500000  1.0 0.3221063758
C  C171  1  0.82300000  0.17400000  0.71500000  1.0 0.3221063758
C  C172  1  0.67700000  0.67400000  0.28500000  1.0 0.3221063758
C  C173  1  0.26500000  0.79900000  0.29800000  1.0 -0.3965113303
C  C174  1  0.23500000  0.29900000  0.70200000  1.0 -0.3965113303
C  C175  1  0.73500000  0.20100000  0.70200000  1.0 -0.3965113303
C  C176  1  0.76500000  0.70100000  0.29800000  1.0 -0.3939309062
C  C177  1  0.24200000  0.90500000  0.19500000  1.0 0.3022799491
C  C178  1  0.25800000  0.40500000  0.80500000  1.0 0.3022799491
C  C179  1  0.75800000  0.09500000  0.80500000  1.0 0.3022799491
C  C180  1  0.74200000  0.59500000  0.19500000  1.0 0.3022799491
C  C181  1  0.17400000  0.86600000  0.15600000  1.0 -0.153090419
C  C182  1  0.32600000  0.36600000  0.84400000  1.0 -0.153090419
C  C183  1  0.82600000  0.13400000  0.84400000  1.0 -0.153090419
C  C184  1  0.67400000  0.63400000  0.15600000  1.0 -0.153090419
N  N1  1  0.95320000  0.08400000  0.45210000  1.0 -0.3109356405
N  N2  1  0.54680000  0.58400000  0.54790000  1.0 -0.3109356405
N  N3  1  0.04680000  0.91600000  0.54790000  1.0 -0.3109356405
N  N4  1  0.45320000  0.41600000  0.45210000  1.0 -0.3109356405
N  N5  1  0.09250000  0.51290000  0.06610000  1.0 -0.2280080111
N  N6  1  0.40750000  0.01290000  0.93390000  1.0 -0.2280080111
N  N7  1  0.90750000  0.48710000  0.93390000  1.0 -0.2280080111
N  N8  1  0.59250000  0.98710000  0.06610000  1.0 -0.2280080111
N  N9  1  0.10250000  0.58060000  0.96500000  1.0 -0.236881329
N  N10  1  0.39750000  0.08060000  0.03500000  1.0 -0.236881329
N  N11  1  0.89750000  0.41940000  0.03500000  1.0 -0.236881329
N  N12  1  0.60250000  0.91940000  0.96500000  1.0 -0.236881329
N  N13  1  0.06100000  0.03000000  0.05980000  1.0 -0.2491338105
N  N14  1  0.43900000  0.53000000  0.94020000  1.0 -0.2491338105
N  N15  1  0.93900000  0.97000000  0.94020000  1.0 -0.2491338105
N  N16  1  0.56100000  0.47000000  0.05980000  1.0 -0.2491338105
N  N17  1  0.09640000  0.46450000  0.42990000  1.0 -0.2280080111
N  N18  1  0.40360000  0.96450000  0.57010000  1.0 -0.236881329
N  N19  1  0.90360000  0.53550000  0.57010000  1.0 -0.236881329
N  N20  1  0.59640000  0.03550000  0.42990000  1.0 -0.236881329
N  N21  1  0.09500000  0.56600000  0.51880000  1.0 -0.2233465464
N  N22  1  0.40500000  0.06600000  0.48120000  1.0 -0.2233465464
N  N23  1  0.90500000  0.43400000  0.48120000  1.0 -0.2233465464
N  N24  1  0.59500000  0.93400000  0.51880000  1.0 -0.2233465464
N  N25  1  0.99400000  0.59300000  0.26000000  1.0 -0.153090419
N  N26  1  0.50600000  0.09300000  0.74000000  1.0 -0.153090419
N  N27  1  0.00600000  0.40700000  0.74000000  1.0 -0.153090419
N  N28  1  0.49400000  0.90700000  0.26000000  1.0 -0.153090419
N  N29  1  0.18800000  0.88200000  0.23700000  1.0 -0.1094270886
N  N30  1  0.31200000  0.38200000  0.76300000  1.0 -0.1094270886
N  N31  1  0.81200000  0.11800000  0.76300000  1.0 -0.1094270886
N  N32  1  0.68800000  0.61800000  0.23700000  1.0 -0.1094270886
O  O1  1  0.83040000  0.21780000  0.24970000  1.0 -0.3004849991
O  O2  1  0.66960000  0.71780000  0.75030000  1.0 -0.3109356405
O  O3  1  0.16960000  0.78220000  0.75030000  1.0 -0.3004849991
O  O4  1  0.33040000  0.28220000  0.24970000  1.0 -0.3004849991
O  O5  1  0.98580000  0.16560000  0.30030000  1.0 -0.6107065768
O  O6  1  0.51420000  0.66560000  0.69970000  1.0 -0.6107065768
O  O7  1  0.01420000  0.83440000  0.69970000  1.0 -0.6107065768
O  O8  1  0.48580000  0.33440000  0.30030000  1.0 -0.6107065768
O  O9  1  0.11000000  0.11370000  0.31330000  1.0 -0.6423477919
O  O10  1  0.39000000  0.61370000  0.68670000  1.0 -0.6423477919
O  O11  1  0.89000000  0.88630000  0.68670000  1.0 -0.6423477919
O  O12  1  0.61000000  0.38630000  0.31330000  1.0 -0.6423477919
O  O13  1  0.04520000  0.35650000  0.18890000  1.0 -0.6513180525
O  O14  1  0.45480000  0.85650000  0.81110000  1.0 -0.6513180525
O  O15  1  0.95480000  0.64350000  0.81110000  1.0 -0.6513180525
O  O16  1  0.54520000  0.14350000  0.18890000  1.0 -0.6513180525
O  O17  1  0.17110000  0.30900000  0.20310000  1.0 -0.6044112385
O  O18  1  0.32890000  0.80900000  0.79690000  1.0 -0.6044112385
O  O19  1  0.82890000  0.69100000  0.79690000  1.0 -0.6044112385
O  O20  1  0.67110000  0.19100000  0.20310000  1.0 -0.6044112385
O  O21  1  0.13360000  0.63260000  0.80910000  1.0 -0.6282026858
O  O22  1  0.36640000  0.13260000  0.19090000  1.0 -0.6282026858
O  O23  1  0.86640000  0.36740000  0.19090000  1.0 -0.6282026858
O  O24  1  0.63360000  0.86740000  0.80910000  1.0 -0.6282026858
O  O25  1  0.26150000  0.65110000  0.83320000  1.0 -0.5884450615
O  O26  1  0.23850000  0.15110000  0.16680000  1.0 -0.5884450615
O  O27  1  0.73850000  0.34890000  0.16680000  1.0 -0.5884450615
O  O28  1  0.76150000  0.84890000  0.83320000  1.0 -0.5884450615
O  O29  1  0.93190000  0.20240000  0.17360000  1.0 -0.5612180621
O  O30  1  0.56810000  0.70240000  0.82640000  1.0 -0.5612180621
O  O31  1  0.06810000  0.79760000  0.82640000  1.0 -0.5612180621
O  O32  1  0.43190000  0.29760000  0.17360000  1.0 -0.5612180621
O  O33  1  0.05800000  0.17190000  0.19730000  1.0 -0.7126707376
O  O34  1  0.44200000  0.67190000  0.80270000  1.0 -0.7126707376
O  O35  1  0.94200000  0.82810000  0.80270000  1.0 -0.7126707376
O  O36  1  0.55800000  0.32810000  0.19730000  1.0 -0.7126707376
O  O37  1  0.09310000  0.30010000  0.30040000  1.0 -0.6955971063
O  O38  1  0.40690000  0.80010000  0.69960000  1.0 -0.6955971063
O  O39  1  0.90690000  0.69990000  0.69960000  1.0 -0.6955971063
O  O40  1  0.59310000  0.19990000  0.30040000  1.0 -0.6955971063
O  O41  1  0.22080000  0.27460000  0.32210000  1.0 -0.5612180621
O  O42  1  0.27920000  0.77460000  0.67790000  1.0 -0.5612180621
O  O43  1  0.77920000  0.72540000  0.67790000  1.0 -0.5612180621
O  O44  1  0.72080000  0.22540000  0.32210000  1.0 -0.5612180621
O  O45  1  0.08930000  0.67720000  0.66770000  1.0 -0.5884450615
O  O46  1  0.41070000  0.17720000  0.33230000  1.0 -0.5884450615
O  O47  1  0.91070000  0.32280000  0.33230000  1.0 -0.5884450615
O  O48  1  0.58930000  0.82280000  0.66770000  1.0 -0.5884450615
O  O49  1  0.20570000  0.61590000  0.69860000  1.0 -0.6663889826
O  O50  1  0.29430000  0.11590000  0.30140000  1.0 -0.6663889826
O  O51  1  0.79430000  0.38410000  0.30140000  1.0 -0.6663889826
O  O52  1  0.70570000  0.88410000  0.69860000  1.0 -0.6663889826
O  O53  1  0.97830000  0.44710000  0.27290000  1.0 -0.5308920682
O  O54  1  0.52170000  0.94710000  0.72710000  1.0 -0.5308920682
O  O55  1  0.02170000  0.55290000  0.72710000  1.0 -0.5308920682
O  O56  1  0.47830000  0.05290000  0.27290000  1.0 -0.5308920682
O  O57  1  0.17470000  0.02610000  0.22710000  1.0 -0.5422604473
O  O58  1  0.32530000  0.52610000  0.77290000  1.0 -0.5422604473
O  O59  1  0.82530000  0.97390000  0.77290000  1.0 -0.5422604473
O  O60  1  0.67470000  0.47390000  0.22710000  1.0 -0.5422604473
