# DDEC6 charges by PACMAN v1.1 (https://github.com/mtap-research/PACMAN-charge/)
data_NECZAY_ASR_pacman
_symmetry_space_group_name_H-M   'P 1'
_cell_length_a   13.44250000
_cell_length_b   17.04310000
_cell_length_c   13.56090000
_cell_angle_alpha   90.00000000
_cell_angle_beta   90.93100000
_cell_angle_gamma   90.00000000
_symmetry_Int_Tables_number   1
_chemical_formula_structural   Be3P4(HO3)4
_chemical_formula_sum   'Be24 P32 H32 O96'
_cell_volume   3106.41743302
_cell_formula_units_Z   8
loop_
 _symmetry_equiv_pos_site_id
 _symmetry_equiv_pos_as_xyz
  1  'x, y, z'
loop_
 _atom_site_type_symbol
 _atom_site_label
 _atom_site_symmetry_multiplicity
 _atom_site_fract_x
 _atom_site_fract_y
 _atom_site_fract_z
 _atom_site_occupancy
 _atom_site_charge
Be  Be1  1  0.61870000  0.46270000  0.25260000  1.0 0.9488612928
Be  Be2  1  0.88130000  0.96270000  0.74740000  1.0 0.9431788641
Be  Be3  1  0.38130000  0.53730000  0.74740000  1.0 0.9488612928
Be  Be4  1  0.11870000  0.03730000  0.25260000  1.0 0.9488612928
Be  Be5  1  0.13140000  0.54780000  0.24700000  1.0 0.9799508291
Be  Be6  1  0.36860000  0.04780000  0.75300000  1.0 0.9799508291
Be  Be7  1  0.86860000  0.45220000  0.75300000  1.0 0.9799508291
Be  Be8  1  0.63140000  0.95220000  0.24700000  1.0 0.9799508291
Be  Be9  1  0.99920000  0.33130000  0.24850000  1.0 1.0317201334
Be  Be10  1  0.50080000  0.83130000  0.75150000  1.0 1.0317201334
Be  Be11  1  0.00080000  0.66870000  0.75150000  1.0 1.0469943004
Be  Be12  1  0.49920000  0.16870000  0.24850000  1.0 1.0317201334
Be  Be13  1  0.32500000  0.41290000  0.40090000  1.0 1.016535572
Be  Be14  1  0.17500000  0.91290000  0.59910000  1.0 1.016535572
Be  Be15  1  0.67500000  0.58710000  0.59910000  1.0 1.0117929893
Be  Be16  1  0.82500000  0.08710000  0.40090000  1.0 1.0117929893
Be  Be17  1  0.82980000  0.57050000  0.10310000  1.0 1.0469943004
Be  Be18  1  0.67020000  0.07050000  0.89690000  1.0 1.039986185
Be  Be19  1  0.17020000  0.42950000  0.89690000  1.0 1.039986185
Be  Be20  1  0.32980000  0.92950000  0.10310000  1.0 1.039986185
Be  Be21  1  0.50780000  0.66950000  0.24600000  1.0 1.0008349376
Be  Be22  1  0.99220000  0.16950000  0.75400000  1.0 0.9894151407
Be  Be23  1  0.49220000  0.33050000  0.75400000  1.0 1.0117929893
Be  Be24  1  0.00780000  0.83050000  0.24600000  1.0 1.016535572
P  P1  1  0.10356000  0.42821000  0.39590000  1.0 0.9201100412
P  P2  1  0.39644000  0.92821000  0.60410000  1.0 0.9201100412
P  P3  1  0.89644000  0.57179000  0.60410000  1.0 0.9131883698
P  P4  1  0.60356000  0.07179000  0.39590000  1.0 0.9201100412
P  P5  1  0.82812000  0.43311000  0.22607000  1.0 1.0008349376
P  P6  1  0.67188000  0.93311000  0.77393000  1.0 1.0008349376
P  P7  1  0.17188000  0.56689000  0.77393000  1.0 1.0008349376
P  P8  1  0.32812000  0.06689000  0.22607000  1.0 1.0008349376
P  P9  1  0.45855000  0.34199000  0.25847000  1.0 0.9722435491
P  P10  1  0.04145000  0.84199000  0.74153000  1.0 0.9722435491
P  P11  1  0.54145000  0.65801000  0.74153000  1.0 0.9722435491
P  P12  1  0.95855000  0.15801000  0.25847000  1.0 0.9722435491
P  P13  1  0.60760000  0.57758000  0.09876000  1.0 0.9201100412
P  P14  1  0.89240000  0.07758000  0.90124000  1.0 0.9131883698
P  P15  1  0.39240000  0.42242000  0.90124000  1.0 0.9131883698
P  P16  1  0.10760000  0.92242000  0.09876000  1.0 0.9131883698
P  P17  1  0.96453000  0.65764000  0.24670000  1.0 0.9799508291
P  P18  1  0.53547000  0.15764000  0.75330000  1.0 0.9894151407
P  P19  1  0.03547000  0.34236000  0.75330000  1.0 0.9894151407
P  P20  1  0.46453000  0.84236000  0.24670000  1.0 0.9894151407
P  P21  1  0.65110000  0.60401000  0.38306000  1.0 0.9278773832
P  P22  1  0.84890000  0.10401000  0.61694000  1.0 0.9278773832
P  P23  1  0.34890000  0.39599000  0.61694000  1.0 0.9201100412
P  P24  1  0.15110000  0.89599000  0.38306000  1.0 0.9278773832
P  P25  1  0.13558000  0.41273000  0.10979000  1.0 0.9201100412
P  P26  1  0.36442000  0.91273000  0.89021000  1.0 0.9278773832
P  P27  1  0.86442000  0.58727000  0.89021000  1.0 0.9201100412
P  P28  1  0.63558000  0.08727000  0.10979000  1.0 0.9201100412
P  P29  1  0.34574000  0.54958000  0.27602000  1.0 0.9598181265
P  P30  1  0.15426000  0.04958000  0.72398000  1.0 0.9598181265
P  P31  1  0.65426000  0.45042000  0.72398000  1.0 0.9598181265
P  P32  1  0.84574000  0.95042000  0.27602000  1.0 0.9598181265
H  H1  1  0.06890000  0.44050000  0.49300000  1.0 -0.1178608296
H  H2  1  0.43110000  0.94050000  0.50700000  1.0 -0.1178608296
H  H3  1  0.93110000  0.55950000  0.50700000  1.0 -0.1178608296
H  H4  1  0.56890000  0.05950000  0.49300000  1.0 -0.1178608296
H  H5  1  0.86420000  0.48300000  0.30700000  1.0 -0.1815178805
H  H6  1  0.63580000  0.98300000  0.69300000  1.0 -0.1815178805
H  H7  1  0.13580000  0.51700000  0.69300000  1.0 -0.1815178805
H  H8  1  0.36420000  0.01700000  0.30700000  1.0 -0.1815178805
H  H9  1  0.43000000  0.35790000  0.16400000  1.0 -0.1349864585
H  H10  1  0.07000000  0.85790000  0.83600000  1.0 -0.1349864585
H  H11  1  0.57000000  0.64210000  0.83600000  1.0 -0.1355683786
H  H12  1  0.93000000  0.14210000  0.16400000  1.0 -0.1355683786
H  H13  1  0.57410000  0.56820000  0.00000000  1.0 -0.1178608296
H  H14  1  0.92590000  0.06820000  0.00000000  1.0 -0.1178608296
H  H15  1  0.42590000  0.43180000  0.00000000  1.0 -0.1178608296
H  H16  1  0.07410000  0.93180000  0.00000000  1.0 -0.1178608296
H  H17  1  0.95020000  0.64030000  0.34500000  1.0 -0.1355683786
H  H18  1  0.54980000  0.14030000  0.65500000  1.0 -0.1355683786
H  H19  1  0.04980000  0.35970000  0.65500000  1.0 -0.1355683786
H  H20  1  0.45020000  0.85970000  0.34500000  1.0 -0.1349864585
H  H21  1  0.75200000  0.62000000  0.37880000  1.0 -0.1454258693
H  H22  1  0.74800000  0.12000000  0.62120000  1.0 -0.1454258693
H  H23  1  0.24800000  0.38000000  0.62120000  1.0 -0.1454258693
H  H24  1  0.25200000  0.88000000  0.37880000  1.0 -0.1454258693
H  H25  1  0.23300000  0.38600000  0.12490000  1.0 -0.1561258958
H  H26  1  0.26700000  0.88600000  0.87510000  1.0 -0.1561258958
H  H27  1  0.76700000  0.61400000  0.87510000  1.0 -0.1561258958
H  H28  1  0.73300000  0.11400000  0.12490000  1.0 -0.1561258958
H  H29  1  0.36930000  0.50000000  0.19500000  1.0 -0.1815178805
H  H30  1  0.13070000  0.00000000  0.80500000  1.0 -0.1815178805
H  H31  1  0.63070000  0.50000000  0.80500000  1.0 -0.1815178805
H  H32  1  0.86930000  0.00000000  0.19500000  1.0 -0.1815178805
O  O1  1  0.03870000  0.36600000  0.35300000  1.0 -0.5314716031
O  O2  1  0.46130000  0.86600000  0.64700000  1.0 -0.5314716031
O  O3  1  0.96130000  0.63400000  0.64700000  1.0 -0.5314716031
O  O4  1  0.53870000  0.13400000  0.35300000  1.0 -0.5314716031
O  O5  1  0.09400000  0.50600000  0.34500000  1.0 -0.5314716031
O  O6  1  0.40600000  0.00600000  0.65500000  1.0 -0.5314716031
O  O7  1  0.90600000  0.49400000  0.65500000  1.0 -0.5314716031
O  O8  1  0.59400000  0.99400000  0.34500000  1.0 -0.5314716031
O  O9  1  0.20780000  0.39922000  0.40770000  1.0 -0.5314716031
O  O10  1  0.29220000  0.89922000  0.59230000  1.0 -0.5314716031
O  O11  1  0.79220000  0.60078000  0.59230000  1.0 -0.5314716031
O  O12  1  0.70780000  0.10078000  0.40770000  1.0 -0.5314716031
O  O13  1  0.88680000  0.35766000  0.22720000  1.0 -0.4911235852
O  O14  1  0.61320000  0.85766000  0.77280000  1.0 -0.4911235852
O  O15  1  0.11320000  0.64234000  0.77280000  1.0 -0.4911235852
O  O16  1  0.38680000  0.14234000  0.22720000  1.0 -0.4911235852
O  O17  1  0.72040000  0.41167000  0.24490000  1.0 -0.5096055041
O  O18  1  0.77960000  0.91167000  0.75510000  1.0 -0.5096055041
O  O19  1  0.27960000  0.58833000  0.75510000  1.0 -0.5096055041
O  O20  1  0.22040000  0.08833000  0.24490000  1.0 -0.5096055041
O  O21  1  0.84000000  0.47778000  0.13060000  1.0 -0.558534695
O  O22  1  0.66000000  0.97778000  0.86940000  1.0 -0.558534695
O  O23  1  0.16000000  0.52222000  0.86940000  1.0 -0.558534695
O  O24  1  0.34000000  0.02222000  0.13060000  1.0 -0.558534695
O  O25  1  0.50320000  0.26214000  0.26060000  1.0 -0.4911235852
O  O26  1  0.99680000  0.76214000  0.73940000  1.0 -0.500416287
O  O27  1  0.49680000  0.73786000  0.73940000  1.0 -0.500416287
O  O28  1  0.00320000  0.23786000  0.26060000  1.0 -0.500416287
O  O29  1  0.53580000  0.40147000  0.28890000  1.0 -0.5200638543
O  O30  1  0.96420000  0.90147000  0.71110000  1.0 -0.5200638543
O  O31  1  0.46420000  0.59853000  0.71110000  1.0 -0.5200638543
O  O32  1  0.03580000  0.09853000  0.28890000  1.0 -0.5200638543
O  O33  1  0.36750000  0.34800000  0.32230000  1.0 -0.5379801375
O  O34  1  0.13250000  0.84800000  0.67770000  1.0 -0.5379801375
O  O35  1  0.63250000  0.65200000  0.67770000  1.0 -0.5379801375
O  O36  1  0.86750000  0.15200000  0.32230000  1.0 -0.5379801375
O  O37  1  0.54970000  0.64540000  0.13950000  1.0 -0.5096055041
O  O38  1  0.95030000  0.14540000  0.86050000  1.0 -0.500416287
O  O39  1  0.45030000  0.35460000  0.86050000  1.0 -0.5096055041
O  O40  1  0.04970000  0.85460000  0.13950000  1.0 -0.5096055041
O  O41  1  0.71560000  0.59814000  0.09370000  1.0 -0.5379801375
O  O42  1  0.78440000  0.09814000  0.90630000  1.0 -0.5314716031
O  O43  1  0.28440000  0.40186000  0.90630000  1.0 -0.5314716031
O  O44  1  0.21560000  0.90186000  0.09370000  1.0 -0.5314716031
O  O45  1  0.58680000  0.50105000  0.14930000  1.0 -0.5200638543
O  O46  1  0.91320000  0.00105000  0.85070000  1.0 -0.5200638543
O  O47  1  0.41320000  0.49895000  0.85070000  1.0 -0.5200638543
O  O48  1  0.08680000  0.99895000  0.14930000  1.0 -0.5200638543
O  O49  1  0.88010000  0.62260000  0.19000000  1.0 -0.545636682
O  O50  1  0.61990000  0.12260000  0.81000000  1.0 -0.5379801375
O  O51  1  0.11990000  0.37740000  0.81000000  1.0 -0.545636682
O  O52  1  0.38010000  0.87740000  0.19000000  1.0 -0.545636682
O  O53  1  0.95820000  0.74457000  0.23610000  1.0 -0.4911235852
O  O54  1  0.54180000  0.24457000  0.76390000  1.0 -0.4911235852
O  O55  1  0.04180000  0.25543000  0.76390000  1.0 -0.4911235852
O  O56  1  0.45820000  0.75543000  0.23610000  1.0 -0.4911235852
O  O57  1  0.06540000  0.62624000  0.22000000  1.0 -0.5200638543
O  O58  1  0.43460000  0.12624000  0.78000000  1.0 -0.5200638543
O  O59  1  0.93460000  0.37376000  0.78000000  1.0 -0.5200638543
O  O60  1  0.56540000  0.87376000  0.22000000  1.0 -0.5200638543
O  O61  1  0.59820000  0.66849000  0.32610000  1.0 -0.5200638543
O  O62  1  0.90180000  0.16849000  0.67390000  1.0 -0.5200638543
O  O63  1  0.40180000  0.33151000  0.67390000  1.0 -0.5200638543
O  O64  1  0.09820000  0.83151000  0.32610000  1.0 -0.5200638543
O  O65  1  0.63630000  0.52383000  0.34110000  1.0 -0.5314716031
O  O66  1  0.86370000  0.02383000  0.65890000  1.0 -0.5314716031
O  O67  1  0.36370000  0.47617000  0.65890000  1.0 -0.5314716031
O  O68  1  0.13630000  0.97617000  0.34110000  1.0 -0.5314716031
O  O69  1  0.62360000  0.60613000  0.49140000  1.0 -0.500416287
O  O70  1  0.87640000  0.10613000  0.50860000  1.0 -0.500416287
O  O71  1  0.37640000  0.39387000  0.50860000  1.0 -0.5096055041
O  O72  1  0.12360000  0.89387000  0.49140000  1.0 -0.5096055041
O  O73  1  0.06780000  0.35520000  0.15700000  1.0 -0.5200638543
O  O74  1  0.43220000  0.85520000  0.84300000  1.0 -0.5200638543
O  O75  1  0.93220000  0.64480000  0.84300000  1.0 -0.5200638543
O  O76  1  0.56780000  0.14480000  0.15700000  1.0 -0.5200638543
O  O77  1  0.12980000  0.49350000  0.15140000  1.0 -0.5200638543
O  O78  1  0.37020000  0.99350000  0.84860000  1.0 -0.5200638543
O  O79  1  0.87020000  0.50650000  0.84860000  1.0 -0.5200638543
O  O80  1  0.62980000  0.00650000  0.15140000  1.0 -0.5200638543
O  O81  1  0.11490000  0.41257000  0.99970000  1.0 -0.5096055041
O  O82  1  0.38510000  0.91257000  0.00030000  1.0 -0.5096055041
O  O83  1  0.88510000  0.58743000  0.00030000  1.0 -0.5096055041
O  O84  1  0.61490000  0.08743000  0.99970000  1.0 -0.5096055041
O  O85  1  0.35130000  0.50127000  0.36970000  1.0 -0.5314716031
O  O86  1  0.14870000  0.00127000  0.63030000  1.0 -0.5314716031
O  O87  1  0.64870000  0.49873000  0.63030000  1.0 -0.5314716031
O  O88  1  0.85130000  0.99873000  0.36970000  1.0 -0.5314716031
O  O89  1  0.42020000  0.61434000  0.28100000  1.0 -0.4811462072
O  O90  1  0.07980000  0.11434000  0.71900000  1.0 -0.4811462072
O  O91  1  0.57980000  0.38566000  0.71900000  1.0 -0.4811462072
O  O92  1  0.92020000  0.88566000  0.28100000  1.0 -0.4811462072
O  O93  1  0.24280000  0.58358000  0.25830000  1.0 -0.5096055041
O  O94  1  0.25720000  0.08358000  0.74170000  1.0 -0.5096055041
O  O95  1  0.75720000  0.41642000  0.74170000  1.0 -0.5096055041
O  O96  1  0.74280000  0.91642000  0.25830000  1.0 -0.5096055041
