# DDEC6 charges by PACMAN v1.1 (https://github.com/mtap-research/PACMAN-charge/)
data_NEDKEP_FSR_pacman
_symmetry_space_group_name_H-M   'P 1'
_cell_length_a   15.41070000
_cell_length_b   8.07010000
_cell_length_c   29.51490000
_cell_angle_alpha   90.00000000
_cell_angle_beta   108.66000000
_cell_angle_gamma   90.00000000
_symmetry_Int_Tables_number   1
_chemical_formula_structural   TbCu4H22C22I4N4O7
_chemical_formula_sum   'Tb4 Cu16 H88 C88 I16 N16 O28'
_cell_volume   3477.69513715
_cell_formula_units_Z   4
loop_
 _symmetry_equiv_pos_site_id
 _symmetry_equiv_pos_as_xyz
  1  'x, y, z'
loop_
 _atom_site_type_symbol
 _atom_site_label
 _atom_site_symmetry_multiplicity
 _atom_site_fract_x
 _atom_site_fract_y
 _atom_site_fract_z
 _atom_site_occupancy
 _atom_site_charge
Tb  Tb1  1  0.53621000  0.75501000  0.98798000  1.0 2.0238123215
Tb  Tb2  1  0.46379000  0.25501000  0.51202000  1.0 2.0238123215
Tb  Tb3  1  0.46379000  0.24499000  0.01202000  1.0 2.0238123215
Tb  Tb4  1  0.53621000  0.74499000  0.48798000  1.0 2.0238123215
Cu  Cu1  1  0.06883000  0.80581000  0.21270000  1.0 0.1407999609
Cu  Cu2  1  0.03037000  0.11970000  0.17453000  1.0 0.1407999609
Cu  Cu3  1  0.16978000  0.93725000  0.16696000  1.0 0.1224591938
Cu  Cu4  1  0.17653000  0.08034000  0.24828000  1.0 0.1287273576
Cu  Cu5  1  0.93117000  0.30581000  0.28730000  1.0 0.1407999609
Cu  Cu6  1  0.96963000  0.61970000  0.32547000  1.0 0.1407999609
Cu  Cu7  1  0.83022000  0.43725000  0.33304000  1.0 0.1224591938
Cu  Cu8  1  0.82347000  0.58034000  0.25172000  1.0 0.1287273576
Cu  Cu9  1  0.93117000  0.19419000  0.78730000  1.0 0.1407999609
Cu  Cu10  1  0.96963000  0.88030000  0.82547000  1.0 0.1407999609
Cu  Cu11  1  0.83022000  0.06275000  0.83304000  1.0 0.1224591938
Cu  Cu12  1  0.82347000  0.91966000  0.75172000  1.0 0.1287273576
Cu  Cu13  1  0.06883000  0.69419000  0.71270000  1.0 0.1407999609
Cu  Cu14  1  0.03037000  0.38030000  0.67453000  1.0 0.1407999609
Cu  Cu15  1  0.16978000  0.56275000  0.66696000  1.0 0.1224591938
Cu  Cu16  1  0.17653000  0.41966000  0.74828000  1.0 0.1287273576
H  H1  1  0.70130000  0.24870000  0.12350000  1.0 0.1287273576
H  H2  1  0.73430000  0.86900000  0.09490000  1.0 0.1224591938
H  H3  1  0.83760000  0.12830000  0.16650000  1.0 0.1013887999
H  H4  1  0.84030000  0.54560000  0.06190000  1.0 0.1224591938
H  H5  1  0.82570000  0.71760000  0.15870000  1.0 0.1013887999
H  H6  1  0.19280000  0.61200000  0.12470000  1.0 0.1013887999
H  H7  1  0.42290000  0.90950000  0.09760000  1.0 0.1287273576
H  H8  1  0.55940000  0.94320000  0.16870000  1.0 0.1287273576
H  H9  1  0.32660000  0.02610000  0.13380000  1.0 0.1013887999
H  H10  1  0.97320000  0.41340000  0.10600000  1.0 0.1013887999
H  H11  1  0.28780000  0.48200000  0.09000000  1.0 0.1287273576
H  H12  1  0.65200000  0.77920000  0.22870000  1.0 0.1013887999
H  H13  1  0.75600000  0.74160000  0.99480000  1.0 0.1224591938
H  H14  1  0.72710000  0.79990000  0.94210000  1.0 0.1013887999
H  H15  1  0.79700000  0.16680000  0.01430000  1.0 0.114008659
H  H16  1  0.86100000  0.17100000  0.98230000  1.0 0.1224591938
H  H17  1  0.89630000  0.09370000  0.03370000  1.0 0.1287273576
H  H18  1  0.84340000  0.74850000  0.96010000  1.0 0.1224591938
H  H19  1  0.92600000  0.83000000  0.99960000  1.0 0.1407999609
H  H20  1  0.89070000  0.90720000  0.94820000  1.0 0.1287273576
H  H21  1  0.69910000  0.08540000  0.97540000  1.0 0.1013887999
H  H22  1  0.73050000  0.00070000  0.02500000  1.0 0.114008659
H  H23  1  0.29870000  0.74870000  0.37650000  1.0 0.1287273576
H  H24  1  0.26570000  0.36900000  0.40510000  1.0 0.1224591938
H  H25  1  0.16240000  0.62830000  0.33350000  1.0 0.1013887999
H  H26  1  0.15970000  0.04560000  0.43810000  1.0 0.1224591938
H  H27  1  0.17430000  0.21760000  0.34130000  1.0 0.1013887999
H  H28  1  0.80720000  0.11200000  0.37530000  1.0 0.1013887999
H  H29  1  0.57710000  0.40950000  0.40240000  1.0 0.1287273576
H  H30  1  0.44060000  0.44320000  0.33130000  1.0 0.1287273576
H  H31  1  0.67340000  0.52610000  0.36620000  1.0 0.1013887999
H  H32  1  0.02680000  0.91340000  0.39400000  1.0 0.1013887999
H  H33  1  0.71220000  0.98200000  0.41000000  1.0 0.1287273576
H  H34  1  0.34800000  0.27920000  0.27130000  1.0 0.1013887999
H  H35  1  0.24400000  0.24160000  0.50520000  1.0 0.1224591938
H  H36  1  0.27290000  0.29990000  0.55790000  1.0 0.1013887999
H  H37  1  0.20300000  0.66680000  0.48570000  1.0 0.114008659
H  H38  1  0.13900000  0.67100000  0.51770000  1.0 0.1224591938
H  H39  1  0.10370000  0.59370000  0.46630000  1.0 0.1287273576
H  H40  1  0.15660000  0.24850000  0.53990000  1.0 0.1224591938
H  H41  1  0.07400000  0.33000000  0.50040000  1.0 0.1407999609
H  H42  1  0.10930000  0.40720000  0.55180000  1.0 0.1287273576
H  H43  1  0.30090000  0.58540000  0.52460000  1.0 0.1013887999
H  H44  1  0.26950000  0.50070000  0.47500000  1.0 0.114008659
H  H45  1  0.29870000  0.75130000  0.87650000  1.0 0.1287273576
H  H46  1  0.26570000  0.13100000  0.90510000  1.0 0.1224591938
H  H47  1  0.16240000  0.87170000  0.83350000  1.0 0.1013887999
H  H48  1  0.15970000  0.45440000  0.93810000  1.0 0.1224591938
H  H49  1  0.17430000  0.28240000  0.84130000  1.0 0.1013887999
H  H50  1  0.80720000  0.38800000  0.87530000  1.0 0.1013887999
H  H51  1  0.57710000  0.09050000  0.90240000  1.0 0.1287273576
H  H52  1  0.44060000  0.05680000  0.83130000  1.0 0.1287273576
H  H53  1  0.67340000  0.97390000  0.86620000  1.0 0.1013887999
H  H54  1  0.02680000  0.58660000  0.89400000  1.0 0.1013887999
H  H55  1  0.71220000  0.51800000  0.91000000  1.0 0.1287273576
H  H56  1  0.34800000  0.22080000  0.77130000  1.0 0.1013887999
H  H57  1  0.24400000  0.25840000  0.00520000  1.0 0.1224591938
H  H58  1  0.27290000  0.20010000  0.05790000  1.0 0.1013887999
H  H59  1  0.20300000  0.83320000  0.98570000  1.0 0.114008659
H  H60  1  0.13900000  0.82900000  0.01770000  1.0 0.1224591938
H  H61  1  0.10370000  0.90630000  0.96630000  1.0 0.1287273576
H  H62  1  0.15660000  0.25150000  0.03990000  1.0 0.1224591938
H  H63  1  0.07400000  0.17000000  0.00040000  1.0 0.1407999609
H  H64  1  0.10930000  0.09280000  0.05180000  1.0 0.1287273576
H  H65  1  0.30090000  0.91460000  0.02460000  1.0 0.1013887999
H  H66  1  0.26950000  0.99930000  0.97500000  1.0 0.114008659
H  H67  1  0.70130000  0.25130000  0.62350000  1.0 0.1287273576
H  H68  1  0.73430000  0.63100000  0.59490000  1.0 0.1224591938
H  H69  1  0.83760000  0.37170000  0.66650000  1.0 0.1013887999
H  H70  1  0.84030000  0.95440000  0.56190000  1.0 0.1224591938
H  H71  1  0.82570000  0.78240000  0.65870000  1.0 0.1013887999
H  H72  1  0.19280000  0.88800000  0.62470000  1.0 0.1013887999
H  H73  1  0.42290000  0.59050000  0.59760000  1.0 0.1287273576
H  H74  1  0.55940000  0.55680000  0.66870000  1.0 0.1287273576
H  H75  1  0.32660000  0.47390000  0.63380000  1.0 0.1013887999
H  H76  1  0.97320000  0.08660000  0.60600000  1.0 0.1013887999
H  H77  1  0.28780000  0.01800000  0.59000000  1.0 0.1287273576
H  H78  1  0.65200000  0.72080000  0.72870000  1.0 0.1013887999
H  H79  1  0.75600000  0.75840000  0.49480000  1.0 0.1224591938
H  H80  1  0.72710000  0.70010000  0.44210000  1.0 0.1013887999
H  H81  1  0.79700000  0.33320000  0.51430000  1.0 0.114008659
H  H82  1  0.86100000  0.32900000  0.48230000  1.0 0.1224591938
H  H83  1  0.89630000  0.40630000  0.53370000  1.0 0.1287273576
H  H84  1  0.84340000  0.75150000  0.46010000  1.0 0.1224591938
H  H85  1  0.92600000  0.67000000  0.49960000  1.0 0.1407999609
H  H86  1  0.89070000  0.59280000  0.44820000  1.0 0.1287273576
H  H87  1  0.69910000  0.41460000  0.47540000  1.0 0.1013887999
H  H88  1  0.73050000  0.49930000  0.52500000  1.0 0.114008659
C  C1  1  0.75560000  0.28250000  0.11890000  1.0 -0.1512604988
C  C2  1  0.36565000  0.68180000  0.08875000  1.0 0.0175180394
C  C3  1  0.66517000  0.47930000  0.05547000  1.0 0.630209533
C  C4  1  0.63525000  0.91980000  0.12415000  1.0 0.0175180394
C  C5  1  0.42574000  0.60500000  0.06284000  1.0 0.6372393644
C  C6  1  0.71629000  0.85250000  0.12179000  1.0 -0.1512604988
C  C7  1  0.83774000  0.21040000  0.14444000  1.0 0.0774911525
C  C8  1  0.83798000  0.45850000  0.08218000  1.0 -0.1818103609
C  C9  1  0.75500000  0.40660000  0.08610000  1.0 0.0175180394
C  C10  1  0.77056000  0.75990000  0.16016000  1.0 0.0774911525
C  C11  1  0.57359000  0.01960000  0.08359000  1.0 0.5701899654
C  C12  1  0.23950000  0.67280000  0.11900000  1.0 0.0620816643
C  C13  1  0.37638000  0.84630000  0.10268000  1.0 -0.1818103609
C  C14  1  0.61188000  0.89530000  0.16538000  1.0 -0.1512604988
C  C15  1  0.31761000  0.91600000  0.12411000  1.0 0.0685536372
C  C16  1  0.91762000  0.37870000  0.10892000  1.0 0.0774911525
C  C17  1  0.29625000  0.59370000  0.09795000  1.0 -0.1660813415
C  C18  1  0.66872000  0.79790000  0.20152000  1.0 0.0774911525
C  C19  1  0.73660000  0.83630000  0.97430000  1.0 0.0620816643
C  C20  1  0.84380000  0.10840000  0.00580000  1.0 -0.3235816085
C  C21  1  0.87270000  0.85150000  0.97250000  1.0 -0.3519452238
C  C22  1  0.72210000  0.98370000  0.99160000  1.0 0.0685536372
C  C23  1  0.24440000  0.78250000  0.38110000  1.0 -0.1512604988
C  C24  1  0.63435000  0.18180000  0.41125000  1.0 0.0175180394
C  C25  1  0.33483000  0.97930000  0.44453000  1.0 0.630209533
C  C26  1  0.36475000  0.41980000  0.37585000  1.0 0.0175180394
C  C27  1  0.57426000  0.10500000  0.43716000  1.0 0.6372393644
C  C28  1  0.28371000  0.35250000  0.37821000  1.0 -0.1512604988
C  C29  1  0.16226000  0.71040000  0.35556000  1.0 0.0774911525
C  C30  1  0.16202000  0.95850000  0.41782000  1.0 -0.1818103609
C  C31  1  0.24500000  0.90660000  0.41390000  1.0 0.0175180394
C  C32  1  0.22944000  0.25990000  0.33984000  1.0 0.0774911525
C  C33  1  0.42641000  0.51960000  0.41641000  1.0 0.5701899654
C  C34  1  0.76050000  0.17280000  0.38100000  1.0 0.0620816643
C  C35  1  0.62362000  0.34630000  0.39732000  1.0 -0.1818103609
C  C36  1  0.38812000  0.39530000  0.33462000  1.0 -0.1512604988
C  C37  1  0.68239000  0.41600000  0.37589000  1.0 0.0685536372
C  C38  1  0.08238000  0.87870000  0.39108000  1.0 0.0774911525
C  C39  1  0.70375000  0.09370000  0.40205000  1.0 -0.1660813415
C  C40  1  0.33128000  0.29790000  0.29848000  1.0 0.0774911525
C  C41  1  0.26340000  0.33630000  0.52570000  1.0 0.0620816643
C  C42  1  0.15620000  0.60840000  0.49420000  1.0 -0.3235816085
C  C43  1  0.12730000  0.35150000  0.52750000  1.0 -0.3519452238
C  C44  1  0.27790000  0.48370000  0.50840000  1.0 0.0685536372
C  C45  1  0.24440000  0.71750000  0.88110000  1.0 -0.1512604988
C  C46  1  0.63435000  0.31820000  0.91125000  1.0 0.0175180394
C  C47  1  0.33483000  0.52070000  0.94453000  1.0 0.630209533
C  C48  1  0.36475000  0.08020000  0.87585000  1.0 0.0175180394
C  C49  1  0.57426000  0.39500000  0.93716000  1.0 0.6372393644
C  C50  1  0.28371000  0.14750000  0.87821000  1.0 -0.1512604988
C  C51  1  0.16226000  0.78960000  0.85556000  1.0 0.0774911525
C  C52  1  0.16202000  0.54150000  0.91782000  1.0 -0.1818103609
C  C53  1  0.24500000  0.59340000  0.91390000  1.0 0.0175180394
C  C54  1  0.22944000  0.24010000  0.83984000  1.0 0.0774911525
C  C55  1  0.42641000  0.98040000  0.91641000  1.0 0.5701899654
C  C56  1  0.76050000  0.32720000  0.88100000  1.0 0.0620816643
C  C57  1  0.62362000  0.15370000  0.89732000  1.0 -0.1818103609
C  C58  1  0.38812000  0.10470000  0.83462000  1.0 -0.1512604988
C  C59  1  0.68239000  0.08400000  0.87589000  1.0 0.0685536372
C  C60  1  0.08238000  0.62130000  0.89108000  1.0 0.0774911525
C  C61  1  0.70375000  0.40630000  0.90205000  1.0 -0.1660813415
C  C62  1  0.33128000  0.20210000  0.79848000  1.0 0.0774911525
C  C63  1  0.26340000  0.16370000  0.02570000  1.0 0.0620816643
C  C64  1  0.15620000  0.89160000  0.99420000  1.0 -0.3235816085
C  C65  1  0.12730000  0.14850000  0.02750000  1.0 -0.3519452238
C  C66  1  0.27790000  0.01630000  0.00840000  1.0 0.0685536372
C  C67  1  0.75560000  0.21750000  0.61890000  1.0 -0.1512604988
C  C68  1  0.36565000  0.81820000  0.58875000  1.0 0.0175180394
C  C69  1  0.66517000  0.02070000  0.55547000  1.0 0.630209533
C  C70  1  0.63525000  0.58020000  0.62415000  1.0 0.0175180394
C  C71  1  0.42574000  0.89500000  0.56284000  1.0 0.6372393644
C  C72  1  0.71629000  0.64750000  0.62179000  1.0 -0.1512604988
C  C73  1  0.83774000  0.28960000  0.64444000  1.0 0.0774911525
C  C74  1  0.83798000  0.04150000  0.58218000  1.0 -0.1818103609
C  C75  1  0.75500000  0.09340000  0.58610000  1.0 0.0175180394
C  C76  1  0.77056000  0.74010000  0.66016000  1.0 0.0774911525
C  C77  1  0.57359000  0.48040000  0.58359000  1.0 0.5701899654
C  C78  1  0.23950000  0.82720000  0.61900000  1.0 0.0620816643
C  C79  1  0.37638000  0.65370000  0.60268000  1.0 -0.1818103609
C  C80  1  0.61188000  0.60470000  0.66538000  1.0 -0.1512604988
C  C81  1  0.31761000  0.58400000  0.62411000  1.0 0.0685536372
C  C82  1  0.91762000  0.12130000  0.60892000  1.0 0.0774911525
C  C83  1  0.29625000  0.90630000  0.59795000  1.0 -0.1660813415
C  C84  1  0.66872000  0.70210000  0.70152000  1.0 0.0774911525
C  C85  1  0.73660000  0.66370000  0.47430000  1.0 0.0620816643
C  C86  1  0.84380000  0.39160000  0.50580000  1.0 -0.3235816085
C  C87  1  0.87270000  0.64850000  0.47250000  1.0 -0.3519452238
C  C88  1  0.72210000  0.51630000  0.49160000  1.0 0.0685536372
I  I1  1  0.99737000  0.83174000  0.11877000  1.0 -0.360391567
I  I2  1  0.00990000  0.04858000  0.25984000  1.0 -0.2105677561
I  I3  1  0.24616000  0.77690000  0.25144000  1.0 -0.2563628951
I  I4  1  0.17993000  0.26176000  0.16850000  1.0 -0.3136680671
I  I5  1  0.00263000  0.33174000  0.38123000  1.0 -0.360391567
I  I6  1  0.99010000  0.54858000  0.24016000  1.0 -0.2105677561
I  I7  1  0.75384000  0.27690000  0.24856000  1.0 -0.2563628951
I  I8  1  0.82007000  0.76176000  0.33150000  1.0 -0.3136680671
I  I9  1  0.00263000  0.16826000  0.88123000  1.0 -0.360391567
I  I10  1  0.99010000  0.95142000  0.74016000  1.0 -0.2105677561
I  I11  1  0.75384000  0.22310000  0.74856000  1.0 -0.2563628951
I  I12  1  0.82007000  0.73824000  0.83150000  1.0 -0.3136680671
I  I13  1  0.99737000  0.66826000  0.61877000  1.0 -0.360391567
I  I14  1  0.00990000  0.45142000  0.75984000  1.0 -0.2105677561
I  I15  1  0.24616000  0.72310000  0.75144000  1.0 -0.2563628951
I  I16  1  0.17993000  0.23824000  0.66850000  1.0 -0.3136680671
N  N1  1  0.91782000  0.25330000  0.13892000  1.0 -0.1660813415
N  N2  1  0.24860000  0.83350000  0.13170000  1.0 -0.159976088
N  N3  1  0.74648000  0.72930000  0.19928000  1.0 -0.159976088
N  N4  1  0.81056000  0.95330000  0.98686000  1.0 0.0454113423
N  N5  1  0.08218000  0.75330000  0.36108000  1.0 -0.1660813415
N  N6  1  0.75140000  0.33350000  0.36830000  1.0 -0.159976088
N  N7  1  0.25352000  0.22930000  0.30072000  1.0 -0.159976088
N  N8  1  0.18944000  0.45330000  0.51314000  1.0 0.0454113423
N  N9  1  0.08218000  0.74670000  0.86108000  1.0 -0.1660813415
N  N10  1  0.75140000  0.16650000  0.86830000  1.0 -0.159976088
N  N11  1  0.25352000  0.27070000  0.80072000  1.0 -0.159976088
N  N12  1  0.18944000  0.04670000  0.01314000  1.0 0.0454113423
N  N13  1  0.91782000  0.24670000  0.63892000  1.0 -0.1660813415
N  N14  1  0.24860000  0.66650000  0.63170000  1.0 -0.159976088
N  N15  1  0.74648000  0.77070000  0.69928000  1.0 -0.159976088
N  N16  1  0.81056000  0.54670000  0.48686000  1.0 0.0454113423
O  O1  1  0.41899000  0.45110000  0.05595000  1.0 -0.672971102
O  O2  1  0.57562000  0.99530000  0.04077000  1.0 -0.7640456879
O  O3  1  0.66526000  0.62550000  0.04079000  1.0 -0.6795888567
O  O4  1  0.52243000  0.12710000  0.09195000  1.0 -0.6094847345
O  O5  1  0.47704000  0.70220000  0.04942000  1.0 -0.6795888567
O  O6  1  0.59607000  0.38760000  0.04604000  1.0 -0.6889592284
O  O7  1  0.66523000  0.87990000  0.97725000  1.0 -0.247353463
O  O8  1  0.58101000  0.95110000  0.44405000  1.0 -0.672971102
O  O9  1  0.42438000  0.49530000  0.45923000  1.0 -0.7640456879
O  O10  1  0.33474000  0.12550000  0.45921000  1.0 -0.6795888567
O  O11  1  0.47757000  0.62710000  0.40805000  1.0 -0.6094847345
O  O12  1  0.52296000  0.20220000  0.45058000  1.0 -0.6795888567
O  O13  1  0.40393000  0.88760000  0.45396000  1.0 -0.6889592284
O  O14  1  0.33477000  0.37990000  0.52275000  1.0 -0.247353463
O  O15  1  0.58101000  0.54890000  0.94405000  1.0 -0.672971102
O  O16  1  0.42438000  0.00470000  0.95923000  1.0 -0.7640456879
O  O17  1  0.33474000  0.37450000  0.95921000  1.0 -0.6795888567
O  O18  1  0.47757000  0.87290000  0.90805000  1.0 -0.6094847345
O  O19  1  0.52296000  0.29780000  0.95058000  1.0 -0.6795888567
O  O20  1  0.40393000  0.61240000  0.95396000  1.0 -0.6889592284
O  O21  1  0.33477000  0.12010000  0.02275000  1.0 -0.247353463
O  O22  1  0.41899000  0.04890000  0.55595000  1.0 -0.672971102
O  O23  1  0.57562000  0.50470000  0.54077000  1.0 -0.7640456879
O  O24  1  0.66526000  0.87450000  0.54079000  1.0 -0.6795888567
O  O25  1  0.52243000  0.37290000  0.59195000  1.0 -0.6094847345
O  O26  1  0.47704000  0.79780000  0.54942000  1.0 -0.6795888567
O  O27  1  0.59607000  0.11240000  0.54604000  1.0 -0.6889592284
O  O28  1  0.66523000  0.62010000  0.47725000  1.0 -0.247353463
