# DDEC6 charges by PACMAN v1.1 (https://github.com/mtap-research/PACMAN-charge/)
data_NEDLOZ_ion_pacman
_symmetry_space_group_name_H-M   'P 1'
_cell_length_a   11.03800000
_cell_length_b   12.30600000
_cell_length_c   14.74600000
_cell_angle_alpha   90.00000000
_cell_angle_beta   90.00000000
_cell_angle_gamma   90.00000000
_symmetry_Int_Tables_number   1
_chemical_formula_structural   InH46C48(NO8)2
_chemical_formula_sum   'In2 H92 C96 N4 O32'
_cell_volume   2003.00267849
_cell_formula_units_Z   2
loop_
 _symmetry_equiv_pos_site_id
 _symmetry_equiv_pos_as_xyz
  1  'x, y, z'
loop_
 _atom_site_type_symbol
 _atom_site_label
 _atom_site_symmetry_multiplicity
 _atom_site_fract_x
 _atom_site_fract_y
 _atom_site_fract_z
 _atom_site_occupancy
 _atom_site_charge
In  In1  1  0.00000000  0.50000000  0.50000000  1.0 0.8921199288
In  In2  1  0.50000000  0.50000000  0.00000000  1.0 0.8921199288
H  H1  1  0.71410000  0.41410000  0.74770000  1.0 0.1088636796
H  H2  1  0.28590000  0.41410000  0.25230000  1.0 0.1088636796
H  H3  1  0.71410000  0.58590000  0.25230000  1.0 0.1088636796
H  H4  1  0.28590000  0.58590000  0.74770000  1.0 0.1088636796
H  H5  1  0.59890000  0.29300000  0.83280000  1.0 0.1088636796
H  H6  1  0.40110000  0.29300000  0.16720000  1.0 0.1088636796
H  H7  1  0.59890000  0.70700000  0.16720000  1.0 0.1088636796
H  H8  1  0.40110000  0.70700000  0.83280000  1.0 0.1088636796
H  H9  1  0.80550000  0.17780000  0.57880000  1.0 0.1088636796
H  H10  1  0.19450000  0.17780000  0.42120000  1.0 0.1088636796
H  H11  1  0.80550000  0.82220000  0.42120000  1.0 0.1088636796
H  H12  1  0.19450000  0.82220000  0.57880000  1.0 0.1088636796
H  H13  1  0.69350000  0.05710000  0.66160000  1.0 0.1216673548
H  H14  1  0.30650000  0.05710000  0.33840000  1.0 0.1216673548
H  H15  1  0.69350000  0.94290000  0.33840000  1.0 0.1216673548
H  H16  1  0.30650000  0.94290000  0.66160000  1.0 0.1216673548
H  H17  1  0.59310000  0.13980000  0.93290000  1.0 0.12716394
H  H18  1  0.40690000  0.13980000  0.06710000  1.0 0.12716394
H  H19  1  0.59310000  0.86020000  0.06710000  1.0 0.12716394
H  H20  1  0.40690000  0.86020000  0.93290000  1.0 0.12716394
H  H21  1  0.50000000  0.00000000  0.69910000  1.0 0.12716394
H  H22  1  0.50000000  0.00000000  0.30090000  1.0 0.12716394
H  H23  1  0.78590000  0.58590000  0.75230000  1.0 0.1088636796
H  H24  1  0.21410000  0.58590000  0.24770000  1.0 0.1088636796
H  H25  1  0.78590000  0.41410000  0.24770000  1.0 0.1088636796
H  H26  1  0.21410000  0.41410000  0.75230000  1.0 0.1088636796
H  H27  1  0.90110000  0.70700000  0.66720000  1.0 0.1088636796
H  H28  1  0.09890000  0.70700000  0.33280000  1.0 0.1088636796
H  H29  1  0.90110000  0.29300000  0.33280000  1.0 0.1088636796
H  H30  1  0.09890000  0.29300000  0.66720000  1.0 0.1088636796
H  H31  1  0.69450000  0.82220000  0.92120000  1.0 0.1088636796
H  H32  1  0.30550000  0.82220000  0.07880000  1.0 0.1088636796
H  H33  1  0.69450000  0.17780000  0.07880000  1.0 0.1088636796
H  H34  1  0.30550000  0.17780000  0.92120000  1.0 0.1088636796
H  H35  1  0.80650000  0.94290000  0.83840000  1.0 0.1216673548
H  H36  1  0.19350000  0.94290000  0.16160000  1.0 0.1216673548
H  H37  1  0.80650000  0.05710000  0.16160000  1.0 0.1216673548
H  H38  1  0.19350000  0.05710000  0.83840000  1.0 0.1216673548
H  H39  1  0.90690000  0.86020000  0.56710000  1.0 0.12716394
H  H40  1  0.09310000  0.86020000  0.43290000  1.0 0.12716394
H  H41  1  0.90690000  0.13980000  0.43290000  1.0 0.12716394
H  H42  1  0.09310000  0.13980000  0.56710000  1.0 0.12716394
H  H43  1  0.00000000  0.00000000  0.80090000  1.0 0.12716394
H  H44  1  0.00000000  0.00000000  0.19910000  1.0 0.12716394
H  H45  1  0.42420000  0.82000000  0.51510000  1.0 0.1088636796
H  H46  1  0.57580000  0.82000000  0.48490000  1.0 0.1088636796
H  H47  1  0.61830000  0.84790000  0.59800000  1.0 0.0626241858
H  H48  1  0.38170000  0.84790000  0.40200000  1.0 0.0626241858
H  H49  1  0.52770000  0.82130000  0.44540000  1.0 0.1216673548
H  H50  1  0.47230000  0.82130000  0.55460000  1.0 0.1216673548
H  H51  1  0.53460000  0.63850000  0.52430000  1.0 0.0924827092
H  H52  1  0.46540000  0.63850000  0.47570000  1.0 0.0924827092
H  H53  1  0.64880000  0.72350000  0.54460000  1.0 0.1088636796
H  H54  1  0.35120000  0.72350000  0.45540000  1.0 0.1088636796
H  H55  1  0.54150000  0.72020000  0.61410000  1.0 0.0999740665
H  H56  1  0.45850000  0.72020000  0.38590000  1.0 0.0999740665
H  H57  1  0.42420000  0.18000000  0.48490000  1.0 0.1088636796
H  H58  1  0.57580000  0.18000000  0.51510000  1.0 0.1088636796
H  H59  1  0.61830000  0.15210000  0.40200000  1.0 0.0626241858
H  H60  1  0.38170000  0.15210000  0.59800000  1.0 0.0626241858
H  H61  1  0.52770000  0.17870000  0.55460000  1.0 0.1216673548
H  H62  1  0.47230000  0.17870000  0.44540000  1.0 0.1216673548
H  H63  1  0.53460000  0.36150000  0.47570000  1.0 0.0924827092
H  H64  1  0.46540000  0.36150000  0.52430000  1.0 0.0924827092
H  H65  1  0.64880000  0.27650000  0.45540000  1.0 0.1088636796
H  H66  1  0.35120000  0.27650000  0.54460000  1.0 0.1088636796
H  H67  1  0.54150000  0.27980000  0.38590000  1.0 0.0999740665
H  H68  1  0.45850000  0.27980000  0.61410000  1.0 0.0999740665
H  H69  1  0.07580000  0.18000000  0.98490000  1.0 0.1088636796
H  H70  1  0.92420000  0.18000000  0.01510000  1.0 0.1088636796
H  H71  1  0.88170000  0.15210000  0.90200000  1.0 0.0626241858
H  H72  1  0.11830000  0.15210000  0.09800000  1.0 0.0626241858
H  H73  1  0.97230000  0.17870000  0.05460000  1.0 0.1216673548
H  H74  1  0.02770000  0.17870000  0.94540000  1.0 0.1216673548
H  H75  1  0.96540000  0.36150000  0.97570000  1.0 0.0924827092
H  H76  1  0.03460000  0.36150000  0.02430000  1.0 0.0924827092
H  H77  1  0.85120000  0.27650000  0.95540000  1.0 0.1088636796
H  H78  1  0.14880000  0.27650000  0.04460000  1.0 0.1088636796
H  H79  1  0.95850000  0.27980000  0.88590000  1.0 0.0999740665
H  H80  1  0.04150000  0.27980000  0.11410000  1.0 0.0999740665
H  H81  1  0.07580000  0.82000000  0.01510000  1.0 0.1088636796
H  H82  1  0.92420000  0.82000000  0.98490000  1.0 0.1088636796
H  H83  1  0.88170000  0.84790000  0.09800000  1.0 0.0626241858
H  H84  1  0.11830000  0.84790000  0.90200000  1.0 0.0626241858
H  H85  1  0.97230000  0.82130000  0.94540000  1.0 0.1216673548
H  H86  1  0.02770000  0.82130000  0.05460000  1.0 0.1216673548
H  H87  1  0.96540000  0.63850000  0.02430000  1.0 0.0924827092
H  H88  1  0.03460000  0.63850000  0.97570000  1.0 0.0924827092
H  H89  1  0.85120000  0.72350000  0.04460000  1.0 0.1088636796
H  H90  1  0.14880000  0.72350000  0.95540000  1.0 0.1088636796
H  H91  1  0.95850000  0.72020000  0.11410000  1.0 0.0999740665
H  H92  1  0.04150000  0.72020000  0.88590000  1.0 0.0999740665
C  C1  1  0.70880000  0.34190000  0.72970000  1.0 -0.1609999873
C  C2  1  0.29120000  0.34190000  0.27030000  1.0 -0.1609999873
C  C3  1  0.70880000  0.65810000  0.27030000  1.0 -0.1609999873
C  C4  1  0.29120000  0.65810000  0.72970000  1.0 -0.1609999873
C  C5  1  0.63980000  0.26900000  0.78150000  1.0 -0.1875340459
C  C6  1  0.36020000  0.26900000  0.21850000  1.0 -0.1875340459
C  C7  1  0.63980000  0.73100000  0.21850000  1.0 -0.1875340459
C  C8  1  0.36020000  0.73100000  0.78150000  1.0 -0.1875340459
C  C9  1  0.63330000  0.16230000  0.75590000  1.0 0.0757753696
C  C10  1  0.36670000  0.16230000  0.24410000  1.0 0.0757753696
C  C11  1  0.63330000  0.83770000  0.24410000  1.0 0.0757753696
C  C12  1  0.36670000  0.83770000  0.75590000  1.0 0.0757753696
C  C13  1  0.76810000  0.30900000  0.65340000  1.0 -0.0827144482
C  C14  1  0.23190000  0.30900000  0.34660000  1.0 -0.0827144482
C  C15  1  0.76810000  0.69100000  0.34660000  1.0 -0.0827144482
C  C16  1  0.23190000  0.69100000  0.65340000  1.0 -0.0827144482
C  C17  1  0.76310000  0.20190000  0.62950000  1.0 -0.1508195586
C  C18  1  0.23690000  0.20190000  0.37050000  1.0 -0.1508195586
C  C19  1  0.76310000  0.79810000  0.37050000  1.0 -0.1508195586
C  C20  1  0.23690000  0.79810000  0.62950000  1.0 -0.1508195586
C  C21  1  0.69650000  0.12950000  0.67940000  1.0 -0.1683009457
C  C22  1  0.30350000  0.12950000  0.32060000  1.0 -0.1683009457
C  C23  1  0.69650000  0.87050000  0.32060000  1.0 -0.1683009457
C  C24  1  0.30350000  0.87050000  0.67940000  1.0 -0.1683009457
C  C25  1  0.84540000  0.38430000  0.59700000  1.0 0.4318548884
C  C26  1  0.15460000  0.38430000  0.40300000  1.0 0.4318548884
C  C27  1  0.84540000  0.61570000  0.40300000  1.0 0.4318548884
C  C28  1  0.15460000  0.61570000  0.59700000  1.0 0.4318548884
C  C29  1  0.55720000  0.08280000  0.90150000  1.0 -0.2020808599
C  C30  1  0.44280000  0.08280000  0.09850000  1.0 -0.2020808599
C  C31  1  0.55720000  0.91720000  0.09850000  1.0 -0.2020808599
C  C32  1  0.44280000  0.91720000  0.90150000  1.0 -0.2020808599
C  C33  1  0.50000000  0.00000000  0.94910000  1.0 0.0924827092
C  C34  1  0.50000000  0.00000000  0.05090000  1.0 0.0924827092
C  C35  1  0.56120000  0.08120000  0.80820000  1.0 0.0999740665
C  C36  1  0.43880000  0.08120000  0.19180000  1.0 0.0999740665
C  C37  1  0.56120000  0.91880000  0.19180000  1.0 0.0999740665
C  C38  1  0.43880000  0.91880000  0.80820000  1.0 0.0999740665
C  C39  1  0.50000000  0.00000000  0.76210000  1.0 -0.2020808599
C  C40  1  0.50000000  0.00000000  0.23790000  1.0 -0.2020808599
C  C41  1  0.79120000  0.65810000  0.77030000  1.0 -0.1609999873
C  C42  1  0.20880000  0.65810000  0.22970000  1.0 -0.1609999873
C  C43  1  0.79120000  0.34190000  0.22970000  1.0 -0.1609999873
C  C44  1  0.20880000  0.34190000  0.77030000  1.0 -0.1609999873
C  C45  1  0.86020000  0.73100000  0.71850000  1.0 -0.1875340459
C  C46  1  0.13980000  0.73100000  0.28150000  1.0 -0.1875340459
C  C47  1  0.86020000  0.26900000  0.28150000  1.0 -0.1875340459
C  C48  1  0.13980000  0.26900000  0.71850000  1.0 -0.1875340459
C  C49  1  0.86670000  0.83770000  0.74410000  1.0 0.0757753696
C  C50  1  0.13330000  0.83770000  0.25590000  1.0 0.0757753696
C  C51  1  0.86670000  0.16230000  0.25590000  1.0 0.0757753696
C  C52  1  0.13330000  0.16230000  0.74410000  1.0 0.0757753696
C  C53  1  0.73190000  0.69100000  0.84660000  1.0 -0.0827144482
C  C54  1  0.26810000  0.69100000  0.15340000  1.0 -0.0827144482
C  C55  1  0.73190000  0.30900000  0.15340000  1.0 -0.0827144482
C  C56  1  0.26810000  0.30900000  0.84660000  1.0 -0.0827144482
C  C57  1  0.73690000  0.79810000  0.87050000  1.0 -0.1508195586
C  C58  1  0.26310000  0.79810000  0.12950000  1.0 -0.1508195586
C  C59  1  0.73690000  0.20190000  0.12950000  1.0 -0.1508195586
C  C60  1  0.26310000  0.20190000  0.87050000  1.0 -0.1508195586
C  C61  1  0.80350000  0.87050000  0.82060000  1.0 -0.1683009457
C  C62  1  0.19650000  0.87050000  0.17940000  1.0 -0.1683009457
C  C63  1  0.80350000  0.12950000  0.17940000  1.0 -0.1683009457
C  C64  1  0.19650000  0.12950000  0.82060000  1.0 -0.1683009457
C  C65  1  0.65460000  0.61570000  0.90300000  1.0 0.4318548884
C  C66  1  0.34540000  0.61570000  0.09700000  1.0 0.4318548884
C  C67  1  0.65460000  0.38430000  0.09700000  1.0 0.4318548884
C  C68  1  0.34540000  0.38430000  0.90300000  1.0 0.4318548884
C  C69  1  0.94280000  0.91720000  0.59850000  1.0 -0.2020808599
C  C70  1  0.05720000  0.91720000  0.40150000  1.0 -0.2020808599
C  C71  1  0.94280000  0.08280000  0.40150000  1.0 -0.2020808599
C  C72  1  0.05720000  0.08280000  0.59850000  1.0 -0.2020808599
C  C73  1  0.00000000  0.00000000  0.55090000  1.0 0.0924827092
C  C74  1  0.00000000  0.00000000  0.44910000  1.0 0.0924827092
C  C75  1  0.93880000  0.91880000  0.69180000  1.0 0.0999740665
C  C76  1  0.06120000  0.91880000  0.30820000  1.0 0.0999740665
C  C77  1  0.93880000  0.08120000  0.30820000  1.0 0.0999740665
C  C78  1  0.06120000  0.08120000  0.69180000  1.0 0.0999740665
C  C79  1  0.00000000  0.00000000  0.73790000  1.0 -0.2020808599
C  C80  1  0.00000000  0.00000000  0.26210000  1.0 -0.2020808599
C  C81  1  0.59140000  0.78000000  0.57240000  1.0 -0.1508195586
C  C82  1  0.40860000  0.78000000  0.42760000  1.0 -0.1508195586
C  C83  1  0.56010000  0.70720000  0.54850000  1.0 -0.1233047475
C  C84  1  0.43990000  0.70720000  0.45150000  1.0 -0.1233047475
C  C85  1  0.59140000  0.22000000  0.42760000  1.0 -0.1508195586
C  C86  1  0.40860000  0.22000000  0.57240000  1.0 -0.1508195586
C  C87  1  0.56010000  0.29280000  0.45150000  1.0 -0.1233047475
C  C88  1  0.43990000  0.29280000  0.54850000  1.0 -0.1233047475
C  C89  1  0.90860000  0.22000000  0.92760000  1.0 -0.1508195586
C  C90  1  0.09140000  0.22000000  0.07240000  1.0 -0.1508195586
C  C91  1  0.93990000  0.29280000  0.95150000  1.0 -0.1233047475
C  C92  1  0.06010000  0.29280000  0.04850000  1.0 -0.1233047475
C  C93  1  0.90860000  0.78000000  0.07240000  1.0 -0.1508195586
C  C94  1  0.09140000  0.78000000  0.92760000  1.0 -0.1609999873
C  C95  1  0.93990000  0.70720000  0.04850000  1.0 -0.1233047475
C  C96  1  0.06010000  0.70720000  0.95150000  1.0 -0.1233047475
N  N1  1  0.50000000  0.80000000  0.50000000  1.0 -0.0680966158
N  N2  1  0.50000000  0.20000000  0.50000000  1.0 -0.0680966158
N  N3  1  0.00000000  0.20000000  0.00000000  1.0 -0.0680966158
N  N4  1  0.00000000  0.80000000  0.00000000  1.0 -0.0680966158
O  O1  1  0.84190000  0.36850000  0.51120000  1.0 -0.2741422173
O  O2  1  0.15810000  0.36850000  0.48880000  1.0 -0.2741422173
O  O3  1  0.84190000  0.63150000  0.48880000  1.0 -0.2741422173
O  O4  1  0.15810000  0.63150000  0.51120000  1.0 -0.2741422173
O  O5  1  0.91460000  0.45000000  0.63170000  1.0 -0.1508195586
O  O6  1  0.08540000  0.45000000  0.36830000  1.0 -0.1508195586
O  O7  1  0.91460000  0.55000000  0.36830000  1.0 -0.1508195586
O  O8  1  0.08540000  0.55000000  0.63170000  1.0 -0.1508195586
O  O9  1  0.91260000  0.35150000  0.54070000  1.0 -0.0827144482
O  O10  1  0.08740000  0.35150000  0.45930000  1.0 -0.0827144482
O  O11  1  0.91260000  0.64850000  0.45930000  1.0 -0.0868539069
O  O12  1  0.08740000  0.64850000  0.54070000  1.0 -0.0868539069
O  O13  1  0.84300000  0.48330000  0.61240000  1.0 -0.2376742442
O  O14  1  0.15700000  0.48330000  0.38760000  1.0 -0.2376742442
O  O15  1  0.84300000  0.51670000  0.38760000  1.0 -0.2376742442
O  O16  1  0.15700000  0.51670000  0.61240000  1.0 -0.2376742442
O  O17  1  0.65810000  0.63150000  0.98880000  1.0 -0.2741422173
O  O18  1  0.34190000  0.63150000  0.01120000  1.0 -0.2741422173
O  O19  1  0.65810000  0.36850000  0.01120000  1.0 -0.2741422173
O  O20  1  0.34190000  0.36850000  0.98880000  1.0 -0.2741422173
O  O21  1  0.58540000  0.55000000  0.86830000  1.0 -0.1508195586
O  O22  1  0.41460000  0.55000000  0.13170000  1.0 -0.1508195586
O  O23  1  0.58540000  0.45000000  0.13170000  1.0 -0.1508195586
O  O24  1  0.41460000  0.45000000  0.86830000  1.0 -0.1508195586
O  O25  1  0.58740000  0.64850000  0.95930000  1.0 -0.0868539069
O  O26  1  0.41260000  0.64850000  0.04070000  1.0 -0.0868539069
O  O27  1  0.58740000  0.35150000  0.04070000  1.0 -0.0827144482
O  O28  1  0.41260000  0.35150000  0.95930000  1.0 -0.0827144482
O  O29  1  0.65700000  0.51670000  0.88760000  1.0 -0.2376742442
O  O30  1  0.34300000  0.51670000  0.11240000  1.0 -0.2376742442
O  O31  1  0.65700000  0.48330000  0.11240000  1.0 -0.2376742442
O  O32  1  0.34300000  0.48330000  0.88760000  1.0 -0.2376742442
