# DDEC6 charges by PACMAN v1.1 (https://github.com/mtap-research/PACMAN-charge/)
data_NEDVOJ_FSR_pacman
_symmetry_space_group_name_H-M   'P 1'
_cell_length_a   11.72580000
_cell_length_b   15.44890000
_cell_length_c   16.71070000
_cell_angle_alpha   106.78700000
_cell_angle_beta   98.06400000
_cell_angle_gamma   107.78800000
_symmetry_Int_Tables_number   1
_chemical_formula_structural   Mn3H60(C40O13)2
_chemical_formula_sum   'Mn3 H60 C80 O26'
_cell_volume   2671.49839333
_cell_formula_units_Z   1
loop_
 _symmetry_equiv_pos_site_id
 _symmetry_equiv_pos_as_xyz
  1  'x, y, z'
loop_
 _atom_site_type_symbol
 _atom_site_label
 _atom_site_symmetry_multiplicity
 _atom_site_fract_x
 _atom_site_fract_y
 _atom_site_fract_z
 _atom_site_occupancy
 _atom_site_charge
Mn  Mn1  1  0.50000000  0.00000000  0.00000000  1.0 1.0836051114
Mn  Mn2  1  0.81984000  0.11946000  0.10077000  1.0 0.984162987
Mn  Mn3  1  0.18016000  0.88054000  0.89923000  1.0 0.984162987
H  H1  1  0.75980000  0.27380000  0.33650000  1.0 0.1275671267
H  H2  1  0.24020000  0.72620000  0.66350000  1.0 0.1275671267
H  H3  1  0.71970000  0.34720000  0.46840000  1.0 0.119490705
H  H4  1  0.28030000  0.65280000  0.53160000  1.0 0.119490705
H  H5  1  0.35690000  0.17310000  0.36890000  1.0 0.1083548486
H  H6  1  0.64310000  0.82690000  0.63110000  1.0 0.1083548486
H  H7  1  0.39980000  0.09940000  0.23760000  1.0 0.1083548486
H  H8  1  0.60020000  0.90060000  0.76240000  1.0 0.1083548486
H  H9  1  0.62430000  0.42750000  0.54920000  1.0 0.1379214756
H  H10  1  0.37570000  0.57250000  0.45080000  1.0 0.1379214756
H  H11  1  0.64760000  0.35410000  0.59410000  1.0 0.0903317936
H  H12  1  0.35240000  0.64590000  0.40590000  1.0 0.0903317936
H  H13  1  0.85360000  0.84680000  0.88800000  1.0 0.1379214756
H  H14  1  0.14640000  0.15320000  0.11200000  1.0 0.1379214756
H  H15  1  0.77730000  0.68700000  0.78800000  1.0 0.1275671267
H  H16  1  0.22270000  0.31300000  0.21200000  1.0 0.1275671267
H  H17  1  0.45670000  0.63730000  0.86260000  1.0 0.1379214756
H  H18  1  0.54330000  0.36270000  0.13740000  1.0 0.1379214756
H  H19  1  0.52990000  0.79730000  0.95790000  1.0 0.119490705
H  H20  1  0.47010000  0.20270000  0.04210000  1.0 0.119490705
H  H21  1  0.69600000  0.52460000  0.71970000  1.0 0.100333453
H  H22  1  0.30400000  0.47540000  0.28030000  1.0 0.100333453
H  H23  1  0.62100000  0.56090000  0.65640000  1.0 0.100333453
H  H24  1  0.37900000  0.43910000  0.34360000  1.0 0.100333453
H  H25  1  0.50330000  0.18370000  0.89390000  1.0 0.1275671267
H  H26  1  0.49670000  0.81630000  0.10610000  1.0 0.1275671267
H  H27  1  0.46880000  0.26150000  0.79720000  1.0 0.1275671267
H  H28  1  0.53120000  0.73850000  0.20280000  1.0 0.1275671267
H  H29  1  0.83570000  0.36140000  0.81270000  1.0 0.1379214756
H  H30  1  0.16430000  0.63860000  0.18730000  1.0 0.1379214756
H  H31  1  0.86960000  0.28870000  0.91210000  1.0 0.119490705
H  H32  1  0.13040000  0.71130000  0.08790000  1.0 0.119490705
H  H33  1  0.47910000  0.38170000  0.74690000  1.0 0.119490705
H  H34  1  0.52090000  0.61830000  0.25310000  1.0 0.119490705
H  H35  1  0.46600000  0.28810000  0.66720000  1.0 0.100333453
H  H36  1  0.53400000  0.71190000  0.33280000  1.0 0.100333453
H  H37  1  0.10860000  0.35360000  0.34490000  1.0 0.119490705
H  H38  1  0.89140000  0.64640000  0.65510000  1.0 0.119490705
H  H39  1  0.23770000  0.41580000  0.48290000  1.0 0.119490705
H  H40  1  0.76230000  0.58420000  0.51710000  1.0 0.119490705
H  H41  1  0.20410000  0.14490000  0.47200000  1.0 0.1379214756
H  H42  1  0.79590000  0.85510000  0.52800000  1.0 0.1379214756
H  H43  1  0.06800000  0.08190000  0.33680000  1.0 0.1275671267
H  H44  1  0.93200000  0.91810000  0.66320000  1.0 0.119490705
H  H45  1  0.37330000  0.45160000  0.65030000  1.0 0.119490705
H  H46  1  0.62670000  0.54840000  0.34970000  1.0 0.119490705
H  H47  1  0.40700000  0.44440000  0.55950000  1.0 0.100333453
H  H48  1  0.59300000  0.55560000  0.44050000  1.0 0.100333453
H  H49  1  0.69010000  0.41600000  0.59460000  1.0 0.067908217
H  H50  1  0.30990000  0.58400000  0.40540000  1.0 0.067908217
H  H51  1  0.58530000  0.30940000  0.56270000  1.0 0.1275671267
H  H52  1  0.41470000  0.69060000  0.43730000  1.0 0.1275671267
H  H53  1  0.77510000  0.25300000  0.33800000  1.0 0.119490705
H  H54  1  0.22490000  0.74700000  0.66200000  1.0 0.119490705
H  H55  1  0.75740000  0.35860000  0.46660000  1.0 0.1083548486
H  H56  1  0.24260000  0.64140000  0.53340000  1.0 0.1083548486
H  H57  1  0.39050000  0.28170000  0.35880000  1.0 0.119490705
H  H58  1  0.60950000  0.71830000  0.64120000  1.0 0.119490705
H  H59  1  0.40970000  0.18160000  0.23290000  1.0 0.0903317936
H  H60  1  0.59030000  0.81840000  0.76710000  1.0 0.0903317936
C  C1  1  0.60800000  0.13630000  0.19180000  1.0 0.4534437068
C  C2  1  0.39200000  0.86370000  0.80820000  1.0 0.4534437068
C  C3  1  0.58430000  0.18060000  0.27440000  1.0 0.0225411289
C  C4  1  0.41570000  0.81940000  0.72560000  1.0 0.0225411289
C  C5  1  0.67780000  0.25340000  0.34320000  1.0 -0.1293526545
C  C6  1  0.32220000  0.74660000  0.65680000  1.0 -0.1293526545
C  C7  1  0.65510000  0.29770000  0.42170000  1.0 -0.0870995086
C  C8  1  0.34490000  0.70230000  0.57830000  1.0 -0.0870995086
C  C9  1  0.53600000  0.26640000  0.42810000  1.0 0.1083548486
C  C10  1  0.46400000  0.73360000  0.57190000  1.0 0.1083548486
C  C11  1  0.43860000  0.19310000  0.36150000  1.0 -0.0870995086
C  C12  1  0.56140000  0.80690000  0.63850000  1.0 -0.0870995086
C  C13  1  0.46430000  0.14980000  0.28380000  1.0 -0.0496861859
C  C14  1  0.53570000  0.85020000  0.71620000  1.0 -0.0496861859
C  C15  1  0.58320000  0.37530000  0.57020000  1.0 -0.0315318854
C  C16  1  0.41680000  0.62470000  0.42980000  1.0 -0.0315318854
C  C17  1  0.74450000  0.93970000  0.99210000  1.0 0.5711255081
C  C18  1  0.25550000  0.06030000  0.00790000  1.0 0.5711255081
C  C19  1  0.69800000  0.83710000  0.93110000  1.0 -0.0432976775
C  C20  1  0.30200000  0.16290000  0.06890000  1.0 -0.0432976775
C  C21  1  0.77210000  0.80450000  0.88170000  1.0 -0.0812567738
C  C22  1  0.22790000  0.19550000  0.11830000  1.0 -0.0812567738
C  C23  1  0.72730000  0.70950000  0.82270000  1.0 -0.2296090988
C  C24  1  0.27270000  0.29050000  0.17730000  1.0 -0.2296090988
C  C25  1  0.60920000  0.64880000  0.81540000  1.0 0.2525358505
C  C26  1  0.39080000  0.35120000  0.18460000  1.0 0.2525358505
C  C27  1  0.53670000  0.68050000  0.86670000  1.0 -0.2192535363
C  C28  1  0.46330000  0.31950000  0.13330000  1.0 -0.2192535363
C  C29  1  0.58040000  0.77500000  0.92380000  1.0 -0.0870995086
C  C30  1  0.41960000  0.22500000  0.07620000  1.0 -0.0870995086
C  C31  1  0.61260000  0.52100000  0.69370000  1.0 -0.1590276428
C  C32  1  0.38740000  0.47900000  0.30630000  1.0 -0.1590276428
C  C33  1  0.70800000  0.18170000  0.97700000  1.0 0.5886370547
C  C34  1  0.29200000  0.81830000  0.02300000  1.0 0.5886370547
C  C35  1  0.69020000  0.23120000  0.91480000  1.0 -0.0496861859
C  C36  1  0.30980000  0.76880000  0.08520000  1.0 -0.0496861859
C  C37  1  0.57130000  0.22150000  0.87860000  1.0 -0.0737829548
C  C38  1  0.42870000  0.77850000  0.12140000  1.0 -0.0737829548
C  C39  1  0.55020000  0.26640000  0.82020000  1.0 -0.2296090988
C  C40  1  0.44980000  0.73360000  0.17980000  1.0 -0.2296090988
C  C41  1  0.65010000  0.31860000  0.79580000  1.0 0.2618866719
C  C42  1  0.34990000  0.68140000  0.20420000  1.0 0.2618866719
C  C43  1  0.76790000  0.32620000  0.83000000  1.0 -0.2192535363
C  C44  1  0.23210000  0.67380000  0.17000000  1.0 -0.2192535363
C  C45  1  0.78780000  0.28300000  0.88880000  1.0 -0.0737829548
C  C46  1  0.21220000  0.71700000  0.11120000  1.0 -0.0737829548
C  C47  1  0.51790000  0.35680000  0.70090000  1.0 -0.1033542894
C  C48  1  0.48210000  0.64320000  0.29910000  1.0 -0.1033542894
C  C49  1  0.99370000  0.17230000  0.23750000  1.0 0.5424250372
C  C50  1  0.00630000  0.82770000  0.76250000  1.0 0.5424250372
C  C51  1  0.07630000  0.21150000  0.32620000  1.0 -0.0315318854
C  C52  1  0.92370000  0.78850000  0.67380000  1.0 -0.0315318854
C  C53  1  0.12750000  0.31070000  0.37070000  1.0 -0.1230139203
C  C54  1  0.87250000  0.68930000  0.62930000  1.0 -0.1230139203
C  C55  1  0.20570000  0.34780000  0.45220000  1.0 -0.3161113255
C  C56  1  0.79430000  0.65220000  0.54780000  1.0 -0.3161113255
C  C57  1  0.23740000  0.28790000  0.48910000  1.0 0.2525358505
C  C58  1  0.76260000  0.71210000  0.51090000  1.0 0.2525358505
C  C59  1  0.18460000  0.18730000  0.44590000  1.0 -0.2082151912
C  C60  1  0.81540000  0.81270000  0.55410000  1.0 -0.2082151912
C  C61  1  0.10450000  0.15030000  0.36570000  1.0 -0.0812567738
C  C62  1  0.89550000  0.84970000  0.63430000  1.0 -0.0812567738
C  C63  1  0.40220000  0.41410000  0.60430000  1.0 -0.1669068776
C  C64  1  0.59780000  0.58590000  0.39570000  1.0 -0.1669068776
C  C65  1  0.53020000  0.41730000  0.64207000  1.0 0.1379214756
C  C66  1  0.46980000  0.58270000  0.35793000  1.0 0.1379214756
C  C67  1  0.60000000  0.37900000  0.57320000  1.0 -0.0870995086
C  C68  1  0.40000000  0.62100000  0.42680000  1.0 -0.0870995086
C  C69  1  0.59450000  0.20790000  0.27480000  1.0 0.0337426595
C  C70  1  0.40550000  0.79210000  0.72520000  1.0 0.0337426595
C  C71  1  0.69800000  0.25950000  0.34250000  1.0 -0.1293526545
C  C72  1  0.30200000  0.74050000  0.65750000  1.0 -0.1293526545
C  C73  1  0.68720000  0.32230000  0.41890000  1.0 -0.0812567738
C  C74  1  0.31280000  0.67770000  0.58110000  1.0 -0.0812567738
C  C75  1  0.57060000  0.33130000  0.42450000  1.0 0.0817348667
C  C76  1  0.42940000  0.66870000  0.57550000  1.0 0.0817348667
C  C77  1  0.46870000  0.27710000  0.35490000  1.0 -0.1488640897
C  C78  1  0.53130000  0.72290000  0.64510000  1.0 -0.1488640897
C  C79  1  0.47980000  0.21720000  0.28070000  1.0 0.0059251075
C  C80  1  0.52020000  0.78280000  0.71930000  1.0 0.0059251075
O  O1  1  0.51530000  0.07170000  0.13407000  1.0 -0.5002037801
O  O2  1  0.48470000  0.92830000  0.86593000  1.0 -0.5002037801
O  O3  1  0.71720000  0.15688000  0.18700000  1.0 -0.4818743311
O  O4  1  0.28280000  0.84312000  0.81300000  1.0 -0.4818743311
O  O5  1  0.50230000  0.30050000  0.50300000  1.0 -0.0496861859
O  O6  1  0.49770000  0.69950000  0.49700000  1.0 -0.0496861859
O  O7  1  0.85430000  0.99552000  0.00368000  1.0 -0.5002037801
O  O8  1  0.14570000  0.00448000  0.99632000  1.0 -0.5002037801
O  O9  1  0.67220000  0.96953000  0.03299000  1.0 -0.5817279063
O  O10  1  0.32780000  0.03047000  0.96701000  1.0 -0.5817279063
O  O11  1  0.55510000  0.55470000  0.75920000  1.0 -0.2296090988
O  O12  1  0.44490000  0.44530000  0.24080000  1.0 -0.2192535363
O  O13  1  0.61460000  0.13307000  0.99440000  1.0 -0.5817279063
O  O14  1  0.38540000  0.86693000  0.00560000  1.0 -0.5817279063
O  O15  1  0.81710000  0.19120000  0.01034000  1.0 -0.5221113853
O  O16  1  0.18290000  0.80880000  0.98966000  1.0 -0.5221113853
O  O17  1  0.63950000  0.36500000  0.73772000  1.0 -0.2296090988
O  O18  1  0.36050000  0.63500000  0.26228000  1.0 -0.238855242
O  O19  1  0.93430000  0.08203000  0.20155000  1.0 -0.5221113853
O  O20  1  0.06570000  0.91797000  0.79845000  1.0 -0.5221113853
O  O21  1  0.98320000  0.23005000  0.19939000  1.0 -0.5324334495
O  O22  1  0.01680000  0.76995000  0.80061000  1.0 -0.5324334495
O  O23  1  0.31740000  0.31760000  0.56752000  1.0 -0.2082151912
O  O24  1  0.68260000  0.68240000  0.43248000  1.0 -0.2082151912
O  O25  1  0.55460000  0.39050000  0.49780000  1.0 -0.0737829548
O  O26  1  0.44540000  0.60950000  0.50220000  1.0 -0.0737829548
