# DDEC6 charges by PACMAN v1.1 (https://github.com/mtap-research/PACMAN-charge/)
data_NEDWIE_ASR_pacman
_symmetry_space_group_name_H-M   'P 1'
_cell_length_a   15.68020000
_cell_length_b   16.61870000
_cell_length_c   16.86310000
_cell_angle_alpha   98.78200000
_cell_angle_beta   109.21500000
_cell_angle_gamma   114.85800000
_symmetry_Int_Tables_number   1
_chemical_formula_structural   MnNi3H48(C11O4)6
_chemical_formula_sum   'Mn1 Ni3 H48 C66 O24'
_cell_volume   3541.18028223
_cell_formula_units_Z   1
loop_
 _symmetry_equiv_pos_site_id
 _symmetry_equiv_pos_as_xyz
  1  'x, y, z'
loop_
 _atom_site_type_symbol
 _atom_site_label
 _atom_site_symmetry_multiplicity
 _atom_site_fract_x
 _atom_site_fract_y
 _atom_site_fract_z
 _atom_site_occupancy
 _atom_site_charge
Mn  Mn1  1  0.50000000  0.50000000  0.50000000  1.0 1.0805925672
Ni  Ni1  1  0.33256000  0.25061000  0.40636000  1.0 0.8969483321
Ni  Ni2  1  0.66744000  0.74939000  0.59364000  1.0 0.8969483321
Ni  Ni3  1  0.50000000  0.00000000  0.50000000  1.0 0.7912774627
H  H1  1  0.16780000  0.24230000  0.57190000  1.0 0.1323176136
H  H2  1  0.83220000  0.75770000  0.42810000  1.0 0.1323176136
H  H3  1  0.08960000  0.25930000  0.66120000  1.0 0.1374399086
H  H4  1  0.91040000  0.74070000  0.33880000  1.0 0.1374399086
H  H5  1  0.25800000  0.53880000  0.73620000  1.0 0.121122955
H  H6  1  0.74200000  0.46120000  0.26380000  1.0 0.121122955
H  H7  1  0.33460000  0.52410000  0.64360000  1.0 0.1323176136
H  H8  1  0.66540000  0.47590000  0.35640000  1.0 0.1323176136
H  H9  1  0.12400000  0.52840000  0.77750000  1.0 0.1015265604
H  H10  1  0.87600000  0.47160000  0.22250000  1.0 0.1015265604
H  H11  1  0.22080000  0.53300000  0.85500000  1.0 0.1015265604
H  H12  1  0.77920000  0.46700000  0.14500000  1.0 0.1015265604
H  H13  1  0.94950000  0.35020000  0.77760000  1.0 0.1090450704
H  H14  1  0.05050000  0.64980000  0.22240000  1.0 0.1090450704
H  H15  1  0.92750000  0.40410000  0.84940000  1.0 0.1015265604
H  H16  1  0.07250000  0.59590000  0.15060000  1.0 0.1015265604
H  H17  1  0.77620000  0.30530000  0.73260000  1.0 0.1090450704
H  H18  1  0.22380000  0.69470000  0.26740000  1.0 0.1090450704
H  H19  1  0.60070000  0.24590000  0.63160000  1.0 0.121122955
H  H20  1  0.39930000  0.75410000  0.36840000  1.0 0.121122955
H  H21  1  0.69320000  0.46820000  0.54490000  1.0 0.121122955
H  H22  1  0.30680000  0.53180000  0.45510000  1.0 0.121122955
H  H23  1  0.86490000  0.52790000  0.64680000  1.0 0.1323176136
H  H24  1  0.13510000  0.47210000  0.35320000  1.0 0.1323176136
H  H25  1  0.09990000  0.35950000  0.89470000  1.0 0.1015265604
H  H26  1  0.90010000  0.64050000  0.10530000  1.0 0.1015265604
H  H27  1  0.19880000  0.45880000  0.96550000  1.0 0.1015265604
H  H28  1  0.80120000  0.54120000  0.03450000  1.0 0.1015265604
H  H29  1  0.03570000  0.26570000  0.03510000  1.0 0.1323176136
H  H30  1  0.96430000  0.73430000  0.96490000  1.0 0.1323176136
H  H31  1  0.13190000  0.25320000  0.16530000  1.0 0.121122955
H  H32  1  0.86810000  0.74680000  0.83470000  1.0 0.121122955
H  H33  1  0.33650000  0.52720000  0.25900000  1.0 0.121122955
H  H34  1  0.66350000  0.47280000  0.74100000  1.0 0.121122955
H  H35  1  0.24520000  0.54450000  0.12950000  1.0 0.1323176136
H  H36  1  0.75480000  0.45550000  0.87050000  1.0 0.1323176136
H  H37  1  0.08750000  0.60250000  0.88990000  1.0 0.1015265604
H  H38  1  0.91250000  0.39750000  0.11010000  1.0 0.1015265604
H  H39  1  0.06720000  0.55730000  0.96410000  1.0 0.1090450704
H  H40  1  0.93280000  0.44270000  0.03590000  1.0 0.1090450704
H  H41  1  0.39340000  0.71360000  0.11780000  1.0 0.1374399086
H  H42  1  0.60660000  0.28640000  0.88220000  1.0 0.1374399086
H  H43  1  0.45530000  0.83390000  0.24610000  1.0 0.121122955
H  H44  1  0.54470000  0.16610000  0.75390000  1.0 0.121122955
H  H45  1  0.18130000  0.82860000  0.15380000  1.0 0.121122955
H  H46  1  0.81870000  0.17140000  0.84620000  1.0 0.121122955
H  H47  1  0.11830000  0.70810000  0.02730000  1.0 0.121122955
H  H48  1  0.88170000  0.29190000  0.97270000  1.0 0.121122955
C  C1  1  0.31100000  0.37130000  0.53890000  1.0 0.5905915444
C  C2  1  0.68900000  0.62870000  0.46110000  1.0 0.5905915444
C  C3  1  0.25860000  0.38130000  0.59740000  1.0 -0.0515748553
C  C4  1  0.74140000  0.61870000  0.40260000  1.0 -0.0515748553
C  C5  1  0.18640000  0.30360000  0.60480000  1.0 -0.0802929626
C  C6  1  0.81360000  0.69640000  0.39520000  1.0 -0.0802929626
C  C7  1  0.14170000  0.31380000  0.65860000  1.0 -0.2000730167
C  C8  1  0.85830000  0.68620000  0.34140000  1.0 -0.2000730167
C  C9  1  0.17040000  0.40220000  0.71020000  1.0 0.2353496497
C  C10  1  0.82960000  0.59780000  0.28980000  1.0 0.2353496497
C  C11  1  0.23960000  0.47780000  0.70270000  1.0 -0.2196103637
C  C12  1  0.76040000  0.52220000  0.29730000  1.0 -0.2196103637
C  C13  1  0.28470000  0.46920000  0.64750000  1.0 -0.0802929626
C  C14  1  0.71530000  0.53080000  0.35250000  1.0 -0.0802929626
C  C15  1  0.14470000  0.49420000  0.81610000  1.0 -0.1056821848
C  C16  1  0.85530000  0.50580000  0.18390000  1.0 -0.1056821848
C  C17  1  0.08460000  0.47500000  0.87210000  1.0 0.083174186
C  C18  1  0.91540000  0.52500000  0.12790000  1.0 0.083174186
C  C19  1  0.96640000  0.41290000  0.81260000  1.0 -0.0802929626
C  C20  1  0.03360000  0.58710000  0.18740000  1.0 -0.0802929626
C  C21  1  0.83600000  0.41900000  0.69710000  1.0 0.2562766617
C  C22  1  0.16400000  0.58100000  0.30290000  1.0 0.2562766617
C  C23  1  0.75930000  0.33800000  0.69410000  1.0 -0.2298213745
C  C24  1  0.24070000  0.66200000  0.30590000  1.0 -0.2298213745
C  C25  1  0.65450000  0.30260000  0.63380000  1.0 -0.0617404299
C  C26  1  0.34550000  0.69740000  0.36620000  1.0 -0.0617404299
C  C27  1  0.62940000  0.35000000  0.57760000  1.0 -0.0515748553
C  C28  1  0.37060000  0.65000000  0.42240000  1.0 -0.0515748553
C  C29  1  0.70960000  0.43480000  0.58280000  1.0 -0.0695986653
C  C30  1  0.29040000  0.56520000  0.41720000  1.0 -0.0695986653
C  C31  1  0.81120000  0.46960000  0.64240000  1.0 -0.2000730167
C  C32  1  0.18880000  0.53040000  0.35760000  1.0 -0.2000730167
C  C33  1  0.51970000  0.31270000  0.51640000  1.0 0.5603581314
C  C34  1  0.48030000  0.68730000  0.48360000  1.0 0.5603581314
C  C35  1  0.12160000  0.42310000  0.93190000  1.0 -0.0905427565
C  C36  1  0.87840000  0.57690000  0.06810000  1.0 -0.0905427565
C  C37  1  0.13070000  0.40610000  0.06770000  1.0 0.2478920613
C  C38  1  0.86930000  0.59390000  0.93230000  1.0 0.2478920613
C  C39  1  0.09790000  0.32000000  0.07990000  1.0 -0.2298213745
C  C40  1  0.90210000  0.68000000  0.92010000  1.0 -0.2298213745
C  C41  1  0.15560000  0.31300000  0.15770000  1.0 -0.0802929626
C  C42  1  0.84440000  0.68700000  0.84230000  1.0 -0.0802929626
C  C43  1  0.24410000  0.38750000  0.22290000  1.0 -0.0341726373
C  C44  1  0.75590000  0.61250000  0.77710000  1.0 -0.0341726373
C  C45  1  0.27560000  0.47340000  0.21240000  1.0 -0.0802929626
C  C46  1  0.72440000  0.52660000  0.78760000  1.0 -0.0802929626
C  C47  1  0.22110000  0.48410000  0.13580000  1.0 -0.2144181783
C  C48  1  0.77890000  0.51590000  0.86420000  1.0 -0.2196103637
C  C49  1  0.30610000  0.37840000  0.30740000  1.0 0.6000463312
C  C50  1  0.69390000  0.62160000  0.69260000  1.0 0.6000463312
C  C51  1  0.10790000  0.56830000  0.92880000  1.0 -0.0950048471
C  C52  1  0.89210000  0.43170000  0.07120000  1.0 -0.0905427565
C  C53  1  0.24940000  0.69690000  0.05990000  1.0 0.2478920613
C  C54  1  0.75060000  0.30310000  0.94010000  1.0 0.2478920613
C  C55  1  0.34910000  0.73610000  0.12560000  1.0 -0.2144181783
C  C56  1  0.65090000  0.26390000  0.87440000  1.0 -0.2144181783
C  C57  1  0.38550000  0.80690000  0.20200000  1.0 -0.0802929626
C  C58  1  0.61450000  0.19310000  0.79800000  1.0 -0.0802929626
C  C59  1  0.32200000  0.84030000  0.21650000  1.0 -0.0515748553
C  C60  1  0.67800000  0.15970000  0.78350000  1.0 -0.0515748553
C  C61  1  0.22420000  0.80350000  0.14780000  1.0 -0.0802929626
C  C62  1  0.77580000  0.19650000  0.85220000  1.0 -0.0802929626
C  C63  1  0.18720000  0.73320000  0.07240000  1.0 -0.2298213745
C  C64  1  0.81280000  0.26680000  0.92760000  1.0 -0.2298213745
C  C65  1  0.35750000  0.90990000  0.30440000  1.0 0.5603581314
C  C66  1  0.64250000  0.09010000  0.69560000  1.0 0.5603581314
O  O1  1  0.37290000  0.44510000  0.53540000  1.0 -0.5393600519
O  O2  1  0.62710000  0.55490000  0.46460000  1.0 -0.5393600519
O  O3  1  0.28820000  0.29030000  0.49920000  1.0 -0.5309755261
O  O4  1  0.71180000  0.70970000  0.50080000  1.0 -0.5309755261
O  O5  1  0.11920000  0.40420000  0.76260000  1.0 -0.1889810319
O  O6  1  0.88080000  0.59580000  0.23740000  1.0 -0.1889810319
O  O7  1  0.93930000  0.46090000  0.75470000  1.0 -0.1778521891
O  O8  1  0.06070000  0.53910000  0.24530000  1.0 -0.1778521891
O  O9  1  0.44880000  0.23220000  0.50420000  1.0 -0.5188332255
O  O10  1  0.55120000  0.76780000  0.49580000  1.0 -0.5188332255
O  O11  1  0.49460000  0.36350000  0.47470000  1.0 -0.5831626112
O  O12  1  0.50540000  0.63650000  0.52530000  1.0 -0.5831626112
O  O13  1  0.07450000  0.41580000  0.99260000  1.0 -0.2144181783
O  O14  1  0.92550000  0.58420000  0.00740000  1.0 -0.2144181783
O  O15  1  0.26450000  0.29960000  0.31750000  1.0 -0.5699873621
O  O16  1  0.73550000  0.70040000  0.68250000  1.0 -0.5699873621
O  O17  1  0.39310000  0.44950000  0.36130000  1.0 -0.5519235189
O  O18  1  0.60690000  0.55050000  0.63870000  1.0 -0.5519235189
O  O19  1  0.21770000  0.62360000  0.98750000  1.0 -0.1778521891
O  O20  1  0.78230000  0.37640000  0.01250000  1.0 -0.1778521891
O  O21  1  0.30150000  0.94720000  0.30670000  1.0 -0.5393600519
O  O22  1  0.69850000  0.05280000  0.69330000  1.0 -0.5393600519
O  O23  1  0.43860000  0.92550000  0.36650000  1.0 -0.5519235189
O  O24  1  0.56140000  0.07450000  0.63350000  1.0 -0.5519235189
