# DDEC6 charges by PACMAN v1.1 (https://github.com/mtap-research/PACMAN-charge/)
data_NEGKOC_FSR_pacman
_symmetry_space_group_name_H-M   'P 1'
_cell_length_a   10.11010000
_cell_length_b   10.50360000
_cell_length_c   12.98000000
_cell_angle_alpha   82.90300000
_cell_angle_beta   83.81300000
_cell_angle_gamma   70.04900000
_symmetry_Int_Tables_number   1
_chemical_formula_structural   ZnH13C20N7O4
_chemical_formula_sum   'Zn2 H26 C40 N14 O8'
_cell_volume   1282.54240967
_cell_formula_units_Z   2
loop_
 _symmetry_equiv_pos_site_id
 _symmetry_equiv_pos_as_xyz
  1  'x, y, z'
loop_
 _atom_site_type_symbol
 _atom_site_label
 _atom_site_symmetry_multiplicity
 _atom_site_fract_x
 _atom_site_fract_y
 _atom_site_fract_z
 _atom_site_occupancy
 _atom_site_charge
Zn  Zn1  1  0.39547000  0.37247000  0.96609000  1.0 0.80639189
Zn  Zn2  1  0.60453000  0.62753000  0.03391000  1.0 0.80639189
H  H1  1  0.81300000  0.07600000  0.88210000  1.0 0.1289789479
H  H2  1  0.21600000  0.05300000  0.86200000  1.0 0.1289789479
H  H3  1  0.93600000  0.38400000  0.95000000  1.0 0.141614734
H  H4  1  0.29200000  0.40700000  0.19550000  1.0 0.1188660245
H  H5  1  0.27000000  0.29600000  0.35600000  1.0 0.1188660245
H  H6  1  0.49200000  0.95200000  0.22000000  1.0 0.141614734
H  H7  1  0.50800000  0.08400000  0.06400000  1.0 0.1188660245
H  H8  1  0.31400000  0.07600000  0.45800000  1.0 0.1129302185
H  H9  1  0.52900000  0.67900000  0.48600000  1.0 0.1012498157
H  H10  1  0.26800000  0.79100000  0.70000000  1.0 0.1289789479
H  H11  1  0.24500000  0.65800000  0.85400000  1.0 0.0927468061
H  H12  1  0.55700000  0.34300000  0.74850000  1.0 0.1188660245
H  H13  1  0.59300000  0.46200000  0.59740000  1.0 0.1289789479
H  H14  1  0.18700000  0.92400000  0.11790000  1.0 0.1289789479
H  H15  1  0.78400000  0.94700000  0.13800000  1.0 0.1289789479
H  H16  1  0.06400000  0.61600000  0.05000000  1.0 0.141614734
H  H17  1  0.70800000  0.59300000  0.80450000  1.0 0.1188660245
H  H18  1  0.73000000  0.70400000  0.64400000  1.0 0.1188660245
H  H19  1  0.50800000  0.04800000  0.78000000  1.0 0.141614734
H  H20  1  0.49200000  0.91600000  0.93600000  1.0 0.1188660245
H  H21  1  0.68600000  0.92400000  0.54200000  1.0 0.1129302185
H  H22  1  0.47100000  0.32100000  0.51400000  1.0 0.1012498157
H  H23  1  0.73200000  0.20900000  0.30000000  1.0 0.1289789479
H  H24  1  0.75500000  0.34200000  0.14600000  1.0 0.0927468061
H  H25  1  0.44300000  0.65700000  0.25150000  1.0 0.1188660245
H  H26  1  0.40700000  0.53800000  0.40260000  1.0 0.1289789479
C  C1  1  0.84710000  0.24970000  0.91919000  1.0 -0.0185596209
C  C2  1  0.88350000  0.11800000  0.88833000  1.0 -0.2123846038
C  C3  1  0.02360000  0.04360000  0.86563000  1.0 0.1867272805
C  C4  1  0.12950000  0.09820000  0.87391000  1.0 -0.1734078799
C  C5  1  0.09390000  0.22800000  0.90535000  1.0 -0.0091290588
C  C6  1  0.95380000  0.30420000  0.92736000  1.0 -0.1266221602
C  C7  1  0.69460000  0.32900000  0.94468000  1.0 0.5655492496
C  C8  1  0.21110000  0.28250000  0.91949000  1.0 0.5363710474
C  C9  1  0.32760000  0.32160000  0.20283000  1.0 0.0927468061
C  C10  1  0.31890000  0.24840000  0.29743000  1.0 -0.2123846038
C  C11  1  0.38020000  0.10700000  0.30618000  1.0 0.1012498157
C  C12  1  0.45250000  0.04490000  0.21710000  1.0 -0.1587232214
C  C13  1  0.45670000  0.12690000  0.12612000  1.0 0.0833675813
C  C14  1  0.36400000  0.02830000  0.40470000  1.0 0.0489508834
C  C15  1  0.45840000  0.71970000  0.53240000  1.0 0.0294217698
C  C16  1  0.43840000  0.64000000  0.63045000  1.0 0.1188660245
C  C17  1  0.33560000  0.69600000  0.70796000  1.0 -0.1734078799
C  C18  1  0.32450000  0.61510000  0.79870000  1.0 0.1012498157
C  C19  1  0.50310000  0.43030000  0.74056000  1.0 0.1012498157
C  C20  1  0.52270000  0.50490000  0.64750000  1.0 -0.2234535788
C  C21  1  0.15290000  0.75030000  0.08081000  1.0 -0.0185596209
C  C22  1  0.11650000  0.88200000  0.11167000  1.0 -0.2123846038
C  C23  1  0.97640000  0.95640000  0.13437000  1.0 0.1867272805
C  C24  1  0.87050000  0.90180000  0.12609000  1.0 -0.1734078799
C  C25  1  0.90610000  0.77200000  0.09465000  1.0 -0.0091290588
C  C26  1  0.04620000  0.69580000  0.07264000  1.0 -0.1266221602
C  C27  1  0.30540000  0.67100000  0.05532000  1.0 0.5655492496
C  C28  1  0.78890000  0.71750000  0.08051000  1.0 0.5363710474
C  C29  1  0.67240000  0.67840000  0.79717000  1.0 0.0927468061
C  C30  1  0.68110000  0.75160000  0.70257000  1.0 -0.2123846038
C  C31  1  0.61980000  0.89300000  0.69382000  1.0 0.1012498157
C  C32  1  0.54750000  0.95510000  0.78290000  1.0 -0.1587232214
C  C33  1  0.54330000  0.87310000  0.87388000  1.0 0.0833675813
C  C34  1  0.63600000  0.97170000  0.59530000  1.0 0.0489508834
C  C35  1  0.54160000  0.28030000  0.46760000  1.0 0.0294217698
C  C36  1  0.56160000  0.36000000  0.36955000  1.0 0.1188660245
C  C37  1  0.66440000  0.30400000  0.29204000  1.0 -0.1734078799
C  C38  1  0.67550000  0.38490000  0.20130000  1.0 0.1012498157
C  C39  1  0.49690000  0.56970000  0.25944000  1.0 0.1012498157
C  C40  1  0.47730000  0.49510000  0.35250000  1.0 -0.2234535788
N  N1  1  0.07050000  0.90960000  0.83301000  1.0 -0.2596260358
N  N2  1  0.97710000  0.85570000  0.83637000  1.0 0.3505785118
N  N3  1  0.90570000  0.79390000  0.83708000  1.0 -0.1587232214
N  N4  1  0.39520000  0.26310000  0.11713000  1.0 -0.2267279823
N  N5  1  0.41450000  0.89890000  0.41427000  1.0 -0.1869575132
N  N6  1  0.38120000  0.84290000  0.51424000  1.0 -0.1734078799
N  N7  1  0.40700000  0.48430000  0.81593000  1.0 -0.2123846038
N  N8  1  0.92950000  0.09040000  0.16699000  1.0 -0.2596260358
N  N9  1  0.02290000  0.14430000  0.16363000  1.0 0.3505785118
N  N10  1  0.09430000  0.20610000  0.16292000  1.0 -0.1587232214
N  N11  1  0.60480000  0.73690000  0.88287000  1.0 -0.2267279823
N  N12  1  0.58550000  0.10110000  0.58573000  1.0 -0.1869575132
N  N13  1  0.61880000  0.15710000  0.48576000  1.0 -0.1734078799
N  N14  1  0.59300000  0.51570000  0.18407000  1.0 -0.2123846038
O  O1  1  0.66375000  0.45143000  0.95988000  1.0 -0.5618717123
O  O2  1  0.60719000  0.26726000  0.94663000  1.0 -0.5393930126
O  O3  1  0.17690000  0.40065000  0.94832000  1.0 -0.5268105317
O  O4  1  0.33684000  0.20957000  0.90395000  1.0 -0.5502815891
O  O5  1  0.33625000  0.54857000  0.04012000  1.0 -0.5618717123
O  O6  1  0.39281000  0.73274000  0.05337000  1.0 -0.5393930126
O  O7  1  0.82310000  0.59935000  0.05168000  1.0 -0.5268105317
O  O8  1  0.66316000  0.79043000  0.09605000  1.0 -0.5502815891
