# DDEC6 charges by PACMAN v1.1 (https://github.com/mtap-research/PACMAN-charge/)
data_NEGKUI_FSR_pacman
_symmetry_space_group_name_H-M   'P 1'
_cell_length_a   10.08710000
_cell_length_b   10.22020000
_cell_length_c   13.97440000
_cell_angle_alpha   79.07300000
_cell_angle_beta   82.37400000
_cell_angle_gamma   69.38900000
_symmetry_Int_Tables_number   1
_chemical_formula_structural   ZnH13C20N7O4
_chemical_formula_sum   'Zn2 H26 C40 N14 O8'
_cell_volume   1320.57392111
_cell_formula_units_Z   2
loop_
 _symmetry_equiv_pos_site_id
 _symmetry_equiv_pos_as_xyz
  1  'x, y, z'
loop_
 _atom_site_type_symbol
 _atom_site_label
 _atom_site_symmetry_multiplicity
 _atom_site_fract_x
 _atom_site_fract_y
 _atom_site_fract_z
 _atom_site_occupancy
 _atom_site_charge
Zn  Zn1  1  0.39761000  0.86835000  0.97207000  1.0 0.8051649876
Zn  Zn2  1  0.60239000  0.13165000  0.02793000  1.0 0.8051649876
H  H1  1  0.28640000  0.91780000  0.18550000  1.0 0.1109079418
H  H2  1  0.50130000  0.56880000  0.07930000  1.0 0.1208673002
H  H3  1  0.27700000  0.79230000  0.34000000  1.0 0.1208673002
H  H4  1  0.49760000  0.43460000  0.23050000  1.0 0.139023932
H  H5  1  0.22920000  0.54510000  0.86390000  1.0 0.1292216092
H  H6  1  0.93340000  0.88050000  0.96360000  1.0 0.139023932
H  H7  1  0.32720000  0.56970000  0.45320000  1.0 0.1109079418
H  H8  1  0.81780000  0.57950000  0.88560000  1.0 0.1292216092
H  H9  1  0.52610000  0.15280000  0.49450000  1.0 0.1007760171
H  H10  1  0.29220000  0.28820000  0.69760000  1.0 0.1292216092
H  H11  1  0.58850000  0.93750000  0.61830000  1.0 0.1292216092
H  H12  1  0.27450000  0.16470000  0.85010000  1.0 0.1007760171
H  H13  1  0.55670000  0.82070000  0.77060000  1.0 0.1208673002
H  H14  1  0.71360000  0.08220000  0.81450000  1.0 0.1109079418
H  H15  1  0.49870000  0.43120000  0.92070000  1.0 0.1208673002
H  H16  1  0.72300000  0.20770000  0.66000000  1.0 0.1208673002
H  H17  1  0.50240000  0.56540000  0.76950000  1.0 0.139023932
H  H18  1  0.77080000  0.45490000  0.13610000  1.0 0.1292216092
H  H19  1  0.06660000  0.11950000  0.03640000  1.0 0.139023932
H  H20  1  0.67280000  0.43030000  0.54680000  1.0 0.1109079418
H  H21  1  0.18220000  0.42050000  0.11440000  1.0 0.1292216092
H  H22  1  0.47390000  0.84720000  0.50550000  1.0 0.1007760171
H  H23  1  0.70780000  0.71180000  0.30240000  1.0 0.1292216092
H  H24  1  0.41150000  0.06250000  0.38170000  1.0 0.1292216092
H  H25  1  0.72550000  0.83530000  0.14990000  1.0 0.1007760171
H  H26  1  0.44330000  0.17930000  0.22940000  1.0 0.1208673002
C  C1  1  0.32920000  0.81990000  0.19490000  1.0 0.1007760171
C  C2  1  0.45600000  0.61360000  0.13270000  1.0 0.0903826303
C  C3  1  0.21490000  0.77520000  0.93110000  1.0 0.5393263645
C  C4  1  0.32320000  0.74480000  0.28800000  1.0 -0.1974357754
C  C5  1  0.45430000  0.53230000  0.22300000  1.0 -0.1632087581
C  C6  1  0.09940000  0.71960000  0.91720000  1.0 -0.0056000167
C  C7  1  0.38610000  0.59930000  0.30360000  1.0 0.1109079418
C  C8  1  0.13480000  0.59450000  0.88070000  1.0 -0.1769462578
C  C9  1  0.95750000  0.79480000  0.94060000  1.0 -0.1333078198
C  C10  1  0.37430000  0.52020000  0.40230000  1.0 0.0485434238
C  C11  1  0.02880000  0.54210000  0.86890000  1.0 0.1844400413
C  C12  1  0.85160000  0.74130000  0.92950000  1.0 -0.0250592284
C  C13  1  0.88810000  0.61520000  0.89340000  1.0 -0.1974357754
C  C14  1  0.69760000  0.81970000  0.95450000  1.0 0.5722354002
C  C15  1  0.46390000  0.20230000  0.54100000  1.0 0.0239141922
C  C16  1  0.44390000  0.12770000  0.63920000  1.0 0.1208673002
C  C17  1  0.34840000  0.19360000  0.71130000  1.0 -0.1723503895
C  C18  1  0.52310000  0.98550000  0.66410000  1.0 -0.2080939763
C  C19  1  0.33750000  0.11870000  0.80240000  1.0 0.0903826303
C  C20  1  0.50470000  0.91640000  0.75600000  1.0 0.1007760171
C  C21  1  0.67080000  0.18010000  0.80510000  1.0 0.1007760171
C  C22  1  0.54400000  0.38640000  0.86730000  1.0 0.0903826303
C  C23  1  0.78510000  0.22480000  0.06890000  1.0 0.5393263645
C  C24  1  0.67680000  0.25520000  0.71200000  1.0 -0.1974357754
C  C25  1  0.54570000  0.46770000  0.77700000  1.0 -0.1632087581
C  C26  1  0.90060000  0.28040000  0.08280000  1.0 -0.0056000167
C  C27  1  0.61390000  0.40070000  0.69640000  1.0 0.1109079418
C  C28  1  0.86520000  0.40550000  0.11930000  1.0 -0.1769462578
C  C29  1  0.04250000  0.20520000  0.05940000  1.0 -0.1333078198
C  C30  1  0.62570000  0.47980000  0.59770000  1.0 0.0485434238
C  C31  1  0.97120000  0.45790000  0.13110000  1.0 0.1844400413
C  C32  1  0.14840000  0.25870000  0.07050000  1.0 -0.0250592284
C  C33  1  0.11190000  0.38480000  0.10660000  1.0 -0.1974357754
C  C34  1  0.30240000  0.18030000  0.04550000  1.0 0.5722354002
C  C35  1  0.53610000  0.79770000  0.45900000  1.0 0.0239141922
C  C36  1  0.55610000  0.87230000  0.36080000  1.0 0.1208673002
C  C37  1  0.65160000  0.80640000  0.28870000  1.0 -0.1723503895
C  C38  1  0.47690000  0.01450000  0.33590000  1.0 -0.2080939763
C  C39  1  0.66250000  0.88130000  0.19760000  1.0 0.0903826303
C  C40  1  0.49530000  0.08360000  0.24400000  1.0 0.1007760171
N  N1  1  0.39450000  0.75610000  0.11810000  1.0 -0.2242755048
N  N2  1  0.41510000  0.98040000  0.82580000  1.0 -0.2080939763
N  N3  1  0.42700000  0.38550000  0.41970000  1.0 -0.1916065567
N  N4  1  0.07820000  0.41130000  0.82890000  1.0 -0.2622598164
N  N5  1  0.39730000  0.33400000  0.51850000  1.0 -0.1723503895
N  N6  1  0.98400000  0.35870000  0.82740000  1.0 0.3512439973
N  N7  1  0.90960000  0.29810000  0.82460000  1.0 -0.1769462578
N  N8  1  0.60550000  0.24390000  0.88190000  1.0 -0.2242755048
N  N9  1  0.58490000  0.01960000  0.17420000  1.0 -0.2080939763
N  N10  1  0.57300000  0.61450000  0.58030000  1.0 -0.1916065567
N  N11  1  0.92180000  0.58870000  0.17110000  1.0 -0.2622598164
N  N12  1  0.60270000  0.66600000  0.48150000  1.0 -0.1723503895
N  N13  1  0.01600000  0.64130000  0.17260000  1.0 0.3512439973
N  N14  1  0.09040000  0.70190000  0.17540000  1.0 -0.1769462578
O  O1  1  0.61010000  0.75630000  0.95610000  1.0 -0.5436445527
O  O2  1  0.33430000  0.05530000  0.02850000  1.0 -0.5715728455
O  O3  1  0.17960000  0.89390000  0.96000000  1.0 -0.5326522641
O  O4  1  0.34230000  0.70060000  0.91590000  1.0 -0.5570249014
O  O5  1  0.38990000  0.24370000  0.04390000  1.0 -0.5436445527
O  O6  1  0.66570000  0.94470000  0.97150000  1.0 -0.5715728455
O  O7  1  0.82040000  0.10610000  0.04000000  1.0 -0.5326522641
O  O8  1  0.65770000  0.29940000  0.08410000  1.0 -0.5570249014
