# DDEC6 charges by PACMAN v1.1 (https://github.com/mtap-research/PACMAN-charge/)
data_NEGKIW_FSR_pacman
_symmetry_space_group_name_H-M   'P 1'
_cell_length_a   10.01340000
_cell_length_b   10.06770000
_cell_length_c   14.10560000
_cell_angle_alpha   81.83400000
_cell_angle_beta   78.95300000
_cell_angle_gamma   70.05000000
_symmetry_Int_Tables_number   1
_chemical_formula_structural   ZnH13C20N7O4
_chemical_formula_sum   'Zn2 H26 C40 N14 O8'
_cell_volume   1307.37304093
_cell_formula_units_Z   2
loop_
 _symmetry_equiv_pos_site_id
 _symmetry_equiv_pos_as_xyz
  1  'x, y, z'
loop_
 _atom_site_type_symbol
 _atom_site_label
 _atom_site_symmetry_multiplicity
 _atom_site_fract_x
 _atom_site_fract_y
 _atom_site_fract_z
 _atom_site_occupancy
 _atom_site_charge
Zn  Zn1  1  0.86417000  0.39879000  0.97497000  1.0 0.8019146166
Zn  Zn2  1  0.13583000  0.60121000  0.02503000  1.0 0.8019146166
H  H1  1  0.88130000  0.93100000  0.96590000  1.0 0.1308178074
H  H2  1  0.57310000  0.81810000  0.88610000  1.0 0.1308178074
H  H3  1  0.53940000  0.22930000  0.86930000  1.0 0.1308178074
H  H4  1  0.56360000  0.49950000  0.08250000  1.0 0.1236576393
H  H5  1  0.42800000  0.49390000  0.23350000  1.0 0.1406017683
H  H6  1  0.79370000  0.28510000  0.34170000  1.0 0.1236576393
H  H7  1  0.91850000  0.29490000  0.18740000  1.0 0.1124901212
H  H8  1  0.56840000  0.33240000  0.45470000  1.0 0.1124901212
H  H9  1  0.14610000  0.52540000  0.49790000  1.0 0.0989507931
H  H10  1  0.93060000  0.59280000  0.62200000  1.0 0.1308178074
H  H11  1  0.81470000  0.56280000  0.77670000  1.0 0.1124901212
H  H12  1  0.15840000  0.27220000  0.85100000  1.0 0.0989507931
H  H13  1  0.28470000  0.29070000  0.69900000  1.0 0.1308178074
H  H14  1  0.11870000  0.06900000  0.03410000  1.0 0.1308178074
H  H15  1  0.42690000  0.18190000  0.11390000  1.0 0.1308178074
H  H16  1  0.46060000  0.77070000  0.13070000  1.0 0.1308178074
H  H17  1  0.43640000  0.50050000  0.91750000  1.0 0.1236576393
H  H18  1  0.57200000  0.50610000  0.76650000  1.0 0.1406017683
H  H19  1  0.20630000  0.71490000  0.65830000  1.0 0.1236576393
H  H20  1  0.08150000  0.70510000  0.81260000  1.0 0.1124901212
H  H21  1  0.43160000  0.66760000  0.54530000  1.0 0.1124901212
H  H22  1  0.85390000  0.47460000  0.50210000  1.0 0.0989507931
H  H23  1  0.06940000  0.40720000  0.37800000  1.0 0.1308178074
H  H24  1  0.18530000  0.43720000  0.22330000  1.0 0.1124901212
H  H25  1  0.84160000  0.72780000  0.14900000  1.0 0.0989507931
H  H26  1  0.71530000  0.70930000  0.30100000  1.0 0.1308178074
C  C1  1  0.71720000  0.09770000  0.92030000  1.0 -0.0019911191
C  C2  1  0.79430000  0.95540000  0.94280000  1.0 -0.135077224
C  C3  1  0.73920000  0.85120000  0.93010000  1.0 -0.0259965555
C  C4  1  0.60990000  0.88820000  0.89420000  1.0 -0.200829395
C  C5  1  0.53660000  0.02860000  0.87060000  1.0 0.1815197609
C  C6  1  0.58970000  0.13450000  0.88430000  1.0 -0.1782177844
C  C7  1  0.77280000  0.21340000  0.93580000  1.0 0.5335285805
C  C8  1  0.81820000  0.69830000  0.95590000  1.0 0.566613718
C  C9  1  0.60970000  0.45490000  0.13540000  1.0 0.0989507931
C  C10  1  0.52740000  0.45270000  0.22600000  1.0 -0.1721758385
C  C11  1  0.59550000  0.38780000  0.30620000  1.0 0.1124901212
C  C12  1  0.74430000  0.32860000  0.29010000  1.0 -0.200829395
C  C13  1  0.81890000  0.33470000  0.19690000  1.0 0.0989507931
C  C14  1  0.51690000  0.37540000  0.40410000  1.0 0.0458444349
C  C15  1  0.19640000  0.46240000  0.54380000  1.0 0.0179899057
C  C16  1  0.12220000  0.44340000  0.64220000  1.0 0.1124901212
C  C17  1  0.97900000  0.52650000  0.66730000  1.0 -0.2104615093
C  C18  1  0.91050000  0.50850000  0.76070000  1.0 0.0989507931
C  C19  1  0.11260000  0.33740000  0.80420000  1.0 0.0989507931
C  C20  1  0.18930000  0.34740000  0.71300000  1.0 -0.1721758385
C  C21  1  0.28280000  0.90230000  0.07970000  1.0 -0.0019911191
C  C22  1  0.20570000  0.04460000  0.05720000  1.0 -0.135077224
C  C23  1  0.26080000  0.14880000  0.06990000  1.0 -0.0259965555
C  C24  1  0.39010000  0.11180000  0.10580000  1.0 -0.200829395
C  C25  1  0.46340000  0.97140000  0.12940000  1.0 0.1815197609
C  C26  1  0.41030000  0.86550000  0.11570000  1.0 -0.1782177844
C  C27  1  0.22720000  0.78660000  0.06420000  1.0 0.5335285805
C  C28  1  0.18180000  0.30170000  0.04410000  1.0 0.566613718
C  C29  1  0.39030000  0.54510000  0.86460000  1.0 0.0989507931
C  C30  1  0.47260000  0.54730000  0.77400000  1.0 -0.1721758385
C  C31  1  0.40450000  0.61220000  0.69380000  1.0 0.1124901212
C  C32  1  0.25570000  0.67140000  0.70990000  1.0 -0.200829395
C  C33  1  0.18110000  0.66530000  0.80310000  1.0 0.0989507931
C  C34  1  0.48310000  0.62460000  0.59590000  1.0 0.0458444349
C  C35  1  0.80360000  0.53760000  0.45620000  1.0 0.0179899057
C  C36  1  0.87780000  0.55660000  0.35780000  1.0 0.1124901212
C  C37  1  0.02100000  0.47350000  0.33270000  1.0 -0.2104615093
C  C38  1  0.08950000  0.49150000  0.23930000  1.0 0.0989507931
C  C39  1  0.88740000  0.66260000  0.19580000  1.0 0.0989507931
C  C40  1  0.81070000  0.65260000  0.28700000  1.0 -0.1721758385
N  N1  1  0.40550000  0.07690000  0.83100000  1.0 -0.2483549573
N  N2  1  0.34850000  0.98660000  0.82870000  1.0 0.3503905527
N  N3  1  0.28490000  0.91450000  0.82330000  1.0 -0.1721758385
N  N4  1  0.75340000  0.39530000  0.12050000  1.0 -0.2243824907
N  N5  1  0.38060000  0.42130000  0.42200000  1.0 -0.1945109375
N  N6  1  0.32990000  0.39330000  0.52020000  1.0 -0.1721758385
N  N7  1  0.97530000  0.41660000  0.82910000  1.0 -0.2104615093
N  N8  1  0.59450000  0.92310000  0.16900000  1.0 -0.2483549573
N  N9  1  0.65150000  0.01340000  0.17130000  1.0 0.3503905527
N  N10  1  0.71510000  0.08550000  0.17670000  1.0 -0.1721758385
N  N11  1  0.24660000  0.60470000  0.87950000  1.0 -0.2252100565
N  N12  1  0.61940000  0.57870000  0.57800000  1.0 -0.1945109375
N  N13  1  0.67010000  0.60670000  0.47980000  1.0 -0.1721758385
N  N14  1  0.02470000  0.58340000  0.17090000  1.0 -0.2104615093
O  O1  1  0.89370000  0.17910000  0.96240000  1.0 -0.5239765801
O  O2  1  0.69580000  0.34030000  0.92270000  1.0 -0.5510424831
O  O3  1  0.94460000  0.66490000  0.97090000  1.0 -0.5590285816
O  O4  1  0.75170000  0.61060000  0.95820000  1.0 -0.5416853585
O  O5  1  0.10630000  0.82090000  0.03760000  1.0 -0.5239765801
O  O6  1  0.30420000  0.65970000  0.07730000  1.0 -0.5510424831
O  O7  1  0.05540000  0.33510000  0.02910000  1.0 -0.5590285816
O  O8  1  0.24830000  0.38940000  0.04180000  1.0 -0.5416853585
