# DDEC6 charges by PACMAN v1.1 (https://github.com/mtap-research/PACMAN-charge/)
data_NEGLUJ_ASR_pacman
_symmetry_space_group_name_H-M   'P 1'
_cell_length_a   10.03860000
_cell_length_b   10.10700000
_cell_length_c   14.17680000
_cell_angle_alpha   81.17900000
_cell_angle_beta   78.64600000
_cell_angle_gamma   69.58800000
_symmetry_Int_Tables_number   1
_chemical_formula_structural   ZnH13C20N7O4
_chemical_formula_sum   'Zn2 H26 C40 N14 O8'
_cell_volume   1316.05520604
_cell_formula_units_Z   2
loop_
 _symmetry_equiv_pos_site_id
 _symmetry_equiv_pos_as_xyz
  1  'x, y, z'
loop_
 _atom_site_type_symbol
 _atom_site_label
 _atom_site_symmetry_multiplicity
 _atom_site_fract_x
 _atom_site_fract_y
 _atom_site_fract_z
 _atom_site_occupancy
 _atom_site_charge
Zn  Zn1  1  0.86359000  0.39834000  0.47716000  1.0 0.7994344379
Zn  Zn2  1  0.13641000  0.60166000  0.52284000  1.0 0.7994344379
H  H1  1  0.53810000  0.23133000  0.37095000  1.0 0.1300903778
H  H2  1  0.57497000  0.81835000  0.38577000  1.0 0.1300903778
H  H3  1  0.87999000  0.93198000  0.46700000  1.0 0.1375636603
H  H4  1  0.15900000  0.27659000  0.35317000  1.0 0.0977642569
H  H5  1  0.28399000  0.29721000  0.20099000  1.0 0.1300903778
H  H6  1  0.92284000  0.59089000  0.12442000  1.0 0.1300903778
H  H7  1  0.81066000  0.55960000  0.27960000  1.0 0.1201262125
H  H8  1  0.14043000  0.52799000  0.99867000  1.0 0.109585145
H  H9  1  0.56302000  0.33683000  0.95523000  1.0 0.109585145
H  H10  1  0.78867000  0.28599000  0.84389000  1.0 0.1201262125
H  H11  1  0.91442000  0.28801000  0.69010000  1.0 0.109585145
H  H12  1  0.55995000  0.50100000  0.58439000  1.0 0.1201262125
H  H13  1  0.42540000  0.49886000  0.73460000  1.0 0.1375636603
H  H14  1  0.46190000  0.76867000  0.62905000  1.0 0.1300903778
H  H15  1  0.42503000  0.18165000  0.61423000  1.0 0.1300903778
H  H16  1  0.12001000  0.06802000  0.53300000  1.0 0.1375636603
H  H17  1  0.84100000  0.72341000  0.64683000  1.0 0.0977642569
H  H18  1  0.71601000  0.70279000  0.79901000  1.0 0.1300903778
H  H19  1  0.07716000  0.40911000  0.87558000  1.0 0.1300903778
H  H20  1  0.18934000  0.44040000  0.72040000  1.0 0.1201262125
H  H21  1  0.85957000  0.47201000  0.00133000  1.0 0.109585145
H  H22  1  0.43698000  0.66317000  0.04477000  1.0 0.109585145
H  H23  1  0.21133000  0.71401000  0.15611000  1.0 0.1201262125
H  H24  1  0.08558000  0.71199000  0.30990000  1.0 0.109585145
H  H25  1  0.44005000  0.49900000  0.41561000  1.0 0.1201262125
H  H26  1  0.57460000  0.50114000  0.26540000  1.0 0.1375636603
C  C1  1  0.71680000  0.10020000  0.42260000  1.0 -0.006764146
C  C2  1  0.58940000  0.13650000  0.38580000  1.0 -0.1790077542
C  C3  1  0.53790000  0.03100000  0.37090000  1.0 0.1839349415
C  C4  1  0.61110000  0.88820000  0.39420000  1.0 -0.2077948356
C  C5  1  0.74040000  0.85260000  0.43050000  1.0 -0.0178746623
C  C6  1  0.79320000  0.95720000  0.44380000  1.0 -0.1324825812
C  C7  1  0.77030000  0.21490000  0.43830000  1.0 0.5379484441
C  C8  1  0.81930000  0.69740000  0.45490000  1.0 0.5685861255
C  C9  1  0.11170000  0.34080000  0.30630000  1.0 0.0977642569
C  C10  1  0.18790000  0.35240000  0.21520000  1.0 -0.1748146866
C  C11  1  0.11760000  0.44860000  0.14440000  1.0 0.1201262125
C  C12  1  0.97370000  0.52660000  0.16970000  1.0 -0.2077948356
C  C13  1  0.90710000  0.50690000  0.26330000  1.0 0.0977642569
C  C14  1  0.19190000  0.46710000  0.04500000  1.0 0.0258598118
C  C15  1  0.51140000  0.38090000  0.90480000  1.0 0.0398835163
C  C16  1  0.59070000  0.38980000  0.80730000  1.0 0.109585145
C  C17  1  0.73990000  0.32870000  0.79200000  1.0 -0.1974578951
C  C18  1  0.81510000  0.33180000  0.69940000  1.0 0.0930774674
C  C19  1  0.60610000  0.45650000  0.63720000  1.0 0.0930774674
C  C20  1  0.52470000  0.45550000  0.72730000  1.0 -0.1637106095
C  C21  1  0.28320000  0.89980000  0.57740000  1.0 -0.006764146
C  C22  1  0.41060000  0.86350000  0.61420000  1.0 -0.1790077542
C  C23  1  0.46210000  0.96900000  0.62910000  1.0 0.1839349415
C  C24  1  0.38890000  0.11180000  0.60580000  1.0 -0.2077948356
C  C25  1  0.25960000  0.14740000  0.56950000  1.0 -0.0178746623
C  C26  1  0.20680000  0.04280000  0.55620000  1.0 -0.1324825812
C  C27  1  0.22970000  0.78510000  0.56170000  1.0 0.5379484441
C  C28  1  0.18070000  0.30260000  0.54510000  1.0 0.5685861255
C  C29  1  0.88830000  0.65920000  0.69370000  1.0 0.0977642569
C  C30  1  0.81210000  0.64760000  0.78480000  1.0 -0.1748146866
C  C31  1  0.88240000  0.55140000  0.85560000  1.0 0.1201262125
C  C32  1  0.02630000  0.47340000  0.83030000  1.0 -0.2077948356
C  C33  1  0.09290000  0.49310000  0.73670000  1.0 0.0977642569
C  C34  1  0.80810000  0.53290000  0.95500000  1.0 0.0245469692
C  C35  1  0.48860000  0.61910000  0.09520000  1.0 0.0398835163
C  C36  1  0.40930000  0.61020000  0.19270000  1.0 0.109585145
C  C37  1  0.26010000  0.67130000  0.20800000  1.0 -0.1974578951
C  C38  1  0.18490000  0.66820000  0.30060000  1.0 0.0930774674
C  C39  1  0.39390000  0.54350000  0.36280000  1.0 0.0930774674
C  C40  1  0.47530000  0.54450000  0.27270000  1.0 -0.1637106095
N  N1  1  0.40750000  0.07910000  0.33100000  1.0 -0.2465016697
N  N2  1  0.35310000  0.98800000  0.32730000  1.0 0.3468546714
N  N3  1  0.29100000  0.91510000  0.32030000  1.0 -0.1863038842
N  N4  1  0.97380000  0.41680000  0.33110000  1.0 -0.2077948356
N  N5  1  0.32490000  0.40100000  0.02190000  1.0 -0.1790077542
N  N6  1  0.37440000  0.43110000  0.92390000  1.0 -0.1974578951
N  N7  1  0.75080000  0.39530000  0.62240000  1.0 -0.228926592
N  N8  1  0.59250000  0.92090000  0.66900000  1.0 -0.2465016697
N  N9  1  0.64690000  0.01200000  0.67270000  1.0 0.3468546714
N  N10  1  0.70900000  0.08490000  0.67970000  1.0 -0.1863038842
N  N11  1  0.02620000  0.58320000  0.66890000  1.0 -0.2077948356
N  N12  1  0.67510000  0.59900000  0.97810000  1.0 -0.1790077542
N  N13  1  0.62560000  0.56890000  0.07610000  1.0 -0.1974578951
N  N14  1  0.24920000  0.60470000  0.37760000  1.0 -0.228926592
O  O1  1  0.69480000  0.34220000  0.42360000  1.0 -0.5480408523
O  O2  1  0.89100000  0.18030000  0.46560000  1.0 -0.5222119246
O  O3  1  0.94670000  0.66400000  0.46800000  1.0 -0.5565099572
O  O4  1  0.75220000  0.61130000  0.46050000  1.0 -0.5351701234
O  O5  1  0.30520000  0.65780000  0.57640000  1.0 -0.5480408523
O  O6  1  0.10900000  0.81970000  0.53440000  1.0 -0.5222119246
O  O7  1  0.05330000  0.33600000  0.53200000  1.0 -0.5565099572
O  O8  1  0.24780000  0.38870000  0.53950000  1.0 -0.5351701234
