# DDEC6 charges by PACMAN v1.1 (https://github.com/mtap-research/PACMAN-charge/)
data_NEGLIX_FSR_pacman
_symmetry_space_group_name_H-M   'P 1'
_cell_length_a   10.05450000
_cell_length_b   10.13240000
_cell_length_c   14.30460000
_cell_angle_alpha   76.74300000
_cell_angle_beta   77.78500000
_cell_angle_gamma   70.38800000
_symmetry_Int_Tables_number   1
_chemical_formula_structural   ZnH13C20N7O4
_chemical_formula_sum   'Zn2 H26 C40 N14 O8'
_cell_volume   1321.69597462
_cell_formula_units_Z   2
loop_
 _symmetry_equiv_pos_site_id
 _symmetry_equiv_pos_as_xyz
  1  'x, y, z'
loop_
 _atom_site_type_symbol
 _atom_site_label
 _atom_site_symmetry_multiplicity
 _atom_site_fract_x
 _atom_site_fract_y
 _atom_site_fract_z
 _atom_site_occupancy
 _atom_site_charge
Zn  Zn1  1  0.62947000  0.60104000  0.53147000  1.0 0.7920180262
Zn  Zn2  1  0.37053000  0.39896000  0.46853000  1.0 0.7920180262
H  H1  1  0.61660000  0.06646000  0.53557000  1.0 0.1301073527
H  H2  1  0.92085000  0.17309000  0.61888000  1.0 0.1301073527
H  H3  1  0.96068000  0.76154000  0.62884000  1.0 0.1301073527
H  H4  1  0.58468000  0.72789000  0.31256000  1.0 0.1091257809
H  H5  1  0.71260000  0.73344000  0.15927000  1.0 0.1301073527
H  H6  1  0.06448000  0.49919000  0.28027000  1.0 0.1377393356
H  H7  1  0.92765000  0.50083000  0.43021000  1.0 0.1180745352
H  H8  1  0.93576000  0.67285000  0.05270000  1.0 0.1091257809
H  H9  1  0.34997000  0.44719000  0.01551000  1.0 0.1091257809
H  H10  1  0.21215000  0.67760000  0.80259000  1.0 0.1301073527
H  H11  1  0.33604000  0.70917000  0.65078000  1.0 0.0992477487
H  H12  1  0.56901000  0.38908000  0.89130000  1.0 0.1301073527
H  H13  1  0.68307000  0.42603000  0.73291000  1.0 0.1180745352
H  H14  1  0.38340000  0.93354000  0.46443000  1.0 0.1377393356
H  H15  1  0.07915000  0.82691000  0.38112000  1.0 0.1301073527
H  H16  1  0.03932000  0.23846000  0.37116000  1.0 0.1301073527
H  H17  1  0.41532000  0.27211000  0.68744000  1.0 0.1091257809
H  H18  1  0.28740000  0.26656000  0.84073000  1.0 0.1301073527
H  H19  1  0.93552000  0.50081000  0.71973000  1.0 0.1377393356
H  H20  1  0.07235000  0.49917000  0.56979000  1.0 0.1180745352
H  H21  1  0.06424000  0.32715000  0.94730000  1.0 0.1091257809
H  H22  1  0.65003000  0.55281000  0.98449000  1.0 0.1091257809
H  H23  1  0.78785000  0.32240000  0.19741000  1.0 0.1301073527
H  H24  1  0.66396000  0.29083000  0.34922000  1.0 0.0992477487
H  H25  1  0.43099000  0.61092000  0.10870000  1.0 0.1301073527
H  H26  1  0.31693000  0.57397000  0.26709000  1.0 0.1180745352
C  C1  1  0.78110000  0.89690000  0.58030000  1.0 -0.0002354255
C  C2  1  0.70350000  0.04040000  0.55830000  1.0 -0.1401501893
C  C3  1  0.75830000  0.14500000  0.57100000  1.0 -0.0136203914
C  C4  1  0.88590000  0.10430000  0.60840000  1.0 -0.2059966921
C  C5  1  0.96120000  0.96100000  0.63030000  1.0 0.1854993702
C  C6  1  0.90920000  0.85720000  0.61530000  1.0 -0.1761859977
C  C7  1  0.72620000  0.78220000  0.56510000  1.0 0.5394635201
C  C8  1  0.67750000  0.30020000  0.54810000  1.0 0.5478036106
C  C9  1  0.68220000  0.68110000  0.30580000  1.0 0.0814366379
C  C10  1  0.75850000  0.68530000  0.21280000  1.0 -0.1922567896
C  C11  1  0.90400000  0.61690000  0.20080000  1.0 0.0992477487
C  C12  1  0.96700000  0.54630000  0.28540000  1.0 -0.1668829321
C  C13  1  0.88380000  0.54720000  0.37560000  1.0 0.0992477487
C  C14  1  0.98310000  0.62000000  0.10480000  1.0 0.0425770544
C  C15  1  0.30090000  0.51020000  0.96690000  1.0 0.0234942279
C  C16  1  0.37500000  0.53000000  0.86670000  1.0 0.1180745352
C  C17  1  0.30800000  0.62580000  0.79080000  1.0 -0.1761859977
C  C18  1  0.38290000  0.64370000  0.69950000  1.0 0.0892179162
C  C19  1  0.51930000  0.45410000  0.84370000  1.0 -0.2179917991
C  C20  1  0.58770000  0.47750000  0.74770000  1.0 0.1091257809
C  C21  1  0.21890000  0.10310000  0.41970000  1.0 -0.0002354255
C  C22  1  0.29650000  0.95960000  0.44170000  1.0 -0.1401501893
C  C23  1  0.24170000  0.85500000  0.42900000  1.0 -0.0136203914
C  C24  1  0.11410000  0.89570000  0.39160000  1.0 -0.2059966921
C  C25  1  0.03880000  0.03900000  0.36970000  1.0 0.1854993702
C  C26  1  0.09080000  0.14280000  0.38470000  1.0 -0.1761859977
C  C27  1  0.27380000  0.21780000  0.43490000  1.0 0.5394635201
C  C28  1  0.32250000  0.69980000  0.45190000  1.0 0.5478036106
C  C29  1  0.31780000  0.31890000  0.69420000  1.0 0.0814366379
C  C30  1  0.24150000  0.31470000  0.78720000  1.0 -0.1922567896
C  C31  1  0.09600000  0.38310000  0.79920000  1.0 0.0992477487
C  C32  1  0.03300000  0.45370000  0.71460000  1.0 -0.1668829321
C  C33  1  0.11620000  0.45280000  0.62440000  1.0 0.0992477487
C  C34  1  0.01690000  0.38000000  0.89520000  1.0 0.0425770544
C  C35  1  0.69910000  0.48980000  0.03310000  1.0 0.0234942279
C  C36  1  0.62500000  0.47000000  0.13330000  1.0 0.1180745352
C  C37  1  0.69200000  0.37420000  0.20920000  1.0 -0.1761859977
C  C38  1  0.61710000  0.35630000  0.30050000  1.0 0.0892179162
C  C39  1  0.48070000  0.54590000  0.15630000  1.0 -0.2179917991
C  C40  1  0.41230000  0.52250000  0.25230000  1.0 0.1091257809
N  N1  1  0.09150000  0.90860000  0.67040000  1.0 -0.2513310648
N  N2  1  0.14760000  0.99970000  0.67320000  1.0 0.3497220577
N  N3  1  0.21080000  0.06880000  0.68020000  1.0 -0.1668829321
N  N4  1  0.74160000  0.61240000  0.38800000  1.0 -0.2513310648
N  N5  1  0.11680000  0.55270000  0.08780000  1.0 -0.1922567896
N  N6  1  0.16990000  0.57900000  0.98720000  1.0 -0.1761859977
N  N7  1  0.52170000  0.57060000  0.67690000  1.0 -0.2179917991
N  N8  1  0.90850000  0.09140000  0.32960000  1.0 -0.2513310648
N  N9  1  0.85240000  0.00030000  0.32680000  1.0 0.3497220577
N  N10  1  0.78920000  0.93120000  0.31980000  1.0 -0.1668829321
N  N11  1  0.25840000  0.38760000  0.61200000  1.0 -0.2513310648
N  N12  1  0.88320000  0.44730000  0.91220000  1.0 -0.1922567896
N  N13  1  0.83010000  0.42100000  0.01280000  1.0 -0.1761859977
N  N14  1  0.47830000  0.42940000  0.32310000  1.0 -0.2179917991
O  O1  1  0.80200000  0.65420000  0.57950000  1.0 -0.5600667893
O  O2  1  0.60310000  0.81990000  0.54000000  1.0 -0.5348039567
O  O3  1  0.73500000  0.38660000  0.55510000  1.0 -0.5049095451
O  O4  1  0.55960000  0.33500000  0.52470000  1.0 -0.5166356861
O  O5  1  0.19800000  0.34580000  0.42050000  1.0 -0.5600667893
O  O6  1  0.39690000  0.18010000  0.46000000  1.0 -0.5348039567
O  O7  1  0.26500000  0.61340000  0.44490000  1.0 -0.5049095451
O  O8  1  0.44040000  0.66500000  0.47530000  1.0 -0.5166356861
