# DDEC6 charges by PACMAN v1.1 (https://github.com/mtap-research/PACMAN-charge/)
data_NEGLET_ASR_pacman
_symmetry_space_group_name_H-M   'P 1'
_cell_length_a   10.10310000
_cell_length_b   10.11350000
_cell_length_c   14.31080000
_cell_angle_alpha   77.42400000
_cell_angle_beta   78.53000000
_cell_angle_gamma   69.30700000
_symmetry_Int_Tables_number   1
_chemical_formula_structural   ZnH13C20N7O4
_chemical_formula_sum   'Zn2 H26 C40 N14 O8'
_cell_volume   1323.13676904
_cell_formula_units_Z   2
loop_
 _symmetry_equiv_pos_site_id
 _symmetry_equiv_pos_as_xyz
  1  'x, y, z'
loop_
 _atom_site_type_symbol
 _atom_site_label
 _atom_site_symmetry_multiplicity
 _atom_site_fract_x
 _atom_site_fract_y
 _atom_site_fract_z
 _atom_site_occupancy
 _atom_site_charge
Zn  Zn1  1  0.10004000  0.63281000  0.52867000  1.0 0.8057675473
Zn  Zn2  1  0.89996000  0.36719000  0.47133000  1.0 0.8057675473
H  H1  1  0.20000000  0.33500000  0.64800000  1.0 0.0990989916
H  H2  1  0.92900000  0.68700000  0.72400000  1.0 0.1215353124
H  H3  1  0.17800000  0.20400000  0.80300000  1.0 0.1284023355
H  H4  1  0.90300000  0.57000000  0.87800000  1.0 0.1373031698
H  H5  1  0.56500000  0.61600000  0.53500000  1.0 0.1373031698
H  H6  1  0.26400000  0.95600000  0.62900000  1.0 0.1284023355
H  H7  1  0.94800000  0.35700000  0.00900000  1.0 0.108476559
H  H8  1  0.67600000  0.92500000  0.61600000  1.0 0.1284023355
H  H9  1  0.17900000  0.93400000  0.05200000  1.0 0.108476559
H  H10  1  0.00000000  0.07600000  0.27300000  1.0 0.1373031698
H  H11  1  0.22900000  0.71200000  0.16400000  1.0 0.1284023355
H  H12  1  0.00400000  0.93500000  0.42500000  1.0 0.1215353124
H  H13  1  0.23000000  0.58100000  0.31400000  1.0 0.108476559
H  H14  1  0.80000000  0.66500000  0.35200000  1.0 0.0990989916
H  H15  1  0.07100000  0.31300000  0.27600000  1.0 0.1215353124
H  H16  1  0.82200000  0.79600000  0.19700000  1.0 0.1284023355
H  H17  1  0.09700000  0.43000000  0.12200000  1.0 0.1373031698
H  H18  1  0.43500000  0.38400000  0.46500000  1.0 0.1373031698
H  H19  1  0.73600000  0.04400000  0.37100000  1.0 0.1284023355
H  H20  1  0.05200000  0.64300000  0.99100000  1.0 0.108476559
H  H21  1  0.32400000  0.07500000  0.38400000  1.0 0.1284023355
H  H22  1  0.82100000  0.06600000  0.94800000  1.0 0.108476559
H  H23  1  0.00000000  0.92400000  0.72700000  1.0 0.1373031698
H  H24  1  0.77100000  0.28800000  0.83600000  1.0 0.1284023355
H  H25  1  0.99600000  0.06500000  0.57500000  1.0 0.1215353124
H  H26  1  0.77000000  0.41900000  0.68600000  1.0 0.108476559
C  C1  1  0.13910000  0.38230000  0.69770000  1.0 0.0990989916
C  C2  1  0.97850000  0.59000000  0.74360000  1.0 0.0838120318
C  C3  1  0.28100000  0.72360000  0.56740000  1.0 0.539248418
C  C4  1  0.12310000  0.30720000  0.78930000  1.0 -0.177025312
C  C5  1  0.95680000  0.52280000  0.83690000  1.0 -0.1902664664
C  C6  1  0.39510000  0.77900000  0.58150000  1.0 -0.0033149507
C  C7  1  0.03010000  0.37850000  0.86180000  1.0 0.108476559
C  C8  1  0.53870000  0.70310000  0.55900000  1.0 -0.1401809045
C  C9  1  0.35540000  0.90670000  0.61670000  1.0 -0.1720904469
C  C10  1  0.01160000  0.30450000  0.96150000  1.0 0.0237647546
C  C11  1  0.64300000  0.75720000  0.57105000  1.0 -0.0151658795
C  C12  1  0.45880000  0.95890000  0.63030000  1.0 0.1837300322
C  C13  1  0.60280000  0.88610000  0.60670000  1.0 -0.2150169798
C  C14  1  0.79880000  0.67930000  0.54526000  1.0 0.5686234347
C  C15  1  0.12110000  0.98640000  0.10100000  1.0 0.0382667742
C  C16  1  0.11640000  0.90680000  0.19910000  1.0 0.108476559
C  C17  1  0.04620000  0.97280000  0.28030000  1.0 -0.1720904469
C  C18  1  0.18490000  0.75980000  0.21400000  1.0 -0.1902664664
C  C19  1  0.04750000  0.88940000  0.37010000  1.0 0.0922425277
C  C20  1  0.18140000  0.68380000  0.30660000  1.0 0.0838120318
C  C21  1  0.86090000  0.61770000  0.30230000  1.0 0.0990989916
C  C22  1  0.02150000  0.41000000  0.25640000  1.0 0.0838120318
C  C23  1  0.71900000  0.27640000  0.43260000  1.0 0.539248418
C  C24  1  0.87690000  0.69280000  0.21070000  1.0 -0.177025312
C  C25  1  0.04320000  0.47720000  0.16310000  1.0 -0.1902664664
C  C26  1  0.60490000  0.22100000  0.41850000  1.0 -0.0033149507
C  C27  1  0.96990000  0.62150000  0.13820000  1.0 0.108476559
C  C28  1  0.46130000  0.29690000  0.44100000  1.0 -0.1401809045
C  C29  1  0.64460000  0.09330000  0.38330000  1.0 -0.1720904469
C  C30  1  0.98840000  0.69550000  0.03850000  1.0 0.0237647546
C  C31  1  0.35700000  0.24280000  0.42895000  1.0 -0.0151658795
C  C32  1  0.54120000  0.04110000  0.36970000  1.0 0.1837300322
C  C33  1  0.39720000  0.11390000  0.39330000  1.0 -0.2131442912
C  C34  1  0.20120000  0.32070000  0.45474000  1.0 0.5686234347
C  C35  1  0.87890000  0.01360000  0.89900000  1.0 0.0382667742
C  C36  1  0.88360000  0.09320000  0.80090000  1.0 0.108476559
C  C37  1  0.95380000  0.02720000  0.71970000  1.0 -0.1720904469
C  C38  1  0.81510000  0.24020000  0.78600000  1.0 -0.1902664664
C  C39  1  0.95250000  0.11060000  0.62990000  1.0 0.0922425277
C  C40  1  0.81860000  0.31620000  0.69340000  1.0 0.0838120318
N  N1  1  0.06840000  0.52240000  0.67346000  1.0 -0.2131442912
N  N2  1  0.11280000  0.74630000  0.38457000  1.0 -0.2278802432
N  N3  1  0.08380000  0.17340000  0.98374000  1.0 -0.1720904469
N  N4  1  0.40740000  0.09030000  0.66830000  1.0 -0.2558800616
N  N5  1  0.05720000  0.12140000  0.08271000  1.0 -0.1902664664
N  N6  1  0.49910000  0.14490000  0.67020000  1.0 0.356707435
N  N7  1  0.57060000  0.20550000  0.67590000  1.0 -0.1720904469
N  N8  1  0.93160000  0.47760000  0.32654000  1.0 -0.2131442912
N  N9  1  0.88720000  0.25370000  0.61543000  1.0 -0.2278802432
N  N10  1  0.91620000  0.82660000  0.01626000  1.0 -0.177025312
N  N11  1  0.59260000  0.90970000  0.33170000  1.0 -0.2558800616
N  N12  1  0.94280000  0.87860000  0.91729000  1.0 -0.1902664664
N  N13  1  0.50090000  0.85510000  0.32980000  1.0 0.356707435
N  N14  1  0.42940000  0.79450000  0.32410000  1.0 -0.1720904469
O  O1  1  0.88524000  0.74342000  0.54510000  1.0 -0.5374460109
O  O2  1  0.83390000  0.55513000  0.52700000  1.0 -0.5592588373
O  O3  1  0.31800000  0.60270000  0.54214000  1.0 -0.5208806583
O  O4  1  0.15205000  0.80050000  0.58039000  1.0 -0.5592588373
O  O5  1  0.11476000  0.25658000  0.45490000  1.0 -0.5374460109
O  O6  1  0.16610000  0.44487000  0.47300000  1.0 -0.5592588373
O  O7  1  0.68200000  0.39730000  0.45786000  1.0 -0.5208806583
O  O8  1  0.84795000  0.19950000  0.41961000  1.0 -0.5592588373
