# DDEC6 charges by PACMAN v1.1 (https://github.com/mtap-research/PACMAN-charge/)
data_NEGLOD_FSR_pacman
_symmetry_space_group_name_H-M   'P 1'
_cell_length_a   10.08350000
_cell_length_b   10.12820000
_cell_length_c   14.26760000
_cell_angle_alpha   77.86400000
_cell_angle_beta   77.67700000
_cell_angle_gamma   69.72500000
_symmetry_Int_Tables_number   1
_chemical_formula_structural   ZnH13C20N7O4
_chemical_formula_sum   'Zn2 H26 C40 N14 O8'
_cell_volume   1320.49604828
_cell_formula_units_Z   2
loop_
 _symmetry_equiv_pos_site_id
 _symmetry_equiv_pos_as_xyz
  1  'x, y, z'
loop_
 _atom_site_type_symbol
 _atom_site_label
 _atom_site_symmetry_multiplicity
 _atom_site_fract_x
 _atom_site_fract_y
 _atom_site_fract_z
 _atom_site_occupancy
 _atom_site_charge
Zn  Zn1  1  0.86546000  0.39889000  0.47370000  1.0 0.7912452961
Zn  Zn2  1  0.13454000  0.60111000  0.52630000  1.0 0.7912452961
H  H1  1  0.15896000  0.29133000  0.35095000  1.0 0.1013736762
H  H2  1  0.28176000  0.31996000  0.19725000  1.0 0.1301615591
H  H3  1  0.92329000  0.60530000  0.11653000  1.0 0.1301615591
H  H4  1  0.81056000  0.57520000  0.27470000  1.0 0.1103444223
H  H5  1  0.14091000  0.54691000  0.99067000  1.0 0.1013736762
H  H6  1  0.55954000  0.34427000  0.95290000  1.0 0.1103444223
H  H7  1  0.78140000  0.28011000  0.84475000  1.0 0.1301615591
H  H8  1  0.91133000  0.27811000  0.69049000  1.0 0.1103444223
H  H9  1  0.56930000  0.49379000  0.57621000  1.0 0.1206272053
H  H10  1  0.42510000  0.50251000  0.72699000  1.0 0.141357712
H  H11  1  0.87600000  0.92300000  0.46100000  1.0 0.1301615591
H  H12  1  0.57700000  0.81700000  0.39100000  1.0 0.1301615591
H  H13  1  0.53300000  0.23200000  0.36600000  1.0 0.1206272053
H  H14  1  0.84104000  0.70867000  0.64905000  1.0 0.1013736762
H  H15  1  0.71824000  0.68004000  0.80275000  1.0 0.1301615591
H  H16  1  0.07671000  0.39470000  0.88347000  1.0 0.1301615591
H  H17  1  0.18944000  0.42480000  0.72530000  1.0 0.1103444223
H  H18  1  0.85909000  0.45309000  0.00933000  1.0 0.1013736762
H  H19  1  0.44046000  0.65573000  0.04710000  1.0 0.1103444223
H  H20  1  0.21860000  0.71989000  0.15525000  1.0 0.1301615591
H  H21  1  0.08867000  0.72189000  0.30951000  1.0 0.1103444223
H  H22  1  0.43070000  0.50621000  0.42379000  1.0 0.1206272053
H  H23  1  0.57490000  0.49749000  0.27301000  1.0 0.141357712
H  H24  1  0.12400000  0.07700000  0.53900000  1.0 0.1301615591
H  H25  1  0.42300000  0.18300000  0.60900000  1.0 0.1301615591
H  H26  1  0.46700000  0.76800000  0.63400000  1.0 0.1206272053
C  C1  1  0.71850000  0.10640000  0.42030000  1.0 -0.0025675396
C  C2  1  0.79520000  0.96070000  0.44320000  1.0 -0.1230222886
C  C3  1  0.74160000  0.85660000  0.42930000  1.0 -0.0239163791
C  C4  1  0.61510000  0.89650000  0.39380000  1.0 -0.2018369683
C  C5  1  0.54030000  0.03990000  0.37150000  1.0 0.1765520419
C  C6  1  0.59060000  0.14300000  0.38400000  1.0 -0.1693542418
C  C7  1  0.77320000  0.21900000  0.43560000  1.0 0.5360335852
C  C8  1  0.82150000  0.70090000  0.45450000  1.0 0.5620803381
C  C9  1  0.11090000  0.35650000  0.30320000  1.0 0.1013736762
C  C10  1  0.18570000  0.37240000  0.21090000  1.0 -0.1778012122
C  C11  1  0.11500000  0.46790000  0.13910000  1.0 0.1103444223
C  C12  1  0.97400000  0.54170000  0.16360000  1.0 -0.2018369683
C  C13  1  0.90590000  0.52220000  0.25870000  1.0 0.0896656806
C  C14  1  0.19060000  0.48590000  0.03920000  1.0 0.0271804607
C  C15  1  0.50960000  0.38840000  0.90100000  1.0 0.0443795989
C  C16  1  0.58860000  0.39120000  0.80320000  1.0 0.1013736762
C  C17  1  0.73540000  0.32430000  0.79110000  1.0 -0.1931880866
C  C18  1  0.81310000  0.32400000  0.69820000  1.0 0.0828372086
C  C19  1  0.61210000  0.45040000  0.63130000  1.0 0.1103444223
C  C20  1  0.52320000  0.45660000  0.72190000  1.0 -0.1693542418
C  C21  1  0.28150000  0.89360000  0.57970000  1.0 -0.0025675396
C  C22  1  0.20480000  0.03930000  0.55680000  1.0 -0.1230222886
C  C23  1  0.25840000  0.14340000  0.57070000  1.0 -0.0239163791
C  C24  1  0.38490000  0.10350000  0.60620000  1.0 -0.2018369683
C  C25  1  0.45970000  0.96010000  0.62850000  1.0 0.1765520419
C  C26  1  0.40940000  0.85700000  0.61600000  1.0 -0.1693542418
C  C27  1  0.22680000  0.78100000  0.56440000  1.0 0.5360335852
C  C28  1  0.17850000  0.29910000  0.54550000  1.0 0.5620803381
C  C29  1  0.88910000  0.64350000  0.69680000  1.0 0.1013736762
C  C30  1  0.81430000  0.62760000  0.78910000  1.0 -0.1778012122
C  C31  1  0.88500000  0.53210000  0.86090000  1.0 0.1103444223
C  C32  1  0.02600000  0.45830000  0.83640000  1.0 -0.2018369683
C  C33  1  0.09410000  0.47780000  0.74130000  1.0 0.0896656806
C  C34  1  0.80940000  0.51410000  0.96080000  1.0 0.0271804607
C  C35  1  0.49040000  0.61160000  0.09900000  1.0 0.0443795989
C  C36  1  0.41140000  0.60880000  0.19680000  1.0 0.1103444223
C  C37  1  0.26460000  0.67570000  0.20890000  1.0 -0.1931880866
C  C38  1  0.18690000  0.67600000  0.30180000  1.0 0.0828372086
C  C39  1  0.38790000  0.54960000  0.36870000  1.0 0.1103444223
C  C40  1  0.47680000  0.54340000  0.27810000  1.0 -0.1693542418
N  N1  1  0.40960000  0.09120000  0.33010000  1.0 -0.2568712835
N  N2  1  0.35680000  0.99940000  0.32530000  1.0 0.354294687
N  N3  1  0.29930000  0.92690000  0.31520000  1.0 -0.1778012122
N  N4  1  0.97470000  0.42870000  0.32780000  1.0 -0.2018369683
N  N5  1  0.32100000  0.42010000  0.01880000  1.0 -0.1778012122
N  N6  1  0.75060000  0.38800000  0.61900000  1.0 -0.2231564527
N  N7  1  0.37520000  0.44380000  0.91820000  1.0 -0.2018369683
N  N8  1  0.59040000  0.90880000  0.66990000  1.0 -0.2568712835
N  N9  1  0.64320000  0.00060000  0.67470000  1.0 0.354294687
N  N10  1  0.70070000  0.07310000  0.68480000  1.0 -0.1778012122
N  N11  1  0.02530000  0.57130000  0.67220000  1.0 -0.2018369683
N  N12  1  0.67900000  0.57990000  0.98120000  1.0 -0.1778012122
N  N13  1  0.24940000  0.61200000  0.38100000  1.0 -0.2231564527
N  N14  1  0.62480000  0.55620000  0.08180000  1.0 -0.2018369683
O  O1  1  0.89430000  0.18100000  0.46280000  1.0 -0.5390579258
O  O2  1  0.69620000  0.34610000  0.42220000  1.0 -0.5543725943
O  O3  1  0.94550000  0.66630000  0.46980000  1.0 -0.5390579258
O  O4  1  0.75840000  0.61400000  0.45630000  1.0 -0.5247205351
O  O5  1  0.10570000  0.81900000  0.53720000  1.0 -0.5390579258
O  O6  1  0.30380000  0.65390000  0.57780000  1.0 -0.5543725943
O  O7  1  0.05450000  0.33370000  0.53020000  1.0 -0.5390579258
O  O8  1  0.24160000  0.38600000  0.54370000  1.0 -0.5247205351
