# DDEC6 charges by PACMAN v1.1 (https://github.com/mtap-research/PACMAN-charge/)
data_NEGLAP_FSR_pacman
_symmetry_space_group_name_H-M   'P 1'
_cell_length_a   10.04000000
_cell_length_b   10.10400000
_cell_length_c   14.24800000
_cell_angle_alpha   78.27500000
_cell_angle_beta   77.90500000
_cell_angle_gamma   70.00000000
_symmetry_Int_Tables_number   1
_chemical_formula_structural   ZnH13C20N7O4
_chemical_formula_sum   'Zn2 H26 C40 N14 O8'
_cell_volume   1314.37769387
_cell_formula_units_Z   2
loop_
 _symmetry_equiv_pos_site_id
 _symmetry_equiv_pos_as_xyz
  1  'x, y, z'
loop_
 _atom_site_type_symbol
 _atom_site_label
 _atom_site_symmetry_multiplicity
 _atom_site_fract_x
 _atom_site_fract_y
 _atom_site_fract_z
 _atom_site_occupancy
 _atom_site_charge
Zn  Zn1  1  0.13282000  0.10002000  0.52905000  1.0 0.8061093679
Zn  Zn2  1  0.86718000  0.89998000  0.47095000  1.0 0.8061093679
H  H1  1  0.07800000  0.22200000  0.31600000  1.0 0.109277477
H  H2  1  0.42800000  0.00400000  0.42800000  1.0 0.1214328027
H  H3  1  0.20700000  0.23100000  0.15900000  1.0 0.1284390605
H  H4  1  0.57100000  0.00100000  0.27700000  1.0 0.1384322188
H  H5  1  0.12500000  0.56100000  0.53900000  1.0 0.1384322188
H  H6  1  0.46100000  0.26000000  0.63400000  1.0 0.1284390605
H  H7  1  0.42900000  0.17700000  0.04800000  1.0 0.1024996779
H  H8  1  0.42900000  0.67200000  0.62200000  1.0 0.1284390605
H  H9  1  0.85300000  0.95000000  0.00800000  1.0 0.109277477
H  H10  1  0.71600000  0.19300000  0.80500000  1.0 0.1284390605
H  H11  1  0.06800000  0.89500000  0.88100000  1.0 0.1384322188
H  H12  1  0.84000000  0.21600000  0.65800000  1.0 0.109277477
H  H13  1  0.18700000  0.92700000  0.72600000  1.0 0.1214328027
H  H14  1  0.92200000  0.77800000  0.68400000  1.0 0.109277477
H  H15  1  0.57200000  0.99600000  0.57200000  1.0 0.1214328027
H  H16  1  0.79300000  0.76900000  0.84100000  1.0 0.1284390605
H  H17  1  0.42900000  0.99900000  0.72300000  1.0 0.1384322188
H  H18  1  0.87500000  0.43900000  0.46100000  1.0 0.1384322188
H  H19  1  0.53900000  0.74000000  0.36600000  1.0 0.1284390605
H  H20  1  0.57100000  0.82300000  0.95200000  1.0 0.1024996779
H  H21  1  0.57100000  0.32800000  0.37800000  1.0 0.1284390605
H  H22  1  0.14700000  0.05000000  0.99200000  1.0 0.109277477
H  H23  1  0.28400000  0.80700000  0.19500000  1.0 0.1284390605
H  H24  1  0.93200000  0.10500000  0.11900000  1.0 0.1384322188
H  H25  1  0.16000000  0.78400000  0.34200000  1.0 0.109277477
H  H26  1  0.81300000  0.07300000  0.27400000  1.0 0.1214328027
C  C1  1  0.18190000  0.17640000  0.30530000  1.0 0.0892305105
C  C2  1  0.38820000  0.04580000  0.37100000  1.0 0.0892305105
C  C3  1  0.22660000  0.28210000  0.56590000  1.0 0.5401527277
C  C4  1  0.25800000  0.18070000  0.21280000  1.0 -0.1899308198
C  C5  1  0.47110000  0.04600000  0.28130000  1.0 -0.1644189069
C  C6  1  0.28150000  0.39620000  0.58100000  1.0 -0.0065623801
C  C7  1  0.40610000  0.11410000  0.19890000  1.0 0.109277477
C  C8  1  0.20620000  0.53940000  0.55790000  1.0 -0.1230040239
C  C9  1  0.40890000  0.35690000  0.61900000  1.0 -0.1786199556
C  C10  1  0.48660000  0.12130000  0.10090000  1.0 0.0393512203
C  C11  1  0.25990000  0.64370000  0.57110000  1.0 -0.0163338212
C  C12  1  0.46070000  0.46140000  0.63340000  1.0 0.1883171192
C  C13  1  0.18160000  0.79980000  0.54556000  1.0 0.5664401046
C  C14  1  0.38860000  0.60460000  0.60880000  1.0 -0.2112912544
C  C15  1  0.80510000  0.01480000  0.96380000  1.0 0.0280037188
C  C16  1  0.88040000  0.03480000  0.86440000  1.0 0.109277477
C  C17  1  0.81240000  0.13480000  0.79220000  1.0 -0.1899308198
C  C18  1  0.02250000  0.95500000  0.83900000  1.0 -0.1952077457
C  C19  1  0.88750000  0.14880000  0.69990000  1.0 0.1024996779
C  C20  1  0.09050000  0.97620000  0.74500000  1.0 0.0892305105
C  C21  1  0.81810000  0.82360000  0.69470000  1.0 0.0892305105
C  C22  1  0.61180000  0.95420000  0.62900000  1.0 0.0892305105
C  C23  1  0.77340000  0.71790000  0.43410000  1.0 0.5401527277
C  C24  1  0.74200000  0.81930000  0.78720000  1.0 -0.1952077457
C  C25  1  0.52890000  0.95400000  0.71870000  1.0 -0.1644189069
C  C26  1  0.71850000  0.60380000  0.41900000  1.0 -0.0065623801
C  C27  1  0.59390000  0.88590000  0.80110000  1.0 0.109277477
C  C28  1  0.79380000  0.46060000  0.44210000  1.0 -0.1230040239
C  C29  1  0.59110000  0.64310000  0.38100000  1.0 -0.1786199556
C  C30  1  0.51340000  0.87870000  0.89910000  1.0 0.0393512203
C  C31  1  0.74010000  0.35630000  0.42890000  1.0 -0.0163338212
C  C32  1  0.53930000  0.53860000  0.36660000  1.0 0.1883171192
C  C33  1  0.81840000  0.20020000  0.45444000  1.0 0.5664401046
C  C34  1  0.61140000  0.39540000  0.39120000  1.0 -0.2112912544
C  C35  1  0.19490000  0.98520000  0.03620000  1.0 0.0280037188
C  C36  1  0.11960000  0.96520000  0.13560000  1.0 0.109277477
C  C37  1  0.18760000  0.86520000  0.20780000  1.0 -0.1899308198
C  C38  1  0.97750000  0.04500000  0.16100000  1.0 -0.1952077457
C  C39  1  0.11250000  0.85120000  0.30010000  1.0 0.1024996779
C  C40  1  0.90950000  0.02380000  0.25500000  1.0 0.0892305105
N  N1  1  0.24450000  0.10990000  0.38456000  1.0 -0.2363000223
N  N2  1  0.02470000  0.07110000  0.67538000  1.0 -0.2154034087
N  N3  1  0.62160000  0.05990000  0.08460000  1.0 -0.1899308198
N  N4  1  0.59060000  0.41020000  0.67420000  1.0 -0.2599527994
N  N5  1  0.67570000  0.08910000  0.98560000  1.0 -0.1786199556
N  N6  1  0.64460000  0.50200000  0.67920000  1.0 0.3530051998
N  N7  1  0.70510000  0.57370000  0.68710000  1.0 -0.1722631761
N  N8  1  0.75550000  0.89010000  0.61544000  1.0 -0.2363000223
N  N9  1  0.97530000  0.92890000  0.32462000  1.0 -0.2154034087
N  N10  1  0.37840000  0.94010000  0.91540000  1.0 -0.1952077457
N  N11  1  0.40940000  0.58980000  0.32580000  1.0 -0.2599527994
N  N12  1  0.32430000  0.91090000  0.01440000  1.0 -0.1786199556
N  N13  1  0.35540000  0.49800000  0.32080000  1.0 0.3530051998
N  N14  1  0.29490000  0.42630000  0.31290000  1.0 -0.1722631761
O  O1  1  0.05910000  0.83390000  0.52464000  1.0 -0.5555201778
O  O2  1  0.24460000  0.88690000  0.54876000  1.0 -0.538571597
O  O3  1  0.30210000  0.15350000  0.57951000  1.0 -0.5539585361
O  O4  1  0.10580000  0.31860000  0.53837000  1.0 -0.5312790879
O  O5  1  0.94090000  0.16610000  0.47536000  1.0 -0.5555201778
O  O6  1  0.75540000  0.11310000  0.45124000  1.0 -0.538571597
O  O7  1  0.69790000  0.84650000  0.42049000  1.0 -0.5539585361
O  O8  1  0.89420000  0.68140000  0.46163000  1.0 -0.5312790879
