# DDEC6 charges by PACMAN v1.1 (https://github.com/mtap-research/PACMAN-charge/)
data_NEGMIY_ASR_pacman
_symmetry_space_group_name_H-M   'P 1'
_cell_length_a   10.06220000
_cell_length_b   10.11560000
_cell_length_c   14.26400000
_cell_angle_alpha   80.29600000
_cell_angle_beta   78.07500000
_cell_angle_gamma   69.77100000
_symmetry_Int_Tables_number   1
_chemical_formula_structural   CoH13C20N7O4
_chemical_formula_sum   'Co2 H26 C40 N14 O8'
_cell_volume   1325.43232305
_cell_formula_units_Z   2
loop_
 _symmetry_equiv_pos_site_id
 _symmetry_equiv_pos_as_xyz
  1  'x, y, z'
loop_
 _atom_site_type_symbol
 _atom_site_label
 _atom_site_symmetry_multiplicity
 _atom_site_fract_x
 _atom_site_fract_y
 _atom_site_fract_z
 _atom_site_occupancy
 _atom_site_charge
Co  Co1  1  0.86499000  0.39843000  0.97501000  1.0 0.8484274378
Co  Co2  1  0.13501000  0.60157000  0.02499000  1.0 0.8484274378
H  H1  1  0.53666000  0.23232000  0.87313000  1.0 0.1285531511
H  H2  1  0.57698000  0.82161000  0.88502000  1.0 0.1285531511
H  H3  1  0.88094000  0.93199000  0.96785000  1.0 0.1390079824
H  H4  1  0.56278000  0.49806000  0.08201000  1.0 0.1192125236
H  H5  1  0.42780000  0.49942000  0.23280000  1.0 0.1390079824
H  H6  1  0.78958000  0.28078000  0.34087000  1.0 0.1285531511
H  H7  1  0.91446000  0.28670000  0.18661000  1.0 0.1115440784
H  H8  1  0.56471000  0.33014000  0.45333000  1.0 0.1115440784
H  H9  1  0.14280000  0.53377000  0.49740000  1.0 0.1115440784
H  H10  1  0.28576000  0.30119000  0.69948000  1.0 0.1285531511
H  H11  1  0.16124000  0.28121000  0.85195000  1.0 0.0994225364
H  H12  1  0.81380000  0.56187000  0.77709000  1.0 0.1115440784
H  H13  1  0.92631000  0.59451000  0.62233000  1.0 0.1285531511
H  H14  1  0.46334000  0.76768000  0.12687000  1.0 0.1285531511
H  H15  1  0.42302000  0.17839000  0.11498000  1.0 0.1285531511
H  H16  1  0.11906000  0.06801000  0.03215000  1.0 0.1390079824
H  H17  1  0.43722000  0.50194000  0.91799000  1.0 0.1192125236
H  H18  1  0.57220000  0.50058000  0.76720000  1.0 0.1390079824
H  H19  1  0.21042000  0.71922000  0.65913000  1.0 0.1285531511
H  H20  1  0.08554000  0.71330000  0.81339000  1.0 0.1115440784
H  H21  1  0.43529000  0.66986000  0.54667000  1.0 0.1115440784
H  H22  1  0.85720000  0.46623000  0.50260000  1.0 0.1115440784
H  H23  1  0.71424000  0.69881000  0.30052000  1.0 0.1285531511
H  H24  1  0.83876000  0.71879000  0.14805000  1.0 0.0994225364
H  H25  1  0.18620000  0.43813000  0.22291000  1.0 0.1115440784
H  H26  1  0.07369000  0.40549000  0.37767000  1.0 0.1285531511
C  C1  1  0.71830000  0.10040000  0.92230000  1.0 -0.0043930076
C  C2  1  0.58920000  0.13750000  0.88650000  1.0 -0.1787405332
C  C3  1  0.54020000  0.03130000  0.87110000  1.0 0.176672407
C  C4  1  0.61290000  0.89100000  0.89400000  1.0 -0.201352104
C  C5  1  0.74090000  0.85250000  0.93060000  1.0 -0.011534655
C  C6  1  0.79490000  0.95730000  0.94430000  1.0 -0.1384182791
C  C7  1  0.77130000  0.21440000  0.93810000  1.0 0.5289494624
C  C8  1  0.81950000  0.69820000  0.95570000  1.0 0.5597344269
C  C9  1  0.60870000  0.45460000  0.13480000  1.0 0.0994225364
C  C10  1  0.52660000  0.45470000  0.22520000  1.0 -0.170238133
C  C11  1  0.59240000  0.38770000  0.30480000  1.0 0.1115440784
C  C12  1  0.74110000  0.32520000  0.28940000  1.0 -0.201352104
C  C13  1  0.81550000  0.33020000  0.19630000  1.0 0.0994225364
C  C14  1  0.51370000  0.37740000  0.40340000  1.0 0.0468596002
C  C15  1  0.19350000  0.47180000  0.54350000  1.0 0.0103715756
C  C16  1  0.12110000  0.45180000  0.64200000  1.0 0.1192125236
C  C17  1  0.19000000  0.35620000  0.71340000  1.0 -0.1787405332
C  C18  1  0.11380000  0.34460000  0.80490000  1.0 0.0994225364
C  C19  1  0.91000000  0.50960000  0.76100000  1.0 0.0931540025
C  C20  1  0.97670000  0.52990000  0.66760000  1.0 -0.2063319305
C  C21  1  0.28170000  0.89960000  0.07770000  1.0 -0.0043930076
C  C22  1  0.41080000  0.86250000  0.11350000  1.0 -0.1787405332
C  C23  1  0.45980000  0.96870000  0.12890000  1.0 0.176672407
C  C24  1  0.38710000  0.10900000  0.10600000  1.0 -0.201352104
C  C25  1  0.25910000  0.14750000  0.06940000  1.0 -0.011534655
C  C26  1  0.20510000  0.04270000  0.05570000  1.0 -0.1384182791
C  C27  1  0.22870000  0.78560000  0.06190000  1.0 0.5289494624
C  C28  1  0.18050000  0.30180000  0.04430000  1.0 0.5597344269
C  C29  1  0.39130000  0.54540000  0.86520000  1.0 0.0994225364
C  C30  1  0.47340000  0.54530000  0.77480000  1.0 -0.170238133
C  C31  1  0.40760000  0.61230000  0.69520000  1.0 0.1115440784
C  C32  1  0.25890000  0.67480000  0.71060000  1.0 -0.201352104
C  C33  1  0.18450000  0.66980000  0.80370000  1.0 0.0994225364
C  C34  1  0.48630000  0.62260000  0.59660000  1.0 0.0468596002
C  C35  1  0.80650000  0.52820000  0.45650000  1.0 0.0103715756
C  C36  1  0.87890000  0.54820000  0.35800000  1.0 0.1192125236
C  C37  1  0.81000000  0.64380000  0.28660000  1.0 -0.1787405332
C  C38  1  0.88620000  0.65540000  0.19510000  1.0 0.0994225364
C  C39  1  0.09000000  0.49040000  0.23900000  1.0 0.0931540025
C  C40  1  0.02330000  0.47010000  0.33240000  1.0 -0.2063319305
N  N1  1  0.40890000  0.08110000  0.83200000  1.0 -0.2394517134
N  N2  1  0.35630000  0.99060000  0.82610000  1.0 0.3507907023
N  N3  1  0.29560000  0.91800000  0.81850000  1.0 -0.170238133
N  N4  1  0.75170000  0.39450000  0.11960000  1.0 -0.2474582265
N  N5  1  0.37810000  0.43130000  0.42250000  1.0 -0.1929412554
N  N6  1  0.32860000  0.40300000  0.52050000  1.0 -0.1787405332
N  N7  1  0.97620000  0.41870000  0.82990000  1.0 -0.2319142962
N  N8  1  0.59110000  0.91890000  0.16800000  1.0 -0.2394517134
N  N9  1  0.64370000  0.00940000  0.17390000  1.0 0.3507907023
N  N10  1  0.70440000  0.08200000  0.18150000  1.0 -0.170238133
N  N11  1  0.24830000  0.60550000  0.88040000  1.0 -0.2474582265
N  N12  1  0.62190000  0.56870000  0.57750000  1.0 -0.1929412554
N  N13  1  0.67140000  0.59700000  0.47950000  1.0 -0.1787405332
N  N14  1  0.02380000  0.58130000  0.17010000  1.0 -0.2319142962
O  O1  1  0.89180000  0.17990000  0.96500000  1.0 -0.5290012429
O  O2  1  0.69620000  0.34200000  0.92340000  1.0 -0.5598644982
O  O3  1  0.94460000  0.66580000  0.97120000  1.0 -0.5598644982
O  O4  1  0.75470000  0.61220000  0.95740000  1.0 -0.5290012429
O  O5  1  0.10820000  0.82010000  0.03500000  1.0 -0.5290012429
O  O6  1  0.30380000  0.65800000  0.07660000  1.0 -0.5598644982
O  O7  1  0.05540000  0.33420000  0.02880000  1.0 -0.5598644982
O  O8  1  0.24530000  0.38780000  0.04260000  1.0 -0.5290012429
