# DDEC6 charges by PACMAN v1.1 (https://github.com/mtap-research/PACMAN-charge/)
data_NEGMAQ_ASR_pacman
_symmetry_space_group_name_H-M   'P 1'
_cell_length_a   10.10230000
_cell_length_b   10.10720000
_cell_length_c   14.25280000
_cell_angle_alpha   77.68000000
_cell_angle_beta   78.88500000
_cell_angle_gamma   69.24500000
_symmetry_Int_Tables_number   1
_chemical_formula_structural   ZnH13C20N7O4
_chemical_formula_sum   'Zn2 H26 C40 N14 O8'
_cell_volume   1318.53516799
_cell_formula_units_Z   2
loop_
 _symmetry_equiv_pos_site_id
 _symmetry_equiv_pos_as_xyz
  1  'x, y, z'
loop_
 _atom_site_type_symbol
 _atom_site_label
 _atom_site_symmetry_multiplicity
 _atom_site_fract_x
 _atom_site_fract_y
 _atom_site_fract_z
 _atom_site_occupancy
 _atom_site_charge
Zn  Zn1  1  0.60004000  0.13337000  0.02809000  1.0 0.8002713396
Zn  Zn2  1  0.39996000  0.86663000  0.97191000  1.0 0.8002713396
H  H1  1  0.17159000  0.42265000  0.11488000  1.0 0.1298784151
H  H2  1  0.75911000  0.45904000  0.13138000  1.0 0.1298784151
H  H3  1  0.06638000  0.11659000  0.03620000  1.0 0.1393478661
H  H4  1  0.70195000  0.83397000  0.14906000  1.0 0.0979100045
H  H5  1  0.67395000  0.71077000  0.30205000  1.0 0.1298784151
H  H6  1  0.39289000  0.07515000  0.38319000  1.0 0.1298784151
H  H7  1  0.42812000  0.18815000  0.22724000  1.0 0.1188625357
H  H8  1  0.44600000  0.85429000  0.50764000  1.0 0.1111548281
H  H9  1  0.67263000  0.43886000  0.54916000  1.0 0.1111548281
H  H10  1  0.73459000  0.21270000  0.66142000  1.0 0.1298784151
H  H11  1  0.72742000  0.08563000  0.81501000  1.0 0.1111548281
H  H12  1  0.50024000  0.43389000  0.92317000  1.0 0.1188625357
H  H13  1  0.49826000  0.57125000  0.77223000  1.0 0.1393478661
H  H14  1  0.82841000  0.57735000  0.88512000  1.0 0.1298784151
H  H15  1  0.24089000  0.54096000  0.86862000  1.0 0.1298784151
H  H16  1  0.93362000  0.88341000  0.96380000  1.0 0.1393478661
H  H17  1  0.29805000  0.16603000  0.85094000  1.0 0.0979100045
H  H18  1  0.32605000  0.28923000  0.69795000  1.0 0.1298784151
H  H19  1  0.60711000  0.92485000  0.61681000  1.0 0.1298784151
H  H20  1  0.57188000  0.81185000  0.77276000  1.0 0.1188625357
H  H21  1  0.55400000  0.14571000  0.49236000  1.0 0.1111548281
H  H22  1  0.32737000  0.56114000  0.45084000  1.0 0.1111548281
H  H23  1  0.26541000  0.78730000  0.33858000  1.0 0.1298784151
H  H24  1  0.27258000  0.91437000  0.18499000  1.0 0.1111548281
H  H25  1  0.49976000  0.56611000  0.07683000  1.0 0.1188625357
H  H26  1  0.50174000  0.42875000  0.22777000  1.0 0.1393478661
C  C1  1  0.14290000  0.25760000  0.07070000  1.0 -0.0198964049
C  C2  1  0.10260000  0.38640000  0.10670000  1.0 -0.2077171953
C  C3  1  0.95910000  0.45960000  0.13000000  1.0 0.1837727203
C  C4  1  0.85520000  0.40790000  0.11680000  1.0 -0.1814151482
C  C5  1  0.89510000  0.27900000  0.08160000  1.0 0.000123727
C  C6  1  0.03950000  0.20320000  0.05900000  1.0 -0.1348359064
C  C7  1  0.29910000  0.17920000  0.04520000  1.0 0.5656170919
C  C8  1  0.78110000  0.22380000  0.06720000  1.0 0.5362227037
C  C9  1  0.63930000  0.88290000  0.19690000  1.0 0.0979100045
C  C10  1  0.62330000  0.80800000  0.28860000  1.0 -0.1705849917
C  C11  1  0.53030000  0.87970000  0.36100000  1.0 0.1111548281
C  C12  1  0.45650000  0.02400000  0.33670000  1.0 -0.2077171953
C  C13  1  0.47840000  0.09120000  0.24270000  1.0 0.0979100045
C  C14  1  0.51090000  0.80520000  0.46070000  1.0 0.0272222626
C  C15  1  0.62060000  0.48730000  0.60010000  1.0 0.0433225649
C  C16  1  0.61590000  0.40690000  0.69830000  1.0 0.1111548281
C  C17  1  0.68540000  0.25980000  0.71350000  1.0 -0.1967282892
C  C18  1  0.68110000  0.18410000  0.80600000  1.0 0.0946751459
C  C19  1  0.54690000  0.38950000  0.86960000  1.0 0.0979100045
C  C20  1  0.54540000  0.47290000  0.77920000  1.0 -0.1705849917
C  C21  1  0.85710000  0.74240000  0.92930000  1.0 -0.0198964049
C  C22  1  0.89740000  0.61360000  0.89330000  1.0 -0.2077171953
C  C23  1  0.04090000  0.54040000  0.87000000  1.0 0.1837727203
C  C24  1  0.14480000  0.59210000  0.88320000  1.0 -0.1814151482
C  C25  1  0.10490000  0.72100000  0.91840000  1.0 0.000123727
C  C26  1  0.96050000  0.79680000  0.94100000  1.0 -0.1348359064
C  C27  1  0.70090000  0.82080000  0.95480000  1.0 0.5656170919
C  C28  1  0.21890000  0.77620000  0.93280000  1.0 0.5362227037
C  C29  1  0.36070000  0.11710000  0.80310000  1.0 0.0979100045
C  C30  1  0.37670000  0.19200000  0.71140000  1.0 -0.1705849917
C  C31  1  0.46970000  0.12030000  0.63900000  1.0 0.1111548281
C  C32  1  0.54350000  0.97600000  0.66330000  1.0 -0.2077171953
C  C33  1  0.52160000  0.90880000  0.75730000  1.0 0.0979100045
C  C34  1  0.48910000  0.19480000  0.53930000  1.0 0.0272222626
C  C35  1  0.37940000  0.51270000  0.39990000  1.0 0.0433225649
C  C36  1  0.38410000  0.59310000  0.30170000  1.0 0.1111548281
C  C37  1  0.31460000  0.74020000  0.28650000  1.0 -0.1967282892
C  C38  1  0.31890000  0.81590000  0.19400000  1.0 0.0946751459
C  C39  1  0.45310000  0.61050000  0.13040000  1.0 0.0979100045
C  C40  1  0.45460000  0.52710000  0.22080000  1.0 -0.1705849917
N  N1  1  0.90800000  0.59080000  0.16860000  1.0 -0.2551778481
N  N2  1  0.99890000  0.64600000  0.17010000  1.0 0.3537471666
N  N3  1  0.07110000  0.70710000  0.17540000  1.0 -0.1814151482
N  N4  1  0.56890000  0.02310000  0.17290000  1.0 -0.2077171953
N  N5  1  0.58270000  0.67400000  0.48270000  1.0 -0.1814151482
N  N6  1  0.55580000  0.62150000  0.58210000  1.0 -0.1967282892
N  N7  1  0.61290000  0.24680000  0.88370000  1.0 -0.2273095624
N  N8  1  0.09200000  0.40920000  0.83140000  1.0 -0.254233949
N  N9  1  0.00110000  0.35400000  0.82990000  1.0 0.3537471666
N  N10  1  0.92890000  0.29290000  0.82460000  1.0 -0.1814151482
N  N11  1  0.43110000  0.97690000  0.82710000  1.0 -0.2077171953
N  N12  1  0.41730000  0.32600000  0.51730000  1.0 -0.1814151482
N  N13  1  0.44420000  0.37850000  0.41790000  1.0 -0.1967282892
N  N14  1  0.38710000  0.75320000  0.11630000  1.0 -0.2273095624
O  O1  1  0.38510000  0.24410000  0.04380000  1.0 -0.538008921
O  O2  1  0.33370000  0.05440000  0.02810000  1.0 -0.558072649
O  O3  1  0.81860000  0.10220000  0.04226000  1.0 -0.5252761767
O  O4  1  0.65240000  0.30040000  0.08045000  1.0 -0.558072649
O  O5  1  0.61490000  0.75590000  0.95620000  1.0 -0.538008921
O  O6  1  0.66630000  0.94560000  0.97190000  1.0 -0.558072649
O  O7  1  0.18140000  0.89780000  0.95774000  1.0 -0.5252761767
O  O8  1  0.34760000  0.69960000  0.91955000  1.0 -0.558072649
