# DDEC6 charges by PACMAN v1.1 (https://github.com/mtap-research/PACMAN-charge/)
data_NEHHOA_FSR_pacman
_symmetry_space_group_name_H-M   'P 1'
_cell_length_a   10.23720000
_cell_length_b   25.43970000
_cell_length_c   11.42620000
_cell_angle_alpha   90.00000000
_cell_angle_beta   91.91140000
_cell_angle_gamma   90.00000000
_symmetry_Int_Tables_number   1
_chemical_formula_structural   CoH25C29(NO)3
_chemical_formula_sum   'Co4 H100 C116 N12 O12'
_cell_volume   2974.08438025
_cell_formula_units_Z   4
loop_
 _symmetry_equiv_pos_site_id
 _symmetry_equiv_pos_as_xyz
  1  'x, y, z'
loop_
 _atom_site_type_symbol
 _atom_site_label
 _atom_site_symmetry_multiplicity
 _atom_site_fract_x
 _atom_site_fract_y
 _atom_site_fract_z
 _atom_site_occupancy
 _atom_site_charge
Co  Co1  1  0.06403000  0.82655000  0.95018000  1.0 0.7473410443
Co  Co2  1  0.56612000  0.74484000  0.95127000  1.0 0.7386659459
Co  Co3  1  0.93597000  0.32655000  0.04982000  1.0 0.7473410443
Co  Co4  1  0.43388000  0.24484000  0.04873000  1.0 0.7386659459
H  H1  1  0.46700000  0.84000000  0.99500000  1.0 0.3321182952
H  H2  1  0.98400000  0.73800000  0.86200000  1.0 0.3186692671
H  H3  1  0.25600000  0.81750000  0.74380000  1.0 0.0906458316
H  H4  1  0.87580000  0.80640000  0.15630000  1.0 0.0974962122
H  H5  1  0.87090000  0.81310000  0.35920000  1.0 0.1198464298
H  H6  1  0.37210000  0.72060000  0.53420000  1.0 0.1198464298
H  H7  1  0.26110000  0.81930000  0.54170000  1.0 0.1099182248
H  H8  1  0.75090000  0.75410000  0.74850000  1.0 0.0974962122
H  H9  1  0.76190000  0.75050000  0.54530000  1.0 0.1198464298
H  H10  1  0.24360000  0.84910000  0.16050000  1.0 0.0974962122
H  H11  1  0.37640000  0.72370000  0.73610000  1.0 0.0974962122
H  H12  1  0.88270000  0.85430000  0.73620000  1.0 0.0803037324
H  H13  1  0.25190000  0.85510000  0.36030000  1.0 0.1198464298
H  H14  1  0.75120000  0.71930000  0.16350000  1.0 0.0906458316
H  H15  1  0.75550000  0.71350000  0.36570000  1.0 0.1198464298
H  H16  1  0.38320000  0.76410000  0.15900000  1.0 0.0974962122
H  H17  1  0.37980000  0.76190000  0.35920000  1.0 0.1099182248
H  H18  1  0.01970000  0.43160000  0.95250000  1.0 0.0974962122
H  H19  1  0.81940000  0.68090000  0.93870000  1.0 0.0906458316
H  H20  1  0.87370000  0.85200000  0.53370000  1.0 0.1099182248
H  H21  1  0.89520000  0.59610000  0.95260000  1.0 0.1099182248
H  H22  1  0.64840000  0.88500000  0.00430000  1.0 0.1099182248
H  H23  1  0.69980000  0.39480000  0.11200000  1.0 0.0974962122
H  H24  1  0.15250000  0.69280000  0.85350000  1.0 0.0974962122
H  H25  1  0.94630000  0.51610000  0.92170000  1.0 0.1198464298
H  H26  1  0.53170000  0.54780000  0.01040000  1.0 0.1198464298
H  H27  1  0.46580000  0.63450000  0.99000000  1.0 0.0906458316
H  H28  1  0.61560000  0.47780000  0.08570000  1.0 0.1198464298
H  H29  1  0.51870000  0.84480000  0.72960000  1.0 0.1198464298
H  H30  1  0.74180000  0.95510000  0.89620000  1.0 0.059149534
H  H31  1  0.73470000  0.00690000  0.72680000  1.0 0.059149534
H  H32  1  0.61960000  0.97760000  0.55880000  1.0 0.0693087271
H  H33  1  0.51160000  0.89660000  0.56020000  1.0 0.0906458316
H  H34  1  0.20040000  0.60970000  0.92890000  1.0 0.0906458316
H  H35  1  0.04780000  0.71880000  0.14370000  1.0 0.1198464298
H  H36  1  0.01210000  0.65360000  0.28350000  1.0 0.059149534
H  H37  1  0.07060000  0.56650000  0.24610000  1.0 0.0693087271
H  H38  1  0.16470000  0.54450000  0.06880000  1.0 0.0483480239
H  H39  1  0.64820000  0.88840000  0.99770000  1.0 0.1099182248
H  H40  1  0.15230000  0.69090000  0.85590000  1.0 0.0974962122
H  H41  1  0.23890000  0.61180000  0.95290000  1.0 0.1099182248
H  H42  1  0.06860000  0.72140000  0.15540000  1.0 0.1198464298
H  H43  1  0.08860000  0.66490000  0.31670000  1.0 0.059149534
H  H44  1  0.18360000  0.58190000  0.29610000  1.0 0.0693087271
H  H45  1  0.25880000  0.55540000  0.11420000  1.0 0.0483480239
H  H46  1  0.51990000  0.83860000  0.72760000  1.0 0.1099182248
H  H47  1  0.78450000  0.94310000  0.86020000  1.0 0.0906458316
H  H48  1  0.80270000  0.98050000  0.67440000  1.0 0.059149534
H  H49  1  0.67940000  0.94700000  0.51520000  1.0 0.0803037324
H  H50  1  0.53800000  0.87610000  0.54180000  1.0 0.059149534
H  H51  1  0.53300000  0.34000000  0.00500000  1.0 0.3321182952
H  H52  1  0.01600000  0.23800000  0.13800000  1.0 0.3186692671
H  H53  1  0.74400000  0.31750000  0.25620000  1.0 0.0906458316
H  H54  1  0.12420000  0.30640000  0.84370000  1.0 0.0974962122
H  H55  1  0.12910000  0.31310000  0.64080000  1.0 0.1198464298
H  H56  1  0.62790000  0.22060000  0.46580000  1.0 0.1198464298
H  H57  1  0.73890000  0.31930000  0.45830000  1.0 0.1099182248
H  H58  1  0.24910000  0.25410000  0.25150000  1.0 0.0974962122
H  H59  1  0.23810000  0.25050000  0.45470000  1.0 0.1198464298
H  H60  1  0.75640000  0.34910000  0.83950000  1.0 0.0974962122
H  H61  1  0.62360000  0.22370000  0.26390000  1.0 0.0974962122
H  H62  1  0.11730000  0.35430000  0.26380000  1.0 0.0803037324
H  H63  1  0.74810000  0.35510000  0.63970000  1.0 0.1198464298
H  H64  1  0.24880000  0.21930000  0.83650000  1.0 0.0906458316
H  H65  1  0.24450000  0.21350000  0.63430000  1.0 0.1198464298
H  H66  1  0.61680000  0.26410000  0.84100000  1.0 0.0974962122
H  H67  1  0.62020000  0.26190000  0.64080000  1.0 0.1099182248
H  H68  1  0.98030000  0.93160000  0.04750000  1.0 0.0974962122
H  H69  1  0.18060000  0.18090000  0.06130000  1.0 0.0906458316
H  H70  1  0.12630000  0.35200000  0.46630000  1.0 0.1099182248
H  H71  1  0.10480000  0.09610000  0.04740000  1.0 0.1099182248
H  H72  1  0.35160000  0.38500000  0.99570000  1.0 0.1099182248
H  H73  1  0.30020000  0.89480000  0.88800000  1.0 0.0974962122
H  H74  1  0.84750000  0.19280000  0.14650000  1.0 0.0974962122
H  H75  1  0.05370000  0.01610000  0.07830000  1.0 0.1198464298
H  H76  1  0.46830000  0.04780000  0.98960000  1.0 0.1198464298
H  H77  1  0.53420000  0.13450000  0.01000000  1.0 0.0906458316
H  H78  1  0.38440000  0.97780000  0.91430000  1.0 0.1198464298
H  H79  1  0.48130000  0.34480000  0.27040000  1.0 0.1198464298
H  H80  1  0.25820000  0.45510000  0.10380000  1.0 0.059149534
H  H81  1  0.26530000  0.50690000  0.27320000  1.0 0.059149534
H  H82  1  0.38040000  0.47760000  0.44120000  1.0 0.0693087271
H  H83  1  0.48840000  0.39660000  0.43980000  1.0 0.0906458316
H  H84  1  0.79960000  0.10970000  0.07110000  1.0 0.0906458316
H  H85  1  0.95220000  0.21880000  0.85630000  1.0 0.1198464298
H  H86  1  0.98790000  0.15360000  0.71650000  1.0 0.059149534
H  H87  1  0.92940000  0.06650000  0.75390000  1.0 0.0693087271
H  H88  1  0.83530000  0.04450000  0.93120000  1.0 0.0483480239
H  H89  1  0.35180000  0.38840000  0.00230000  1.0 0.1099182248
H  H90  1  0.84770000  0.19090000  0.14410000  1.0 0.0974962122
H  H91  1  0.76110000  0.11180000  0.04710000  1.0 0.1099182248
H  H92  1  0.93140000  0.22140000  0.84460000  1.0 0.1198464298
H  H93  1  0.91140000  0.16490000  0.68330000  1.0 0.059149534
H  H94  1  0.81640000  0.08190000  0.70390000  1.0 0.0693087271
H  H95  1  0.74120000  0.05540000  0.88580000  1.0 0.0483480239
H  H96  1  0.48010000  0.33860000  0.27240000  1.0 0.1099182248
H  H97  1  0.21550000  0.44310000  0.13980000  1.0 0.0906458316
H  H98  1  0.19730000  0.48050000  0.32560000  1.0 0.059149534
H  H99  1  0.32060000  0.44700000  0.48480000  1.0 0.0803037324
H  H100  1  0.46200000  0.37610000  0.45820000  1.0 0.059149534
C  C1  1  0.76420000  0.82560000  0.94610000  1.0 0.4925557748
C  C2  1  0.17720000  0.82440000  0.70030000  1.0 0.059149534
C  C3  1  0.56710000  0.73730000  0.38640000  1.0 0.0974962122
C  C4  1  0.95340000  0.81630000  0.19860000  1.0 0.0409750343
C  C5  1  0.56660000  0.73720000  0.51620000  1.0 0.0906458316
C  C6  1  0.95000000  0.81960000  0.32050000  1.0 -0.2190528436
C  C7  1  0.45160000  0.72790000  0.57620000  1.0 -0.2093909648
C  C8  1  0.26730000  0.74600000  0.94990000  1.0 0.4925557748
C  C9  1  0.06300000  0.83220000  0.38420000  1.0 0.0974962122
C  C10  1  0.18120000  0.82530000  0.57950000  1.0 -0.2093909648
C  C11  1  0.67290000  0.74710000  0.70380000  1.0 0.0693087271
C  C12  1  0.68070000  0.74570000  0.58190000  1.0 -0.2190528436
C  C13  1  0.16710000  0.84080000  0.20170000  1.0 0.059149534
C  C14  1  0.45520000  0.72960000  0.69650000  1.0 0.0409750343
C  C15  1  0.95940000  0.84510000  0.69630000  1.0 0.0409750343
C  C16  1  0.17320000  0.84440000  0.32080000  1.0 -0.2093909648
C  C17  1  0.67470000  0.72820000  0.20420000  1.0 0.0693087271
C  C18  1  0.06600000  0.83520000  0.51340000  1.0 0.0974962122
C  C19  1  0.67800000  0.72460000  0.32490000  1.0 -0.2093909648
C  C20  1  0.46090000  0.75450000  0.20160000  1.0 0.0483480239
C  C21  1  0.45760000  0.75260000  0.32100000  1.0 -0.2190528436
C  C22  1  0.93650000  0.44120000  0.98000000  1.0 0.0693087271
C  C23  1  0.75840000  0.65350000  0.95200000  1.0 0.0693087271
C  C24  1  0.95400000  0.84520000  0.57490000  1.0 -0.2093909648
C  C25  1  0.80480000  0.60270000  0.96210000  1.0 -0.2093909648
C  C26  1  0.77350000  0.50780000  0.00180000  1.0 0.1198464298
C  C27  1  0.72480000  0.56220000  0.98490000  1.0 0.1099182248
C  C28  1  0.64440000  0.86090000  0.93520000  1.0 -0.0811686783
C  C29  1  0.75040000  0.42010000  0.07250000  1.0 0.059149534
C  C30  1  0.14630000  0.71100000  0.93070000  1.0 -0.069767763
C  C31  1  0.89330000  0.49190000  0.96190000  1.0 -0.2093909648
C  C32  1  0.59390000  0.57440000  0.99500000  1.0 -0.1994926519
C  C33  1  0.55580000  0.62660000  0.98210000  1.0 0.0693087271
C  C34  1  0.69970000  0.46960000  0.05800000  1.0 -0.1994926519
C  C35  1  0.56260000  0.87770000  0.72900000  1.0 -0.1687265708
C  C36  1  0.63100000  0.89510000  0.82880000  1.0 0.0126671047
C  C37  1  0.69510000  0.94330000  0.82800000  1.0 -0.0593848004
C  C38  1  0.69090000  0.97400000  0.72740000  1.0 -0.0904077306
C  C39  1  0.62250000  0.95660000  0.62760000  1.0 -0.069767763
C  C40  1  0.55830000  0.90850000  0.62840000  1.0 -0.0337165402
C  C41  1  0.16210000  0.61860000  0.00090000  1.0 -0.0337165402
C  C42  1  0.12700000  0.67040000  0.02310000  1.0 -0.0536421071
C  C43  1  0.07200000  0.68340000  0.12800000  1.0 -0.1055721864
C  C44  1  0.05000000  0.64470000  0.21160000  1.0 -0.0593848004
C  C45  1  0.08500000  0.59290000  0.18930000  1.0 -0.0593848004
C  C46  1  0.14100000  0.57990000  0.08400000  1.0 -0.0904077306
C  C47  1  0.20800000  0.62260000  0.02670000  1.0 -0.0161781068
C  C48  1  0.15200000  0.67190000  0.03900000  1.0 -0.0337165402
C  C49  1  0.10700000  0.68770000  0.14700000  1.0 -0.1016122587
C  C50  1  0.11900000  0.65420000  0.24300000  1.0 -0.069767763
C  C51  1  0.17600000  0.60490000  0.23100000  1.0 -0.0811686783
C  C52  1  0.22000000  0.58910000  0.12300000  1.0 -0.069767763
C  C53  1  0.57700000  0.86740000  0.71700000  1.0 -0.1687265708
C  C54  1  0.65000000  0.88730000  0.81140000  1.0 0.0319117234
C  C55  1  0.73400000  0.92950000  0.79560000  1.0 -0.0337165402
C  C56  1  0.74500000  0.95170000  0.68520000  1.0 -0.069767763
C  C57  1  0.67200000  0.93180000  0.59060000  1.0 -0.0811686783
C  C58  1  0.58800000  0.88970000  0.60640000  1.0 -0.0432229786
C  C59  1  0.23580000  0.32560000  0.05390000  1.0 0.4973397926
C  C60  1  0.82280000  0.32440000  0.29970000  1.0 0.059149534
C  C61  1  0.43290000  0.23730000  0.61360000  1.0 0.0974962122
C  C62  1  0.04660000  0.31630000  0.80140000  1.0 0.0409750343
C  C63  1  0.43340000  0.23720000  0.48380000  1.0 0.0906458316
C  C64  1  0.05000000  0.31960000  0.67950000  1.0 -0.2190528436
C  C65  1  0.54840000  0.22790000  0.42380000  1.0 -0.2093909648
C  C66  1  0.73270000  0.24600000  0.05010000  1.0 0.4925557748
C  C67  1  0.93700000  0.33220000  0.61580000  1.0 0.0974962122
C  C68  1  0.81880000  0.32530000  0.42050000  1.0 -0.2093909648
C  C69  1  0.32710000  0.24710000  0.29620000  1.0 0.0693087271
C  C70  1  0.31930000  0.24570000  0.41810000  1.0 -0.2190528436
C  C71  1  0.83290000  0.34080000  0.79830000  1.0 0.059149534
C  C72  1  0.54480000  0.22960000  0.30350000  1.0 0.0409750343
C  C73  1  0.04060000  0.34510000  0.30370000  1.0 0.0409750343
C  C74  1  0.82680000  0.34440000  0.67920000  1.0 -0.2093909648
C  C75  1  0.32530000  0.22820000  0.79580000  1.0 0.0693087271
C  C76  1  0.93400000  0.33520000  0.48660000  1.0 0.0974962122
C  C77  1  0.32200000  0.22460000  0.67510000  1.0 -0.2093909648
C  C78  1  0.53910000  0.25450000  0.79840000  1.0 0.0483480239
C  C79  1  0.54240000  0.25260000  0.67900000  1.0 -0.2190528436
C  C80  1  0.06350000  0.94120000  0.02000000  1.0 0.0693087271
C  C81  1  0.24160000  0.15350000  0.04800000  1.0 0.0693087271
C  C82  1  0.04600000  0.34520000  0.42510000  1.0 -0.2093909648
C  C83  1  0.19520000  0.10270000  0.03790000  1.0 -0.2093909648
C  C84  1  0.22650000  0.00780000  0.99820000  1.0 0.1198464298
C  C85  1  0.27520000  0.06220000  0.01510000  1.0 0.1099182248
C  C86  1  0.35560000  0.36090000  0.06480000  1.0 -0.0904077306
C  C87  1  0.24960000  0.92010000  0.92750000  1.0 0.059149534
C  C88  1  0.85370000  0.21100000  0.06930000  1.0 -0.069767763
C  C89  1  0.10670000  0.99190000  0.03810000  1.0 -0.2093909648
C  C90  1  0.40610000  0.07440000  0.00500000  1.0 -0.1994926519
C  C91  1  0.44420000  0.12660000  0.01790000  1.0 0.0693087271
C  C92  1  0.30030000  0.96960000  0.94200000  1.0 -0.1994926519
C  C93  1  0.43740000  0.37770000  0.27100000  1.0 -0.1687265708
C  C94  1  0.36900000  0.39510000  0.17120000  1.0 0.0126671047
C  C95  1  0.30490000  0.44330000  0.17200000  1.0 -0.0593848004
C  C96  1  0.30910000  0.47400000  0.27260000  1.0 -0.0904077306
C  C97  1  0.37750000  0.45660000  0.37240000  1.0 -0.069767763
C  C98  1  0.44170000  0.40850000  0.37160000  1.0 -0.0337165402
C  C99  1  0.83790000  0.11860000  0.99910000  1.0 -0.0337165402
C  C100  1  0.87300000  0.17040000  0.97690000  1.0 -0.0536421071
C  C101  1  0.92800000  0.18340000  0.87200000  1.0 -0.1055721864
C  C102  1  0.95000000  0.14470000  0.78840000  1.0 -0.0593848004
C  C103  1  0.91500000  0.09290000  0.81070000  1.0 -0.0593848004
C  C104  1  0.85900000  0.07990000  0.91600000  1.0 -0.0904077306
C  C105  1  0.79200000  0.12260000  0.97330000  1.0 -0.0161781068
C  C106  1  0.84800000  0.17190000  0.96100000  1.0 -0.0337165402
C  C107  1  0.89300000  0.18770000  0.85300000  1.0 -0.1016122587
C  C108  1  0.88100000  0.15420000  0.75700000  1.0 -0.069767763
C  C109  1  0.82400000  0.10490000  0.76900000  1.0 -0.0811686783
C  C110  1  0.78000000  0.08910000  0.87700000  1.0 -0.069767763
C  C111  1  0.42300000  0.36740000  0.28300000  1.0 -0.1687265708
C  C112  1  0.35000000  0.38730000  0.18860000  1.0 0.0319117234
C  C113  1  0.26600000  0.42950000  0.20440000  1.0 -0.0337165402
C  C114  1  0.25500000  0.45170000  0.31480000  1.0 -0.069767763
C  C115  1  0.32800000  0.43180000  0.40940000  1.0 -0.0811686783
C  C116  1  0.41200000  0.38970000  0.39360000  1.0 -0.0432229786
N  N1  1  0.05980000  0.82630000  0.13870000  1.0 -0.273874022
N  N2  1  0.56730000  0.74380000  0.14150000  1.0 -0.2596215158
N  N3  1  0.06660000  0.83280000  0.76000000  1.0 -0.273874022
N  N4  1  0.56490000  0.73940000  0.76100000  1.0 -0.2596215158
N  N5  1  0.63510000  0.66610000  0.95980000  1.0 -0.2395642474
N  N6  1  0.86710000  0.40510000  0.03420000  1.0 -0.2471024393
N  N7  1  0.94020000  0.32630000  0.86130000  1.0 -0.273874022
N  N8  1  0.43270000  0.24380000  0.85850000  1.0 -0.2596215158
N  N9  1  0.93340000  0.33280000  0.24000000  1.0 -0.273874022
N  N10  1  0.43510000  0.23940000  0.23900000  1.0 -0.2596215158
N  N11  1  0.36490000  0.16610000  0.04020000  1.0 -0.2395642474
N  N12  1  0.13290000  0.90510000  0.96580000  1.0 -0.2471024393
O  O1  1  0.87260000  0.85010000  0.94550000  1.0 -0.5586507245
O  O2  1  0.37460000  0.72300000  0.95020000  1.0 -0.5289265438
O  O3  1  0.75220000  0.77730000  0.95430000  1.0 -0.5104066803
O  O4  1  0.52930000  0.82920000  0.94650000  1.0 -0.5289265438
O  O5  1  0.25150000  0.79500000  0.96240000  1.0 -0.5454748794
O  O6  1  0.03250000  0.74340000  0.92720000  1.0 -0.5104066803
O  O7  1  0.12740000  0.35010000  0.05450000  1.0 -0.5586507245
O  O8  1  0.62540000  0.22300000  0.04980000  1.0 -0.5289265438
O  O9  1  0.24780000  0.27730000  0.04570000  1.0 -0.5104066803
O  O10  1  0.47070000  0.32920000  0.05350000  1.0 -0.5289265438
O  O11  1  0.74850000  0.29500000  0.03760000  1.0 -0.5454748794
O  O12  1  0.96750000  0.24340000  0.07280000  1.0 -0.5104066803
