# DDEC6 charges by PACMAN v1.1 (https://github.com/mtap-research/PACMAN-charge/)
data_NEHMUJ_ASR_pacman
_symmetry_space_group_name_H-M   'P 1'
_cell_length_a   13.69980000
_cell_length_b   13.71950000
_cell_length_c   18.12470000
_cell_angle_alpha   77.22500000
_cell_angle_beta   77.63400000
_cell_angle_gamma   63.56200000
_symmetry_Int_Tables_number   1
_chemical_formula_structural   CoH24C30(SN3)2
_chemical_formula_sum   'Co4 H96 C120 S8 N24'
_cell_volume   2948.60461096
_cell_formula_units_Z   4
loop_
 _symmetry_equiv_pos_site_id
 _symmetry_equiv_pos_as_xyz
  1  'x, y, z'
loop_
 _atom_site_type_symbol
 _atom_site_label
 _atom_site_symmetry_multiplicity
 _atom_site_fract_x
 _atom_site_fract_y
 _atom_site_fract_z
 _atom_site_occupancy
 _atom_site_charge
Co  Co1  1  0.78710000  0.03079000  0.87664000  1.0 0.6208229763
Co  Co2  1  0.21290000  0.96921000  0.12336000  1.0 0.6208229763
Co  Co3  1  0.46925000  0.71287000  0.62343000  1.0 0.6208229763
Co  Co4  1  0.53075000  0.28713000  0.37657000  1.0 0.6208229763
H  H1  1  0.86370000  0.85510000  0.01670000  1.0 0.0995735644
H  H2  1  0.13630000  0.14490000  0.98330000  1.0 0.0995735644
H  H3  1  0.80140000  0.80530000  0.14020000  1.0 0.108123717
H  H4  1  0.19860000  0.19470000  0.85980000  1.0 0.108123717
H  H5  1  0.54830000  0.09440000  0.13610000  1.0 0.0995735644
H  H6  1  0.45170000  0.90560000  0.86390000  1.0 0.0995735644
H  H7  1  0.60970000  0.13130000  0.01490000  1.0 0.0995735644
H  H8  1  0.39030000  0.86870000  0.98510000  1.0 0.0995735644
H  H9  1  0.65960000  0.93490000  0.26330000  1.0 0.1196402998
H  H10  1  0.34040000  0.06510000  0.73670000  1.0 0.1196402998
H  H11  1  0.97840000  0.05130000  0.75150000  1.0 0.108123717
H  H12  1  0.02160000  0.94870000  0.24850000  1.0 0.108123717
H  H13  1  0.04430000  0.03690000  0.62470000  1.0 0.1196402998
H  H14  1  0.95570000  0.96310000  0.37530000  1.0 0.1196402998
H  H15  1  0.76190000  0.03820000  0.59890000  1.0 0.108123717
H  H16  1  0.23810000  0.96180000  0.40110000  1.0 0.108123717
H  H17  1  0.70510000  0.05640000  0.72290000  1.0 0.0910863194
H  H18  1  0.29490000  0.94360000  0.27710000  1.0 0.0910863194
H  H19  1  0.89870000  0.01810000  0.48870000  1.0 0.1196402998
H  H20  1  0.10130000  0.98190000  0.51130000  1.0 0.1196402998
H  H21  1  0.90040000  0.12570000  0.95510000  1.0 0.0910863194
H  H22  1  0.09960000  0.87430000  0.04490000  1.0 0.0910863194
H  H23  1  0.91980000  0.28340000  0.95520000  1.0 0.1313546604
H  H24  1  0.08020000  0.71660000  0.04480000  1.0 0.1313546604
H  H25  1  0.70890000  0.43670000  0.80460000  1.0 0.1313546604
H  H26  1  0.29110000  0.56330000  0.19540000  1.0 0.1313546604
H  H27  1  0.69980000  0.27660000  0.80490000  1.0 0.108123717
H  H28  1  0.30020000  0.72340000  0.19510000  1.0 0.108123717
H  H29  1  0.88350000  0.47530000  0.89970000  1.0 0.1313546604
H  H30  1  0.11650000  0.52470000  0.10030000  1.0 0.1313546604
H  H31  1  0.92800000  0.78180000  0.86560000  1.0 0.108123717
H  H32  1  0.07200000  0.21820000  0.13440000  1.0 0.108123717
H  H33  1  0.92340000  0.62100000  0.85900000  1.0 0.1383279664
H  H34  1  0.07660000  0.37900000  0.14100000  1.0 0.1383279664
H  H35  1  0.61020000  0.78060000  0.85450000  1.0 0.1196402998
H  H36  1  0.38980000  0.21940000  0.14550000  1.0 0.1196402998
H  H37  1  0.62170000  0.93340000  0.87070000  1.0 0.0910863194
H  H38  1  0.37830000  0.06660000  0.12930000  1.0 0.0910863194
H  H39  1  0.69730000  0.58550000  0.83700000  1.0 0.1196402998
H  H40  1  0.30270000  0.41450000  0.16300000  1.0 0.1196402998
H  H41  1  0.64520000  0.63780000  0.48530000  1.0 0.0995735644
H  H42  1  0.35480000  0.36220000  0.51470000  1.0 0.0995735644
H  H43  1  0.69520000  0.70160000  0.36110000  1.0 0.108123717
H  H44  1  0.30480000  0.29840000  0.63890000  1.0 0.108123717
H  H45  1  0.40490000  0.95290000  0.36480000  1.0 0.0995735644
H  H46  1  0.59510000  0.04710000  0.63520000  1.0 0.0995735644
H  H47  1  0.36710000  0.88960000  0.48600000  1.0 0.0995735644
H  H48  1  0.63290000  0.11040000  0.51400000  1.0 0.0995735644
H  H49  1  0.57230000  0.83490000  0.23570000  1.0 0.1196402998
H  H50  1  0.42770000  0.16510000  0.76430000  1.0 0.1196402998
H  H51  1  0.44870000  0.52190000  0.74850000  1.0 0.108123717
H  H52  1  0.55130000  0.47810000  0.25150000  1.0 0.108123717
H  H53  1  0.46300000  0.45570000  0.87620000  1.0 0.1196402998
H  H54  1  0.53700000  0.54430000  0.12380000  1.0 0.1196402998
H  H55  1  0.46080000  0.73730000  0.90130000  1.0 0.108123717
H  H56  1  0.53920000  0.26270000  0.09870000  1.0 0.108123717
H  H57  1  0.44450000  0.79500000  0.77720000  1.0 0.0910863194
H  H58  1  0.55550000  0.20500000  0.22280000  1.0 0.0910863194
H  H59  1  0.48160000  0.60120000  0.01140000  1.0 0.1196402998
H  H60  1  0.51840000  0.39880000  0.98860000  1.0 0.1196402998
H  H61  1  0.37330000  0.60080000  0.54420000  1.0 0.0910863194
H  H62  1  0.62670000  0.39920000  0.45580000  1.0 0.0910863194
H  H63  1  0.21580000  0.58010000  0.54590000  1.0 0.1313546604
H  H64  1  0.78420000  0.41990000  0.45410000  1.0 0.1313546604
H  H65  1  0.06390000  0.78990000  0.69580000  1.0 0.1313546604
H  H66  1  0.93610000  0.21010000  0.30420000  1.0 0.1313546604
H  H67  1  0.22450000  0.79990000  0.69420000  1.0 0.108123717
H  H68  1  0.77550000  0.20010000  0.30580000  1.0 0.108123717
H  H69  1  0.02420000  0.61660000  0.60130000  1.0 0.1313546604
H  H70  1  0.97580000  0.38340000  0.39870000  1.0 0.1313546604
H  H71  1  0.56550000  0.87740000  0.63260000  1.0 0.0910863194
H  H72  1  0.43450000  0.12260000  0.36740000  1.0 0.0910863194
H  H73  1  0.72110000  0.89020000  0.64270000  1.0 0.1196402998
H  H74  1  0.27890000  0.10980000  0.35730000  1.0 0.1196402998
H  H75  1  0.87840000  0.57640000  0.64310000  1.0 0.1313546604
H  H76  1  0.12160000  0.42360000  0.35690000  1.0 0.1313546604
H  H77  1  0.71840000  0.57200000  0.63370000  1.0 0.0995735644
H  H78  1  0.28160000  0.42800000  0.36630000  1.0 0.0995735644
H  H79  1  0.91440000  0.80250000  0.66210000  1.0 0.1196402998
H  H80  1  0.08560000  0.19750000  0.33790000  1.0 0.1196402998
H  H81  1  0.88650000  0.95390000  0.03110000  1.0 0.0910863194
H  H82  1  0.11350000  0.04610000  0.96890000  1.0 0.0910863194
H  H83  1  0.84650000  0.89350000  0.16080000  1.0 0.108123717
H  H84  1  0.15350000  0.10650000  0.83920000  1.0 0.108123717
H  H85  1  0.54280000  0.98790000  0.12190000  1.0 0.0995735644
H  H86  1  0.45720000  0.01210000  0.87810000  1.0 0.0995735644
H  H87  1  0.59210000  0.02650000  0.99840000  1.0 0.0910863194
H  H88  1  0.40790000  0.97350000  0.00160000  1.0 0.0910863194
H  H89  1  0.54080000  0.61730000  0.46830000  1.0 0.0910863194
H  H90  1  0.45920000  0.38270000  0.53170000  1.0 0.0995735644
H  H91  1  0.62040000  0.64870000  0.34320000  1.0 0.108123717
H  H92  1  0.37960000  0.35130000  0.65680000  1.0 0.108123717
H  H93  1  0.51430000  0.95650000  0.37720000  1.0 0.0995735644
H  H94  1  0.48570000  0.04350000  0.62280000  1.0 0.0995735644
H  H95  1  0.47010000  0.90790000  0.50100000  1.0 0.0910863194
H  H96  1  0.52990000  0.09210000  0.49900000  1.0 0.0910863194
C  C1  1  0.79820000  0.90410000  0.04020000  1.0 0.02985798
C  C2  1  0.20180000  0.09590000  0.95980000  1.0 0.02985798
C  C3  1  0.76150000  0.87490000  0.11540000  1.0 -0.0828064503
C  C4  1  0.23850000  0.12510000  0.88460000  1.0 -0.0854169873
C  C5  1  0.67240000  0.94190000  0.15280000  1.0 0.0520314434
C  C6  1  0.32760000  0.05810000  0.84720000  1.0 0.0520314434
C  C7  1  0.61260000  0.04320000  0.11310000  1.0 -0.0854169873
C  C8  1  0.38740000  0.95680000  0.88690000  1.0 -0.0854169873
C  C9  1  0.65150000  0.06350000  0.04100000  1.0 0.0030692569
C  C10  1  0.34850000  0.93650000  0.95900000  1.0 0.0030692569
C  C11  1  0.63580000  0.90640000  0.23220000  1.0 -0.1787431722
C  C12  1  0.36420000  0.09360000  0.76780000  1.0 -0.1787431722
C  C13  1  0.93480000  0.04710000  0.72050000  1.0 0.0910863194
C  C14  1  0.06520000  0.95290000  0.27950000  1.0 0.0910863194
C  C15  1  0.97530000  0.03820000  0.64450000  1.0 -0.1862566854
C  C16  1  0.02470000  0.96180000  0.35550000  1.0 -0.1862566854
C  C17  1  0.91050000  0.03100000  0.59800000  1.0 0.1483181643
C  C18  1  0.08950000  0.96900000  0.40200000  1.0 0.1483181643
C  C19  1  0.80870000  0.03930000  0.62870000  1.0 -0.2187095402
C  C20  1  0.19130000  0.96070000  0.37130000  1.0 -0.2187095402
C  C21  1  0.77610000  0.04930000  0.70340000  1.0 0.0553764915
C  C22  1  0.22390000  0.95070000  0.29660000  1.0 0.0553764915
C  C23  1  0.95040000  0.01200000  0.51740000  1.0 -0.1365039507
C  C24  1  0.04960000  0.98800000  0.48260000  1.0 -0.1365039507
C  C25  1  0.86140000  0.18920000  0.92370000  1.0 0.0773617491
C  C26  1  0.13860000  0.81080000  0.07630000  1.0 0.0773617491
C  C27  1  0.87280000  0.28380000  0.92480000  1.0 -0.2099708701
C  C28  1  0.12720000  0.71620000  0.07520000  1.0 -0.2099708701
C  C29  1  0.81340000  0.37860000  0.88000000  1.0 0.1383279664
C  C30  1  0.18660000  0.62140000  0.12000000  1.0 0.1383279664
C  C31  1  0.74950000  0.37390000  0.83590000  1.0 -0.1787431722
C  C32  1  0.25050000  0.62610000  0.16410000  1.0 -0.1787431722
C  C33  1  0.74410000  0.27770000  0.83680000  1.0 0.0773617491
C  C34  1  0.25590000  0.72230000  0.16320000  1.0 0.0773617491
C  C35  1  0.82250000  0.48220000  0.88070000  1.0 -0.1340637068
C  C36  1  0.17750000  0.51780000  0.11930000  1.0 -0.1340637068
C  C37  1  0.85970000  0.78290000  0.86560000  1.0 0.0773617491
C  C38  1  0.14030000  0.21710000  0.13440000  1.0 0.0773617491
C  C39  1  0.85840000  0.68450000  0.86190000  1.0 -0.2099708701
C  C40  1  0.14160000  0.31550000  0.13810000  1.0 -0.2099708701
C  C41  1  0.76380000  0.68170000  0.86240000  1.0 0.1383279664
C  C42  1  0.23620000  0.31830000  0.13760000  1.0 0.1383279664
C  C43  1  0.67780000  0.77660000  0.86050000  1.0 -0.225598638
C  C44  1  0.32220000  0.22340000  0.13950000  1.0 -0.2187095402
C  C45  1  0.68640000  0.86960000  0.86720000  1.0 0.0353994173
C  C46  1  0.31360000  0.13040000  0.13280000  1.0 0.02985798
C  C47  1  0.75660000  0.57840000  0.85830000  1.0 -0.1195943328
C  C48  1  0.24340000  0.42160000  0.14170000  1.0 -0.1195943328
C  C49  1  0.04510000  0.90280000  0.87910000  1.0 0.2265148563
C  C50  1  0.95490000  0.09720000  0.12090000  1.0 0.2265148563
C  C51  1  0.53460000  0.18100000  0.88100000  1.0 0.1483181643
C  C52  1  0.46540000  0.81900000  0.11900000  1.0 0.1483181643
C  C53  1  0.59580000  0.70300000  0.46110000  1.0 0.0353994173
C  C54  1  0.40420000  0.29700000  0.53890000  1.0 0.0353994173
C  C55  1  0.62510000  0.74040000  0.38520000  1.0 -0.0828064503
C  C56  1  0.37490000  0.25960000  0.61480000  1.0 -0.0828064503
C  C57  1  0.55750000  0.82770000  0.34730000  1.0 0.0520314434
C  C58  1  0.44250000  0.17230000  0.65270000  1.0 0.0520314434
C  C59  1  0.45580000  0.88780000  0.38790000  1.0 -0.0828064503
C  C60  1  0.54420000  0.11220000  0.61210000  1.0 -0.0828064503
C  C61  1  0.43490000  0.84870000  0.46010000  1.0 0.0030692569
C  C62  1  0.56510000  0.15130000  0.53990000  1.0 0.0030692569
C  C63  1  0.59550000  0.86380000  0.26690000  1.0 -0.1787431722
C  C64  1  0.40450000  0.13620000  0.73310000  1.0 -0.1787431722
C  C65  1  0.45280000  0.56530000  0.77950000  1.0 0.0910863194
C  C66  1  0.54720000  0.43470000  0.22050000  1.0 0.0910863194
C  C67  1  0.46190000  0.52460000  0.85610000  1.0 -0.1862566854
C  C68  1  0.53810000  0.47540000  0.14390000  1.0 -0.1862566854
C  C69  1  0.46950000  0.58910000  0.90190000  1.0 0.1383279664
C  C70  1  0.53050000  0.41090000  0.09810000  1.0 0.1383279664
C  C71  1  0.46040000  0.69070000  0.87130000  1.0 -0.2187095402
C  C72  1  0.53960000  0.30930000  0.12870000  1.0 -0.2187095402
C  C73  1  0.45090000  0.72410000  0.79670000  1.0 0.0520314434
C  C74  1  0.54910000  0.27590000  0.20330000  1.0 0.0520314434
C  C75  1  0.48790000  0.54970000  0.98280000  1.0 -0.1365039507
C  C76  1  0.51210000  0.45030000  0.01720000  1.0 -0.1365039507
C  C77  1  0.31050000  0.63870000  0.57600000  1.0 0.0773617491
C  C78  1  0.68950000  0.36130000  0.42400000  1.0 0.0773617491
C  C79  1  0.21600000  0.62730000  0.57560000  1.0 -0.2099708701
C  C80  1  0.78400000  0.37270000  0.42440000  1.0 -0.2099708701
C  C81  1  0.12160000  0.68670000  0.62000000  1.0 0.1383279664
C  C82  1  0.87840000  0.31330000  0.38000000  1.0 0.1383279664
C  C83  1  0.12610000  0.75010000  0.66440000  1.0 -0.1787431722
C  C84  1  0.87390000  0.24990000  0.33560000  1.0 -0.1787431722
C  C85  1  0.22280000  0.75540000  0.66290000  1.0 0.0773617491
C  C86  1  0.77720000  0.24460000  0.33710000  1.0 0.0773617491
C  C87  1  0.01730000  0.67770000  0.61980000  1.0 -0.1340637068
C  C88  1  0.98270000  0.32230000  0.38020000  1.0 -0.1340637068
C  C89  1  0.63010000  0.81330000  0.63380000  1.0 0.0245445994
C  C90  1  0.36990000  0.18670000  0.36620000  1.0 0.02985798
C  C91  1  0.72430000  0.82240000  0.63870000  1.0 -0.2187095402
C  C92  1  0.27570000  0.17760000  0.36130000  1.0 -0.2187095402
C  C93  1  0.81830000  0.73590000  0.63790000  1.0 0.1383279664
C  C94  1  0.18170000  0.26410000  0.36210000  1.0 0.1383279664
C  C95  1  0.81510000  0.64160000  0.63910000  1.0 -0.2099708701
C  C96  1  0.18490000  0.35840000  0.36090000  1.0 -0.2099708701
C  C97  1  0.71700000  0.64020000  0.63430000  1.0 0.0773617491
C  C98  1  0.28300000  0.35980000  0.36570000  1.0 0.0773617491
C  C99  1  0.92130000  0.74310000  0.64150000  1.0 -0.1195943328
C  C100  1  0.07870000  0.25690000  0.35850000  1.0 -0.1195943328
C  C101  1  0.59740000  0.45480000  0.62100000  1.0 0.2248035324
C  C102  1  0.40260000  0.54520000  0.37900000  1.0 0.2248035324
C  C103  1  0.31850000  0.96530000  0.61870000  1.0 0.1483181643
C  C104  1  0.68150000  0.03470000  0.38130000  1.0 0.1483181643
C  C105  1  0.81580000  0.95940000  0.04990000  1.0 -0.0091473461
C  C106  1  0.18420000  0.04060000  0.95010000  1.0 -0.0091473461
C  C107  1  0.79370000  0.92420000  0.12770000  1.0 -0.0701196092
C  C108  1  0.20630000  0.07580000  0.87230000  1.0 -0.0701196092
C  C109  1  0.61580000  0.97690000  0.10640000  1.0 -0.0316802515
C  C110  1  0.38420000  0.02310000  0.89360000  1.0 -0.0316802515
C  C111  1  0.64470000  0.00400000  0.03090000  1.0 0.0083350203
C  C112  1  0.35530000  0.99600000  0.96910000  1.0 0.0083350203
C  C113  1  0.54050000  0.68630000  0.44990000  1.0 -0.0167791625
C  C114  1  0.45950000  0.31370000  0.55010000  1.0 -0.0167791625
C  C115  1  0.58200000  0.70360000  0.37410000  1.0 -0.057787356
C  C116  1  0.41800000  0.29640000  0.62590000  1.0 -0.057787356
C  C117  1  0.52350000  0.88400000  0.39290000  1.0 -0.0316802515
C  C118  1  0.47650000  0.11600000  0.60710000  1.0 -0.0316802515
C  C119  1  0.49480000  0.85480000  0.46900000  1.0 0.0083350203
C  C120  1  0.50520000  0.14520000  0.53100000  1.0 0.0083350203
S  S1  1  0.17821000  0.84640000  0.86238000  1.0 -0.3394494849
S  S2  1  0.82179000  0.15360000  0.13762000  1.0 -0.3394494849
S  S3  1  0.41109000  0.26624000  0.91197000  1.0 -0.3584004315
S  S4  1  0.58891000  0.73376000  0.08803000  1.0 -0.3584004315
S  S5  1  0.65390000  0.32162000  0.63765000  1.0 -0.3394494849
S  S6  1  0.34610000  0.67838000  0.36235000  1.0 -0.3394494849
S  S7  1  0.23378000  0.08881000  0.58812000  1.0 -0.3584004315
S  S8  1  0.76622000  0.91119000  0.41188000  1.0 -0.3584004315
N  N1  1  0.74210000  0.00030000  0.00090000  1.0 -0.1787431722
N  N2  1  0.25790000  0.99970000  0.99910000  1.0 -0.1787431722
N  N3  1  0.83620000  0.05010000  0.75180000  1.0 -0.2187095402
N  N4  1  0.16380000  0.94990000  0.24820000  1.0 -0.2187095402
N  N5  1  0.79820000  0.18400000  0.88060000  1.0 -0.2187095402
N  N6  1  0.20180000  0.81600000  0.11940000  1.0 -0.2187095402
N  N7  1  0.77650000  0.87600000  0.86910000  1.0 -0.2187095402
N  N8  1  0.22350000  0.12400000  0.13090000  1.0 -0.2187095402
N  N9  1  0.95200000  0.94270000  0.89090000  1.0 -0.4840298342
N  N10  1  0.04800000  0.05730000  0.10910000  1.0 -0.4840298342
N  N11  1  0.62250000  0.11990000  0.86250000  1.0 -0.4585157084
N  N12  1  0.37750000  0.88010000  0.13750000  1.0 -0.4585157084
N  N13  1  0.49990000  0.75790000  0.49920000  1.0 -0.1787431722
N  N14  1  0.50010000  0.24210000  0.50080000  1.0 -0.1787431722
N  N15  1  0.44980000  0.66450000  0.74820000  1.0 -0.2187095402
N  N16  1  0.55020000  0.33550000  0.25180000  1.0 -0.2187095402
N  N17  1  0.31610000  0.70120000  0.61950000  1.0 -0.2187095402
N  N18  1  0.68390000  0.29880000  0.38050000  1.0 -0.2187095402
N  N19  1  0.62400000  0.72310000  0.63070000  1.0 -0.2187095402
N  N20  1  0.37600000  0.27690000  0.36930000  1.0 -0.2187095402
N  N21  1  0.55760000  0.54800000  0.60870000  1.0 -0.4852954494
N  N22  1  0.44240000  0.45200000  0.39130000  1.0 -0.4852954494
N  N23  1  0.38020000  0.87750000  0.63730000  1.0 -0.4585157084
N  N24  1  0.61980000  0.12250000  0.36270000  1.0 -0.4585157084
