# DDEC6 charges by PACMAN v1.1 (https://github.com/mtap-research/PACMAN-charge/)
data_NEJQEB_ASR_pacman
_symmetry_space_group_name_H-M   'P 1'
_cell_length_a   7.35450000
_cell_length_b   8.33030000
_cell_length_c   12.08150000
_cell_angle_alpha   71.40900000
_cell_angle_beta   84.98500000
_cell_angle_gamma   79.99900000
_symmetry_Int_Tables_number   1
_chemical_formula_structural   CdH7C13(NO3)2
_chemical_formula_sum   'Cd2 H14 C26 N4 O12'
_cell_volume   690.48427131
_cell_formula_units_Z   2
loop_
 _symmetry_equiv_pos_site_id
 _symmetry_equiv_pos_as_xyz
  1  'x, y, z'
loop_
 _atom_site_type_symbol
 _atom_site_label
 _atom_site_symmetry_multiplicity
 _atom_site_fract_x
 _atom_site_fract_y
 _atom_site_fract_z
 _atom_site_occupancy
 _atom_site_charge
Cd  Cd1  1  0.99207000  0.74966000  0.50774000  1.0 0.9460617005
Cd  Cd2  1  0.00793000  0.25034000  0.49226000  1.0 0.9460617005
H  H1  1  0.14720000  0.64070000  0.28350000  1.0 0.1236731782
H  H2  1  0.84750000  0.06950000  0.29650000  1.0 0.1236731782
H  H3  1  0.14980000  0.73360000  0.08330000  1.0 0.1327071673
H  H4  1  0.84760000  0.17590000  0.09670000  1.0 0.1327071673
H  H5  1  0.50180000  0.23900000  0.52060000  1.0 0.1513000279
H  H6  1  0.66400000  0.89300000  0.83300000  1.0 0.1327071673
H  H7  1  0.29900000  0.32400000  0.81600000  1.0 0.1327071673
H  H8  1  0.85280000  0.35930000  0.71650000  1.0 0.1236731782
H  H9  1  0.15250000  0.93050000  0.70350000  1.0 0.1236731782
H  H10  1  0.85020000  0.26640000  0.91670000  1.0 0.1327071673
H  H11  1  0.15240000  0.82410000  0.90330000  1.0 0.1327071673
H  H12  1  0.49820000  0.76100000  0.47940000  1.0 0.1513000279
H  H13  1  0.33600000  0.10700000  0.16700000  1.0 0.1327071673
H  H14  1  0.70100000  0.67600000  0.18400000  1.0 0.1327071673
C  C1  1  0.73420000  0.95280000  0.60320000  1.0 0.5500632226
C  C2  1  0.08570000  0.74940000  0.24540000  1.0 0.0909714772
C  C3  1  0.91030000  0.00170000  0.25300000  1.0 0.0963456294
C  C4  1  0.60110000  0.05490000  0.66570000  1.0 0.0148819265
C  C5  1  0.08850000  0.80520000  0.12460000  1.0 -0.2037535112
C  C6  1  0.90920000  0.06630000  0.13260000  1.0 -0.2037535112
C  C7  1  0.49570000  0.20560000  0.60180000  1.0 -0.1465086416
C  C8  1  0.59140000  0.00100000  0.78730000  1.0 -0.2074158292
C  C9  1  0.00030000  0.96730000  0.06490000  1.0 0.0909714772
C  C10  1  0.38110000  0.30650000  0.65950000  1.0 0.0045001585
C  C11  1  0.48060000  0.10740000  0.84350000  1.0 0.0317574915
C  C12  1  0.37930000  0.26070000  0.78050000  1.0 -0.1803125442
C  C13  1  0.25380000  0.46080000  0.59210000  1.0 0.5500632226
C  C14  1  0.26580000  0.04720000  0.39680000  1.0 0.5500632226
C  C15  1  0.91430000  0.25060000  0.75460000  1.0 0.0909714772
C  C16  1  0.08970000  0.99830000  0.74700000  1.0 0.0963456294
C  C17  1  0.39890000  0.94510000  0.33430000  1.0 0.0148819265
C  C18  1  0.91150000  0.19480000  0.87540000  1.0 -0.2037535112
C  C19  1  0.09080000  0.93370000  0.86740000  1.0 -0.2074158292
C  C20  1  0.50430000  0.79440000  0.39820000  1.0 -0.1465086416
C  C21  1  0.40860000  0.99900000  0.21270000  1.0 -0.2074158292
C  C22  1  0.99970000  0.03270000  0.93510000  1.0 0.0909714772
C  C23  1  0.61890000  0.69350000  0.34050000  1.0 0.0045001585
C  C24  1  0.51940000  0.89260000  0.15650000  1.0 0.0317574915
C  C25  1  0.62070000  0.73930000  0.21950000  1.0 -0.1803125442
C  C26  1  0.74620000  0.53920000  0.40790000  1.0 0.5500632226
N  N1  1  0.99780000  0.84600000  0.30980000  1.0 -0.26136145
N  N2  1  0.46300000  0.07090000  0.96820000  1.0 0.2624999433
N  N3  1  0.00220000  0.15400000  0.69020000  1.0 -0.26136145
N  N4  1  0.53700000  0.92910000  0.03180000  1.0 0.2624999433
O  O1  1  0.80040000  0.02960000  0.50460000  1.0 -0.5760154427
O  O2  1  0.78160000  0.79560000  0.65110000  1.0 -0.5080328734
O  O3  1  0.19970000  0.46410000  0.49560000  1.0 -0.5715322794
O  O4  1  0.19890000  0.57940000  0.63640000  1.0 -0.5080328734
O  O5  1  0.32870000  0.18740000  0.00110000  1.0 -0.0732345954
O  O6  1  0.43800000  0.22000000  0.99910000  1.0 -0.1232426801
O  O7  1  0.19960000  0.97040000  0.49540000  1.0 -0.5760154427
O  O8  1  0.21840000  0.20440000  0.34890000  1.0 -0.5080328734
O  O9  1  0.80030000  0.53590000  0.50440000  1.0 -0.5715322794
O  O10  1  0.80110000  0.42060000  0.36360000  1.0 -0.5080328734
O  O11  1  0.67130000  0.81260000  0.99890000  1.0 -0.0783624203
O  O12  1  0.56200000  0.78000000  0.00090000  1.0 -0.1232426801
