# DDEC6 charges by PACMAN v1.1 (https://github.com/mtap-research/PACMAN-charge/)
data_NEKBEL_ASR_pacman
_symmetry_space_group_name_H-M   'P 1'
_cell_length_a   7.17900000
_cell_length_b   14.63400000
_cell_length_c   23.13510000
_cell_angle_alpha   90.00000000
_cell_angle_beta   106.95300000
_cell_angle_gamma   90.00000000
_symmetry_Int_Tables_number   1
_chemical_formula_structural   Co3H8W2(C6N5)4
_chemical_formula_sum   'Co6 H16 W4 C48 N40'
_cell_volume   2324.89561679
_cell_formula_units_Z   2
loop_
 _symmetry_equiv_pos_site_id
 _symmetry_equiv_pos_as_xyz
  1  'x, y, z'
loop_
 _atom_site_type_symbol
 _atom_site_label
 _atom_site_symmetry_multiplicity
 _atom_site_fract_x
 _atom_site_fract_y
 _atom_site_fract_z
 _atom_site_occupancy
 _atom_site_charge
Co  Co1  1  0.98997000  0.47160000  0.23787000  1.0 0.8566012759
Co  Co2  1  0.01003000  0.97160000  0.26213000  1.0 0.8566012759
Co  Co3  1  0.01003000  0.52840000  0.76213000  1.0 0.8566012759
Co  Co4  1  0.98997000  0.02840000  0.73787000  1.0 0.8566012759
Co  Co5  1  0.00000000  0.50000000  0.50000000  1.0 0.6485268254
Co  Co6  1  0.00000000  0.00000000  0.00000000  1.0 0.6485268254
H  H1  1  0.04780000  0.51390000  0.37130000  1.0 0.1233039726
H  H2  1  0.95220000  0.01390000  0.12870000  1.0 0.1233039726
H  H3  1  0.95220000  0.48610000  0.62870000  1.0 0.1233039726
H  H4  1  0.04780000  0.98610000  0.87130000  1.0 0.1233039726
H  H5  1  0.09210000  0.28020000  0.30000000  1.0 0.1306535034
H  H6  1  0.90790000  0.78020000  0.20000000  1.0 0.1306535034
H  H7  1  0.90790000  0.71980000  0.70000000  1.0 0.1306535034
H  H8  1  0.09210000  0.21980000  0.80000000  1.0 0.1306535034
H  H9  1  0.14210000  0.20850000  0.39350000  1.0 0.17412933
H  H10  1  0.85790000  0.70850000  0.10650000  1.0 0.17412933
H  H11  1  0.85790000  0.79150000  0.60650000  1.0 0.17412933
H  H12  1  0.14210000  0.29150000  0.89350000  1.0 0.17412933
H  H13  1  0.09250000  0.29590000  0.47170000  1.0 0.1367151294
H  H14  1  0.90750000  0.79590000  0.02830000  1.0 0.1367151294
H  H15  1  0.90750000  0.70410000  0.52830000  1.0 0.1367151294
H  H16  1  0.09250000  0.20410000  0.97170000  1.0 0.1367151294
W  W1  1  0.56273000  0.71503000  0.32251000  1.0 0.6669497568
W  W2  1  0.43727000  0.21503000  0.17749000  1.0 0.6669497568
W  W3  1  0.43727000  0.28497000  0.67749000  1.0 0.6669497568
W  W4  1  0.56273000  0.78497000  0.82251000  1.0 0.6669497568
C  C1  1  0.73660000  0.62510000  0.28660000  1.0 0.0625523146
C  C2  1  0.26340000  0.12510000  0.21340000  1.0 0.0625523146
C  C3  1  0.26340000  0.37490000  0.71340000  1.0 0.0625523146
C  C4  1  0.73660000  0.87490000  0.78660000  1.0 0.0625523146
C  C5  1  0.71780000  0.62200000  0.39180000  1.0 0.0668877212
C  C6  1  0.28220000  0.12200000  0.10820000  1.0 0.0668877212
C  C7  1  0.28220000  0.37800000  0.60820000  1.0 0.0668877212
C  C8  1  0.71780000  0.87800000  0.89180000  1.0 0.0668877212
C  C9  1  0.67470000  0.79790000  0.40170000  1.0 0.0024984159
C  C10  1  0.32530000  0.29790000  0.09830000  1.0 0.0024984159
C  C11  1  0.32530000  0.20210000  0.59830000  1.0 0.0024984159
C  C12  1  0.67470000  0.70210000  0.90170000  1.0 0.0024984159
C  C13  1  0.75880000  0.81240000  0.30280000  1.0 0.0668877212
C  C14  1  0.24120000  0.31240000  0.19720000  1.0 0.0668877212
C  C15  1  0.24120000  0.18760000  0.69720000  1.0 0.0668877212
C  C16  1  0.75880000  0.68760000  0.80280000  1.0 0.0668877212
C  C17  1  0.47490000  0.73240000  0.22690000  1.0 -0.0442492055
C  C18  1  0.52510000  0.23240000  0.27310000  1.0 -0.0442492055
C  C19  1  0.52510000  0.26760000  0.77310000  1.0 -0.0442492055
C  C20  1  0.47490000  0.76760000  0.72690000  1.0 -0.0442492055
C  C21  1  0.36220000  0.60540000  0.28820000  1.0 0.0668877212
C  C22  1  0.63780000  0.10540000  0.21180000  1.0 0.0668877212
C  C23  1  0.63780000  0.39460000  0.71180000  1.0 0.0668877212
C  C24  1  0.36220000  0.89460000  0.78820000  1.0 0.0668877212
C  C25  1  0.36940000  0.70170000  0.37440000  1.0 -0.0182030737
C  C26  1  0.63060000  0.20170000  0.12560000  1.0 -0.0182030737
C  C27  1  0.63060000  0.29830000  0.62560000  1.0 -0.0182030737
C  C28  1  0.36940000  0.79830000  0.87440000  1.0 -0.0182030737
C  C29  1  0.36100000  0.82870000  0.30100000  1.0 0.0869886152
C  C30  1  0.63900000  0.32870000  0.19900000  1.0 0.0869886152
C  C31  1  0.63900000  0.17130000  0.69900000  1.0 0.0869886152
C  C32  1  0.36100000  0.67130000  0.80100000  1.0 0.0869886152
C  C33  1  0.05530000  0.44920000  0.37430000  1.0 0.2603461523
C  C34  1  0.94470000  0.94920000  0.12570000  1.0 0.2603461523
C  C35  1  0.94470000  0.55080000  0.62570000  1.0 0.2603461523
C  C36  1  0.05530000  0.05080000  0.87430000  1.0 0.2603461523
C  C37  1  0.07030000  0.31430000  0.33230000  1.0 0.1306535034
C  C38  1  0.92970000  0.81430000  0.16770000  1.0 0.1306535034
C  C39  1  0.92970000  0.68570000  0.66770000  1.0 0.1306535034
C  C40  1  0.07030000  0.18570000  0.83230000  1.0 0.1306535034
C  C41  1  0.10460000  0.27100000  0.38760000  1.0 -0.1346868347
C  C42  1  0.89540000  0.77100000  0.11240000  1.0 -0.1346868347
C  C43  1  0.89540000  0.72900000  0.61240000  1.0 -0.1346868347
C  C44  1  0.10460000  0.22900000  0.88760000  1.0 -0.1346868347
C  C45  1  0.09270000  0.32400000  0.43470000  1.0 0.1306535034
C  C46  1  0.90730000  0.82400000  0.06530000  1.0 0.1306535034
C  C47  1  0.90730000  0.67600000  0.56530000  1.0 0.1306535034
C  C48  1  0.09270000  0.17600000  0.93470000  1.0 0.1306535034
N  N1  1  0.82550000  0.57100000  0.26850000  1.0 -0.3464561722
N  N2  1  0.17450000  0.07100000  0.23150000  1.0 -0.3444996398
N  N3  1  0.17450000  0.42900000  0.73150000  1.0 -0.3464561722
N  N4  1  0.82550000  0.92900000  0.76850000  1.0 -0.3464561722
N  N5  1  0.81270000  0.57880000  0.43070000  1.0 -0.3284231383
N  N6  1  0.18730000  0.07880000  0.06930000  1.0 -0.3284231383
N  N7  1  0.18730000  0.42120000  0.56930000  1.0 -0.3284231383
N  N8  1  0.81270000  0.92120000  0.93070000  1.0 -0.3284231383
N  N9  1  0.72920000  0.83750000  0.44620000  1.0 -0.2906011823
N  N10  1  0.27080000  0.33750000  0.05380000  1.0 -0.2906011823
N  N11  1  0.27080000  0.16250000  0.55380000  1.0 -0.2906011823
N  N12  1  0.72920000  0.66250000  0.94620000  1.0 -0.2906011823
N  N13  1  0.85360000  0.86940000  0.29160000  1.0 -0.3284231383
N  N14  1  0.14640000  0.36940000  0.20840000  1.0 -0.3284231383
N  N15  1  0.14640000  0.13060000  0.70840000  1.0 -0.3284231383
N  N16  1  0.85360000  0.63060000  0.79160000  1.0 -0.3284231383
N  N17  1  0.42720000  0.74560000  0.17520000  1.0 -0.2906011823
N  N18  1  0.57280000  0.24560000  0.32480000  1.0 -0.2906011823
N  N19  1  0.57280000  0.25440000  0.82480000  1.0 -0.2906011823
N  N20  1  0.42720000  0.75440000  0.67520000  1.0 -0.2906011823
N  N21  1  0.24940000  0.55180000  0.27040000  1.0 -0.3284231383
N  N22  1  0.75060000  0.05180000  0.22960000  1.0 -0.3284231383
N  N23  1  0.75060000  0.44820000  0.72960000  1.0 -0.3284231383
N  N24  1  0.24940000  0.94820000  0.77040000  1.0 -0.3284231383
N  N25  1  0.26690000  0.68800000  0.40790000  1.0 -0.3237666707
N  N26  1  0.73310000  0.18800000  0.09210000  1.0 -0.3237666707
N  N27  1  0.73310000  0.31200000  0.59210000  1.0 -0.3237666707
N  N28  1  0.26690000  0.81200000  0.90790000  1.0 -0.3237666707
N  N29  1  0.25420000  0.88920000  0.29120000  1.0 -0.3284231383
N  N30  1  0.74580000  0.38920000  0.20880000  1.0 -0.3284231383
N  N31  1  0.74580000  0.11080000  0.70880000  1.0 -0.3284231383
N  N32  1  0.25420000  0.61080000  0.79120000  1.0 -0.3284231383
N  N33  1  0.06490000  0.41540000  0.42890000  1.0 -0.256203733
N  N34  1  0.93510000  0.91540000  0.07110000  1.0 -0.256203733
N  N35  1  0.93510000  0.58460000  0.57110000  1.0 -0.256203733
N  N36  1  0.06490000  0.08460000  0.92890000  1.0 -0.256203733
N  N37  1  0.05300000  0.40570000  0.32600000  1.0 -0.2690005745
N  N38  1  0.94700000  0.90570000  0.17400000  1.0 -0.2690005745
N  N39  1  0.94700000  0.59430000  0.67400000  1.0 -0.2690005745
N  N40  1  0.05300000  0.09430000  0.82600000  1.0 -0.2690005745
