# DDEC6 charges by PACMAN v1.1 (https://github.com/mtap-research/PACMAN-charge/)
data_NELNIF05_FSR_pacman
_symmetry_space_group_name_H-M   'P 1'
_cell_length_a   7.49760000
_cell_length_b   14.32830000
_cell_length_c   29.64100000
_cell_angle_alpha   90.00000000
_cell_angle_beta   90.00000000
_cell_angle_gamma   90.00000000
_symmetry_Int_Tables_number   1
_chemical_formula_structural   FeH20PtC31(SN3)2
_chemical_formula_sum   'Fe4 H80 Pt4 C124 S8 N24'
_cell_volume   3184.26925991
_cell_formula_units_Z   4
loop_
 _symmetry_equiv_pos_site_id
 _symmetry_equiv_pos_as_xyz
  1  'x, y, z'
loop_
 _atom_site_type_symbol
 _atom_site_label
 _atom_site_symmetry_multiplicity
 _atom_site_fract_x
 _atom_site_fract_y
 _atom_site_fract_z
 _atom_site_occupancy
 _atom_site_charge
Fe  Fe1  1  0.00000000  0.27010000  0.24145000  1.0 0.641853194
Fe  Fe2  1  0.00000000  0.72990000  0.75855000  1.0 0.641853194
Fe  Fe3  1  0.00000000  0.22990000  0.74145000  1.0 0.641853194
Fe  Fe4  1  0.00000000  0.77010000  0.25855000  1.0 0.641853194
H  H1  1  0.91650000  0.48353000  0.10244000  1.0 0.0599319139
H  H2  1  0.91960000  0.44059000  0.17751000  1.0 0.0599319139
H  H3  1  0.14816000  0.49551000  0.02870000  1.0 0.0906347923
H  H4  1  0.22058000  0.46450000  0.94547000  1.0 0.0810947511
H  H5  1  0.07744000  0.22708000  0.06794000  1.0 0.0731756913
H  H6  1  0.91316000  0.16374000  0.84402000  1.0 0.0810947511
H  H7  1  0.07991000  0.18417000  0.14294000  1.0 0.0810947511
H  H8  1  0.95676000  0.21332000  0.91655000  1.0 0.0810947511
H  H9  1  0.09715000  0.40736000  0.79764000  1.0 0.1010736257
H  H10  1  0.14160000  0.45685000  0.87088000  1.0 0.0810947511
H  H11  1  0.91650000  0.51647000  0.89756000  1.0 0.0599319139
H  H12  1  0.91960000  0.55941000  0.82249000  1.0 0.0599319139
H  H13  1  0.14816000  0.50449000  0.97130000  1.0 0.0906347923
H  H14  1  0.22058000  0.53550000  0.05453000  1.0 0.0810947511
H  H15  1  0.07744000  0.77292000  0.93206000  1.0 0.0731756913
H  H16  1  0.91316000  0.83626000  0.15598000  1.0 0.0810947511
H  H17  1  0.07991000  0.81583000  0.85706000  1.0 0.0810947511
H  H18  1  0.95676000  0.78668000  0.08345000  1.0 0.0810947511
H  H19  1  0.09715000  0.59264000  0.20236000  1.0 0.1010736257
H  H20  1  0.14160000  0.54315000  0.12912000  1.0 0.0810947511
H  H21  1  0.08350000  0.01647000  0.60244000  1.0 0.0599319139
H  H22  1  0.08040000  0.05941000  0.67751000  1.0 0.0599319139
H  H23  1  0.85184000  0.00449000  0.52870000  1.0 0.0906347923
H  H24  1  0.77942000  0.03550000  0.44547000  1.0 0.0810947511
H  H25  1  0.92256000  0.27292000  0.56794000  1.0 0.0731756913
H  H26  1  0.08684000  0.33626000  0.34402000  1.0 0.0810947511
H  H27  1  0.92009000  0.31583000  0.64294000  1.0 0.0810947511
H  H28  1  0.04324000  0.28668000  0.41655000  1.0 0.0810947511
H  H29  1  0.90285000  0.09264000  0.29764000  1.0 0.1010736257
H  H30  1  0.85840000  0.04315000  0.37088000  1.0 0.0810947511
H  H31  1  0.08350000  0.98353000  0.39756000  1.0 0.0599319139
H  H32  1  0.08040000  0.94059000  0.32249000  1.0 0.0599319139
H  H33  1  0.85184000  0.99551000  0.47130000  1.0 0.0906347923
H  H34  1  0.77942000  0.96450000  0.55453000  1.0 0.0810947511
H  H35  1  0.92256000  0.72708000  0.43206000  1.0 0.0731756913
H  H36  1  0.08684000  0.66374000  0.65598000  1.0 0.0810947511
H  H37  1  0.92009000  0.68417000  0.35706000  1.0 0.0810947511
H  H38  1  0.04324000  0.71332000  0.58345000  1.0 0.0810947511
H  H39  1  0.90285000  0.90736000  0.70236000  1.0 0.1010736257
H  H40  1  0.85840000  0.95685000  0.62912000  1.0 0.0810947511
H  H41  1  0.08350000  0.51647000  0.89756000  1.0 0.0599319139
H  H42  1  0.08040000  0.55941000  0.82249000  1.0 0.0599319139
H  H43  1  0.85184000  0.50449000  0.97130000  1.0 0.0906347923
H  H44  1  0.77942000  0.53550000  0.05453000  1.0 0.0810947511
H  H45  1  0.92256000  0.77292000  0.93206000  1.0 0.0731756913
H  H46  1  0.08684000  0.83626000  0.15598000  1.0 0.0810947511
H  H47  1  0.92009000  0.81583000  0.85706000  1.0 0.0810947511
H  H48  1  0.04324000  0.78668000  0.08345000  1.0 0.0810947511
H  H49  1  0.90285000  0.59264000  0.20236000  1.0 0.1010736257
H  H50  1  0.85840000  0.54315000  0.12912000  1.0 0.0810947511
H  H51  1  0.08350000  0.48353000  0.10244000  1.0 0.0599319139
H  H52  1  0.08040000  0.44059000  0.17751000  1.0 0.0599319139
H  H53  1  0.85184000  0.49551000  0.02870000  1.0 0.0906347923
H  H54  1  0.77942000  0.46450000  0.94547000  1.0 0.0810947511
H  H55  1  0.92256000  0.22708000  0.06794000  1.0 0.0731756913
H  H56  1  0.08684000  0.16374000  0.84402000  1.0 0.0810947511
H  H57  1  0.92009000  0.18417000  0.14294000  1.0 0.0810947511
H  H58  1  0.04324000  0.21332000  0.91655000  1.0 0.0810947511
H  H59  1  0.90285000  0.40736000  0.79764000  1.0 0.1010736257
H  H60  1  0.85840000  0.45685000  0.87088000  1.0 0.0810947511
H  H61  1  0.91650000  0.98353000  0.39756000  1.0 0.0599319139
H  H62  1  0.91960000  0.94059000  0.32249000  1.0 0.0599319139
H  H63  1  0.14816000  0.99551000  0.47130000  1.0 0.0906347923
H  H64  1  0.22058000  0.96450000  0.55453000  1.0 0.0810947511
H  H65  1  0.07744000  0.72708000  0.43206000  1.0 0.0731756913
H  H66  1  0.91316000  0.66374000  0.65598000  1.0 0.0810947511
H  H67  1  0.07991000  0.68417000  0.35706000  1.0 0.0810947511
H  H68  1  0.95676000  0.71332000  0.58345000  1.0 0.0810947511
H  H69  1  0.09715000  0.90736000  0.70236000  1.0 0.1010736257
H  H70  1  0.14160000  0.95685000  0.62912000  1.0 0.0810947511
H  H71  1  0.91650000  0.01647000  0.60244000  1.0 0.0599319139
H  H72  1  0.91960000  0.05941000  0.67751000  1.0 0.0599319139
H  H73  1  0.14816000  0.00449000  0.52870000  1.0 0.0906347923
H  H74  1  0.22058000  0.03550000  0.44547000  1.0 0.0810947511
H  H75  1  0.07744000  0.27292000  0.56794000  1.0 0.0731756913
H  H76  1  0.91316000  0.33626000  0.34402000  1.0 0.0810947511
H  H77  1  0.07991000  0.31583000  0.64294000  1.0 0.0810947511
H  H78  1  0.95676000  0.28668000  0.41655000  1.0 0.0810947511
H  H79  1  0.09715000  0.09264000  0.29764000  1.0 0.1010736257
H  H80  1  0.14160000  0.04315000  0.37088000  1.0 0.0810947511
Pt  Pt1  1  0.50000000  0.01885000  0.23759000  1.0 -0.0228632807
Pt  Pt2  1  0.50000000  0.98115000  0.76241000  1.0 -0.0228632807
Pt  Pt3  1  0.50000000  0.48115000  0.73759000  1.0 -0.0228632807
Pt  Pt4  1  0.50000000  0.51885000  0.26241000  1.0 -0.0228632807
C  C1  1  0.31000000  0.11290000  0.23290000  1.0 0.0906347923
C  C2  1  0.40500000  0.43700000  0.26000000  1.0 -0.0228632807
C  C3  1  0.04700000  0.24450000  0.13480000  1.0 0.0384235825
C  C4  1  0.04600000  0.27000000  0.09000000  1.0 -0.103617695
C  C5  1  0.95000000  0.42300000  0.11050000  1.0 -0.0461511368
C  C6  1  0.95100000  0.39800000  0.15540000  1.0 0.0087119143
C  C7  1  0.06900000  0.36800000  0.82160000  1.0 0.0087119143
C  C8  1  0.09500000  0.39770000  0.86540000  1.0 -0.0738970514
C  C9  1  0.05400000  0.33950000  0.90120000  1.0 0.0599319139
C  C10  1  0.98500000  0.25260000  0.89260000  1.0 -0.1820638988
C  C11  1  0.95900000  0.22300000  0.84930000  1.0 0.017254765
C  C12  1  0.03000000  0.36120000  0.02760000  1.0 -0.0103175956
C  C13  1  0.14600000  0.42990000  0.96410000  1.0 -0.242572787
C  C14  1  0.03600000  0.35250000  0.95120000  1.0 0.017254765
C  C15  1  0.11700000  0.44350000  0.01170000  1.0 -0.0275129029
C  C16  1  0.31000000  0.88710000  0.76710000  1.0 0.0906347923
C  C17  1  0.40500000  0.56300000  0.74000000  1.0 -0.0228632807
C  C18  1  0.04700000  0.75550000  0.86520000  1.0 0.0384235825
C  C19  1  0.04600000  0.73000000  0.91000000  1.0 -0.103617695
C  C20  1  0.95000000  0.57700000  0.88950000  1.0 -0.0461511368
C  C21  1  0.95100000  0.60200000  0.84460000  1.0 0.0087119143
C  C22  1  0.06900000  0.63200000  0.17840000  1.0 0.0087119143
C  C23  1  0.09500000  0.60230000  0.13460000  1.0 -0.0738970514
C  C24  1  0.05400000  0.66050000  0.09880000  1.0 0.0599319139
C  C25  1  0.98500000  0.74740000  0.10740000  1.0 -0.1820638988
C  C26  1  0.95900000  0.77700000  0.15070000  1.0 0.017254765
C  C27  1  0.03000000  0.63880000  0.97240000  1.0 -0.0103175956
C  C28  1  0.14600000  0.57010000  0.03590000  1.0 -0.242572787
C  C29  1  0.03600000  0.64750000  0.04880000  1.0 0.017254765
C  C30  1  0.11700000  0.55650000  0.98830000  1.0 -0.0275129029
C  C31  1  0.69000000  0.38710000  0.73290000  1.0 0.0906347923
C  C32  1  0.59500000  0.06300000  0.76000000  1.0 -0.0228632807
C  C33  1  0.95300000  0.25550000  0.63480000  1.0 0.0384235825
C  C34  1  0.95400000  0.23000000  0.59000000  1.0 -0.103617695
C  C35  1  0.05000000  0.07700000  0.61050000  1.0 -0.0461511368
C  C36  1  0.04900000  0.10200000  0.65540000  1.0 0.0087119143
C  C37  1  0.93100000  0.13200000  0.32160000  1.0 0.0087119143
C  C38  1  0.90500000  0.10230000  0.36540000  1.0 -0.0738970514
C  C39  1  0.94600000  0.16050000  0.40120000  1.0 0.0599319139
C  C40  1  0.01500000  0.24740000  0.39260000  1.0 -0.1820638988
C  C41  1  0.04100000  0.27700000  0.34930000  1.0 0.0087119143
C  C42  1  0.97000000  0.13880000  0.52760000  1.0 -0.0103175956
C  C43  1  0.85400000  0.07010000  0.46410000  1.0 -0.242572787
C  C44  1  0.96400000  0.14750000  0.45120000  1.0 0.017254765
C  C45  1  0.88300000  0.05650000  0.51170000  1.0 -0.0275129029
C  C46  1  0.69000000  0.61290000  0.26710000  1.0 0.0906347923
C  C47  1  0.59500000  0.93700000  0.24000000  1.0 -0.0275129029
C  C48  1  0.95300000  0.74450000  0.36520000  1.0 0.0384235825
C  C49  1  0.95400000  0.77000000  0.41000000  1.0 -0.103617695
C  C50  1  0.05000000  0.92300000  0.38950000  1.0 -0.0461511368
C  C51  1  0.04900000  0.89800000  0.34460000  1.0 0.0087119143
C  C52  1  0.93100000  0.86800000  0.67840000  1.0 0.0087119143
C  C53  1  0.90500000  0.89770000  0.63460000  1.0 -0.0738970514
C  C54  1  0.94600000  0.83950000  0.59880000  1.0 0.0599319139
C  C55  1  0.01500000  0.75260000  0.60740000  1.0 -0.1820638988
C  C56  1  0.04100000  0.72300000  0.65070000  1.0 0.0087119143
C  C57  1  0.97000000  0.86120000  0.47240000  1.0 -0.0103175956
C  C58  1  0.85400000  0.92990000  0.53590000  1.0 -0.242572787
C  C59  1  0.96400000  0.85250000  0.54880000  1.0 0.017254765
C  C60  1  0.88300000  0.94350000  0.48830000  1.0 -0.0275129029
C  C61  1  0.69000000  0.88710000  0.76710000  1.0 0.0906347923
C  C62  1  0.59500000  0.56300000  0.74000000  1.0 -0.0228632807
C  C63  1  0.95300000  0.75550000  0.86520000  1.0 0.0384235825
C  C64  1  0.95400000  0.73000000  0.91000000  1.0 -0.103617695
C  C65  1  0.05000000  0.57700000  0.88950000  1.0 -0.0461511368
C  C66  1  0.04900000  0.60200000  0.84460000  1.0 0.0087119143
C  C67  1  0.93100000  0.63200000  0.17840000  1.0 0.0087119143
C  C68  1  0.90500000  0.60230000  0.13460000  1.0 -0.0738970514
C  C69  1  0.94600000  0.66050000  0.09880000  1.0 0.0599319139
C  C70  1  0.01500000  0.74740000  0.10740000  1.0 -0.1820638988
C  C71  1  0.04100000  0.77700000  0.15070000  1.0 0.0087119143
C  C72  1  0.97000000  0.63880000  0.97240000  1.0 -0.0103175956
C  C73  1  0.85400000  0.57010000  0.03590000  1.0 -0.242572787
C  C74  1  0.96400000  0.64750000  0.04880000  1.0 0.017254765
C  C75  1  0.88300000  0.55650000  0.98830000  1.0 -0.0275129029
C  C76  1  0.69000000  0.11290000  0.23290000  1.0 0.0906347923
C  C77  1  0.59500000  0.43700000  0.26000000  1.0 -0.0228632807
C  C78  1  0.95300000  0.24450000  0.13480000  1.0 0.0384235825
C  C79  1  0.95400000  0.27000000  0.09000000  1.0 -0.103617695
C  C80  1  0.05000000  0.42300000  0.11050000  1.0 -0.0461511368
C  C81  1  0.04900000  0.39800000  0.15540000  1.0 0.0087119143
C  C82  1  0.93100000  0.36800000  0.82160000  1.0 0.0087119143
C  C83  1  0.90500000  0.39770000  0.86540000  1.0 -0.0738970514
C  C84  1  0.94600000  0.33950000  0.90120000  1.0 0.0599319139
C  C85  1  0.01500000  0.25260000  0.89260000  1.0 -0.1820638988
C  C86  1  0.04100000  0.22300000  0.84930000  1.0 0.0087119143
C  C87  1  0.97000000  0.36120000  0.02760000  1.0 -0.0103175956
C  C88  1  0.85400000  0.42990000  0.96410000  1.0 -0.242572787
C  C89  1  0.96400000  0.35250000  0.95120000  1.0 0.017254765
C  C90  1  0.88300000  0.44350000  0.01170000  1.0 -0.0275129029
C  C91  1  0.31000000  0.61290000  0.26710000  1.0 0.0906347923
C  C92  1  0.40500000  0.93700000  0.24000000  1.0 -0.0275129029
C  C93  1  0.04700000  0.74450000  0.36520000  1.0 0.0384235825
C  C94  1  0.04600000  0.77000000  0.41000000  1.0 -0.103617695
C  C95  1  0.95000000  0.92300000  0.38950000  1.0 -0.0461511368
C  C96  1  0.95100000  0.89800000  0.34460000  1.0 0.0087119143
C  C97  1  0.06900000  0.86800000  0.67840000  1.0 0.0087119143
C  C98  1  0.09500000  0.89770000  0.63460000  1.0 -0.0738970514
C  C99  1  0.05400000  0.83950000  0.59880000  1.0 0.0599319139
C  C100  1  0.98500000  0.75260000  0.60740000  1.0 -0.1820638988
C  C101  1  0.95900000  0.72300000  0.65070000  1.0 0.017254765
C  C102  1  0.03000000  0.86120000  0.47240000  1.0 -0.0103175956
C  C103  1  0.14600000  0.92990000  0.53590000  1.0 -0.242572787
C  C104  1  0.03600000  0.85250000  0.54880000  1.0 0.017254765
C  C105  1  0.11700000  0.94350000  0.48830000  1.0 -0.0275129029
C  C106  1  0.31000000  0.38710000  0.73290000  1.0 0.0906347923
C  C107  1  0.40500000  0.06300000  0.76000000  1.0 -0.0228632807
C  C108  1  0.04700000  0.25550000  0.63480000  1.0 0.0384235825
C  C109  1  0.04600000  0.23000000  0.59000000  1.0 -0.103617695
C  C110  1  0.95000000  0.07700000  0.61050000  1.0 -0.0461511368
C  C111  1  0.95100000  0.10200000  0.65540000  1.0 0.0087119143
C  C112  1  0.06900000  0.13200000  0.32160000  1.0 0.0087119143
C  C113  1  0.09500000  0.10230000  0.36540000  1.0 -0.0738970514
C  C114  1  0.05400000  0.16050000  0.40120000  1.0 0.0599319139
C  C115  1  0.98500000  0.24740000  0.39260000  1.0 -0.1820638988
C  C116  1  0.95900000  0.27700000  0.34930000  1.0 0.017254765
C  C117  1  0.03000000  0.13880000  0.52760000  1.0 -0.0103175956
C  C118  1  0.14600000  0.07010000  0.46410000  1.0 -0.242572787
C  C119  1  0.03600000  0.14750000  0.45120000  1.0 0.017254765
C  C120  1  0.11700000  0.05650000  0.51170000  1.0 -0.0275129029
C  C121  1  0.00000000  0.36000000  0.07760000  1.0 0.0384235825
C  C122  1  0.00000000  0.64000000  0.92240000  1.0 0.0384235825
C  C123  1  0.00000000  0.14000000  0.57760000  1.0 0.0384235825
C  C124  1  0.00000000  0.86000000  0.42240000  1.0 0.0384235825
S  S1  1  0.93400000  0.28600000  0.99080000  1.0 0.0599319139
S  S2  1  0.93400000  0.71400000  0.00920000  1.0 0.0599319139
S  S3  1  0.06600000  0.21400000  0.49080000  1.0 0.0599319139
S  S4  1  0.06600000  0.78600000  0.50920000  1.0 0.0599319139
S  S5  1  0.06600000  0.71400000  0.00920000  1.0 0.0599319139
S  S6  1  0.06600000  0.28600000  0.99080000  1.0 0.0599319139
S  S7  1  0.93400000  0.78600000  0.50920000  1.0 0.0599319139
S  S8  1  0.93400000  0.21400000  0.49080000  1.0 0.0599319139
N  N1  1  0.19400000  0.16920000  0.22800000  1.0 -0.3736012921
N  N2  1  0.19900000  0.37490000  0.25370000  1.0 -0.1820638988
N  N3  1  0.19400000  0.83080000  0.77200000  1.0 -0.3736012921
N  N4  1  0.19900000  0.62510000  0.74630000  1.0 -0.1820638988
N  N5  1  0.80600000  0.33080000  0.72800000  1.0 -0.3736012921
N  N6  1  0.80100000  0.12510000  0.75370000  1.0 -0.1820638988
N  N7  1  0.80600000  0.66920000  0.27200000  1.0 -0.3736012921
N  N8  1  0.80100000  0.87490000  0.24630000  1.0 -0.1820638988
N  N9  1  0.80600000  0.83080000  0.77200000  1.0 -0.3736012921
N  N10  1  0.80100000  0.62510000  0.74630000  1.0 -0.1820638988
N  N11  1  0.80600000  0.16920000  0.22800000  1.0 -0.3736012921
N  N12  1  0.80100000  0.37490000  0.25370000  1.0 -0.1820638988
N  N13  1  0.19400000  0.66920000  0.27200000  1.0 -0.3736012921
N  N14  1  0.19900000  0.87490000  0.24630000  1.0 -0.1820638988
N  N15  1  0.19400000  0.33080000  0.72800000  1.0 -0.3736012921
N  N16  1  0.19900000  0.12510000  0.75370000  1.0 -0.1820638988
N  N17  1  0.00000000  0.30800000  0.16770000  1.0 -0.1593014344
N  N18  1  0.00000000  0.28000000  0.81310000  1.0 -0.1400758296
N  N19  1  0.00000000  0.69200000  0.83230000  1.0 -0.1593014344
N  N20  1  0.00000000  0.72000000  0.18690000  1.0 -0.1400758296
N  N21  1  0.00000000  0.19200000  0.66770000  1.0 -0.1593014344
N  N22  1  0.00000000  0.22000000  0.31310000  1.0 -0.1400758296
N  N23  1  0.00000000  0.80800000  0.33230000  1.0 -0.1593014344
N  N24  1  0.00000000  0.78000000  0.68690000  1.0 -0.1400758296
