# DDEC6 charges by PACMAN v1.1 (https://github.com/mtap-research/PACMAN-charge/)
data_NELNIF02_ASR_pacman
_symmetry_space_group_name_H-M   'P 1'
_cell_length_a   7.46750000
_cell_length_b   14.29110000
_cell_length_c   29.54990000
_cell_angle_alpha   90.00000000
_cell_angle_beta   90.00000000
_cell_angle_gamma   90.00000000
_symmetry_Int_Tables_number   1
_chemical_formula_structural   FeH16PtC26(SN3)2
_chemical_formula_sum   'Fe4 H64 Pt4 C104 S8 N24'
_cell_volume   3153.52955046
_cell_formula_units_Z   4
loop_
 _symmetry_equiv_pos_site_id
 _symmetry_equiv_pos_as_xyz
  1  'x, y, z'
loop_
 _atom_site_type_symbol
 _atom_site_label
 _atom_site_symmetry_multiplicity
 _atom_site_fract_x
 _atom_site_fract_y
 _atom_site_fract_z
 _atom_site_occupancy
 _atom_site_charge
Fe  Fe1  1  0.00000000  0.26427000  0.24448000  1.0 0.8082346656
Fe  Fe2  1  0.00000000  0.73573000  0.75552000  1.0 0.8082346656
Fe  Fe3  1  0.00000000  0.23573000  0.74448000  1.0 0.8036810495
Fe  Fe4  1  0.00000000  0.76427000  0.25552000  1.0 0.8082346656
H  H1  1  0.13067000  0.50053000  0.03240000  1.0 0.089980421
H  H2  1  0.12154000  0.49575000  0.94777000  1.0 0.0811198451
H  H3  1  0.97771000  0.58062000  0.19764000  1.0 0.132052416
H  H4  1  0.03831000  0.84438000  0.15720000  1.0 0.1021527336
H  H5  1  0.03231000  0.46879000  0.87476000  1.0 0.1021527336
H  H6  1  0.08745000  0.79537000  0.08460000  1.0 0.0811198451
H  H7  1  0.13067000  0.49947000  0.96760000  1.0 0.089980421
H  H8  1  0.12154000  0.50425000  0.05223000  1.0 0.0811198451
H  H9  1  0.97771000  0.41938000  0.80236000  1.0 0.132052416
H  H10  1  0.03831000  0.15562000  0.84280000  1.0 0.1021527336
H  H11  1  0.03231000  0.53121000  0.12524000  1.0 0.1021527336
H  H12  1  0.08745000  0.20463000  0.91540000  1.0 0.0811198451
H  H13  1  0.86933000  0.99947000  0.53240000  1.0 0.089980421
H  H14  1  0.87846000  0.00425000  0.44777000  1.0 0.0811198451
H  H15  1  0.02229000  0.91938000  0.69764000  1.0 0.132052416
H  H16  1  0.96169000  0.65562000  0.65720000  1.0 0.1021527336
H  H17  1  0.96769000  0.03121000  0.37476000  1.0 0.1021527336
H  H18  1  0.91255000  0.70463000  0.58460000  1.0 0.0811198451
H  H19  1  0.86933000  0.00053000  0.46760000  1.0 0.089980421
H  H20  1  0.87846000  0.99575000  0.55223000  1.0 0.0811198451
H  H21  1  0.02229000  0.08062000  0.30236000  1.0 0.132052416
H  H22  1  0.96169000  0.34438000  0.34280000  1.0 0.1021527336
H  H23  1  0.96769000  0.96879000  0.62524000  1.0 0.1021527336
H  H24  1  0.91255000  0.29537000  0.41540000  1.0 0.0811198451
H  H25  1  0.86933000  0.49947000  0.96760000  1.0 0.089980421
H  H26  1  0.87846000  0.50425000  0.05223000  1.0 0.0811198451
H  H27  1  0.02229000  0.41938000  0.80236000  1.0 0.132052416
H  H28  1  0.96169000  0.15562000  0.84280000  1.0 0.1021527336
H  H29  1  0.96769000  0.53121000  0.12524000  1.0 0.1021527336
H  H30  1  0.91255000  0.20463000  0.91540000  1.0 0.0811198451
H  H31  1  0.86933000  0.50053000  0.03240000  1.0 0.089980421
H  H32  1  0.87846000  0.49575000  0.94777000  1.0 0.0811198451
H  H33  1  0.02229000  0.58062000  0.19764000  1.0 0.132052416
H  H34  1  0.96169000  0.84438000  0.15720000  1.0 0.1021527336
H  H35  1  0.96769000  0.46879000  0.87476000  1.0 0.1021527336
H  H36  1  0.91255000  0.79537000  0.08460000  1.0 0.0811198451
H  H37  1  0.13067000  0.00053000  0.46760000  1.0 0.089980421
H  H38  1  0.12154000  0.99575000  0.55223000  1.0 0.0811198451
H  H39  1  0.97771000  0.08062000  0.30236000  1.0 0.132052416
H  H40  1  0.03831000  0.34438000  0.34280000  1.0 0.1021527336
H  H41  1  0.03231000  0.96879000  0.62524000  1.0 0.1021527336
H  H42  1  0.08745000  0.29537000  0.41540000  1.0 0.0811198451
H  H43  1  0.13067000  0.99947000  0.53240000  1.0 0.089980421
H  H44  1  0.12154000  0.00425000  0.44777000  1.0 0.0811198451
H  H45  1  0.97771000  0.91938000  0.69764000  1.0 0.132052416
H  H46  1  0.03831000  0.65562000  0.65720000  1.0 0.1021527336
H  H47  1  0.03231000  0.03121000  0.37476000  1.0 0.1021527336
H  H48  1  0.08745000  0.70463000  0.58460000  1.0 0.0811198451
H  H49  1  0.00000000  0.17304000  0.14975000  1.0 0.1115653726
H  H50  1  0.00000000  0.44358000  0.18230000  1.0 0.089980421
H  H51  1  0.00000000  0.21197000  0.07436000  1.0 0.1021527336
H  H52  1  0.00000000  0.48244000  0.10692000  1.0 0.0811198451
H  H53  1  0.00000000  0.82696000  0.85025000  1.0 0.1115653726
H  H54  1  0.00000000  0.55642000  0.81770000  1.0 0.089980421
H  H55  1  0.00000000  0.78803000  0.92564000  1.0 0.1021527336
H  H56  1  0.00000000  0.51756000  0.89308000  1.0 0.0811198451
H  H57  1  0.00000000  0.32696000  0.64975000  1.0 0.1115653726
H  H58  1  0.00000000  0.05642000  0.68230000  1.0 0.089980421
H  H59  1  0.00000000  0.28803000  0.57436000  1.0 0.1021527336
H  H60  1  0.00000000  0.01756000  0.60692000  1.0 0.0811198451
H  H61  1  0.00000000  0.67304000  0.35025000  1.0 0.1115653726
H  H62  1  0.00000000  0.94358000  0.31770000  1.0 0.089980421
H  H63  1  0.00000000  0.71197000  0.42564000  1.0 0.1021527336
H  H64  1  0.00000000  0.98244000  0.39308000  1.0 0.0811198451
Pt  Pt1  1  0.50000000  0.01423000  0.23783000  1.0 0.0115367682
Pt  Pt2  1  0.50000000  0.98577000  0.76217000  1.0 0.0115367682
Pt  Pt3  1  0.50000000  0.48577000  0.73783000  1.0 0.0115367682
Pt  Pt4  1  0.50000000  0.51423000  0.26217000  1.0 0.0115367682
C  C1  1  0.31310000  0.10910000  0.23390000  1.0 0.0496760705
C  C2  1  0.69100000  0.91850000  0.24080000  1.0 0.039893396
C  C3  1  0.02800000  0.36350000  0.03190000  1.0 -0.0062911324
C  C4  1  0.09200000  0.45020000  0.01490000  1.0 -0.0418148932
C  C5  1  0.02400000  0.35810000  0.95350000  1.0 -0.0418148932
C  C6  1  0.08800000  0.44740000  0.96700000  1.0 -0.1130793644
C  C7  1  0.06600000  0.34300000  0.90370000  1.0 0.0555071261
C  C8  1  0.03500000  0.78060000  0.15090000  1.0 0.039893396
C  C9  1  0.03300000  0.40500000  0.86860000  1.0 -0.078892621
C  C10  1  0.06600000  0.75130000  0.10710000  1.0 -0.078892621
C  C11  1  0.31310000  0.89090000  0.76610000  1.0 0.0496760705
C  C12  1  0.69100000  0.08150000  0.75920000  1.0 0.039893396
C  C13  1  0.02800000  0.63650000  0.96810000  1.0 -0.0062911324
C  C14  1  0.09200000  0.54980000  0.98510000  1.0 -0.0456755645
C  C15  1  0.02400000  0.64190000  0.04650000  1.0 -0.0418148932
C  C16  1  0.08800000  0.55260000  0.03300000  1.0 -0.1130793644
C  C17  1  0.06600000  0.65700000  0.09630000  1.0 0.0555071261
C  C18  1  0.03500000  0.21940000  0.84910000  1.0 0.039893396
C  C19  1  0.03300000  0.59500000  0.13140000  1.0 -0.078892621
C  C20  1  0.06600000  0.24870000  0.89290000  1.0 -0.078892621
C  C21  1  0.68690000  0.39090000  0.73390000  1.0 0.0496760705
C  C22  1  0.30900000  0.58150000  0.74080000  1.0 0.039893396
C  C23  1  0.97200000  0.13650000  0.53190000  1.0 -0.0049321779
C  C24  1  0.90800000  0.04980000  0.51490000  1.0 -0.0418148932
C  C25  1  0.97600000  0.14190000  0.45350000  1.0 -0.0418148932
C  C26  1  0.91200000  0.05260000  0.46700000  1.0 -0.1130793644
C  C27  1  0.93400000  0.15700000  0.40370000  1.0 0.0555071261
C  C28  1  0.96500000  0.71940000  0.65090000  1.0 0.039893396
C  C29  1  0.96700000  0.09500000  0.36860000  1.0 -0.078892621
C  C30  1  0.93400000  0.74870000  0.60710000  1.0 -0.078892621
C  C31  1  0.68690000  0.60910000  0.26610000  1.0 0.0496760705
C  C32  1  0.30900000  0.41850000  0.25920000  1.0 0.039893396
C  C33  1  0.97200000  0.86350000  0.46810000  1.0 -0.0062911324
C  C34  1  0.90800000  0.95020000  0.48510000  1.0 -0.0418148932
C  C35  1  0.97600000  0.85810000  0.54650000  1.0 -0.0418148932
C  C36  1  0.91200000  0.94740000  0.53300000  1.0 -0.1130793644
C  C37  1  0.93400000  0.84300000  0.59630000  1.0 0.0555071261
C  C38  1  0.96500000  0.28060000  0.34910000  1.0 0.039893396
C  C39  1  0.96700000  0.90500000  0.63140000  1.0 -0.078892621
C  C40  1  0.93400000  0.25130000  0.39290000  1.0 -0.0745865218
C  C41  1  0.68690000  0.89090000  0.76610000  1.0 0.0496760705
C  C42  1  0.30900000  0.08150000  0.75920000  1.0 0.039893396
C  C43  1  0.97200000  0.63650000  0.96810000  1.0 -0.0062911324
C  C44  1  0.90800000  0.54980000  0.98510000  1.0 -0.0456755645
C  C45  1  0.97600000  0.64190000  0.04650000  1.0 -0.0418148932
C  C46  1  0.91200000  0.55260000  0.03300000  1.0 -0.1130793644
C  C47  1  0.93400000  0.65700000  0.09630000  1.0 0.0555071261
C  C48  1  0.96500000  0.21940000  0.84910000  1.0 0.039893396
C  C49  1  0.96700000  0.59500000  0.13140000  1.0 -0.078892621
C  C50  1  0.93400000  0.24870000  0.89290000  1.0 -0.0745865218
C  C51  1  0.68690000  0.10910000  0.23390000  1.0 0.0496760705
C  C52  1  0.30900000  0.91850000  0.24080000  1.0 0.039893396
C  C53  1  0.97200000  0.36350000  0.03190000  1.0 -0.0049321779
C  C54  1  0.90800000  0.45020000  0.01490000  1.0 -0.0418148932
C  C55  1  0.97600000  0.35810000  0.95350000  1.0 -0.0418148932
C  C56  1  0.91200000  0.44740000  0.96700000  1.0 -0.1130793644
C  C57  1  0.93400000  0.34300000  0.90370000  1.0 0.0555071261
C  C58  1  0.96500000  0.78060000  0.15090000  1.0 0.039893396
C  C59  1  0.96700000  0.40500000  0.86860000  1.0 -0.078892621
C  C60  1  0.93400000  0.75130000  0.10710000  1.0 -0.078892621
C  C61  1  0.31310000  0.60910000  0.26610000  1.0 0.0496760705
C  C62  1  0.69100000  0.41850000  0.25920000  1.0 0.039893396
C  C63  1  0.02800000  0.86350000  0.46810000  1.0 -0.0062911324
C  C64  1  0.09200000  0.95020000  0.48510000  1.0 -0.0418148932
C  C65  1  0.02400000  0.85810000  0.54650000  1.0 -0.0418148932
C  C66  1  0.08800000  0.94740000  0.53300000  1.0 -0.1130793644
C  C67  1  0.06600000  0.84300000  0.59630000  1.0 0.0555071261
C  C68  1  0.03500000  0.28060000  0.34910000  1.0 0.039893396
C  C69  1  0.03300000  0.90500000  0.63140000  1.0 -0.078892621
C  C70  1  0.06600000  0.25130000  0.39290000  1.0 -0.078892621
C  C71  1  0.31310000  0.39090000  0.73390000  1.0 0.0496760705
C  C72  1  0.69100000  0.58150000  0.74080000  1.0 0.039893396
C  C73  1  0.02800000  0.13650000  0.53190000  1.0 -0.0062911324
C  C74  1  0.09200000  0.04980000  0.51490000  1.0 -0.0418148932
C  C75  1  0.02400000  0.14190000  0.45350000  1.0 -0.0418148932
C  C76  1  0.08800000  0.05260000  0.46700000  1.0 -0.1130793644
C  C77  1  0.06600000  0.15700000  0.40370000  1.0 0.0496760705
C  C78  1  0.03500000  0.71940000  0.65090000  1.0 0.039893396
C  C79  1  0.03300000  0.09500000  0.36860000  1.0 -0.078892621
C  C80  1  0.06600000  0.74870000  0.60710000  1.0 -0.078892621
C  C81  1  0.00000000  0.23580000  0.14130000  1.0 0.115264792
C  C82  1  0.00000000  0.39640000  0.16060000  1.0 0.025871804
C  C83  1  0.00000000  0.25920000  0.09600000  1.0 -0.2358949743
C  C84  1  0.00000000  0.41970000  0.11530000  1.0 -0.2816219963
C  C85  1  0.00000000  0.35130000  0.08220000  1.0 0.115264792
C  C86  1  0.00000000  0.62450000  0.17510000  1.0 -0.0745865218
C  C87  1  0.00000000  0.76420000  0.85870000  1.0 0.115264792
C  C88  1  0.00000000  0.60360000  0.83940000  1.0 0.025871804
C  C89  1  0.00000000  0.74080000  0.90400000  1.0 -0.2346017025
C  C90  1  0.00000000  0.58030000  0.88470000  1.0 -0.2816219963
C  C91  1  0.00000000  0.64870000  0.91780000  1.0 0.1115653726
C  C92  1  0.00000000  0.37550000  0.82490000  1.0 -0.0745865218
C  C93  1  0.00000000  0.26420000  0.64130000  1.0 0.1115653726
C  C94  1  0.00000000  0.10360000  0.66060000  1.0 0.025871804
C  C95  1  0.00000000  0.24080000  0.59600000  1.0 -0.2358949743
C  C96  1  0.00000000  0.08030000  0.61530000  1.0 -0.2816219963
C  C97  1  0.00000000  0.14870000  0.58220000  1.0 0.1115653726
C  C98  1  0.00000000  0.87550000  0.67510000  1.0 -0.0745865218
C  C99  1  0.00000000  0.73580000  0.35870000  1.0 0.1115653726
C  C100  1  0.00000000  0.89640000  0.33940000  1.0 0.025871804
C  C101  1  0.00000000  0.75920000  0.40400000  1.0 -0.2346017025
C  C102  1  0.00000000  0.91970000  0.38470000  1.0 -0.2816219963
C  C103  1  0.00000000  0.85130000  0.41780000  1.0 0.1115653726
C  C104  1  0.00000000  0.12450000  0.32490000  1.0 -0.0745865218
S  S1  1  0.93640000  0.28600000  0.99430000  1.0 0.0496760705
S  S2  1  0.93640000  0.71400000  0.00570000  1.0 0.0496760705
S  S3  1  0.06360000  0.21400000  0.49430000  1.0 0.0496760705
S  S4  1  0.06360000  0.78600000  0.50570000  1.0 0.0496760705
S  S5  1  0.06360000  0.71400000  0.00570000  1.0 0.039893396
S  S6  1  0.06360000  0.28600000  0.99430000  1.0 0.0496760705
S  S7  1  0.93640000  0.78600000  0.50570000  1.0 0.0496760705
S  S8  1  0.93640000  0.21400000  0.49430000  1.0 0.0496760705
N  N1  1  0.19680000  0.16420000  0.23260000  1.0 -0.3509418759
N  N2  1  0.19900000  0.36530000  0.25660000  1.0 -0.3509418759
N  N3  1  0.19680000  0.83580000  0.76740000  1.0 -0.3509418759
N  N4  1  0.19900000  0.63470000  0.74340000  1.0 -0.3509418759
N  N5  1  0.80320000  0.33580000  0.73260000  1.0 -0.3509418759
N  N6  1  0.80100000  0.13470000  0.75660000  1.0 -0.3509418759
N  N7  1  0.80320000  0.66420000  0.26740000  1.0 -0.3509418759
N  N8  1  0.80100000  0.86530000  0.24340000  1.0 -0.3509418759
N  N9  1  0.80320000  0.83580000  0.76740000  1.0 -0.3509418759
N  N10  1  0.80100000  0.63470000  0.74340000  1.0 -0.3509418759
N  N11  1  0.80320000  0.16420000  0.23260000  1.0 -0.3509418759
N  N12  1  0.80100000  0.36530000  0.25660000  1.0 -0.3509418759
N  N13  1  0.19680000  0.66420000  0.26740000  1.0 -0.3509418759
N  N14  1  0.19900000  0.86530000  0.24340000  1.0 -0.3509418759
N  N15  1  0.19680000  0.33580000  0.73260000  1.0 -0.3509418759
N  N16  1  0.19900000  0.13470000  0.75660000  1.0 -0.3509418759
N  N17  1  0.00000000  0.30380000  0.17420000  1.0 -0.2103476114
N  N18  1  0.00000000  0.21920000  0.31430000  1.0 -0.171532359
N  N19  1  0.00000000  0.69620000  0.82580000  1.0 -0.2103476114
N  N20  1  0.00000000  0.78080000  0.68570000  1.0 -0.171532359
N  N21  1  0.00000000  0.19620000  0.67420000  1.0 -0.2103476114
N  N22  1  0.00000000  0.28080000  0.81430000  1.0 -0.171532359
N  N23  1  0.00000000  0.80380000  0.32580000  1.0 -0.2103476114
N  N24  1  0.00000000  0.71920000  0.18570000  1.0 -0.171532359
