# DDEC6 charges by PACMAN v1.1 (https://github.com/mtap-research/PACMAN-charge/)
data_NELNIF01_ASR_pacman
_symmetry_space_group_name_H-M   'P 1'
_cell_length_a   7.50110000
_cell_length_b   14.44360000
_cell_length_c   29.69200000
_cell_angle_alpha   90.00000000
_cell_angle_beta   90.00000000
_cell_angle_gamma   90.00000000
_symmetry_Int_Tables_number   1
_chemical_formula_structural   FeH20PtC32(SN3)2
_chemical_formula_sum   'Fe4 H80 Pt4 C128 S8 N24'
_cell_volume   3216.91702931
_cell_formula_units_Z   4
loop_
 _symmetry_equiv_pos_site_id
 _symmetry_equiv_pos_as_xyz
  1  'x, y, z'
loop_
 _atom_site_type_symbol
 _atom_site_label
 _atom_site_symmetry_multiplicity
 _atom_site_fract_x
 _atom_site_fract_y
 _atom_site_fract_z
 _atom_site_occupancy
 _atom_site_charge
Fe  Fe1  1  0.00000000  0.25786000  0.24685000  1.0 0.7384015428
Fe  Fe2  1  0.00000000  0.74214000  0.75315000  1.0 0.7384015428
Fe  Fe3  1  0.00000000  0.24214000  0.74685000  1.0 0.7384015428
Fe  Fe4  1  0.00000000  0.75786000  0.25315000  1.0 0.7384015428
H  H1  1  0.10959000  0.18096000  0.14894000  1.0 0.1128303469
H  H2  1  0.10518000  0.22487000  0.07484000  1.0 0.0887423398
H  H3  1  0.88147000  0.46547000  0.10996000  1.0 0.0707590612
H  H4  1  0.88818000  0.42102000  0.18450000  1.0 0.0998816298
H  H5  1  0.13363000  0.40741000  0.80564000  1.0 0.1189437187
H  H6  1  0.17273000  0.45032000  0.87966000  1.0 0.0807462817
H  H7  1  0.91224000  0.22242000  0.91885000  1.0 0.0807462817
H  H8  1  0.87671000  0.17884000  0.84494000  1.0 0.1189437187
H  H9  1  0.18261000  0.48423000  0.03747000  1.0 0.0887423398
H  H10  1  0.19405000  0.47812000  0.95296000  1.0 0.0807462817
H  H11  1  0.10959000  0.81904000  0.85106000  1.0 0.1128303469
H  H12  1  0.10518000  0.77513000  0.92516000  1.0 0.0887423398
H  H13  1  0.88147000  0.53453000  0.89004000  1.0 0.0707590612
H  H14  1  0.88818000  0.57898000  0.81550000  1.0 0.0998816298
H  H15  1  0.13363000  0.59259000  0.19436000  1.0 0.1189437187
H  H16  1  0.17273000  0.54968000  0.12034000  1.0 0.0807462817
H  H17  1  0.91224000  0.77758000  0.08115000  1.0 0.0807462817
H  H18  1  0.87671000  0.82116000  0.15506000  1.0 0.1189437187
H  H19  1  0.18261000  0.51577000  0.96253000  1.0 0.0887423398
H  H20  1  0.19405000  0.52188000  0.04704000  1.0 0.0807462817
H  H21  1  0.89041000  0.31904000  0.64894000  1.0 0.1128303469
H  H22  1  0.89482000  0.27513000  0.57484000  1.0 0.0887423398
H  H23  1  0.11853000  0.03453000  0.60996000  1.0 0.0707590612
H  H24  1  0.11182000  0.07898000  0.68450000  1.0 0.0998816298
H  H25  1  0.86637000  0.09259000  0.30564000  1.0 0.1189437187
H  H26  1  0.82727000  0.04968000  0.37966000  1.0 0.0807462817
H  H27  1  0.08776000  0.27758000  0.41885000  1.0 0.0807462817
H  H28  1  0.12329000  0.32116000  0.34494000  1.0 0.1189437187
H  H29  1  0.81739000  0.01577000  0.53747000  1.0 0.0887423398
H  H30  1  0.80595000  0.02188000  0.45296000  1.0 0.0807462817
H  H31  1  0.89041000  0.68096000  0.35106000  1.0 0.1128303469
H  H32  1  0.89482000  0.72487000  0.42516000  1.0 0.0887423398
H  H33  1  0.11853000  0.96547000  0.39004000  1.0 0.0707590612
H  H34  1  0.11182000  0.92102000  0.31550000  1.0 0.0998816298
H  H35  1  0.86637000  0.90741000  0.69436000  1.0 0.1189437187
H  H36  1  0.82727000  0.95032000  0.62034000  1.0 0.0807462817
H  H37  1  0.08776000  0.72242000  0.58115000  1.0 0.0807462817
H  H38  1  0.12329000  0.67884000  0.65506000  1.0 0.1189437187
H  H39  1  0.81739000  0.98423000  0.46253000  1.0 0.0887423398
H  H40  1  0.80595000  0.97812000  0.54704000  1.0 0.0807462817
H  H41  1  0.89041000  0.81904000  0.85106000  1.0 0.1128303469
H  H42  1  0.89482000  0.77513000  0.92516000  1.0 0.0887423398
H  H43  1  0.11853000  0.53453000  0.89004000  1.0 0.0707590612
H  H44  1  0.11182000  0.57898000  0.81550000  1.0 0.0998816298
H  H45  1  0.86637000  0.59259000  0.19436000  1.0 0.1189437187
H  H46  1  0.82727000  0.54968000  0.12034000  1.0 0.0807462817
H  H47  1  0.08776000  0.77758000  0.08115000  1.0 0.0807462817
H  H48  1  0.12329000  0.82116000  0.15506000  1.0 0.1189437187
H  H49  1  0.81739000  0.51577000  0.96253000  1.0 0.0887423398
H  H50  1  0.80595000  0.52188000  0.04704000  1.0 0.0807462817
H  H51  1  0.89041000  0.18096000  0.14894000  1.0 0.1128303469
H  H52  1  0.89482000  0.22487000  0.07484000  1.0 0.0887423398
H  H53  1  0.11853000  0.46547000  0.10996000  1.0 0.0707590612
H  H54  1  0.11182000  0.42102000  0.18450000  1.0 0.0998816298
H  H55  1  0.86637000  0.40741000  0.80564000  1.0 0.1189437187
H  H56  1  0.82727000  0.45032000  0.87966000  1.0 0.0807462817
H  H57  1  0.08776000  0.22242000  0.91885000  1.0 0.0807462817
H  H58  1  0.12329000  0.17884000  0.84494000  1.0 0.1189437187
H  H59  1  0.81739000  0.48423000  0.03747000  1.0 0.0887423398
H  H60  1  0.80595000  0.47812000  0.95296000  1.0 0.0807462817
H  H61  1  0.10959000  0.68096000  0.35106000  1.0 0.1128303469
H  H62  1  0.10518000  0.72487000  0.42516000  1.0 0.0887423398
H  H63  1  0.88147000  0.96547000  0.39004000  1.0 0.0707590612
H  H64  1  0.88818000  0.92102000  0.31550000  1.0 0.0998816298
H  H65  1  0.13363000  0.90741000  0.69436000  1.0 0.1189437187
H  H66  1  0.17273000  0.95032000  0.62034000  1.0 0.0807462817
H  H67  1  0.91224000  0.72242000  0.58115000  1.0 0.0807462817
H  H68  1  0.87671000  0.67884000  0.65506000  1.0 0.1189437187
H  H69  1  0.18261000  0.98423000  0.46253000  1.0 0.0887423398
H  H70  1  0.19405000  0.97812000  0.54704000  1.0 0.0807462817
H  H71  1  0.10959000  0.31904000  0.64894000  1.0 0.1128303469
H  H72  1  0.10518000  0.27513000  0.57484000  1.0 0.0887423398
H  H73  1  0.88147000  0.03453000  0.60996000  1.0 0.0707590612
H  H74  1  0.88818000  0.07898000  0.68450000  1.0 0.0998816298
H  H75  1  0.13363000  0.09259000  0.30564000  1.0 0.1189437187
H  H76  1  0.17273000  0.04968000  0.37966000  1.0 0.0807462817
H  H77  1  0.91224000  0.27758000  0.41885000  1.0 0.0807462817
H  H78  1  0.87671000  0.32116000  0.34494000  1.0 0.1189437187
H  H79  1  0.18261000  0.01577000  0.53747000  1.0 0.0887423398
H  H80  1  0.19405000  0.02188000  0.45296000  1.0 0.0807462817
Pt  Pt1  1  0.50000000  0.00747000  0.23773000  1.0 0.0887423398
Pt  Pt2  1  0.50000000  0.99253000  0.76227000  1.0 0.0887423398
Pt  Pt3  1  0.50000000  0.49253000  0.73773000  1.0 0.0887423398
Pt  Pt4  1  0.50000000  0.50747000  0.26227000  1.0 0.0887423398
C  C1  1  0.31270000  0.10330000  0.23530000  1.0 0.0310821804
C  C2  1  0.31290000  0.41240000  0.26080000  1.0 0.0208202737
C  C3  1  0.06350000  0.23860000  0.14130000  1.0 0.0208202737
C  C4  1  0.06080000  0.26480000  0.09670000  1.0 -0.0990755498
C  C5  1  0.99310000  0.34960000  0.08410000  1.0 0.0310821804
C  C6  1  0.92800000  0.40790000  0.11770000  1.0 -0.0359457401
C  C7  1  0.93200000  0.38130000  0.16240000  1.0 0.0097821064
C  C8  1  0.09000000  0.36980000  0.82850000  1.0 -0.046525145
C  C9  1  0.11400000  0.39550000  0.87290000  1.0 -0.1408503881
C  C10  1  0.05000000  0.33970000  0.90730000  1.0 0.0579171511
C  C11  1  0.95900000  0.25950000  0.89610000  1.0 -0.0710295421
C  C12  1  0.93600000  0.23370000  0.85170000  1.0 0.0208202737
C  C13  1  0.04900000  0.35580000  0.03510000  1.0 0.0020083246
C  C14  1  0.13700000  0.43720000  0.01950000  1.0 -0.1408503881
C  C15  1  0.14200000  0.43420000  0.97180000  1.0 -0.2072497463
C  C16  1  0.05400000  0.35160000  0.95790000  1.0 0.0020083246
C  C17  1  0.31270000  0.89670000  0.76470000  1.0 0.0310821804
C  C18  1  0.31290000  0.58760000  0.73920000  1.0 0.0208202737
C  C19  1  0.06350000  0.76140000  0.85870000  1.0 0.0208202737
C  C20  1  0.06080000  0.73520000  0.90330000  1.0 -0.0990755498
C  C21  1  0.99310000  0.65040000  0.91590000  1.0 0.0310821804
C  C22  1  0.92800000  0.59210000  0.88230000  1.0 -0.0347957616
C  C23  1  0.93200000  0.61870000  0.83760000  1.0 0.0097821064
C  C24  1  0.09000000  0.63020000  0.17150000  1.0 -0.046525145
C  C25  1  0.11400000  0.60450000  0.12710000  1.0 -0.1408503881
C  C26  1  0.05000000  0.66030000  0.09270000  1.0 0.0579171511
C  C27  1  0.95900000  0.74050000  0.10390000  1.0 -0.0710295421
C  C28  1  0.93600000  0.76630000  0.14830000  1.0 0.0208202737
C  C29  1  0.04900000  0.64420000  0.96490000  1.0 0.0020083246
C  C30  1  0.13700000  0.56280000  0.98050000  1.0 -0.1408503881
C  C31  1  0.14200000  0.56580000  0.02820000  1.0 -0.2072497463
C  C32  1  0.05400000  0.64840000  0.04210000  1.0 0.0020083246
C  C33  1  0.68730000  0.39670000  0.73530000  1.0 0.0310821804
C  C34  1  0.68710000  0.08760000  0.76080000  1.0 0.0208202737
C  C35  1  0.93650000  0.26140000  0.64130000  1.0 0.0310821804
C  C36  1  0.93920000  0.23520000  0.59670000  1.0 -0.0990755498
C  C37  1  0.00690000  0.15040000  0.58410000  1.0 0.0310821804
C  C38  1  0.07200000  0.09210000  0.61770000  1.0 -0.0359457401
C  C39  1  0.06800000  0.11870000  0.66240000  1.0 0.0097821064
C  C40  1  0.91000000  0.13020000  0.32850000  1.0 -0.046525145
C  C41  1  0.88600000  0.10450000  0.37290000  1.0 -0.1408503881
C  C42  1  0.95000000  0.16030000  0.40730000  1.0 0.0579171511
C  C43  1  0.04100000  0.24050000  0.39610000  1.0 -0.0710295421
C  C44  1  0.06400000  0.26630000  0.35170000  1.0 0.0208202737
C  C45  1  0.95100000  0.14420000  0.53510000  1.0 0.0020083246
C  C46  1  0.86300000  0.06280000  0.51950000  1.0 -0.1408503881
C  C47  1  0.85800000  0.06580000  0.47180000  1.0 -0.2072497463
C  C48  1  0.94600000  0.14840000  0.45790000  1.0 0.0020083246
C  C49  1  0.68730000  0.60330000  0.26470000  1.0 0.0310821804
C  C50  1  0.68710000  0.91240000  0.23920000  1.0 0.0208202737
C  C51  1  0.93650000  0.73860000  0.35870000  1.0 0.0310821804
C  C52  1  0.93920000  0.76480000  0.40330000  1.0 -0.0990755498
C  C53  1  0.00690000  0.84960000  0.41590000  1.0 0.0310821804
C  C54  1  0.07200000  0.90790000  0.38230000  1.0 -0.0359457401
C  C55  1  0.06800000  0.88130000  0.33760000  1.0 0.0097821064
C  C56  1  0.91000000  0.86980000  0.67150000  1.0 -0.046525145
C  C57  1  0.88600000  0.89550000  0.62710000  1.0 -0.1408503881
C  C58  1  0.95000000  0.83970000  0.59270000  1.0 0.0579171511
C  C59  1  0.04100000  0.75950000  0.60390000  1.0 -0.0710295421
C  C60  1  0.06400000  0.73370000  0.64830000  1.0 0.0208202737
C  C61  1  0.95100000  0.85580000  0.46490000  1.0 0.0020083246
C  C62  1  0.86300000  0.93720000  0.48050000  1.0 -0.1408503881
C  C63  1  0.85800000  0.93420000  0.52820000  1.0 -0.2072497463
C  C64  1  0.94600000  0.85160000  0.54210000  1.0 0.0020083246
C  C65  1  0.68730000  0.89670000  0.76470000  1.0 0.0310821804
C  C66  1  0.68710000  0.58760000  0.73920000  1.0 0.0208202737
C  C67  1  0.93650000  0.76140000  0.85870000  1.0 0.0310821804
C  C68  1  0.93920000  0.73520000  0.90330000  1.0 -0.0990755498
C  C69  1  0.00690000  0.65040000  0.91590000  1.0 0.0310821804
C  C70  1  0.07200000  0.59210000  0.88230000  1.0 -0.0359457401
C  C71  1  0.06800000  0.61870000  0.83760000  1.0 0.0097821064
C  C72  1  0.91000000  0.63020000  0.17150000  1.0 -0.046525145
C  C73  1  0.88600000  0.60450000  0.12710000  1.0 -0.1408503881
C  C74  1  0.95000000  0.66030000  0.09270000  1.0 0.0579171511
C  C75  1  0.04100000  0.74050000  0.10390000  1.0 -0.0710295421
C  C76  1  0.06400000  0.76630000  0.14830000  1.0 0.0208202737
C  C77  1  0.95100000  0.64420000  0.96490000  1.0 0.0020083246
C  C78  1  0.86300000  0.56280000  0.98050000  1.0 -0.1408503881
C  C79  1  0.85800000  0.56580000  0.02820000  1.0 -0.2072497463
C  C80  1  0.94600000  0.64840000  0.04210000  1.0 0.0020083246
C  C81  1  0.68730000  0.10330000  0.23530000  1.0 0.0310821804
C  C82  1  0.68710000  0.41240000  0.26080000  1.0 0.0208202737
C  C83  1  0.93650000  0.23860000  0.14130000  1.0 0.0310821804
C  C84  1  0.93920000  0.26480000  0.09670000  1.0 -0.0990755498
C  C85  1  0.00690000  0.34960000  0.08410000  1.0 0.0310821804
C  C86  1  0.07200000  0.40790000  0.11770000  1.0 -0.0359457401
C  C87  1  0.06800000  0.38130000  0.16240000  1.0 0.0097821064
C  C88  1  0.91000000  0.36980000  0.82850000  1.0 -0.046525145
C  C89  1  0.88600000  0.39550000  0.87290000  1.0 -0.1408503881
C  C90  1  0.95000000  0.33970000  0.90730000  1.0 0.0579171511
C  C91  1  0.04100000  0.25950000  0.89610000  1.0 -0.0710295421
C  C92  1  0.06400000  0.23370000  0.85170000  1.0 0.0208202737
C  C93  1  0.95100000  0.35580000  0.03510000  1.0 0.0020083246
C  C94  1  0.86300000  0.43720000  0.01950000  1.0 -0.1408503881
C  C95  1  0.85800000  0.43420000  0.97180000  1.0 -0.2072497463
C  C96  1  0.94600000  0.35160000  0.95790000  1.0 0.0020083246
C  C97  1  0.31270000  0.60330000  0.26470000  1.0 0.0310821804
C  C98  1  0.31290000  0.91240000  0.23920000  1.0 0.0208202737
C  C99  1  0.06350000  0.73860000  0.35870000  1.0 0.0208202737
C  C100  1  0.06080000  0.76480000  0.40330000  1.0 -0.0990755498
C  C101  1  0.99310000  0.84960000  0.41590000  1.0 0.0310821804
C  C102  1  0.92800000  0.90790000  0.38230000  1.0 -0.0347957616
C  C103  1  0.93200000  0.88130000  0.33760000  1.0 0.0097821064
C  C104  1  0.09000000  0.86980000  0.67150000  1.0 -0.046525145
C  C105  1  0.11400000  0.89550000  0.62710000  1.0 -0.1408503881
C  C106  1  0.05000000  0.83970000  0.59270000  1.0 0.0579171511
C  C107  1  0.95900000  0.75950000  0.60390000  1.0 -0.0710295421
C  C108  1  0.93600000  0.73370000  0.64830000  1.0 0.0208202737
C  C109  1  0.04900000  0.85580000  0.46490000  1.0 0.0020083246
C  C110  1  0.13700000  0.93720000  0.48050000  1.0 -0.1408503881
C  C111  1  0.14200000  0.93420000  0.52820000  1.0 -0.2072497463
C  C112  1  0.05400000  0.85160000  0.54210000  1.0 0.0020083246
C  C113  1  0.31270000  0.39670000  0.73530000  1.0 0.0310821804
C  C114  1  0.31290000  0.08760000  0.76080000  1.0 0.0208202737
C  C115  1  0.06350000  0.26140000  0.64130000  1.0 0.0208202737
C  C116  1  0.06080000  0.23520000  0.59670000  1.0 -0.0990755498
C  C117  1  0.99310000  0.15040000  0.58410000  1.0 0.0310821804
C  C118  1  0.92800000  0.09210000  0.61770000  1.0 -0.0359457401
C  C119  1  0.93200000  0.11870000  0.66240000  1.0 0.0097821064
C  C120  1  0.09000000  0.13020000  0.32850000  1.0 -0.046525145
C  C121  1  0.11400000  0.10450000  0.37290000  1.0 -0.1408503881
C  C122  1  0.05000000  0.16030000  0.40730000  1.0 0.0579171511
C  C123  1  0.95900000  0.24050000  0.39610000  1.0 -0.0710295421
C  C124  1  0.93600000  0.26630000  0.35170000  1.0 0.0208202737
C  C125  1  0.04900000  0.14420000  0.53510000  1.0 0.0020083246
C  C126  1  0.13700000  0.06280000  0.51950000  1.0 -0.1408503881
C  C127  1  0.14200000  0.06580000  0.47180000  1.0 -0.2072497463
C  C128  1  0.05400000  0.14840000  0.45790000  1.0 0.0020083246
S  S1  1  0.93730000  0.28800000  0.99690000  1.0 0.0579171511
S  S2  1  0.93730000  0.71200000  0.00310000  1.0 0.0579171511
S  S3  1  0.06270000  0.21200000  0.49690000  1.0 0.0579171511
S  S4  1  0.06270000  0.78800000  0.50310000  1.0 0.0579171511
S  S5  1  0.06270000  0.71200000  0.00310000  1.0 0.0579171511
S  S6  1  0.06270000  0.28800000  0.99690000  1.0 0.0579171511
S  S7  1  0.93730000  0.78800000  0.50310000  1.0 0.0579171511
S  S8  1  0.93730000  0.21200000  0.49690000  1.0 0.0579171511
N  N1  1  0.19850000  0.15770000  0.23480000  1.0 -0.3738593204
N  N2  1  0.20090000  0.35820000  0.25980000  1.0 -0.3800476886
N  N3  1  0.19850000  0.84230000  0.76520000  1.0 -0.3800476886
N  N4  1  0.20090000  0.64180000  0.74020000  1.0 -0.3800476886
N  N5  1  0.80150000  0.34230000  0.73480000  1.0 -0.3738593204
N  N6  1  0.79910000  0.14180000  0.75980000  1.0 -0.3800476886
N  N7  1  0.80150000  0.65770000  0.26520000  1.0 -0.3800476886
N  N8  1  0.79910000  0.85820000  0.24020000  1.0 -0.3800476886
N  N9  1  0.80150000  0.84230000  0.76520000  1.0 -0.3800476886
N  N10  1  0.79910000  0.64180000  0.74020000  1.0 -0.3800476886
N  N11  1  0.80150000  0.15770000  0.23480000  1.0 -0.3738593204
N  N12  1  0.79910000  0.35820000  0.25980000  1.0 -0.3800476886
N  N13  1  0.19850000  0.65770000  0.26520000  1.0 -0.3738593204
N  N14  1  0.20090000  0.85820000  0.24020000  1.0 -0.3800476886
N  N15  1  0.19850000  0.34230000  0.73480000  1.0 -0.3738593204
N  N16  1  0.20090000  0.14180000  0.75980000  1.0 -0.3800476886
N  N17  1  0.00000000  0.29530000  0.17460000  1.0 -0.1593632741
N  N18  1  0.00000000  0.28830000  0.81750000  1.0 -0.0765498397
N  N19  1  0.00000000  0.70470000  0.82540000  1.0 -0.1593632741
N  N20  1  0.00000000  0.71170000  0.18250000  1.0 -0.0765498397
N  N21  1  0.00000000  0.20470000  0.67460000  1.0 -0.1593632741
N  N22  1  0.00000000  0.21170000  0.31750000  1.0 -0.0710295421
N  N23  1  0.00000000  0.79530000  0.32540000  1.0 -0.1593632741
N  N24  1  0.00000000  0.78830000  0.68250000  1.0 -0.0710295421
