# DDEC6 charges by PACMAN v1.1 (https://github.com/mtap-research/PACMAN-charge/)
data_NELNIF04_ASR_pacman
_symmetry_space_group_name_H-M   'P 1'
_cell_length_a   7.38720000
_cell_length_b   14.13600000
_cell_length_c   29.33900000
_cell_angle_alpha   90.00000000
_cell_angle_beta   90.00000000
_cell_angle_gamma   90.00000000
_symmetry_Int_Tables_number   1
_chemical_formula_structural   FeH20PtC32(SN3)2
_chemical_formula_sum   'Fe4 H80 Pt4 C128 S8 N24'
_cell_volume   3063.73854747
_cell_formula_units_Z   4
loop_
 _symmetry_equiv_pos_site_id
 _symmetry_equiv_pos_as_xyz
  1  'x, y, z'
loop_
 _atom_site_type_symbol
 _atom_site_label
 _atom_site_symmetry_multiplicity
 _atom_site_fract_x
 _atom_site_fract_y
 _atom_site_fract_z
 _atom_site_occupancy
 _atom_site_charge
Fe  Fe1  1  0.00000000  0.26400000  0.24516000  1.0 0.7218998263
Fe  Fe2  1  0.00000000  0.73600000  0.75484000  1.0 0.7218998263
Fe  Fe3  1  0.00000000  0.23600000  0.74516000  1.0 0.7218998263
Fe  Fe4  1  0.00000000  0.76400000  0.25484000  1.0 0.7218998263
H  H1  1  0.09584000  0.43034000  0.18248000  1.0 0.0693937649
H  H2  1  0.88900000  0.40687000  0.80088000  1.0 0.098657895
H  H3  1  0.09558000  0.20987000  0.91509000  1.0 0.0905639242
H  H4  1  0.10841000  0.16156000  0.84022000  1.0 0.098657895
H  H5  1  0.15322000  0.48642000  0.94570000  1.0 0.0693937649
H  H6  1  0.18574000  0.48945000  0.03065000  1.0 0.0905639242
H  H7  1  0.09948000  0.47152000  0.10653000  1.0 0.0599625764
H  H8  1  0.87657000  0.45529000  0.87576000  1.0 0.0766917506
H  H9  1  0.90494000  0.17463000  0.14976000  1.0 0.098657895
H  H10  1  0.90771000  0.21593000  0.07391000  1.0 0.0905639242
H  H11  1  0.09584000  0.56966000  0.81752000  1.0 0.0693937649
H  H12  1  0.88900000  0.59313000  0.19912000  1.0 0.098657895
H  H13  1  0.09558000  0.79013000  0.08491000  1.0 0.0905639242
H  H14  1  0.10841000  0.83844000  0.15978000  1.0 0.098657895
H  H15  1  0.15322000  0.51358000  0.05430000  1.0 0.0693937649
H  H16  1  0.18574000  0.51055000  0.96935000  1.0 0.0905639242
H  H17  1  0.09948000  0.52848000  0.89347000  1.0 0.0599625764
H  H18  1  0.87657000  0.54471000  0.12424000  1.0 0.0766917506
H  H19  1  0.90494000  0.82537000  0.85024000  1.0 0.098657895
H  H20  1  0.90771000  0.78407000  0.92609000  1.0 0.0905639242
H  H21  1  0.90416000  0.06966000  0.68248000  1.0 0.0693937649
H  H22  1  0.11100000  0.09313000  0.30088000  1.0 0.098657895
H  H23  1  0.90442000  0.29013000  0.41509000  1.0 0.0905639242
H  H24  1  0.89159000  0.33844000  0.34022000  1.0 0.098657895
H  H25  1  0.84678000  0.01358000  0.44570000  1.0 0.0693937649
H  H26  1  0.81426000  0.01055000  0.53065000  1.0 0.0905639242
H  H27  1  0.90052000  0.02848000  0.60653000  1.0 0.0599625764
H  H28  1  0.12343000  0.04471000  0.37576000  1.0 0.0766917506
H  H29  1  0.09506000  0.32537000  0.64976000  1.0 0.098657895
H  H30  1  0.09229000  0.28407000  0.57391000  1.0 0.0905639242
H  H31  1  0.90416000  0.93034000  0.31752000  1.0 0.0693937649
H  H32  1  0.11100000  0.90687000  0.69912000  1.0 0.098657895
H  H33  1  0.90442000  0.70987000  0.58491000  1.0 0.0905639242
H  H34  1  0.89159000  0.66156000  0.65978000  1.0 0.098657895
H  H35  1  0.84678000  0.98642000  0.55430000  1.0 0.0693937649
H  H36  1  0.81426000  0.98945000  0.46935000  1.0 0.0905639242
H  H37  1  0.90052000  0.97152000  0.39347000  1.0 0.0599625764
H  H38  1  0.12343000  0.95529000  0.62424000  1.0 0.0766917506
H  H39  1  0.09506000  0.67463000  0.35024000  1.0 0.098657895
H  H40  1  0.09229000  0.71593000  0.42609000  1.0 0.0905639242
H  H41  1  0.90416000  0.56966000  0.81752000  1.0 0.0693937649
H  H42  1  0.11100000  0.59313000  0.19912000  1.0 0.098657895
H  H43  1  0.90442000  0.79013000  0.08491000  1.0 0.0905639242
H  H44  1  0.89159000  0.83844000  0.15978000  1.0 0.098657895
H  H45  1  0.84678000  0.51358000  0.05430000  1.0 0.0693937649
H  H46  1  0.81426000  0.51055000  0.96935000  1.0 0.0905639242
H  H47  1  0.90052000  0.52848000  0.89347000  1.0 0.0599625764
H  H48  1  0.12343000  0.54471000  0.12424000  1.0 0.0766917506
H  H49  1  0.09506000  0.82537000  0.85024000  1.0 0.098657895
H  H50  1  0.09229000  0.78407000  0.92609000  1.0 0.0905639242
H  H51  1  0.90416000  0.43034000  0.18248000  1.0 0.0693937649
H  H52  1  0.11100000  0.40687000  0.80088000  1.0 0.098657895
H  H53  1  0.90442000  0.20987000  0.91509000  1.0 0.0905639242
H  H54  1  0.89159000  0.16156000  0.84022000  1.0 0.098657895
H  H55  1  0.84678000  0.48642000  0.94570000  1.0 0.0693937649
H  H56  1  0.81426000  0.48945000  0.03065000  1.0 0.0905639242
H  H57  1  0.90052000  0.47152000  0.10653000  1.0 0.0599625764
H  H58  1  0.12343000  0.45529000  0.87576000  1.0 0.0766917506
H  H59  1  0.09506000  0.17463000  0.14976000  1.0 0.098657895
H  H60  1  0.09229000  0.21593000  0.07391000  1.0 0.0905639242
H  H61  1  0.09584000  0.93034000  0.31752000  1.0 0.0693937649
H  H62  1  0.88900000  0.90687000  0.69912000  1.0 0.098657895
H  H63  1  0.09558000  0.70987000  0.58491000  1.0 0.0905639242
H  H64  1  0.10841000  0.66156000  0.65978000  1.0 0.098657895
H  H65  1  0.15322000  0.98642000  0.55430000  1.0 0.0693937649
H  H66  1  0.18574000  0.98945000  0.46935000  1.0 0.0905639242
H  H67  1  0.09948000  0.97152000  0.39347000  1.0 0.0599625764
H  H68  1  0.87657000  0.95529000  0.62424000  1.0 0.0766917506
H  H69  1  0.90494000  0.67463000  0.35024000  1.0 0.098657895
H  H70  1  0.90771000  0.71593000  0.42609000  1.0 0.0905639242
H  H71  1  0.09584000  0.06966000  0.68248000  1.0 0.0693937649
H  H72  1  0.88900000  0.09313000  0.30088000  1.0 0.098657895
H  H73  1  0.09558000  0.29013000  0.41509000  1.0 0.0905639242
H  H74  1  0.10841000  0.33844000  0.34022000  1.0 0.098657895
H  H75  1  0.15322000  0.01358000  0.44570000  1.0 0.0693937649
H  H76  1  0.18574000  0.01055000  0.53065000  1.0 0.0905639242
H  H77  1  0.09948000  0.02848000  0.60653000  1.0 0.0599625764
H  H78  1  0.87657000  0.04471000  0.37576000  1.0 0.0766917506
H  H79  1  0.90494000  0.32537000  0.64976000  1.0 0.098657895
H  H80  1  0.90771000  0.28407000  0.57391000  1.0 0.0905639242
Pt  Pt1  1  0.50000000  0.01395000  0.23839000  1.0 0.0310236284
Pt  Pt2  1  0.50000000  0.98605000  0.76161000  1.0 0.0310236284
Pt  Pt3  1  0.50000000  0.48605000  0.73839000  1.0 0.0310236284
Pt  Pt4  1  0.50000000  0.51395000  0.26161000  1.0 0.0310236284
C  C1  1  0.31000000  0.10990000  0.23510000  1.0 0.0310236284
C  C2  1  0.31100000  0.41490000  0.25900000  1.0 0.0310236284
C  C3  1  0.94420000  0.23450000  0.14120000  1.0 0.0310236284
C  C4  1  0.94610000  0.25930000  0.09570000  1.0 -0.0760558237
C  C5  1  0.00450000  0.34790000  0.08210000  1.0 -0.0065472203
C  C6  1  0.06020000  0.41160000  0.11510000  1.0 -0.0478477949
C  C7  1  0.05810000  0.38690000  0.16060000  1.0 0.0075757085
C  C8  1  0.93070000  0.36700000  0.82380000  1.0 0.0075757085
C  C9  1  0.92320000  0.39600000  0.86870000  1.0 -0.0609469878
C  C10  1  0.98420000  0.33760000  0.90330000  1.0 0.0387575041
C  C11  1  0.05370000  0.24970000  0.89220000  1.0 -0.0662111126
C  C12  1  0.06140000  0.22080000  0.84730000  1.0 0.022383545
C  C13  1  0.04390000  0.36060000  0.03190000  1.0 0.022383545
C  C14  1  0.12870000  0.44240000  0.01380000  1.0 -0.1476724072
C  C15  1  0.11170000  0.44020000  0.96570000  1.0 -0.0955199244
C  C16  1  0.02090000  0.35570000  0.95320000  1.0 -0.0478477949
C  C17  1  0.31000000  0.89010000  0.76490000  1.0 0.0310236284
C  C18  1  0.31100000  0.58510000  0.74100000  1.0 0.0310236284
C  C19  1  0.94420000  0.76550000  0.85880000  1.0 0.0310236284
C  C20  1  0.94610000  0.74070000  0.90430000  1.0 -0.0760558237
C  C21  1  0.00450000  0.65210000  0.91790000  1.0 -0.0065472203
C  C22  1  0.06020000  0.58840000  0.88490000  1.0 -0.0478477949
C  C23  1  0.05810000  0.61310000  0.83940000  1.0 0.0075757085
C  C24  1  0.93070000  0.63300000  0.17620000  1.0 0.0075757085
C  C25  1  0.92320000  0.60400000  0.13130000  1.0 -0.0609469878
C  C26  1  0.98420000  0.66240000  0.09670000  1.0 0.0387575041
C  C27  1  0.05370000  0.75030000  0.10780000  1.0 -0.0662111126
C  C28  1  0.06140000  0.77920000  0.15270000  1.0 0.022383545
C  C29  1  0.04390000  0.63940000  0.96810000  1.0 0.022383545
C  C30  1  0.12870000  0.55760000  0.98620000  1.0 -0.1476724072
C  C31  1  0.11170000  0.55980000  0.03430000  1.0 -0.0955199244
C  C32  1  0.02090000  0.64430000  0.04680000  1.0 -0.0478477949
C  C33  1  0.69000000  0.39010000  0.73510000  1.0 0.0310236284
C  C34  1  0.68900000  0.08510000  0.75900000  1.0 0.0310236284
C  C35  1  0.05580000  0.26550000  0.64120000  1.0 0.0310236284
C  C36  1  0.05390000  0.24070000  0.59570000  1.0 -0.0760558237
C  C37  1  0.99550000  0.15210000  0.58210000  1.0 -0.0065472203
C  C38  1  0.93980000  0.08840000  0.61510000  1.0 -0.0478477949
C  C39  1  0.94190000  0.11310000  0.66060000  1.0 0.0075757085
C  C40  1  0.06930000  0.13300000  0.32380000  1.0 0.0075757085
C  C41  1  0.07680000  0.10400000  0.36870000  1.0 -0.0609469878
C  C42  1  0.01580000  0.16240000  0.40330000  1.0 0.0387575041
C  C43  1  0.94630000  0.25030000  0.39220000  1.0 -0.0662111126
C  C44  1  0.93860000  0.27920000  0.34730000  1.0 0.022383545
C  C45  1  0.95610000  0.13940000  0.53190000  1.0 0.022383545
C  C46  1  0.87130000  0.05760000  0.51380000  1.0 -0.1476724072
C  C47  1  0.88830000  0.05980000  0.46570000  1.0 -0.0955199244
C  C48  1  0.97910000  0.14430000  0.45320000  1.0 -0.0478477949
C  C49  1  0.69000000  0.60990000  0.26490000  1.0 0.0310236284
C  C50  1  0.68900000  0.91490000  0.24100000  1.0 0.0310236284
C  C51  1  0.05580000  0.73450000  0.35880000  1.0 0.0310236284
C  C52  1  0.05390000  0.75930000  0.40430000  1.0 -0.0760558237
C  C53  1  0.99550000  0.84790000  0.41790000  1.0 -0.0065472203
C  C54  1  0.93980000  0.91160000  0.38490000  1.0 -0.0442990584
C  C55  1  0.94190000  0.88690000  0.33940000  1.0 0.0075757085
C  C56  1  0.06930000  0.86700000  0.67620000  1.0 0.0075757085
C  C57  1  0.07680000  0.89600000  0.63130000  1.0 -0.0609469878
C  C58  1  0.01580000  0.83760000  0.59670000  1.0 0.0387575041
C  C59  1  0.94630000  0.74970000  0.60780000  1.0 -0.0662111126
C  C60  1  0.93860000  0.72080000  0.65270000  1.0 0.022383545
C  C61  1  0.95610000  0.86060000  0.46810000  1.0 0.022383545
C  C62  1  0.87130000  0.94240000  0.48620000  1.0 -0.1476724072
C  C63  1  0.88830000  0.94020000  0.53430000  1.0 -0.0955199244
C  C64  1  0.97910000  0.85570000  0.54680000  1.0 -0.0478477949
C  C65  1  0.69000000  0.89010000  0.76490000  1.0 0.0310236284
C  C66  1  0.68900000  0.58510000  0.74100000  1.0 0.0310236284
C  C67  1  0.05580000  0.76550000  0.85880000  1.0 0.0310236284
C  C68  1  0.05390000  0.74070000  0.90430000  1.0 -0.0760558237
C  C69  1  0.99550000  0.65210000  0.91790000  1.0 -0.0065472203
C  C70  1  0.93980000  0.58840000  0.88490000  1.0 -0.0442990584
C  C71  1  0.94190000  0.61310000  0.83940000  1.0 0.0075757085
C  C72  1  0.06930000  0.63300000  0.17620000  1.0 0.0075757085
C  C73  1  0.07680000  0.60400000  0.13130000  1.0 -0.0609469878
C  C74  1  0.01580000  0.66240000  0.09670000  1.0 0.0387575041
C  C75  1  0.94630000  0.75030000  0.10780000  1.0 -0.0662111126
C  C76  1  0.93860000  0.77920000  0.15270000  1.0 0.022383545
C  C77  1  0.95610000  0.63940000  0.96810000  1.0 0.022383545
C  C78  1  0.87130000  0.55760000  0.98620000  1.0 -0.1476724072
C  C79  1  0.88830000  0.55980000  0.03430000  1.0 -0.0955199244
C  C80  1  0.97910000  0.64430000  0.04680000  1.0 -0.0478477949
C  C81  1  0.69000000  0.10990000  0.23510000  1.0 0.0310236284
C  C82  1  0.68900000  0.41490000  0.25900000  1.0 0.0310236284
C  C83  1  0.05580000  0.23450000  0.14120000  1.0 0.0310236284
C  C84  1  0.05390000  0.25930000  0.09570000  1.0 -0.0760558237
C  C85  1  0.99550000  0.34790000  0.08210000  1.0 -0.0065472203
C  C86  1  0.93980000  0.41160000  0.11510000  1.0 -0.0442990584
C  C87  1  0.94190000  0.38690000  0.16060000  1.0 0.0075757085
C  C88  1  0.06930000  0.36700000  0.82380000  1.0 0.0075757085
C  C89  1  0.07680000  0.39600000  0.86870000  1.0 -0.0609469878
C  C90  1  0.01580000  0.33760000  0.90330000  1.0 0.0387575041
C  C91  1  0.94630000  0.24970000  0.89220000  1.0 -0.0662111126
C  C92  1  0.93860000  0.22080000  0.84730000  1.0 0.022383545
C  C93  1  0.95610000  0.36060000  0.03190000  1.0 0.022383545
C  C94  1  0.87130000  0.44240000  0.01380000  1.0 -0.1476724072
C  C95  1  0.88830000  0.44020000  0.96570000  1.0 -0.0955199244
C  C96  1  0.97910000  0.35570000  0.95320000  1.0 -0.0478477949
C  C97  1  0.31000000  0.60990000  0.26490000  1.0 0.0310236284
C  C98  1  0.31100000  0.91490000  0.24100000  1.0 0.0310236284
C  C99  1  0.94420000  0.73450000  0.35880000  1.0 0.0310236284
C  C100  1  0.94610000  0.75930000  0.40430000  1.0 -0.0760558237
C  C101  1  0.00450000  0.84790000  0.41790000  1.0 -0.0065472203
C  C102  1  0.06020000  0.91160000  0.38490000  1.0 -0.0478477949
C  C103  1  0.05810000  0.88690000  0.33940000  1.0 0.0075757085
C  C104  1  0.93070000  0.86700000  0.67620000  1.0 0.0075757085
C  C105  1  0.92320000  0.89600000  0.63130000  1.0 -0.0609469878
C  C106  1  0.98420000  0.83760000  0.59670000  1.0 0.0387575041
C  C107  1  0.05370000  0.74970000  0.60780000  1.0 -0.0662111126
C  C108  1  0.06140000  0.72080000  0.65270000  1.0 0.022383545
C  C109  1  0.04390000  0.86060000  0.46810000  1.0 0.022383545
C  C110  1  0.12870000  0.94240000  0.48620000  1.0 -0.1476724072
C  C111  1  0.11170000  0.94020000  0.53430000  1.0 -0.0955199244
C  C112  1  0.02090000  0.85570000  0.54680000  1.0 -0.0478477949
C  C113  1  0.31000000  0.39010000  0.73510000  1.0 0.0310236284
C  C114  1  0.31100000  0.08510000  0.75900000  1.0 0.0310236284
C  C115  1  0.94420000  0.26550000  0.64120000  1.0 0.0310236284
C  C116  1  0.94610000  0.24070000  0.59570000  1.0 -0.0760558237
C  C117  1  0.00450000  0.15210000  0.58210000  1.0 -0.0065472203
C  C118  1  0.06020000  0.08840000  0.61510000  1.0 -0.0478477949
C  C119  1  0.05810000  0.11310000  0.66060000  1.0 0.0075757085
C  C120  1  0.93070000  0.13300000  0.32380000  1.0 0.0075757085
C  C121  1  0.92320000  0.10400000  0.36870000  1.0 -0.0609469878
C  C122  1  0.98420000  0.16240000  0.40330000  1.0 0.0387575041
C  C123  1  0.05370000  0.25030000  0.39220000  1.0 -0.0662111126
C  C124  1  0.06140000  0.27920000  0.34730000  1.0 0.022383545
C  C125  1  0.04390000  0.13940000  0.53190000  1.0 0.022383545
C  C126  1  0.12870000  0.05760000  0.51380000  1.0 -0.1476724072
C  C127  1  0.11170000  0.05980000  0.46570000  1.0 -0.0955199244
C  C128  1  0.02090000  0.14430000  0.45320000  1.0 -0.0478477949
S  S1  1  0.94100000  0.28400000  0.99530000  1.0 0.0599625764
S  S2  1  0.94100000  0.71600000  0.00470000  1.0 0.0599625764
S  S3  1  0.05900000  0.21600000  0.49530000  1.0 0.0599625764
S  S4  1  0.05900000  0.78400000  0.50470000  1.0 0.0599625764
S  S5  1  0.05900000  0.71600000  0.00470000  1.0 0.0599625764
S  S6  1  0.05900000  0.28400000  0.99530000  1.0 0.0599625764
S  S7  1  0.94100000  0.78400000  0.50470000  1.0 0.0599625764
S  S8  1  0.94100000  0.21600000  0.49530000  1.0 0.0599625764
N  N1  1  0.19000000  0.16630000  0.23460000  1.0 -0.3988964817
N  N2  1  0.19800000  0.36210000  0.25650000  1.0 -0.3699113538
N  N3  1  0.19000000  0.83370000  0.76540000  1.0 -0.3988964817
N  N4  1  0.19800000  0.63790000  0.74350000  1.0 -0.3699113538
N  N5  1  0.81000000  0.33370000  0.73460000  1.0 -0.3988964817
N  N6  1  0.80200000  0.13790000  0.75650000  1.0 -0.3699113538
N  N7  1  0.81000000  0.66630000  0.26540000  1.0 -0.3988964817
N  N8  1  0.80200000  0.86210000  0.24350000  1.0 -0.3699113538
N  N9  1  0.81000000  0.83370000  0.76540000  1.0 -0.3988964817
N  N10  1  0.80200000  0.63790000  0.74350000  1.0 -0.3699113538
N  N11  1  0.81000000  0.16630000  0.23460000  1.0 -0.3988964817
N  N12  1  0.80200000  0.36210000  0.25650000  1.0 -0.3699113538
N  N13  1  0.19000000  0.66630000  0.26540000  1.0 -0.3988964817
N  N14  1  0.19800000  0.86210000  0.24350000  1.0 -0.3699113538
N  N15  1  0.19000000  0.33370000  0.73460000  1.0 -0.3988964817
N  N16  1  0.19800000  0.13790000  0.75650000  1.0 -0.3699113538
N  N17  1  0.00000000  0.29800000  0.17400000  1.0 -0.1626323721
N  N18  1  0.00000000  0.27890000  0.81280000  1.0 -0.1476724072
N  N19  1  0.00000000  0.70200000  0.82600000  1.0 -0.1626323721
N  N20  1  0.00000000  0.72110000  0.18720000  1.0 -0.1476724072
N  N21  1  0.00000000  0.20200000  0.67400000  1.0 -0.1626323721
N  N22  1  0.00000000  0.22110000  0.31280000  1.0 -0.1476724072
N  N23  1  0.00000000  0.79800000  0.32600000  1.0 -0.1626323721
N  N24  1  0.00000000  0.77890000  0.68720000  1.0 -0.1476724072
