# DDEC6 charges by PACMAN v1.1 (https://github.com/mtap-research/PACMAN-charge/)
data_NENMOJ_ASR_pacman
_symmetry_space_group_name_H-M   'P 1'
_cell_length_a   8.72190000
_cell_length_b   17.35250000
_cell_length_c   14.74770000
_cell_angle_alpha   90.00000000
_cell_angle_beta   123.76100000
_cell_angle_gamma   90.00000000
_symmetry_Int_Tables_number   1
_chemical_formula_structural   CdHgH2C4S4N4O
_chemical_formula_sum   'Cd4 Hg4 H8 C16 S16 N16 O4'
_cell_volume   1855.61600178
_cell_formula_units_Z   4
loop_
 _symmetry_equiv_pos_site_id
 _symmetry_equiv_pos_as_xyz
  1  'x, y, z'
loop_
 _atom_site_type_symbol
 _atom_site_label
 _atom_site_symmetry_multiplicity
 _atom_site_fract_x
 _atom_site_fract_y
 _atom_site_fract_z
 _atom_site_occupancy
 _atom_site_charge
Cd  Cd1  1  0.52095000  0.11203000  0.50475000  1.0 1.0321545209
Cd  Cd2  1  0.47905000  0.61203000  0.99525000  1.0 1.0321545209
Cd  Cd3  1  0.47905000  0.88797000  0.49525000  1.0 1.0321545209
Cd  Cd4  1  0.52095000  0.38797000  0.00475000  1.0 1.0321545209
Hg  Hg1  1  0.00072000  0.34171000  0.49550000  1.0 0.3418506886
Hg  Hg2  1  0.99928000  0.84171000  0.00450000  1.0 0.3418506886
Hg  Hg3  1  0.99928000  0.65829000  0.50450000  1.0 0.3418506886
Hg  Hg4  1  0.00072000  0.15829000  0.99550000  1.0 0.3418506886
H  H1  1  0.30970000  0.01100000  0.54980000  1.0 0.4089344476
H  H2  1  0.69030000  0.51100000  0.95020000  1.0 0.4089344476
H  H3  1  0.69030000  0.98900000  0.45020000  1.0 0.4089344476
H  H4  1  0.30970000  0.48900000  0.04980000  1.0 0.4089344476
H  H5  1  0.20550000  0.01320000  0.42190000  1.0 0.4089344476
H  H6  1  0.79450000  0.51320000  0.07810000  1.0 0.4046207274
H  H7  1  0.79450000  0.98680000  0.57810000  1.0 0.4089344476
H  H8  1  0.20550000  0.48680000  0.92190000  1.0 0.4089344476
C  C1  1  0.24520000  0.26870000  0.42060000  1.0 0.2641632463
C  C2  1  0.75480000  0.76870000  0.07940000  1.0 0.2641632463
C  C3  1  0.75480000  0.73130000  0.57940000  1.0 0.2641632463
C  C4  1  0.24520000  0.23130000  0.92060000  1.0 0.2641632463
C  C5  1  0.92930000  0.19050000  0.58050000  1.0 0.2641632463
C  C6  1  0.07070000  0.69050000  0.91950000  1.0 0.2641632463
C  C7  1  0.07070000  0.80950000  0.41950000  1.0 0.2641632463
C  C8  1  0.92930000  0.30950000  0.08050000  1.0 0.2641632463
C  C9  1  0.26510000  0.07220000  0.23740000  1.0 0.2776480819
C  C10  1  0.73490000  0.57220000  0.26260000  1.0 0.2776480819
C  C11  1  0.73490000  0.92780000  0.76260000  1.0 0.2776480819
C  C12  1  0.26510000  0.42780000  0.73740000  1.0 0.2776480819
C  C13  1  0.62350000  0.13500000  0.76090000  1.0 0.2641632463
C  C14  1  0.37650000  0.63500000  0.73910000  1.0 0.2641632463
C  C15  1  0.37650000  0.86500000  0.23910000  1.0 0.2641632463
C  C16  1  0.62350000  0.36500000  0.26090000  1.0 0.2641632463
S  S1  1  0.10836000  0.34510000  0.36656000  1.0 -0.1936052312
S  S2  1  0.89164000  0.84510000  0.13344000  1.0 -0.1936052312
S  S3  1  0.89164000  0.65490000  0.63344000  1.0 -0.1936052312
S  S4  1  0.10836000  0.15490000  0.86656000  1.0 -0.1936052312
S  S5  1  0.13280000  0.22741000  0.62430000  1.0 -0.1697340143
S  S6  1  0.86720000  0.72741000  0.87570000  1.0 -0.1697340143
S  S7  1  0.86720000  0.77259000  0.37570000  1.0 -0.1697340143
S  S8  1  0.13280000  0.27259000  0.12430000  1.0 -0.1697340143
S  S9  1  0.10390000  0.03876000  0.11530000  1.0 -0.2174379423
S  S10  1  0.89610000  0.53876000  0.38470000  1.0 -0.2146625762
S  S11  1  0.89610000  0.96124000  0.88470000  1.0 -0.2174379423
S  S12  1  0.10390000  0.46124000  0.61530000  1.0 -0.2174379423
S  S13  1  0.64910000  0.16629000  0.87400000  1.0 -0.1516257283
S  S14  1  0.35090000  0.66629000  0.62600000  1.0 -0.1516257283
S  S15  1  0.35090000  0.83371000  0.12600000  1.0 -0.1516257283
S  S16  1  0.64910000  0.33371000  0.37400000  1.0 -0.1516257283
N  N1  1  0.34040000  0.21680000  0.45850000  1.0 -0.4397198168
N  N2  1  0.65960000  0.71680000  0.04150000  1.0 -0.4397198168
N  N3  1  0.65960000  0.78320000  0.54150000  1.0 -0.4397198168
N  N4  1  0.34040000  0.28320000  0.95850000  1.0 -0.4397198168
N  N5  1  0.78890000  0.16560000  0.54910000  1.0 -0.4397198168
N  N6  1  0.21110000  0.66560000  0.95090000  1.0 -0.4397198168
N  N7  1  0.21110000  0.83440000  0.45090000  1.0 -0.4397198168
N  N8  1  0.78890000  0.33440000  0.04910000  1.0 -0.4397198168
N  N9  1  0.37940000  0.09090000  0.32230000  1.0 -0.4305615669
N  N10  1  0.62060000  0.59090000  0.17770000  1.0 -0.4305615669
N  N11  1  0.62060000  0.90910000  0.67770000  1.0 -0.4305615669
N  N12  1  0.37940000  0.40910000  0.82230000  1.0 -0.4305615669
N  N13  1  0.60070000  0.11410000  0.68000000  1.0 -0.4531609511
N  N14  1  0.39930000  0.61410000  0.82000000  1.0 -0.4531609511
N  N15  1  0.39930000  0.88590000  0.32000000  1.0 -0.4531609511
N  N16  1  0.60070000  0.38590000  0.18000000  1.0 -0.4531609511
O  O1  1  0.32580000  0.00920000  0.48990000  1.0 -0.7660622691
O  O2  1  0.67420000  0.50920000  0.01010000  1.0 -0.7660622691
O  O3  1  0.67420000  0.99080000  0.51010000  1.0 -0.7660622691
O  O4  1  0.32580000  0.49080000  0.98990000  1.0 -0.7660622691
