# DDEC6 charges by PACMAN v1.1 (https://github.com/mtap-research/PACMAN-charge/)
data_NEPBOD01_ASR_pacman
_symmetry_space_group_name_H-M   'P 1'
_cell_length_a   6.70690000
_cell_length_b   24.62930000
_cell_length_c   30.73710000
_cell_angle_alpha   90.00000000
_cell_angle_beta   92.83000000
_cell_angle_gamma   90.00000000
_symmetry_Int_Tables_number   1
_chemical_formula_structural   Co4H73(C9O2)10
_chemical_formula_sum   'Co8 H146 C180 O40'
_cell_volume   5071.15413547
_cell_formula_units_Z   2
loop_
 _symmetry_equiv_pos_site_id
 _symmetry_equiv_pos_as_xyz
  1  'x, y, z'
loop_
 _atom_site_type_symbol
 _atom_site_label
 _atom_site_symmetry_multiplicity
 _atom_site_fract_x
 _atom_site_fract_y
 _atom_site_fract_z
 _atom_site_occupancy
 _atom_site_charge
Co  Co1  1  0.50001000  0.49115000  0.75004000  1.0 0.9559406461
Co  Co2  1  0.99980000  0.45983000  0.25007000  1.0 1.0467544915
Co  Co3  1  0.49999000  0.99115000  0.24996000  1.0 0.9559406461
Co  Co4  1  0.00020000  0.95983000  0.74993000  1.0 1.0467544915
Co  Co5  1  0.49999000  0.50885000  0.24996000  1.0 0.9559406461
Co  Co6  1  0.00020000  0.54017000  0.74993000  1.0 1.0467544915
Co  Co7  1  0.50001000  0.00885000  0.75004000  1.0 0.9559406461
Co  Co8  1  0.99980000  0.04017000  0.25007000  1.0 1.0467544915
H  H1  1  0.86510000  0.42660000  0.70070000  1.0 0.1284763794
H  H2  1  0.69910000  0.30820000  0.00970000  1.0 0.1204561582
H  H3  1  0.91610000  0.39020000  0.93650000  1.0 0.1284763794
H  H4  1  0.58980000  0.30640000  0.60620000  1.0 0.1284763794
H  H5  1  0.69120000  0.42060000  0.88190000  1.0 0.1204561582
H  H6  1  0.09390000  0.41600000  0.38430000  1.0 0.1204561582
H  H7  1  0.67460000  0.43450000  0.36380000  1.0 0.1284763794
H  H8  1  0.75390000  0.40510000  0.43430000  1.0 0.1123370261
H  H9  1  0.17330000  0.38590000  0.45470000  1.0 0.1204561582
H  H10  1  0.08930000  0.38830000  0.56320000  1.0 0.1204561582
H  H11  1  0.65240000  0.38990000  0.64800000  1.0 0.1204561582
H  H12  1  0.32300000  0.43600000  0.13410000  1.0 0.1284763794
H  H13  1  0.30960000  0.30830000  0.48890000  1.0 0.1204561582
H  H14  1  0.13310000  0.42640000  0.80030000  1.0 0.13878074
H  H15  1  0.24140000  0.40300000  0.06610000  1.0 0.1123370261
H  H16  1  0.18660000  0.48120000  0.94200000  1.0 0.1204561582
H  H17  1  0.19320000  0.50650000  0.98880000  1.0 0.1284763794
H  H18  1  0.38930000  0.48420000  0.96960000  1.0 0.1204561582
H  H19  1  0.82730000  0.38550000  0.04610000  1.0 0.1204561582
H  H20  1  0.30790000  0.41940000  0.61700000  1.0 0.1204561582
H  H21  1  0.85180000  0.48840000  0.55090000  1.0 0.1204561582
H  H22  1  0.75640000  0.50630000  0.50560000  1.0 0.1284763794
H  H23  1  0.62300000  0.47980000  0.54020000  1.0 0.1204561582
H  H24  1  0.41080000  0.30800000  0.89370000  1.0 0.1204561582
H  H25  1  0.35540000  0.39190000  0.85340000  1.0 0.1204561582
H  H26  1  0.90540000  0.41700000  0.11530000  1.0 0.1204561582
H  H27  1  0.91220000  0.24100000  0.99200000  1.0 0.0605962695
H  H28  1  0.00120000  0.22360000  0.94790000  1.0 0.0723420651
H  H29  1  0.97860000  0.28540000  0.95910000  1.0 0.0723420651
H  H30  1  0.78370000  0.21830000  0.88520000  1.0 0.13878074
H  H31  1  0.37060000  0.25350000  0.63010000  1.0 0.1123370261
H  H32  1  0.16060000  0.27990000  0.62020000  1.0 0.1123370261
H  H33  1  0.18260000  0.21660000  0.62130000  1.0 0.1123370261
H  H34  1  0.11700000  0.26210000  0.51160000  1.0 0.042258529
H  H35  1  0.04900000  0.21390000  0.54070000  1.0 0.0605962695
H  H36  1  0.01490000  0.27400000  0.55530000  1.0 0.0605962695
H  H37  1  0.13490000  0.92660000  0.29930000  1.0 0.1284763794
H  H38  1  0.30090000  0.80820000  0.99030000  1.0 0.1204561582
H  H39  1  0.08390000  0.89020000  0.06350000  1.0 0.1284763794
H  H40  1  0.41020000  0.80640000  0.39380000  1.0 0.1284763794
H  H41  1  0.30880000  0.92060000  0.11810000  1.0 0.1204561582
H  H42  1  0.90610000  0.91600000  0.61570000  1.0 0.1204561582
H  H43  1  0.32540000  0.93450000  0.63620000  1.0 0.1284763794
H  H44  1  0.24610000  0.90510000  0.56570000  1.0 0.1123370261
H  H45  1  0.82670000  0.88590000  0.54530000  1.0 0.1204561582
H  H46  1  0.91070000  0.88830000  0.43680000  1.0 0.1204561582
H  H47  1  0.34760000  0.88990000  0.35200000  1.0 0.1204561582
H  H48  1  0.67700000  0.93600000  0.86590000  1.0 0.1284763794
H  H49  1  0.69040000  0.80830000  0.51110000  1.0 0.1204561582
H  H50  1  0.86690000  0.92640000  0.19970000  1.0 0.13878074
H  H51  1  0.75860000  0.90300000  0.93390000  1.0 0.1123370261
H  H52  1  0.81340000  0.98120000  0.05800000  1.0 0.1204561582
H  H53  1  0.80680000  0.00650000  0.01120000  1.0 0.1284763794
H  H54  1  0.61070000  0.98420000  0.03040000  1.0 0.1204561582
H  H55  1  0.17270000  0.88550000  0.95390000  1.0 0.1204561582
H  H56  1  0.69210000  0.91940000  0.38300000  1.0 0.1204561582
H  H57  1  0.14820000  0.98840000  0.44910000  1.0 0.1204561582
H  H58  1  0.24360000  0.00630000  0.49440000  1.0 0.1284763794
H  H59  1  0.37700000  0.97980000  0.45980000  1.0 0.1204561582
H  H60  1  0.58920000  0.80800000  0.10630000  1.0 0.1204561582
H  H61  1  0.64460000  0.89190000  0.14660000  1.0 0.1204561582
H  H62  1  0.09460000  0.91700000  0.88470000  1.0 0.1204561582
H  H63  1  0.08780000  0.74100000  0.00800000  1.0 0.0605962695
H  H64  1  0.99880000  0.72360000  0.05210000  1.0 0.0723420651
H  H65  1  0.02140000  0.78540000  0.04090000  1.0 0.0723420651
H  H66  1  0.21630000  0.71830000  0.11480000  1.0 0.13878074
H  H67  1  0.62940000  0.75350000  0.36990000  1.0 0.1123370261
H  H68  1  0.83940000  0.77990000  0.37980000  1.0 0.1123370261
H  H69  1  0.81740000  0.71660000  0.37870000  1.0 0.1123370261
H  H70  1  0.88300000  0.76210000  0.48840000  1.0 0.042258529
H  H71  1  0.95100000  0.71390000  0.45930000  1.0 0.0605962695
H  H72  1  0.98510000  0.77400000  0.44470000  1.0 0.0605962695
H  H73  1  0.13490000  0.57340000  0.29930000  1.0 0.1284763794
H  H74  1  0.30090000  0.69180000  0.99030000  1.0 0.1204561582
H  H75  1  0.08390000  0.60980000  0.06350000  1.0 0.1284763794
H  H76  1  0.41020000  0.69360000  0.39380000  1.0 0.1284763794
H  H77  1  0.30880000  0.57940000  0.11810000  1.0 0.1204561582
H  H78  1  0.90610000  0.58400000  0.61570000  1.0 0.1204561582
H  H79  1  0.32540000  0.56550000  0.63620000  1.0 0.1284763794
H  H80  1  0.24610000  0.59490000  0.56570000  1.0 0.1123370261
H  H81  1  0.82670000  0.61410000  0.54530000  1.0 0.1204561582
H  H82  1  0.91070000  0.61170000  0.43680000  1.0 0.1204561582
H  H83  1  0.34760000  0.61010000  0.35200000  1.0 0.1204561582
H  H84  1  0.67700000  0.56400000  0.86590000  1.0 0.1284763794
H  H85  1  0.69040000  0.69170000  0.51110000  1.0 0.1204561582
H  H86  1  0.86690000  0.57360000  0.19970000  1.0 0.13878074
H  H87  1  0.75860000  0.59700000  0.93390000  1.0 0.1123370261
H  H88  1  0.81340000  0.51880000  0.05800000  1.0 0.1204561582
H  H89  1  0.80680000  0.49350000  0.01120000  1.0 0.1284763794
H  H90  1  0.61070000  0.51580000  0.03040000  1.0 0.1204561582
H  H91  1  0.17270000  0.61450000  0.95390000  1.0 0.1204561582
H  H92  1  0.69210000  0.58060000  0.38300000  1.0 0.1204561582
H  H93  1  0.14820000  0.51160000  0.44910000  1.0 0.1204561582
H  H94  1  0.24360000  0.49370000  0.49440000  1.0 0.1284763794
H  H95  1  0.37700000  0.52020000  0.45980000  1.0 0.1204561582
H  H96  1  0.58920000  0.69200000  0.10630000  1.0 0.1204561582
H  H97  1  0.64460000  0.60810000  0.14660000  1.0 0.1204561582
H  H98  1  0.09460000  0.58300000  0.88470000  1.0 0.1204561582
H  H99  1  0.08780000  0.75900000  0.00800000  1.0 0.0605962695
H  H100  1  0.99880000  0.77640000  0.05210000  1.0 0.0723420651
H  H101  1  0.02140000  0.71460000  0.04090000  1.0 0.0723420651
H  H102  1  0.21630000  0.78170000  0.11480000  1.0 0.13878074
H  H103  1  0.62940000  0.74650000  0.36990000  1.0 0.1123370261
H  H104  1  0.83940000  0.72010000  0.37980000  1.0 0.1123370261
H  H105  1  0.81740000  0.78340000  0.37870000  1.0 0.1123370261
H  H106  1  0.88300000  0.73790000  0.48840000  1.0 0.042258529
H  H107  1  0.95100000  0.78610000  0.45930000  1.0 0.0605962695
H  H108  1  0.98510000  0.72600000  0.44470000  1.0 0.0605962695
H  H109  1  0.86510000  0.07340000  0.70070000  1.0 0.1284763794
H  H110  1  0.69910000  0.19180000  0.00970000  1.0 0.1204561582
H  H111  1  0.91610000  0.10980000  0.93650000  1.0 0.1284763794
H  H112  1  0.58980000  0.19360000  0.60620000  1.0 0.1284763794
H  H113  1  0.69120000  0.07940000  0.88190000  1.0 0.1204561582
H  H114  1  0.09390000  0.08400000  0.38430000  1.0 0.1204561582
H  H115  1  0.67460000  0.06550000  0.36380000  1.0 0.1284763794
H  H116  1  0.75390000  0.09490000  0.43430000  1.0 0.1123370261
H  H117  1  0.17330000  0.11410000  0.45470000  1.0 0.1204561582
H  H118  1  0.08930000  0.11170000  0.56320000  1.0 0.1204561582
H  H119  1  0.65240000  0.11010000  0.64800000  1.0 0.1204561582
H  H120  1  0.32300000  0.06400000  0.13410000  1.0 0.1284763794
H  H121  1  0.30960000  0.19170000  0.48890000  1.0 0.1204561582
H  H122  1  0.13310000  0.07360000  0.80030000  1.0 0.13878074
H  H123  1  0.24140000  0.09700000  0.06610000  1.0 0.1123370261
H  H124  1  0.18660000  0.01880000  0.94200000  1.0 0.1204561582
H  H125  1  0.19320000  0.99350000  0.98880000  1.0 0.1284763794
H  H126  1  0.38930000  0.01580000  0.96960000  1.0 0.1204561582
H  H127  1  0.82730000  0.11450000  0.04610000  1.0 0.1204561582
H  H128  1  0.30790000  0.08060000  0.61700000  1.0 0.1204561582
H  H129  1  0.85180000  0.01160000  0.55090000  1.0 0.1204561582
H  H130  1  0.75640000  0.99370000  0.50560000  1.0 0.1284763794
H  H131  1  0.62300000  0.02020000  0.54020000  1.0 0.1204561582
H  H132  1  0.41080000  0.19200000  0.89370000  1.0 0.1204561582
H  H133  1  0.35540000  0.10810000  0.85340000  1.0 0.1204561582
H  H134  1  0.90540000  0.08300000  0.11530000  1.0 0.1204561582
H  H135  1  0.91220000  0.25900000  0.99200000  1.0 0.0605962695
H  H136  1  0.00120000  0.27640000  0.94790000  1.0 0.0723420651
H  H137  1  0.97860000  0.21460000  0.95910000  1.0 0.0723420651
H  H138  1  0.78370000  0.28170000  0.88520000  1.0 0.13878074
H  H139  1  0.37060000  0.24650000  0.63010000  1.0 0.1123370261
H  H140  1  0.16060000  0.22010000  0.62020000  1.0 0.1123370261
H  H141  1  0.18260000  0.28340000  0.62130000  1.0 0.1123370261
H  H142  1  0.11700000  0.23790000  0.51160000  1.0 0.042258529
H  H143  1  0.04900000  0.28610000  0.54070000  1.0 0.0605962695
H  H144  1  0.01490000  0.22600000  0.55530000  1.0 0.0605962695
H  H145  1  0.58520000  0.25000000  0.87310000  1.0 0.1204561582
H  H146  1  0.41480000  0.75000000  0.12690000  1.0 0.1204561582
C  C1  1  0.25210000  0.44780000  0.69892000  1.0 0.5716016562
C  C2  1  0.83990000  0.38690000  0.59934000  1.0 0.0801668697
C  C3  1  0.66770000  0.38580000  0.52472000  1.0 0.13878074
C  C4  1  0.91120000  0.41840000  0.67348000  1.0 -0.0817237488
C  C5  1  0.52450000  0.38990000  0.04835000  1.0 0.0871183546
C  C6  1  0.32620000  0.44690000  0.32140000  1.0 0.5931446076
C  C7  1  0.57590000  0.29950000  0.94967000  1.0 0.042258529
C  C8  1  0.48050000  0.36680000  0.00431000  1.0 -0.0393742231
C  C9  1  0.30590000  0.36470000  0.93363000  1.0 -0.0318584105
C  C10  1  0.46930000  0.38950000  0.45115000  1.0 0.0801668697
C  C11  1  0.42410000  0.30070000  0.54955000  1.0 0.024501671
C  C12  1  0.62330000  0.42800000  0.13314000  1.0 -0.0318584105
C  C13  1  0.60100000  0.32210000  0.99043000  1.0 -0.2231176375
C  C14  1  0.95960000  0.39610000  0.90862000  1.0 -0.1584560825
C  C15  1  0.57240000  0.32130000  0.57847000  1.0 -0.2438562764
C  C16  1  0.11030000  0.42700000  0.66468000  1.0 -0.0318584105
C  C17  1  0.89510000  0.42660000  0.83571000  1.0 -0.0102404183
C  C18  1  0.82490000  0.41540000  0.87629000  1.0 -0.1170009627
C  C19  1  0.22690000  0.41350000  0.39420000  1.0 -0.1101212698
C  C20  1  0.57370000  0.42460000  0.38191000  1.0 -0.0965698092
C  C21  1  0.52040000  0.36550000  0.49506000  1.0 -0.0102404183
C  C22  1  0.62120000  0.40630000  0.42399000  1.0 -0.1504437952
C  C23  1  0.27500000  0.39480000  0.43640000  1.0 -0.1584560825
C  C24  1  0.04420000  0.39560000  0.59071000  1.0 -0.1799875005
C  C25  1  0.78330000  0.39740000  0.64124000  1.0 -0.1382347188
C  C26  1  0.67400000  0.44700000  0.17855000  1.0 0.5931446076
C  C27  1  0.42450000  0.42480000  0.11660000  1.0 -0.0965698092
C  C28  1  0.40500000  0.32280000  0.50858000  1.0 -0.2231176375
C  C29  1  0.08840000  0.41820000  0.82767000  1.0 -0.0817237488
C  C30  1  0.69400000  0.36370000  0.56647000  1.0 -0.0393742231
C  C31  1  0.37480000  0.40560000  0.07570000  1.0 -0.1504437952
C  C32  1  0.24780000  0.47890000  0.97080000  1.0 -0.2438562764
C  C33  1  0.72520000  0.39500000  0.06406000  1.0 -0.1669603987
C  C34  1  0.17440000  0.41460000  0.62287000  1.0 -0.1101212698
C  C35  1  0.75270000  0.47980000  0.52840000  1.0 -0.232148028
C  C36  1  0.15360000  0.38570000  0.90031000  1.0 0.0723420651
C  C37  1  0.42840000  0.32210000  0.92169000  1.0 -0.2026594458
C  C38  1  0.22250000  0.39760000  0.85938000  1.0 -0.1382347188
C  C39  1  0.74480000  0.44720000  0.80123000  1.0 0.5716016562
C  C40  1  0.32880000  0.38660000  0.97563000  1.0 0.1503695494
C  C41  1  0.77230000  0.41380000  0.10569000  1.0 -0.1101212698
C  C42  1  0.37680000  0.42810000  0.36723000  1.0 -0.0229420635
C  C43  1  0.74790000  0.94780000  0.30108000  1.0 0.5716016562
C  C44  1  0.16010000  0.88690000  0.40066000  1.0 0.0801668697
C  C45  1  0.33230000  0.88580000  0.47528000  1.0 0.13878074
C  C46  1  0.08880000  0.91840000  0.32652000  1.0 -0.0817237488
C  C47  1  0.47550000  0.88990000  0.95165000  1.0 0.0871183546
C  C48  1  0.67380000  0.94690000  0.67860000  1.0 0.5931446076
C  C49  1  0.42410000  0.79950000  0.05033000  1.0 0.042258529
C  C50  1  0.51950000  0.86680000  0.99569000  1.0 -0.0393742231
C  C51  1  0.69410000  0.86470000  0.06637000  1.0 -0.0318584105
C  C52  1  0.53070000  0.88950000  0.54885000  1.0 0.0801668697
C  C53  1  0.57590000  0.80070000  0.45045000  1.0 0.024501671
C  C54  1  0.37670000  0.92800000  0.86686000  1.0 -0.0318584105
C  C55  1  0.39900000  0.82210000  0.00957000  1.0 -0.2231176375
C  C56  1  0.04040000  0.89610000  0.09138000  1.0 -0.1584560825
C  C57  1  0.42760000  0.82130000  0.42153000  1.0 -0.2438562764
C  C58  1  0.88970000  0.92700000  0.33532000  1.0 -0.0318584105
C  C59  1  0.10490000  0.92660000  0.16429000  1.0 -0.0102404183
C  C60  1  0.17510000  0.91540000  0.12371000  1.0 -0.1170009627
C  C61  1  0.77310000  0.91350000  0.60580000  1.0 -0.1101212698
C  C62  1  0.42630000  0.92460000  0.61809000  1.0 -0.0965698092
C  C63  1  0.47960000  0.86550000  0.50494000  1.0 -0.0102404183
C  C64  1  0.37880000  0.90630000  0.57601000  1.0 -0.1504437952
C  C65  1  0.72500000  0.89480000  0.56360000  1.0 -0.1584560825
C  C66  1  0.95580000  0.89560000  0.40929000  1.0 -0.1799875005
C  C67  1  0.21670000  0.89740000  0.35876000  1.0 -0.1382347188
C  C68  1  0.32600000  0.94700000  0.82145000  1.0 0.5931446076
C  C69  1  0.57550000  0.92480000  0.88340000  1.0 -0.0965698092
C  C70  1  0.59500000  0.82280000  0.49142000  1.0 -0.2231176375
C  C71  1  0.91160000  0.91820000  0.17233000  1.0 -0.0817237488
C  C72  1  0.30600000  0.86370000  0.43353000  1.0 -0.0393742231
C  C73  1  0.62520000  0.90560000  0.92430000  1.0 -0.1504437952
C  C74  1  0.75220000  0.97890000  0.02920000  1.0 -0.2438562764
C  C75  1  0.27480000  0.89500000  0.93594000  1.0 -0.1669603987
C  C76  1  0.82560000  0.91460000  0.37713000  1.0 -0.1101212698
C  C77  1  0.24730000  0.97980000  0.47160000  1.0 -0.232148028
C  C78  1  0.84640000  0.88570000  0.09969000  1.0 0.0723420651
C  C79  1  0.57160000  0.82210000  0.07831000  1.0 -0.2026594458
C  C80  1  0.77750000  0.89760000  0.14062000  1.0 -0.1382347188
C  C81  1  0.25520000  0.94720000  0.19877000  1.0 0.5716016562
C  C82  1  0.67120000  0.88660000  0.02437000  1.0 0.1503695494
C  C83  1  0.22770000  0.91380000  0.89431000  1.0 -0.1101212698
C  C84  1  0.62320000  0.92810000  0.63277000  1.0 -0.0229420635
C  C85  1  0.74790000  0.55220000  0.30108000  1.0 0.5716016562
C  C86  1  0.16010000  0.61310000  0.40066000  1.0 0.0801668697
C  C87  1  0.33230000  0.61420000  0.47528000  1.0 0.13878074
C  C88  1  0.08880000  0.58160000  0.32652000  1.0 -0.0817237488
C  C89  1  0.47550000  0.61010000  0.95165000  1.0 0.0871183546
C  C90  1  0.67380000  0.55310000  0.67860000  1.0 0.5931446076
C  C91  1  0.42410000  0.70050000  0.05033000  1.0 0.042258529
C  C92  1  0.51950000  0.63320000  0.99569000  1.0 -0.0393742231
C  C93  1  0.69410000  0.63530000  0.06637000  1.0 -0.0318584105
C  C94  1  0.53070000  0.61050000  0.54885000  1.0 0.0801668697
C  C95  1  0.57590000  0.69930000  0.45045000  1.0 0.024501671
C  C96  1  0.37670000  0.57200000  0.86686000  1.0 -0.0318584105
C  C97  1  0.39900000  0.67790000  0.00957000  1.0 -0.2231176375
C  C98  1  0.04040000  0.60390000  0.09138000  1.0 -0.1584560825
C  C99  1  0.42760000  0.67870000  0.42153000  1.0 -0.2438562764
C  C100  1  0.88970000  0.57300000  0.33532000  1.0 -0.0318584105
C  C101  1  0.10490000  0.57340000  0.16429000  1.0 -0.0102404183
C  C102  1  0.17510000  0.58460000  0.12371000  1.0 -0.1170009627
C  C103  1  0.77310000  0.58650000  0.60580000  1.0 -0.1101212698
C  C104  1  0.42630000  0.57540000  0.61809000  1.0 -0.0965698092
C  C105  1  0.47960000  0.63450000  0.50494000  1.0 -0.0102404183
C  C106  1  0.37880000  0.59370000  0.57601000  1.0 -0.1504437952
C  C107  1  0.72500000  0.60520000  0.56360000  1.0 -0.1584560825
C  C108  1  0.95580000  0.60440000  0.40929000  1.0 -0.1799875005
C  C109  1  0.21670000  0.60260000  0.35876000  1.0 -0.1382347188
C  C110  1  0.32600000  0.55300000  0.82145000  1.0 0.5931446076
C  C111  1  0.57550000  0.57520000  0.88340000  1.0 -0.0965698092
C  C112  1  0.59500000  0.67720000  0.49142000  1.0 -0.2231176375
C  C113  1  0.91160000  0.58180000  0.17233000  1.0 -0.0817237488
C  C114  1  0.30600000  0.63630000  0.43353000  1.0 -0.0393742231
C  C115  1  0.62520000  0.59440000  0.92430000  1.0 -0.1504437952
C  C116  1  0.75220000  0.52110000  0.02920000  1.0 -0.2438562764
C  C117  1  0.27480000  0.60500000  0.93594000  1.0 -0.1669603987
C  C118  1  0.82560000  0.58540000  0.37713000  1.0 -0.1101212698
C  C119  1  0.24730000  0.52020000  0.47160000  1.0 -0.232148028
C  C120  1  0.84640000  0.61430000  0.09969000  1.0 0.0723420651
C  C121  1  0.57160000  0.67790000  0.07831000  1.0 -0.2026594458
C  C122  1  0.77750000  0.60240000  0.14062000  1.0 -0.1382347188
C  C123  1  0.25520000  0.55280000  0.19877000  1.0 0.5716016562
C  C124  1  0.67120000  0.61340000  0.02437000  1.0 0.1503695494
C  C125  1  0.22770000  0.58620000  0.89431000  1.0 -0.1101212698
C  C126  1  0.62320000  0.57190000  0.63277000  1.0 -0.0229420635
C  C127  1  0.25210000  0.05220000  0.69892000  1.0 0.5716016562
C  C128  1  0.83990000  0.11310000  0.59934000  1.0 0.0801668697
C  C129  1  0.66770000  0.11420000  0.52472000  1.0 0.13878074
C  C130  1  0.91120000  0.08160000  0.67348000  1.0 -0.0817237488
C  C131  1  0.52450000  0.11010000  0.04835000  1.0 0.0871183546
C  C132  1  0.32620000  0.05310000  0.32140000  1.0 0.5931446076
C  C133  1  0.57590000  0.20050000  0.94967000  1.0 0.042258529
C  C134  1  0.48050000  0.13320000  0.00431000  1.0 -0.0393742231
C  C135  1  0.30590000  0.13530000  0.93363000  1.0 -0.0318584105
C  C136  1  0.46930000  0.11050000  0.45115000  1.0 0.0801668697
C  C137  1  0.42410000  0.19930000  0.54955000  1.0 0.024501671
C  C138  1  0.62330000  0.07200000  0.13314000  1.0 -0.0318584105
C  C139  1  0.60100000  0.17790000  0.99043000  1.0 -0.2231176375
C  C140  1  0.95960000  0.10390000  0.90862000  1.0 -0.1584560825
C  C141  1  0.57240000  0.17870000  0.57847000  1.0 -0.2438562764
C  C142  1  0.11030000  0.07300000  0.66468000  1.0 -0.0318584105
C  C143  1  0.89510000  0.07340000  0.83571000  1.0 -0.0102404183
C  C144  1  0.82490000  0.08460000  0.87629000  1.0 -0.1170009627
C  C145  1  0.22690000  0.08650000  0.39420000  1.0 -0.1101212698
C  C146  1  0.57370000  0.07540000  0.38191000  1.0 -0.0965698092
C  C147  1  0.52040000  0.13450000  0.49506000  1.0 -0.0102404183
C  C148  1  0.62120000  0.09370000  0.42399000  1.0 -0.1504437952
C  C149  1  0.27500000  0.10520000  0.43640000  1.0 -0.1584560825
C  C150  1  0.04420000  0.10440000  0.59071000  1.0 -0.1799875005
C  C151  1  0.78330000  0.10260000  0.64124000  1.0 -0.1382347188
C  C152  1  0.67400000  0.05300000  0.17855000  1.0 0.5931446076
C  C153  1  0.42450000  0.07520000  0.11660000  1.0 -0.0965698092
C  C154  1  0.40500000  0.17720000  0.50858000  1.0 -0.2231176375
C  C155  1  0.08840000  0.08180000  0.82767000  1.0 -0.0817237488
C  C156  1  0.69400000  0.13630000  0.56647000  1.0 -0.0393742231
C  C157  1  0.37480000  0.09440000  0.07570000  1.0 -0.1504437952
C  C158  1  0.24780000  0.02110000  0.97080000  1.0 -0.2438562764
C  C159  1  0.72520000  0.10500000  0.06406000  1.0 -0.1669603987
C  C160  1  0.17440000  0.08540000  0.62287000  1.0 -0.1101212698
C  C161  1  0.75270000  0.02020000  0.52840000  1.0 -0.232148028
C  C162  1  0.15360000  0.11430000  0.90031000  1.0 0.0723420651
C  C163  1  0.42840000  0.17790000  0.92169000  1.0 -0.2026594458
C  C164  1  0.22250000  0.10240000  0.85938000  1.0 -0.1382347188
C  C165  1  0.74480000  0.05280000  0.80123000  1.0 0.5716016562
C  C166  1  0.32880000  0.11340000  0.97563000  1.0 0.1503695494
C  C167  1  0.77230000  0.08620000  0.10569000  1.0 -0.1101212698
C  C168  1  0.37680000  0.07190000  0.36723000  1.0 -0.0229420635
C  C169  1  0.29670000  0.25000000  0.56250000  1.0 0.1503695494
C  C170  1  0.24580000  0.25000000  0.61368000  1.0 -0.4318444757
C  C171  1  0.10310000  0.25000000  0.54100000  1.0 -0.2946343748
C  C172  1  0.69110000  0.25000000  0.93780000  1.0 0.1284763794
C  C173  1  0.92010000  0.25000000  0.96180000  1.0 -0.3181662439
C  C174  1  0.70610000  0.25000000  0.89120000  1.0 -0.4521764098
C  C175  1  0.70330000  0.75000000  0.43750000  1.0 0.1503695494
C  C176  1  0.75420000  0.75000000  0.38632000  1.0 -0.4318444757
C  C177  1  0.89690000  0.75000000  0.45900000  1.0 -0.2946343748
C  C178  1  0.30890000  0.75000000  0.06220000  1.0 0.1284763794
C  C179  1  0.07990000  0.75000000  0.03820000  1.0 -0.3181662439
C  C180  1  0.29390000  0.75000000  0.10880000  1.0 -0.4521764098
O  O1  1  0.85210000  0.45553000  0.18958000  1.0 -0.5903917282
O  O2  1  0.80420000  0.47896000  0.77111000  1.0 -0.60691424
O  O3  1  0.19820000  0.47954000  0.72889000  1.0 -0.5991986571
O  O4  1  0.79260000  0.42760000  0.51118000  1.0 -0.1799875005
O  O5  1  0.56630000  0.43470000  0.80064000  1.0 -0.5030509411
O  O6  1  0.47070000  0.45185000  0.29723000  1.0 -0.5514921426
O  O7  1  0.20980000  0.42670000  0.98882000  1.0 -0.1504437952
O  O8  1  0.52740000  0.45260000  0.20320000  1.0 -0.5656190394
O  O9  1  0.14650000  0.45526000  0.31099000  1.0 -0.5903917282
O  O10  1  0.43150000  0.43350000  0.69889000  1.0 -0.5245832382
O  O11  1  0.14790000  0.95553000  0.81042000  1.0 -0.5903917282
O  O12  1  0.19580000  0.97896000  0.22889000  1.0 -0.60691424
O  O13  1  0.80180000  0.97954000  0.27111000  1.0 -0.5991986571
O  O14  1  0.20740000  0.92760000  0.48882000  1.0 -0.1799875005
O  O15  1  0.43370000  0.93470000  0.19936000  1.0 -0.5030509411
O  O16  1  0.52930000  0.95185000  0.70277000  1.0 -0.5514921426
O  O17  1  0.79020000  0.92670000  0.01118000  1.0 -0.1504437952
O  O18  1  0.47260000  0.95260000  0.79680000  1.0 -0.5656190394
O  O19  1  0.85350000  0.95526000  0.68901000  1.0 -0.5903917282
O  O20  1  0.56850000  0.93350000  0.30111000  1.0 -0.5245832382
O  O21  1  0.14790000  0.54447000  0.81042000  1.0 -0.5903917282
O  O22  1  0.19580000  0.52104000  0.22889000  1.0 -0.60691424
O  O23  1  0.80180000  0.52046000  0.27111000  1.0 -0.5991986571
O  O24  1  0.20740000  0.57240000  0.48882000  1.0 -0.1799875005
O  O25  1  0.43370000  0.56530000  0.19936000  1.0 -0.5030509411
O  O26  1  0.52930000  0.54815000  0.70277000  1.0 -0.5514921426
O  O27  1  0.79020000  0.57330000  0.01118000  1.0 -0.1504437952
O  O28  1  0.47260000  0.54740000  0.79680000  1.0 -0.5656190394
O  O29  1  0.85350000  0.54474000  0.68901000  1.0 -0.5903917282
O  O30  1  0.56850000  0.56650000  0.30111000  1.0 -0.5245832382
O  O31  1  0.85210000  0.04447000  0.18958000  1.0 -0.5903917282
O  O32  1  0.80420000  0.02104000  0.77111000  1.0 -0.60691424
O  O33  1  0.19820000  0.02046000  0.72889000  1.0 -0.5991986571
O  O34  1  0.79260000  0.07240000  0.51118000  1.0 -0.1799875005
O  O35  1  0.56630000  0.06530000  0.80064000  1.0 -0.5030509411
O  O36  1  0.47070000  0.04815000  0.29723000  1.0 -0.5514921426
O  O37  1  0.20980000  0.07330000  0.98882000  1.0 -0.1504437952
O  O38  1  0.52740000  0.04740000  0.20320000  1.0 -0.5656190394
O  O39  1  0.14650000  0.04474000  0.31099000  1.0 -0.5903917282
O  O40  1  0.43150000  0.06650000  0.69889000  1.0 -0.5245832382
