# DDEC6 charges by PACMAN v1.1 (https://github.com/mtap-research/PACMAN-charge/)
data_NEPBOD_ASR_pacman
_symmetry_space_group_name_H-M   'P 1'
_cell_length_a   6.70090000
_cell_length_b   24.61680000
_cell_length_c   30.78260000
_cell_angle_alpha   90.00000000
_cell_angle_beta   92.76300000
_cell_angle_gamma   90.00000000
_symmetry_Int_Tables_number   1
_chemical_formula_structural   Co2H38(C9O2)5
_chemical_formula_sum   'Co8 H152 C180 O40'
_cell_volume   5071.83201916
_cell_formula_units_Z   4
loop_
 _symmetry_equiv_pos_site_id
 _symmetry_equiv_pos_as_xyz
  1  'x, y, z'
loop_
 _atom_site_type_symbol
 _atom_site_label
 _atom_site_symmetry_multiplicity
 _atom_site_fract_x
 _atom_site_fract_y
 _atom_site_fract_z
 _atom_site_occupancy
 _atom_site_charge
Co  Co1  1  0.49969000  0.48970000  0.74997000  1.0 0.9670592993
Co  Co2  1  0.00007000  0.53930000  0.75008000  1.0 1.0512052626
Co  Co3  1  0.50031000  0.98970000  0.25003000  1.0 0.9670592993
Co  Co4  1  0.99993000  0.03930000  0.24992000  1.0 1.0512052626
Co  Co5  1  0.50031000  0.51030000  0.25003000  1.0 0.9670592993
Co  Co6  1  0.99993000  0.46070000  0.24992000  1.0 1.0512052626
Co  Co7  1  0.49969000  0.01030000  0.74997000  1.0 0.9670592993
Co  Co8  1  0.00007000  0.96070000  0.75008000  1.0 1.0512052626
H  H1  1  0.17480000  0.61440000  0.95350000  1.0 0.1199196006
H  H2  1  0.82550000  0.61450000  0.54600000  1.0 0.1199196006
H  H3  1  0.30360000  0.69040000  0.98910000  1.0 0.1199196006
H  H4  1  0.40650000  0.69270000  0.39440000  1.0 0.1294580868
H  H5  1  0.24300000  0.59490000  0.56640000  1.0 0.1122774588
H  H6  1  0.90710000  0.58170000  0.61530000  1.0 0.1199196006
H  H7  1  0.69210000  0.69160000  0.51150000  1.0 0.1199196006
H  H8  1  0.68770000  0.58030000  0.38220000  1.0 0.1199196006
H  H9  1  0.64680000  0.60970000  0.14780000  1.0 0.1294580868
H  H10  1  0.59140000  0.69430000  0.10560000  1.0 0.1294580868
H  H11  1  0.30570000  0.57990000  0.11680000  1.0 0.1199196006
H  H12  1  0.08870000  0.61160000  0.06330000  1.0 0.1294580868
H  H13  1  0.09690000  0.58470000  0.88370000  1.0 0.1199196006
H  H14  1  0.32210000  0.56290000  0.63480000  1.0 0.1294580868
H  H15  1  0.91290000  0.61170000  0.43720000  1.0 0.1199196006
H  H16  1  0.86550000  0.57460000  0.19920000  1.0 0.1294580868
H  H17  1  0.35040000  0.60930000  0.35380000  1.0 0.1199196006
H  H18  1  0.75800000  0.59540000  0.93390000  1.0 0.1122774588
H  H19  1  0.67510000  0.56320000  0.86450000  1.0 0.1294580868
H  H20  1  0.24790000  0.49350000  0.49350000  1.0 0.1294580868
H  H21  1  0.15070000  0.51220000  0.44860000  1.0 0.1199196006
H  H22  1  0.37960000  0.52120000  0.45910000  1.0 0.1122774588
H  H23  1  0.13560000  0.57360000  0.29870000  1.0 0.1294580868
H  H24  1  0.62050000  0.51680000  0.03620000  1.0 0.1199196006
H  H25  1  0.79010000  0.49220000  0.00890000  1.0 0.1294580868
H  H26  1  0.84120000  0.51540000  0.05550000  1.0 0.1199196006
H  H27  1  0.00180000  0.77110000  0.05480000  1.0 0.0692167912
H  H28  1  0.10000000  0.76550000  0.00980000  1.0 0.041763749
H  H29  1  0.04350000  0.71340000  0.03570000  1.0 0.0570431072
H  H30  1  0.21860000  0.78550000  0.11900000  1.0 0.0692167912
H  H31  1  0.15870000  0.72400000  0.11610000  1.0 0.0692167912
H  H32  1  0.38180000  0.74050000  0.12670000  1.0 0.0692167912
H  H33  1  0.90460000  0.77550000  0.48540000  1.0 0.0522733312
H  H34  1  0.93370000  0.71430000  0.47300000  1.0 0.0522733312
H  H35  1  0.00610000  0.76020000  0.44220000  1.0 0.0692167912
H  H36  1  0.61570000  0.75150000  0.37210000  1.0 0.1122774588
H  H37  1  0.81990000  0.78100000  0.38240000  1.0 0.1199196006
H  H38  1  0.81020000  0.71740000  0.38190000  1.0 0.1122774588
H  H39  1  0.82520000  0.11440000  0.04650000  1.0 0.1199196006
H  H40  1  0.17450000  0.11450000  0.45400000  1.0 0.1199196006
H  H41  1  0.69640000  0.19040000  0.01090000  1.0 0.1199196006
H  H42  1  0.59350000  0.19270000  0.60560000  1.0 0.1294580868
H  H43  1  0.75700000  0.09490000  0.43360000  1.0 0.1122774588
H  H44  1  0.09290000  0.08170000  0.38470000  1.0 0.1199196006
H  H45  1  0.30790000  0.19160000  0.48850000  1.0 0.1199196006
H  H46  1  0.31230000  0.08030000  0.61780000  1.0 0.1199196006
H  H47  1  0.35320000  0.10970000  0.85220000  1.0 0.1294580868
H  H48  1  0.40860000  0.19430000  0.89440000  1.0 0.1294580868
H  H49  1  0.69430000  0.07990000  0.88320000  1.0 0.1199196006
H  H50  1  0.91130000  0.11160000  0.93670000  1.0 0.1294580868
H  H51  1  0.90310000  0.08470000  0.11630000  1.0 0.1199196006
H  H52  1  0.67790000  0.06290000  0.36520000  1.0 0.1294580868
H  H53  1  0.08710000  0.11170000  0.56280000  1.0 0.1199196006
H  H54  1  0.13450000  0.07460000  0.80080000  1.0 0.1294580868
H  H55  1  0.64960000  0.10930000  0.64620000  1.0 0.1199196006
H  H56  1  0.24200000  0.09540000  0.06610000  1.0 0.1122774588
H  H57  1  0.32490000  0.06320000  0.13550000  1.0 0.1294580868
H  H58  1  0.75210000  0.99350000  0.50650000  1.0 0.1294580868
H  H59  1  0.84930000  0.01220000  0.55140000  1.0 0.1199196006
H  H60  1  0.62040000  0.02120000  0.54090000  1.0 0.1122774588
H  H61  1  0.86440000  0.07360000  0.70130000  1.0 0.1294580868
H  H62  1  0.37950000  0.01680000  0.96380000  1.0 0.1199196006
H  H63  1  0.20990000  0.99220000  0.99110000  1.0 0.1294580868
H  H64  1  0.15880000  0.01540000  0.94450000  1.0 0.1199196006
H  H65  1  0.99820000  0.27110000  0.94520000  1.0 0.0692167912
H  H66  1  0.90000000  0.26550000  0.99020000  1.0 0.041763749
H  H67  1  0.95650000  0.21340000  0.96430000  1.0 0.0570431072
H  H68  1  0.78140000  0.28550000  0.88100000  1.0 0.0692167912
H  H69  1  0.84130000  0.22400000  0.88390000  1.0 0.0692167912
H  H70  1  0.61820000  0.24050000  0.87330000  1.0 0.0692167912
H  H71  1  0.09540000  0.27550000  0.51460000  1.0 0.0522733312
H  H72  1  0.06630000  0.21430000  0.52700000  1.0 0.0522733312
H  H73  1  0.99390000  0.26020000  0.55780000  1.0 0.0692167912
H  H74  1  0.38430000  0.25150000  0.62790000  1.0 0.1122774588
H  H75  1  0.18010000  0.28100000  0.61760000  1.0 0.1122774588
H  H76  1  0.18980000  0.21740000  0.61810000  1.0 0.1122774588
H  H77  1  0.82520000  0.38560000  0.04650000  1.0 0.1199196006
H  H78  1  0.17450000  0.38550000  0.45400000  1.0 0.1199196006
H  H79  1  0.69640000  0.30960000  0.01090000  1.0 0.1199196006
H  H80  1  0.59350000  0.30730000  0.60560000  1.0 0.1294580868
H  H81  1  0.75700000  0.40510000  0.43360000  1.0 0.1122774588
H  H82  1  0.09290000  0.41830000  0.38470000  1.0 0.1199196006
H  H83  1  0.30790000  0.30840000  0.48850000  1.0 0.1199196006
H  H84  1  0.31230000  0.41970000  0.61780000  1.0 0.1199196006
H  H85  1  0.35320000  0.39030000  0.85220000  1.0 0.1294580868
H  H86  1  0.40860000  0.30570000  0.89440000  1.0 0.1294580868
H  H87  1  0.69430000  0.42010000  0.88320000  1.0 0.1199196006
H  H88  1  0.91130000  0.38840000  0.93670000  1.0 0.1294580868
H  H89  1  0.90310000  0.41530000  0.11630000  1.0 0.1199196006
H  H90  1  0.67790000  0.43710000  0.36520000  1.0 0.1294580868
H  H91  1  0.08710000  0.38830000  0.56280000  1.0 0.1199196006
H  H92  1  0.13450000  0.42540000  0.80080000  1.0 0.1294580868
H  H93  1  0.64960000  0.39070000  0.64620000  1.0 0.1199196006
H  H94  1  0.24200000  0.40460000  0.06610000  1.0 0.1122774588
H  H95  1  0.32490000  0.43680000  0.13550000  1.0 0.1294580868
H  H96  1  0.75210000  0.50650000  0.50650000  1.0 0.1294580868
H  H97  1  0.84930000  0.48780000  0.55140000  1.0 0.1199196006
H  H98  1  0.62040000  0.47880000  0.54090000  1.0 0.1199196006
H  H99  1  0.86440000  0.42640000  0.70130000  1.0 0.1294580868
H  H100  1  0.37950000  0.48320000  0.96380000  1.0 0.1199196006
H  H101  1  0.20990000  0.50780000  0.99110000  1.0 0.1294580868
H  H102  1  0.15880000  0.48460000  0.94450000  1.0 0.1199196006
H  H103  1  0.99820000  0.22890000  0.94520000  1.0 0.0692167912
H  H104  1  0.90000000  0.23450000  0.99020000  1.0 0.041763749
H  H105  1  0.95650000  0.28660000  0.96430000  1.0 0.0570431072
H  H106  1  0.78140000  0.21450000  0.88100000  1.0 0.0692167912
H  H107  1  0.84130000  0.27600000  0.88390000  1.0 0.0692167912
H  H108  1  0.61820000  0.25950000  0.87330000  1.0 0.0692167912
H  H109  1  0.09540000  0.22450000  0.51460000  1.0 0.0522733312
H  H110  1  0.06630000  0.28570000  0.52700000  1.0 0.0522733312
H  H111  1  0.99390000  0.23980000  0.55780000  1.0 0.0692167912
H  H112  1  0.38430000  0.24850000  0.62790000  1.0 0.1122774588
H  H113  1  0.18010000  0.21900000  0.61760000  1.0 0.1122774588
H  H114  1  0.18980000  0.28260000  0.61810000  1.0 0.1122774588
H  H115  1  0.17480000  0.88560000  0.95350000  1.0 0.1199196006
H  H116  1  0.82550000  0.88550000  0.54600000  1.0 0.1199196006
H  H117  1  0.30360000  0.80960000  0.98910000  1.0 0.1199196006
H  H118  1  0.40650000  0.80730000  0.39440000  1.0 0.1294580868
H  H119  1  0.24300000  0.90510000  0.56640000  1.0 0.1122774588
H  H120  1  0.90710000  0.91830000  0.61530000  1.0 0.1199196006
H  H121  1  0.69210000  0.80840000  0.51150000  1.0 0.1199196006
H  H122  1  0.68770000  0.91970000  0.38220000  1.0 0.1199196006
H  H123  1  0.64680000  0.89030000  0.14780000  1.0 0.1294580868
H  H124  1  0.59140000  0.80570000  0.10560000  1.0 0.1294580868
H  H125  1  0.30570000  0.92010000  0.11680000  1.0 0.1199196006
H  H126  1  0.08870000  0.88840000  0.06330000  1.0 0.1294580868
H  H127  1  0.09690000  0.91530000  0.88370000  1.0 0.1199196006
H  H128  1  0.32210000  0.93710000  0.63480000  1.0 0.1294580868
H  H129  1  0.91290000  0.88830000  0.43720000  1.0 0.1199196006
H  H130  1  0.86550000  0.92540000  0.19920000  1.0 0.1294580868
H  H131  1  0.35040000  0.89070000  0.35380000  1.0 0.1199196006
H  H132  1  0.75800000  0.90460000  0.93390000  1.0 0.1122774588
H  H133  1  0.67510000  0.93680000  0.86450000  1.0 0.1294580868
H  H134  1  0.24790000  0.00650000  0.49350000  1.0 0.1294580868
H  H135  1  0.15070000  0.98780000  0.44860000  1.0 0.1199196006
H  H136  1  0.37960000  0.97880000  0.45910000  1.0 0.1122774588
H  H137  1  0.13560000  0.92640000  0.29870000  1.0 0.1294580868
H  H138  1  0.62050000  0.98320000  0.03620000  1.0 0.1199196006
H  H139  1  0.79010000  0.00780000  0.00890000  1.0 0.1294580868
H  H140  1  0.84120000  0.98460000  0.05550000  1.0 0.1199196006
H  H141  1  0.00180000  0.72890000  0.05480000  1.0 0.0692167912
H  H142  1  0.10000000  0.73450000  0.00980000  1.0 0.041763749
H  H143  1  0.04350000  0.78660000  0.03570000  1.0 0.0570431072
H  H144  1  0.21860000  0.71450000  0.11900000  1.0 0.0692167912
H  H145  1  0.15870000  0.77600000  0.11610000  1.0 0.0692167912
H  H146  1  0.38180000  0.75950000  0.12670000  1.0 0.0692167912
H  H147  1  0.90460000  0.72450000  0.48540000  1.0 0.0522733312
H  H148  1  0.93370000  0.78570000  0.47300000  1.0 0.0522733312
H  H149  1  0.00610000  0.73980000  0.44220000  1.0 0.0692167912
H  H150  1  0.61570000  0.74850000  0.37210000  1.0 0.1122774588
H  H151  1  0.81990000  0.71900000  0.38240000  1.0 0.1122774588
H  H152  1  0.81020000  0.78260000  0.38190000  1.0 0.1199196006
C  C1  1  0.47500000  0.60970000  0.95136000  1.0 0.087920025
C  C2  1  0.27720000  0.60500000  0.93561000  1.0 -0.1611818038
C  C3  1  0.89370000  0.57420000  0.33575000  1.0 -0.0078039858
C  C4  1  0.72400000  0.60470000  0.56401000  1.0 -0.1611818038
C  C5  1  0.40170000  0.67670000  0.00855000  1.0 -0.2117698789
C  C6  1  0.52580000  0.60990000  0.54867000  1.0 0.0847537965
C  C7  1  0.42500000  0.67810000  0.42214000  1.0 -0.239824557
C  C8  1  0.47830000  0.63350000  0.50499000  1.0 -0.0219798113
C  C9  1  0.51940000  0.63370000  0.99530000  1.0 -0.0219798113
C  C10  1  0.37630000  0.59310000  0.57623000  1.0 -0.1504684239
C  C11  1  0.77400000  0.58520000  0.60577000  1.0 -0.1124335155
C  C12  1  0.59620000  0.67740000  0.49183000  1.0 -0.2292491868
C  C13  1  0.82170000  0.58550000  0.37682000  1.0 -0.1158039458
C  C14  1  0.77850000  0.60310000  0.14104000  1.0 -0.1409707815
C  C15  1  0.15560000  0.61320000  0.40081000  1.0 0.0692167912
C  C16  1  0.69400000  0.63570000  0.06603000  1.0 -0.0445249118
C  C17  1  0.57290000  0.67910000  0.07802000  1.0 -0.2292491868
C  C18  1  0.17270000  0.58540000  0.12290000  1.0 -0.098344634
C  C19  1  0.84130000  0.61430000  0.09905000  1.0 0.087920025
C  C20  1  0.04300000  0.60470000  0.09082000  1.0 -0.1855990141
C  C21  1  0.11100000  0.57370000  0.16469000  1.0 -0.069775427
C  C22  1  0.22990000  0.58660000  0.89377000  1.0 -0.1124335155
C  C23  1  0.57480000  0.70020000  0.45062000  1.0 0.0093299087
C  C24  1  0.33200000  0.61420000  0.47542000  1.0 0.1294580868
C  C25  1  0.62220000  0.57120000  0.63289000  1.0 -0.0308893984
C  C26  1  0.42340000  0.57410000  0.61719000  1.0 -0.098344634
C  C27  1  0.95680000  0.60470000  0.40956000  1.0 -0.1694656983
C  C28  1  0.91140000  0.58280000  0.17196000  1.0 -0.069775427
C  C29  1  0.24690000  0.55420000  0.19866000  1.0 0.5698581785
C  C30  1  0.74140000  0.55350000  0.30158000  1.0 0.5593597144
C  C31  1  0.37910000  0.57090000  0.86687000  1.0 -0.0219798113
C  C32  1  0.21780000  0.60250000  0.35959000  1.0 -0.1409707815
C  C33  1  0.62460000  0.59340000  0.92416000  1.0 -0.1504684239
C  C34  1  0.57410000  0.57410000  0.88227000  1.0 -0.098344634
C  C35  1  0.42480000  0.69980000  0.04918000  1.0 0.0182304401
C  C36  1  0.30460000  0.63560000  0.43409000  1.0 -0.0308893984
C  C37  1  0.32460000  0.55120000  0.82105000  1.0 0.590735361
C  C38  1  0.25010000  0.52060000  0.47110000  1.0 -0.239824557
C  C39  1  0.09000000  0.58170000  0.32596000  1.0 -0.0902662724
C  C40  1  0.66920000  0.55300000  0.67856000  1.0 0.590735361
C  C41  1  0.67030000  0.61350000  0.02399000  1.0 0.1583601386
C  C42  1  0.75840000  0.51980000  0.02940000  1.0 -0.239824557
C  C43  1  0.52500000  0.10970000  0.04864000  1.0 0.087920025
C  C44  1  0.72280000  0.10500000  0.06439000  1.0 -0.1611818038
C  C45  1  0.10630000  0.07420000  0.66425000  1.0 -0.0078039858
C  C46  1  0.27600000  0.10470000  0.43599000  1.0 -0.1611818038
C  C47  1  0.59830000  0.17670000  0.99145000  1.0 -0.2117698789
C  C48  1  0.47420000  0.10990000  0.45133000  1.0 0.0847537965
C  C49  1  0.57500000  0.17810000  0.57786000  1.0 -0.239824557
C  C50  1  0.52170000  0.13350000  0.49501000  1.0 -0.0219798113
C  C51  1  0.48060000  0.13370000  0.00470000  1.0 -0.0219798113
C  C52  1  0.62370000  0.09310000  0.42377000  1.0 -0.1504684239
C  C53  1  0.22600000  0.08520000  0.39423000  1.0 -0.1124335155
C  C54  1  0.40380000  0.17740000  0.50817000  1.0 -0.2292491868
C  C55  1  0.17830000  0.08550000  0.62318000  1.0 -0.1158039458
C  C56  1  0.22150000  0.10310000  0.85896000  1.0 -0.1409707815
C  C57  1  0.84440000  0.11320000  0.59919000  1.0 0.0692167912
C  C58  1  0.30600000  0.13570000  0.93397000  1.0 -0.0445249118
C  C59  1  0.42710000  0.17910000  0.92198000  1.0 -0.2292491868
C  C60  1  0.82730000  0.08540000  0.87710000  1.0 -0.098344634
C  C61  1  0.15870000  0.11430000  0.90095000  1.0 0.087920025
C  C62  1  0.95700000  0.10470000  0.90918000  1.0 -0.1855990141
C  C63  1  0.88900000  0.07370000  0.83531000  1.0 -0.069775427
C  C64  1  0.77010000  0.08660000  0.10623000  1.0 -0.1124335155
C  C65  1  0.42520000  0.20020000  0.54938000  1.0 0.0093299087
C  C66  1  0.66800000  0.11420000  0.52458000  1.0 0.1294580868
C  C67  1  0.37780000  0.07120000  0.36711000  1.0 -0.0308893984
C  C68  1  0.57660000  0.07410000  0.38281000  1.0 -0.098344634
C  C69  1  0.04320000  0.10470000  0.59044000  1.0 -0.1694656983
C  C70  1  0.08860000  0.08280000  0.82804000  1.0 -0.0752283186
C  C71  1  0.75310000  0.05420000  0.80134000  1.0 0.5698581785
C  C72  1  0.25860000  0.05350000  0.69842000  1.0 0.5593597144
C  C73  1  0.62090000  0.07090000  0.13313000  1.0 -0.0219798113
C  C74  1  0.78220000  0.10250000  0.64041000  1.0 -0.1409707815
C  C75  1  0.37540000  0.09340000  0.07584000  1.0 -0.1504684239
C  C76  1  0.42590000  0.07410000  0.11773000  1.0 -0.098344634
C  C77  1  0.57520000  0.19980000  0.95082000  1.0 0.0182304401
C  C78  1  0.69540000  0.13560000  0.56591000  1.0 -0.0308893984
C  C79  1  0.67540000  0.05120000  0.17895000  1.0 0.590735361
C  C80  1  0.74990000  0.02060000  0.52890000  1.0 -0.239824557
C  C81  1  0.91000000  0.08170000  0.67404000  1.0 -0.0902662724
C  C82  1  0.33080000  0.05300000  0.32144000  1.0 0.590735361
C  C83  1  0.32970000  0.11350000  0.97601000  1.0 0.1583601386
C  C84  1  0.24160000  0.01980000  0.97060000  1.0 -0.239824557
C  C85  1  0.52500000  0.39030000  0.04864000  1.0 0.087920025
C  C86  1  0.72280000  0.39500000  0.06439000  1.0 -0.1611818038
C  C87  1  0.10630000  0.42580000  0.66425000  1.0 -0.0078039858
C  C88  1  0.27600000  0.39530000  0.43599000  1.0 -0.1611818038
C  C89  1  0.59830000  0.32330000  0.99145000  1.0 -0.2117698789
C  C90  1  0.47420000  0.39010000  0.45133000  1.0 0.0847537965
C  C91  1  0.57500000  0.32190000  0.57786000  1.0 -0.239824557
C  C92  1  0.52170000  0.36650000  0.49501000  1.0 -0.0219798113
C  C93  1  0.48060000  0.36630000  0.00470000  1.0 -0.0219798113
C  C94  1  0.62370000  0.40690000  0.42377000  1.0 -0.1504684239
C  C95  1  0.22600000  0.41480000  0.39423000  1.0 -0.1124335155
C  C96  1  0.40380000  0.32260000  0.50817000  1.0 -0.2292491868
C  C97  1  0.17830000  0.41450000  0.62318000  1.0 -0.1158039458
C  C98  1  0.22150000  0.39690000  0.85896000  1.0 -0.1409707815
C  C99  1  0.84440000  0.38680000  0.59919000  1.0 0.0692167912
C  C100  1  0.30600000  0.36430000  0.93397000  1.0 -0.0445249118
C  C101  1  0.42710000  0.32090000  0.92198000  1.0 -0.2292491868
C  C102  1  0.82730000  0.41460000  0.87710000  1.0 -0.098344634
C  C103  1  0.15870000  0.38570000  0.90095000  1.0 0.087920025
C  C104  1  0.95700000  0.39530000  0.90918000  1.0 -0.1855990141
C  C105  1  0.88900000  0.42630000  0.83531000  1.0 -0.069775427
C  C106  1  0.77010000  0.41340000  0.10623000  1.0 -0.1124335155
C  C107  1  0.42520000  0.29980000  0.54938000  1.0 0.0093299087
C  C108  1  0.66800000  0.38580000  0.52458000  1.0 0.1294580868
C  C109  1  0.37780000  0.42880000  0.36711000  1.0 -0.0308893984
C  C110  1  0.57660000  0.42590000  0.38281000  1.0 -0.098344634
C  C111  1  0.04320000  0.39530000  0.59044000  1.0 -0.1694656983
C  C112  1  0.08860000  0.41720000  0.82804000  1.0 -0.069775427
C  C113  1  0.75310000  0.44580000  0.80134000  1.0 0.5698581785
C  C114  1  0.25860000  0.44650000  0.69842000  1.0 0.5593597144
C  C115  1  0.62090000  0.42910000  0.13313000  1.0 -0.0219798113
C  C116  1  0.78220000  0.39750000  0.64041000  1.0 -0.1409707815
C  C117  1  0.37540000  0.40660000  0.07584000  1.0 -0.1504684239
C  C118  1  0.42590000  0.42590000  0.11773000  1.0 -0.098344634
C  C119  1  0.57520000  0.30020000  0.95082000  1.0 0.0182304401
C  C120  1  0.69540000  0.36440000  0.56591000  1.0 -0.0308893984
C  C121  1  0.67540000  0.44880000  0.17895000  1.0 0.590735361
C  C122  1  0.74990000  0.47940000  0.52890000  1.0 -0.239824557
C  C123  1  0.91000000  0.41830000  0.67404000  1.0 -0.0902662724
C  C124  1  0.33080000  0.44700000  0.32144000  1.0 0.590735361
C  C125  1  0.32970000  0.38650000  0.97601000  1.0 0.1583601386
C  C126  1  0.24160000  0.48020000  0.97060000  1.0 -0.239824557
C  C127  1  0.47500000  0.89030000  0.95136000  1.0 0.087920025
C  C128  1  0.27720000  0.89500000  0.93561000  1.0 -0.1611818038
C  C129  1  0.89370000  0.92580000  0.33575000  1.0 -0.0078039858
C  C130  1  0.72400000  0.89530000  0.56401000  1.0 -0.1611818038
C  C131  1  0.40170000  0.82330000  0.00855000  1.0 -0.2117698789
C  C132  1  0.52580000  0.89010000  0.54867000  1.0 0.0847537965
C  C133  1  0.42500000  0.82190000  0.42214000  1.0 -0.239824557
C  C134  1  0.47830000  0.86650000  0.50499000  1.0 -0.0219798113
C  C135  1  0.51940000  0.86630000  0.99530000  1.0 -0.0219798113
C  C136  1  0.37630000  0.90690000  0.57623000  1.0 -0.1504684239
C  C137  1  0.77400000  0.91480000  0.60577000  1.0 -0.1124335155
C  C138  1  0.59620000  0.82260000  0.49183000  1.0 -0.2292491868
C  C139  1  0.82170000  0.91450000  0.37682000  1.0 -0.1158039458
C  C140  1  0.77850000  0.89690000  0.14104000  1.0 -0.1409707815
C  C141  1  0.15560000  0.88680000  0.40081000  1.0 0.0692167912
C  C142  1  0.69400000  0.86430000  0.06603000  1.0 -0.045219168
C  C143  1  0.57290000  0.82090000  0.07802000  1.0 -0.2292491868
C  C144  1  0.17270000  0.91460000  0.12290000  1.0 -0.098344634
C  C145  1  0.84130000  0.88570000  0.09905000  1.0 0.087920025
C  C146  1  0.04300000  0.89530000  0.09082000  1.0 -0.1855990141
C  C147  1  0.11100000  0.92630000  0.16469000  1.0 -0.069775427
C  C148  1  0.22990000  0.91340000  0.89377000  1.0 -0.1124335155
C  C149  1  0.57480000  0.79980000  0.45062000  1.0 0.0093299087
C  C150  1  0.33200000  0.88580000  0.47542000  1.0 0.1294580868
C  C151  1  0.62220000  0.92880000  0.63289000  1.0 -0.0308893984
C  C152  1  0.42340000  0.92590000  0.61719000  1.0 -0.098344634
C  C153  1  0.95680000  0.89530000  0.40956000  1.0 -0.1694656983
C  C154  1  0.91140000  0.91720000  0.17196000  1.0 -0.069775427
C  C155  1  0.24690000  0.94580000  0.19866000  1.0 0.5698581785
C  C156  1  0.74140000  0.94650000  0.30158000  1.0 0.5593597144
C  C157  1  0.37910000  0.92910000  0.86687000  1.0 -0.0219798113
C  C158  1  0.21780000  0.89750000  0.35959000  1.0 -0.1409707815
C  C159  1  0.62460000  0.90660000  0.92416000  1.0 -0.1504684239
C  C160  1  0.57410000  0.92590000  0.88227000  1.0 -0.098344634
C  C161  1  0.42480000  0.80020000  0.04918000  1.0 0.0182304401
C  C162  1  0.30460000  0.86440000  0.43409000  1.0 -0.0308893984
C  C163  1  0.32460000  0.94880000  0.82105000  1.0 0.590735361
C  C164  1  0.25010000  0.97940000  0.47110000  1.0 -0.239824557
C  C165  1  0.09000000  0.91830000  0.32596000  1.0 -0.0902662724
C  C166  1  0.66920000  0.94700000  0.67856000  1.0 0.590735361
C  C167  1  0.67030000  0.88650000  0.02399000  1.0 0.1583601386
C  C168  1  0.75840000  0.98020000  0.02940000  1.0 -0.239824557
C  C169  1  0.29970000  0.75000000  0.06140000  1.0 0.1807169765
C  C170  1  0.90530000  0.75000000  0.46180000  1.0 -0.3292296901
C  C171  1  0.09180000  0.75000000  0.03830000  1.0 -0.3105538339
C  C172  1  0.74000000  0.75000000  0.38890000  1.0 -0.4474309534
C  C173  1  0.26100000  0.75000000  0.11050000  1.0 -0.3292296901
C  C174  1  0.69890000  0.75000000  0.43760000  1.0 0.1807169765
C  C175  1  0.70030000  0.25000000  0.93860000  1.0 0.1807169765
C  C176  1  0.09470000  0.25000000  0.53820000  1.0 -0.3292296901
C  C177  1  0.90820000  0.25000000  0.96170000  1.0 -0.3105538339
C  C178  1  0.26000000  0.25000000  0.61110000  1.0 -0.4474309534
C  C179  1  0.73900000  0.25000000  0.88950000  1.0 -0.3292296901
C  C180  1  0.30110000  0.25000000  0.56240000  1.0 0.1807169765
O  O1  1  0.80210000  0.52163000  0.27106000  1.0 -0.6169295087
O  O2  1  0.79360000  0.57253000  0.01091000  1.0 -0.1611818038
O  O3  1  0.19780000  0.52203000  0.22903000  1.0 -0.5993003398
O  O4  1  0.85630000  0.54297000  0.68911000  1.0 -0.6169295087
O  O5  1  0.15350000  0.54425000  0.81018000  1.0 -0.547117576
O  O6  1  0.20860000  0.57259000  0.48919000  1.0 -0.1828817129
O  O7  1  0.47230000  0.54666000  0.79640000  1.0 -0.5639607459
O  O8  1  0.56900000  0.56701000  0.30137000  1.0 -0.4730467423
O  O9  1  0.52860000  0.54703000  0.70261000  1.0 -0.537441507
O  O10  1  0.43430000  0.56680000  0.19924000  1.0 -0.533062771
O  O11  1  0.19790000  0.02163000  0.72894000  1.0 -0.6169295087
O  O12  1  0.20640000  0.07253000  0.98909000  1.0 -0.1611818038
O  O13  1  0.80220000  0.02203000  0.77097000  1.0 -0.5993003398
O  O14  1  0.14370000  0.04297000  0.31089000  1.0 -0.6169295087
O  O15  1  0.84650000  0.04425000  0.18982000  1.0 -0.547117576
O  O16  1  0.79140000  0.07259000  0.51081000  1.0 -0.1828817129
O  O17  1  0.52770000  0.04666000  0.20360000  1.0 -0.5639607459
O  O18  1  0.43100000  0.06701000  0.69863000  1.0 -0.4730467423
O  O19  1  0.47140000  0.04703000  0.29739000  1.0 -0.537441507
O  O20  1  0.56570000  0.06680000  0.80076000  1.0 -0.533062771
O  O21  1  0.19790000  0.47837000  0.72894000  1.0 -0.6169295087
O  O22  1  0.20640000  0.42747000  0.98909000  1.0 -0.1611818038
O  O23  1  0.80220000  0.47797000  0.77097000  1.0 -0.5993003398
O  O24  1  0.14370000  0.45703000  0.31089000  1.0 -0.6169295087
O  O25  1  0.84650000  0.45575000  0.18982000  1.0 -0.547117576
O  O26  1  0.79140000  0.42741000  0.51081000  1.0 -0.1828817129
O  O27  1  0.52770000  0.45334000  0.20360000  1.0 -0.5639607459
O  O28  1  0.43100000  0.43299000  0.69863000  1.0 -0.4730467423
O  O29  1  0.47140000  0.45297000  0.29739000  1.0 -0.537441507
O  O30  1  0.56570000  0.43320000  0.80076000  1.0 -0.533062771
O  O31  1  0.80210000  0.97837000  0.27106000  1.0 -0.6169295087
O  O32  1  0.79360000  0.92747000  0.01091000  1.0 -0.1611818038
O  O33  1  0.19780000  0.97797000  0.22903000  1.0 -0.5993003398
O  O34  1  0.85630000  0.95703000  0.68911000  1.0 -0.6169295087
O  O35  1  0.15350000  0.95575000  0.81018000  1.0 -0.547117576
O  O36  1  0.20860000  0.92741000  0.48919000  1.0 -0.1828817129
O  O37  1  0.47230000  0.95334000  0.79640000  1.0 -0.5639607459
O  O38  1  0.56900000  0.93299000  0.30137000  1.0 -0.4730467423
O  O39  1  0.52860000  0.95297000  0.70261000  1.0 -0.537441507
O  O40  1  0.43430000  0.93320000  0.19924000  1.0 -0.533062771
