# DDEC6 charges by PACMAN v1.1 (https://github.com/mtap-research/PACMAN-charge/)
data_NEPCAQ02_ASR_pacman
_symmetry_space_group_name_H-M   'P 1'
_cell_length_a   19.08170000
_cell_length_b   19.08170000
_cell_length_c   6.66620000
_cell_angle_alpha   88.07910000
_cell_angle_beta   91.92090000
_cell_angle_gamma   104.86900000
_symmetry_Int_Tables_number   1
_chemical_formula_structural   Co2H38(C9O2)5
_chemical_formula_sum   'Co4 H76 C90 O20'
_cell_volume   2343.86410663
_cell_formula_units_Z   2
loop_
 _symmetry_equiv_pos_site_id
 _symmetry_equiv_pos_as_xyz
  1  'x, y, z'
loop_
 _atom_site_type_symbol
 _atom_site_label
 _atom_site_symmetry_multiplicity
 _atom_site_fract_x
 _atom_site_fract_y
 _atom_site_fract_z
 _atom_site_occupancy
 _atom_site_charge
Co  Co1  1  0.84642000  0.84642000  0.50000000  1.0 1.0480983361
Co  Co2  1  0.15358000  0.15358000  0.50000000  1.0 1.0480983361
Co  Co3  1  0.79732000  0.79732000  0.00000000  1.0 0.9562777683
Co  Co4  1  0.20268000  0.20268000  0.00000000  1.0 0.9562777683
H  H1  1  0.31280000  0.78680000  0.81730000  1.0 0.1195746136
H  H2  1  0.45190000  0.69630000  0.12100000  1.0 0.1276710305
H  H3  1  0.57120000  0.82960000  0.82080000  1.0 0.1195746136
H  H4  1  0.47570000  0.83150000  0.60210000  1.0 0.1195746136
H  H5  1  0.58010000  0.76710000  0.15980000  1.0 0.1195746136
H  H6  1  0.32500000  0.94180000  0.26010000  1.0 0.1139549046
H  H7  1  0.27590000  0.99090000  0.59340000  1.0 0.1195746136
H  H8  1  0.67880000  0.77220000  0.37260000  1.0 0.1276710305
H  H9  1  0.33770000  0.90430000  0.67650000  1.0 0.1195746136
H  H10  1  0.26150000  0.02710000  0.17710000  1.0 0.1276710305
H  H11  1  0.53290000  0.94970000  0.12970000  1.0 0.1195746136
H  H12  1  0.51470000  0.01150000  0.25100000  1.0 0.1276710305
H  H13  1  0.54940000  0.95420000  0.36160000  1.0 0.1195746136
H  H14  1  0.37030000  0.70390000  0.56160000  1.0 0.1015128169
H  H15  1  0.31500000  0.62740000  0.54940000  1.0 0.0906973753
H  H16  1  0.28810000  0.69530000  0.60420000  1.0 0.0785443235
H  H17  1  0.37250000  0.56490000  0.77010000  1.0 0.1015128169
H  H18  1  0.43940000  0.63180000  0.79610000  1.0 0.1015128169
H  H19  1  0.40010000  0.59130000  0.98560000  1.0 0.0906973753
H  H20  1  0.78680000  0.31280000  0.18270000  1.0 0.1195746136
H  H21  1  0.69630000  0.45190000  0.87900000  1.0 0.1276710305
H  H22  1  0.82960000  0.57120000  0.17920000  1.0 0.1195746136
H  H23  1  0.83150000  0.47570000  0.39790000  1.0 0.1195746136
H  H24  1  0.76710000  0.58010000  0.84020000  1.0 0.1195746136
H  H25  1  0.94180000  0.32500000  0.73990000  1.0 0.1139549046
H  H26  1  0.99090000  0.27590000  0.40660000  1.0 0.1195746136
H  H27  1  0.77220000  0.67880000  0.62740000  1.0 0.1276710305
H  H28  1  0.90430000  0.33770000  0.32350000  1.0 0.1195746136
H  H29  1  0.02710000  0.26150000  0.82290000  1.0 0.1276710305
H  H30  1  0.94970000  0.53290000  0.87030000  1.0 0.1195746136
H  H31  1  0.01150000  0.51470000  0.74900000  1.0 0.1276710305
H  H32  1  0.95420000  0.54940000  0.63840000  1.0 0.1195746136
H  H33  1  0.70390000  0.37030000  0.43840000  1.0 0.1015128169
H  H34  1  0.62740000  0.31500000  0.45060000  1.0 0.0906973753
H  H35  1  0.69530000  0.28810000  0.39580000  1.0 0.0785443235
H  H36  1  0.56490000  0.37250000  0.22990000  1.0 0.1015128169
H  H37  1  0.63180000  0.43940000  0.20390000  1.0 0.1015128169
H  H38  1  0.59130000  0.40010000  0.01440000  1.0 0.0906973753
H  H39  1  0.68720000  0.21320000  0.18270000  1.0 0.1195746136
H  H40  1  0.54810000  0.30370000  0.87900000  1.0 0.1276710305
H  H41  1  0.42880000  0.17040000  0.17920000  1.0 0.1195746136
H  H42  1  0.52430000  0.16850000  0.39790000  1.0 0.1195746136
H  H43  1  0.41990000  0.23290000  0.84020000  1.0 0.1195746136
H  H44  1  0.67500000  0.05820000  0.73990000  1.0 0.1139549046
H  H45  1  0.72410000  0.00910000  0.40660000  1.0 0.1195746136
H  H46  1  0.32120000  0.22780000  0.62740000  1.0 0.1276710305
H  H47  1  0.66230000  0.09570000  0.32350000  1.0 0.1195746136
H  H48  1  0.73850000  0.97290000  0.82290000  1.0 0.1276710305
H  H49  1  0.46710000  0.05030000  0.87030000  1.0 0.1195746136
H  H50  1  0.48530000  0.98850000  0.74900000  1.0 0.1276710305
H  H51  1  0.45060000  0.04580000  0.63840000  1.0 0.1195746136
H  H52  1  0.62970000  0.29610000  0.43840000  1.0 0.1015128169
H  H53  1  0.68500000  0.37260000  0.45060000  1.0 0.0906973753
H  H54  1  0.71190000  0.30470000  0.39580000  1.0 0.0785443235
H  H55  1  0.62750000  0.43510000  0.22990000  1.0 0.1015128169
H  H56  1  0.56060000  0.36820000  0.20390000  1.0 0.1015128169
H  H57  1  0.59990000  0.40870000  0.01440000  1.0 0.0906973753
H  H58  1  0.21320000  0.68720000  0.81730000  1.0 0.1195746136
H  H59  1  0.30370000  0.54810000  0.12100000  1.0 0.1276710305
H  H60  1  0.17040000  0.42880000  0.82080000  1.0 0.1195746136
H  H61  1  0.16850000  0.52430000  0.60210000  1.0 0.1195746136
H  H62  1  0.23290000  0.41990000  0.15980000  1.0 0.1195746136
H  H63  1  0.05820000  0.67500000  0.26010000  1.0 0.1139549046
H  H64  1  0.00910000  0.72410000  0.59340000  1.0 0.1195746136
H  H65  1  0.22780000  0.32120000  0.37260000  1.0 0.1276710305
H  H66  1  0.09570000  0.66230000  0.67650000  1.0 0.1195746136
H  H67  1  0.97290000  0.73850000  0.17710000  1.0 0.1276710305
H  H68  1  0.05030000  0.46710000  0.12970000  1.0 0.1195746136
H  H69  1  0.98850000  0.48530000  0.25100000  1.0 0.1276710305
H  H70  1  0.04580000  0.45060000  0.36160000  1.0 0.1195746136
H  H71  1  0.29610000  0.62970000  0.56160000  1.0 0.1015128169
H  H72  1  0.37260000  0.68500000  0.54940000  1.0 0.0906973753
H  H73  1  0.30470000  0.71190000  0.60420000  1.0 0.0785443235
H  H74  1  0.43510000  0.62750000  0.77010000  1.0 0.1015128169
H  H75  1  0.36820000  0.56060000  0.79610000  1.0 0.1015128169
H  H76  1  0.40870000  0.59990000  0.98560000  1.0 0.0906973753
C  C1  1  0.21773000  0.06985000  0.82200000  1.0 0.5961327657
C  C2  1  0.34843000  0.78893000  0.91740000  1.0 -0.2310490691
C  C3  1  0.33652000  0.91222000  0.97930000  1.0 0.0785443235
C  C4  1  0.37647000  0.72895000  0.95150000  1.0 0.0139653041
C  C5  1  0.51729000  0.79965000  0.35740000  1.0 0.0785443235
C  C6  1  0.43138000  0.73516000  0.09750000  1.0 -0.2367076118
C  C7  1  0.37142000  0.85228000  0.02700000  1.0 -0.0298772622
C  C8  1  0.57349000  0.81811000  0.68710000  1.0 -0.1135028069
C  C9  1  0.51601000  0.81845000  0.55630000  1.0 -0.1695107547
C  C10  1  0.57877000  0.78095000  0.29170000  1.0 -0.1393875227
C  C11  1  0.31429000  0.95051000  0.12590000  1.0 -0.1507894293
C  C12  1  0.28455000  0.98025000  0.72760000  1.0 -0.1039296732
C  C13  1  0.63753000  0.78285000  0.42010000  1.0 -0.0819729463
C  C14  1  0.45667000  0.79701000  0.20960000  1.0 -0.0298772622
C  C15  1  0.42519000  0.85523000  0.17770000  1.0 0.1428477868
C  C16  1  0.26017000  0.01597000  0.87640000  1.0 -0.0298772622
C  C17  1  0.63524000  0.80052000  0.61940000  1.0 -0.0363733814
C  C18  1  0.32195000  0.92857000  0.77780000  1.0 -0.1695107547
C  C19  1  0.69601000  0.79869000  0.76030000  1.0 0.56916828
C  C20  1  0.27623000  0.00197000  0.07630000  1.0 -0.0912952171
C  C21  1  0.51650000  0.96170000  0.25560000  1.0 -0.2367076118
C  C22  1  0.06985000  0.21773000  0.17800000  1.0 0.5961327657
C  C23  1  0.78893000  0.34843000  0.08260000  1.0 -0.2310490691
C  C24  1  0.91222000  0.33652000  0.02070000  1.0 0.0785443235
C  C25  1  0.72895000  0.37647000  0.04850000  1.0 0.0139653041
C  C26  1  0.79965000  0.51729000  0.64260000  1.0 0.0785443235
C  C27  1  0.73516000  0.43138000  0.90250000  1.0 -0.2367076118
C  C28  1  0.85228000  0.37142000  0.97300000  1.0 -0.0298772622
C  C29  1  0.81811000  0.57349000  0.31290000  1.0 -0.1135028069
C  C30  1  0.81845000  0.51601000  0.44370000  1.0 -0.1695107547
C  C31  1  0.78095000  0.57877000  0.70830000  1.0 -0.1393875227
C  C32  1  0.95051000  0.31429000  0.87410000  1.0 -0.1507894293
C  C33  1  0.98025000  0.28455000  0.27240000  1.0 -0.1039296732
C  C34  1  0.78285000  0.63753000  0.57990000  1.0 -0.0819729463
C  C35  1  0.79701000  0.45667000  0.79040000  1.0 -0.0298772622
C  C36  1  0.85523000  0.42519000  0.82230000  1.0 0.1428477868
C  C37  1  0.01597000  0.26017000  0.12360000  1.0 -0.0298772622
C  C38  1  0.80052000  0.63524000  0.38060000  1.0 -0.0363733814
C  C39  1  0.92857000  0.32195000  0.22220000  1.0 -0.1695107547
C  C40  1  0.79869000  0.69601000  0.23970000  1.0 0.56916828
C  C41  1  0.00197000  0.27623000  0.92370000  1.0 -0.0912952171
C  C42  1  0.96170000  0.51650000  0.74440000  1.0 -0.2367076118
C  C43  1  0.78227000  0.93015000  0.17800000  1.0 0.5961327657
C  C44  1  0.65157000  0.21107000  0.08260000  1.0 -0.2310490691
C  C45  1  0.66348000  0.08778000  0.02070000  1.0 0.0785443235
C  C46  1  0.62353000  0.27105000  0.04850000  1.0 0.0139653041
C  C47  1  0.48271000  0.20035000  0.64260000  1.0 0.0785443235
C  C48  1  0.56862000  0.26484000  0.90250000  1.0 -0.2367076118
C  C49  1  0.62858000  0.14772000  0.97300000  1.0 -0.0298772622
C  C50  1  0.42651000  0.18189000  0.31290000  1.0 -0.1135028069
C  C51  1  0.48399000  0.18155000  0.44370000  1.0 -0.1695107547
C  C52  1  0.42123000  0.21905000  0.70830000  1.0 -0.1393875227
C  C53  1  0.68571000  0.04949000  0.87410000  1.0 -0.1507894293
C  C54  1  0.71545000  0.01975000  0.27240000  1.0 -0.1039296732
C  C55  1  0.36247000  0.21715000  0.57990000  1.0 -0.0819729463
C  C56  1  0.54333000  0.20299000  0.79040000  1.0 -0.0298772622
C  C57  1  0.57481000  0.14477000  0.82230000  1.0 0.1428477868
C  C58  1  0.73983000  0.98403000  0.12360000  1.0 -0.0298772622
C  C59  1  0.36476000  0.19948000  0.38060000  1.0 -0.0363733814
C  C60  1  0.67805000  0.07143000  0.22220000  1.0 -0.1695107547
C  C61  1  0.30399000  0.20131000  0.23970000  1.0 0.56916828
C  C62  1  0.72377000  0.99803000  0.92370000  1.0 -0.0912952171
C  C63  1  0.48350000  0.03830000  0.74440000  1.0 -0.2367076118
C  C64  1  0.93015000  0.78227000  0.82200000  1.0 0.5961327657
C  C65  1  0.21107000  0.65157000  0.91740000  1.0 -0.2310490691
C  C66  1  0.08778000  0.66348000  0.97930000  1.0 0.0785443235
C  C67  1  0.27105000  0.62353000  0.95150000  1.0 0.0139653041
C  C68  1  0.20035000  0.48271000  0.35740000  1.0 0.0785443235
C  C69  1  0.26484000  0.56862000  0.09750000  1.0 -0.2367076118
C  C70  1  0.14772000  0.62858000  0.02700000  1.0 -0.0298772622
C  C71  1  0.18189000  0.42651000  0.68710000  1.0 -0.1135028069
C  C72  1  0.18155000  0.48399000  0.55630000  1.0 -0.1695107547
C  C73  1  0.21905000  0.42123000  0.29170000  1.0 -0.1393875227
C  C74  1  0.04949000  0.68571000  0.12590000  1.0 -0.1507894293
C  C75  1  0.01975000  0.71545000  0.72760000  1.0 -0.1039296732
C  C76  1  0.21715000  0.36247000  0.42010000  1.0 -0.0819729463
C  C77  1  0.20299000  0.54333000  0.20960000  1.0 -0.0298772622
C  C78  1  0.14477000  0.57481000  0.17770000  1.0 0.1428477868
C  C79  1  0.98403000  0.73983000  0.87640000  1.0 -0.0298772622
C  C80  1  0.19948000  0.36476000  0.61940000  1.0 -0.0363733814
C  C81  1  0.07143000  0.67805000  0.77780000  1.0 -0.1695107547
C  C82  1  0.20131000  0.30399000  0.76030000  1.0 0.56916828
C  C83  1  0.99803000  0.72377000  0.07630000  1.0 -0.0912952171
C  C84  1  0.03830000  0.48350000  0.25560000  1.0 -0.2367076118
C  C85  1  0.34203000  0.65797000  0.84250000  1.0 0.1605371936
C  C86  1  0.32750000  0.67250000  0.61830000  1.0 -0.408379902
C  C87  1  0.39341000  0.60659000  0.84920000  1.0 -0.4416552082
C  C88  1  0.65797000  0.34203000  0.15750000  1.0 0.1605371936
C  C89  1  0.67250000  0.32750000  0.38170000  1.0 -0.408379902
C  C90  1  0.60659000  0.39341000  0.15080000  1.0 -0.4416552082
O  O1  1  0.76067000  0.80411000  0.69990000  1.0 -0.6047719017
O  O2  1  0.21245000  0.08801000  0.64120000  1.0 -0.5900793419
O  O3  1  0.68572000  0.78894000  0.94490000  1.0 -0.5183374927
O  O4  1  0.44629000  0.91655000  0.29190000  1.0 -0.1608105645
O  O5  1  0.18888000  0.09442000  0.96450000  1.0 -0.557987471
O  O6  1  0.80411000  0.76067000  0.30010000  1.0 -0.6047719017
O  O7  1  0.08801000  0.21245000  0.35880000  1.0 -0.5900793419
O  O8  1  0.78894000  0.68572000  0.05510000  1.0 -0.5183374927
O  O9  1  0.91655000  0.44629000  0.70810000  1.0 -0.1608105645
O  O10  1  0.09442000  0.18888000  0.03550000  1.0 -0.557987471
O  O11  1  0.23933000  0.19589000  0.30010000  1.0 -0.6047719017
O  O12  1  0.78755000  0.91199000  0.35880000  1.0 -0.5900793419
O  O13  1  0.31428000  0.21106000  0.05510000  1.0 -0.5183374927
O  O14  1  0.55371000  0.08345000  0.70810000  1.0 -0.1608105645
O  O15  1  0.81112000  0.90558000  0.03550000  1.0 -0.557987471
O  O16  1  0.19589000  0.23933000  0.69990000  1.0 -0.6047719017
O  O17  1  0.91199000  0.78755000  0.64120000  1.0 -0.5900793419
O  O18  1  0.21106000  0.31428000  0.94490000  1.0 -0.5183374927
O  O19  1  0.08345000  0.55371000  0.29190000  1.0 -0.1608105645
O  O20  1  0.90558000  0.81112000  0.96450000  1.0 -0.557987471
