# DDEC6 charges by PACMAN v1.1 (https://github.com/mtap-research/PACMAN-charge/)
data_NEPCAQ01_ASR_pacman
_symmetry_space_group_name_H-M   'P 1'
_cell_length_a   19.05930000
_cell_length_b   19.05930000
_cell_length_c   6.65770000
_cell_angle_alpha   88.18900000
_cell_angle_beta   91.81100000
_cell_angle_gamma   105.02700000
_symmetry_Int_Tables_number   1
_chemical_formula_structural   Co2H38(C9O2)5
_chemical_formula_sum   'Co4 H76 C90 O20'
_cell_volume   2333.90025394
_cell_formula_units_Z   2
loop_
 _symmetry_equiv_pos_site_id
 _symmetry_equiv_pos_as_xyz
  1  'x, y, z'
loop_
 _atom_site_type_symbol
 _atom_site_label
 _atom_site_symmetry_multiplicity
 _atom_site_fract_x
 _atom_site_fract_y
 _atom_site_fract_z
 _atom_site_occupancy
 _atom_site_charge
Co  Co1  1  0.70195000  0.70195000  0.00000000  1.0 0.9461947848
Co  Co2  1  0.29805000  0.29805000  0.00000000  1.0 0.9461947848
Co  Co3  1  0.34751000  0.34751000  0.50000000  1.0 1.047328787
Co  Co4  1  0.65249000  0.65249000  0.50000000  1.0 1.047328787
H  H1  1  0.73220000  0.91900000  0.16010000  1.0 0.1197758805
H  H2  1  0.66880000  0.92740000  0.82160000  1.0 0.1197758805
H  H3  1  0.71340000  0.18600000  0.81630000  1.0 0.1197758805
H  H4  1  0.72800000  0.82040000  0.37460000  1.0 0.128092928
H  H5  1  0.80370000  0.04750000  0.11990000  1.0 0.128092928
H  H6  1  0.55830000  0.17510000  0.25960000  1.0 0.1142946949
H  H7  1  0.59610000  0.16230000  0.67470000  1.0 0.1197758805
H  H8  1  0.66850000  0.02470000  0.60290000  1.0 0.1197758805
H  H9  1  0.47360000  0.23980000  0.17630000  1.0 0.128092928
H  H10  1  0.50990000  0.22390000  0.59280000  1.0 0.1197758805
H  H11  1  0.54610000  0.96770000  0.12620000  1.0 0.1197758805
H  H12  1  0.54710000  0.94930000  0.35720000  1.0 0.1197758805
H  H13  1  0.48740000  0.98440000  0.26350000  1.0 0.128092928
H  H14  1  0.80550000  0.21070000  0.60170000  1.0 0.0788386521
H  H15  1  0.87370000  0.18430000  0.54720000  1.0 0.0911290722
H  H16  1  0.79740000  0.12840000  0.55900000  1.0 0.1019320495
H  H17  1  0.87310000  0.06450000  0.76780000  1.0 0.1019320495
H  H18  1  0.94030000  0.13150000  0.79570000  1.0 0.1019320495
H  H19  1  0.90040000  0.09040000  0.98430000  1.0 0.0911290722
H  H20  1  0.91900000  0.73220000  0.83990000  1.0 0.1197758805
H  H21  1  0.92740000  0.66880000  0.17840000  1.0 0.1197758805
H  H22  1  0.18600000  0.71340000  0.18370000  1.0 0.1197758805
H  H23  1  0.82040000  0.72800000  0.62540000  1.0 0.128092928
H  H24  1  0.04750000  0.80370000  0.88010000  1.0 0.128092928
H  H25  1  0.17510000  0.55830000  0.74040000  1.0 0.1142946949
H  H26  1  0.16230000  0.59610000  0.32530000  1.0 0.1197758805
H  H27  1  0.02470000  0.66850000  0.39710000  1.0 0.1197758805
H  H28  1  0.23980000  0.47360000  0.82370000  1.0 0.128092928
H  H29  1  0.22390000  0.50990000  0.40720000  1.0 0.1197758805
H  H30  1  0.96770000  0.54610000  0.87380000  1.0 0.1197758805
H  H31  1  0.94930000  0.54710000  0.64280000  1.0 0.1197758805
H  H32  1  0.98440000  0.48740000  0.73650000  1.0 0.128092928
H  H33  1  0.21070000  0.80550000  0.39830000  1.0 0.0788386521
H  H34  1  0.18430000  0.87370000  0.45280000  1.0 0.0911290722
H  H35  1  0.12840000  0.79740000  0.44100000  1.0 0.1019320495
H  H36  1  0.06450000  0.87310000  0.23220000  1.0 0.1019320495
H  H37  1  0.13150000  0.94030000  0.20430000  1.0 0.1019320495
H  H38  1  0.09040000  0.90040000  0.01570000  1.0 0.0911290722
H  H39  1  0.26780000  0.08100000  0.83990000  1.0 0.1197758805
H  H40  1  0.33120000  0.07260000  0.17840000  1.0 0.1197758805
H  H41  1  0.28660000  0.81400000  0.18370000  1.0 0.1197758805
H  H42  1  0.27200000  0.17960000  0.62540000  1.0 0.128092928
H  H43  1  0.19630000  0.95250000  0.88010000  1.0 0.128092928
H  H44  1  0.44170000  0.82490000  0.74040000  1.0 0.1142946949
H  H45  1  0.40390000  0.83770000  0.32530000  1.0 0.1197758805
H  H46  1  0.33150000  0.97530000  0.39710000  1.0 0.1197758805
H  H47  1  0.52640000  0.76020000  0.82370000  1.0 0.128092928
H  H48  1  0.49010000  0.77610000  0.40720000  1.0 0.1197758805
H  H49  1  0.45390000  0.03230000  0.87380000  1.0 0.1197758805
H  H50  1  0.45290000  0.05070000  0.64280000  1.0 0.1197758805
H  H51  1  0.51260000  0.01560000  0.73650000  1.0 0.128092928
H  H52  1  0.19450000  0.78930000  0.39830000  1.0 0.0788386521
H  H53  1  0.12630000  0.81570000  0.45280000  1.0 0.0911290722
H  H54  1  0.20260000  0.87160000  0.44100000  1.0 0.1019320495
H  H55  1  0.12690000  0.93550000  0.23220000  1.0 0.1019320495
H  H56  1  0.05970000  0.86850000  0.20430000  1.0 0.1019320495
H  H57  1  0.09960000  0.90960000  0.01570000  1.0 0.0911290722
H  H58  1  0.08100000  0.26780000  0.16010000  1.0 0.1197758805
H  H59  1  0.07260000  0.33120000  0.82160000  1.0 0.1197758805
H  H60  1  0.81400000  0.28660000  0.81630000  1.0 0.1197758805
H  H61  1  0.17960000  0.27200000  0.37460000  1.0 0.128092928
H  H62  1  0.95250000  0.19630000  0.11990000  1.0 0.128092928
H  H63  1  0.82490000  0.44170000  0.25960000  1.0 0.1142946949
H  H64  1  0.83770000  0.40390000  0.67470000  1.0 0.1197758805
H  H65  1  0.97530000  0.33150000  0.60290000  1.0 0.1197758805
H  H66  1  0.76020000  0.52640000  0.17630000  1.0 0.128092928
H  H67  1  0.77610000  0.49010000  0.59280000  1.0 0.1197758805
H  H68  1  0.03230000  0.45390000  0.12620000  1.0 0.1197758805
H  H69  1  0.05070000  0.45290000  0.35720000  1.0 0.1197758805
H  H70  1  0.01560000  0.51260000  0.26350000  1.0 0.128092928
H  H71  1  0.78930000  0.19450000  0.60170000  1.0 0.0788386521
H  H72  1  0.81570000  0.12630000  0.54720000  1.0 0.0911290722
H  H73  1  0.87160000  0.20260000  0.55900000  1.0 0.1019320495
H  H74  1  0.93550000  0.12690000  0.76780000  1.0 0.1019320495
H  H75  1  0.86850000  0.05970000  0.79570000  1.0 0.1019320495
H  H76  1  0.90960000  0.09960000  0.98430000  1.0 0.0911290722
C  C1  1  0.70105000  0.80315000  0.76150000  1.0 0.5712285956
C  C2  1  0.77128000  0.12308000  0.95040000  1.0 0.0142265864
C  C3  1  0.58803000  0.16343000  0.97880000  1.0 0.0788386521
C  C4  1  0.64779000  0.12837000  0.02710000  1.0 -0.030177978
C  C5  1  0.43063000  0.28325000  0.82160000  1.0 0.5946002771
C  C6  1  0.71855000  0.92059000  0.29240000  1.0 -0.1395697574
C  C7  1  0.68094000  0.92546000  0.68800000  1.0 -0.1111257746
C  C8  1  0.71123000  0.15071000  0.91720000  1.0 -0.2315092999
C  C9  1  0.48445000  0.24039000  0.87550000  1.0 -0.030177978
C  C10  1  0.71683000  0.86159000  0.42160000  1.0 -0.0814695972
C  C11  1  0.70030000  0.98202000  0.35760000  1.0 0.0788386521
C  C12  1  0.76503000  0.06823000  0.09680000  1.0 -0.2404501996
C  C13  1  0.64460000  0.07426000  0.17800000  1.0 0.1447665562
C  C14  1  0.54975000  0.18593000  0.12520000  1.0 -0.1511027942
C  C15  1  0.57185000  0.17807000  0.77630000  1.0 -0.1688158343
C  C16  1  0.69871000  0.86403000  0.61950000  1.0 -0.030177978
C  C17  1  0.70292000  0.04334000  0.20980000  1.0 -0.0372988376
C  C18  1  0.68119000  0.98413000  0.55700000  1.0 -0.1781367342
C  C19  1  0.49843000  0.22459000  0.07530000  1.0 -0.0926318
C  C20  1  0.52048000  0.21542000  0.72720000  1.0 -0.103732394
C  C21  1  0.53727000  0.98297000  0.25690000  1.0 -0.2404501996
C  C22  1  0.80315000  0.70105000  0.23850000  1.0 0.5712285956
C  C23  1  0.12308000  0.77128000  0.04960000  1.0 0.0142265864
C  C24  1  0.16343000  0.58803000  0.02120000  1.0 0.0788386521
C  C25  1  0.12837000  0.64779000  0.97290000  1.0 -0.030177978
C  C26  1  0.28325000  0.43063000  0.17840000  1.0 0.5946002771
C  C27  1  0.92059000  0.71855000  0.70760000  1.0 -0.1395697574
C  C28  1  0.92546000  0.68094000  0.31200000  1.0 -0.1111257746
C  C29  1  0.15071000  0.71123000  0.08280000  1.0 -0.2315092999
C  C30  1  0.24039000  0.48445000  0.12450000  1.0 -0.030177978
C  C31  1  0.86159000  0.71683000  0.57840000  1.0 -0.0814695972
C  C32  1  0.98202000  0.70030000  0.64240000  1.0 0.0788386521
C  C33  1  0.06823000  0.76503000  0.90320000  1.0 -0.2404501996
C  C34  1  0.07426000  0.64460000  0.82200000  1.0 0.1447665562
C  C35  1  0.18593000  0.54975000  0.87480000  1.0 -0.1511027942
C  C36  1  0.17807000  0.57185000  0.22370000  1.0 -0.1688158343
C  C37  1  0.86403000  0.69871000  0.38050000  1.0 -0.030177978
C  C38  1  0.04334000  0.70292000  0.79020000  1.0 -0.0372988376
C  C39  1  0.98413000  0.68119000  0.44300000  1.0 -0.1781367342
C  C40  1  0.22459000  0.49843000  0.92470000  1.0 -0.0926318
C  C41  1  0.21542000  0.52048000  0.27280000  1.0 -0.103732394
C  C42  1  0.98297000  0.53727000  0.74310000  1.0 -0.2404501996
C  C43  1  0.29895000  0.19685000  0.23850000  1.0 0.5712285956
C  C44  1  0.22872000  0.87692000  0.04960000  1.0 0.0142265864
C  C45  1  0.41197000  0.83657000  0.02120000  1.0 0.0788386521
C  C46  1  0.35221000  0.87163000  0.97290000  1.0 -0.030177978
C  C47  1  0.56937000  0.71675000  0.17840000  1.0 0.5946002771
C  C48  1  0.28145000  0.07941000  0.70760000  1.0 -0.1395697574
C  C49  1  0.31906000  0.07454000  0.31200000  1.0 -0.1111257746
C  C50  1  0.28877000  0.84929000  0.08280000  1.0 -0.2315092999
C  C51  1  0.51555000  0.75961000  0.12450000  1.0 -0.030177978
C  C52  1  0.28317000  0.13841000  0.57840000  1.0 -0.0814695972
C  C53  1  0.29970000  0.01798000  0.64240000  1.0 0.0788386521
C  C54  1  0.23497000  0.93177000  0.90320000  1.0 -0.2404501996
C  C55  1  0.35540000  0.92574000  0.82200000  1.0 0.1447665562
C  C56  1  0.45025000  0.81407000  0.87480000  1.0 -0.1511027942
C  C57  1  0.42815000  0.82193000  0.22370000  1.0 -0.1688158343
C  C58  1  0.30129000  0.13597000  0.38050000  1.0 -0.030177978
C  C59  1  0.29708000  0.95666000  0.79020000  1.0 -0.0372988376
C  C60  1  0.31881000  0.01587000  0.44300000  1.0 -0.1781367342
C  C61  1  0.50157000  0.77541000  0.92470000  1.0 -0.0926318
C  C62  1  0.47952000  0.78458000  0.27280000  1.0 -0.103732394
C  C63  1  0.46273000  0.01703000  0.74310000  1.0 -0.2404501996
C  C64  1  0.19685000  0.29895000  0.76150000  1.0 0.5712285956
C  C65  1  0.87692000  0.22872000  0.95040000  1.0 0.0161505436
C  C66  1  0.83657000  0.41197000  0.97880000  1.0 0.0788386521
C  C67  1  0.87163000  0.35221000  0.02710000  1.0 -0.030177978
C  C68  1  0.71675000  0.56937000  0.82160000  1.0 0.5946002771
C  C69  1  0.07941000  0.28145000  0.29240000  1.0 -0.1395697574
C  C70  1  0.07454000  0.31906000  0.68800000  1.0 -0.1111257746
C  C71  1  0.84929000  0.28877000  0.91720000  1.0 -0.2315092999
C  C72  1  0.75961000  0.51555000  0.87550000  1.0 -0.030177978
C  C73  1  0.13841000  0.28317000  0.42160000  1.0 -0.0814695972
C  C74  1  0.01798000  0.29970000  0.35760000  1.0 0.0788386521
C  C75  1  0.93177000  0.23497000  0.09680000  1.0 -0.2404501996
C  C76  1  0.92574000  0.35540000  0.17800000  1.0 0.1447665562
C  C77  1  0.81407000  0.45025000  0.12520000  1.0 -0.1511027942
C  C78  1  0.82193000  0.42815000  0.77630000  1.0 -0.1688158343
C  C79  1  0.13597000  0.30129000  0.61950000  1.0 -0.030177978
C  C80  1  0.95666000  0.29708000  0.20980000  1.0 -0.0372988376
C  C81  1  0.01587000  0.31881000  0.55700000  1.0 -0.1781367342
C  C82  1  0.77541000  0.50157000  0.07530000  1.0 -0.0926318
C  C83  1  0.78458000  0.47952000  0.72720000  1.0 -0.103732394
C  C84  1  0.01703000  0.46273000  0.25690000  1.0 -0.2404501996
C  C85  1  0.84300000  0.15700000  0.84230000  1.0 0.1619734784
C  C86  1  0.82853000  0.17147000  0.61600000  1.0 -0.4124911259
C  C87  1  0.89394000  0.10606000  0.84810000  1.0 -0.4400968532
C  C88  1  0.15700000  0.84300000  0.15770000  1.0 0.1619734784
C  C89  1  0.17147000  0.82853000  0.38400000  1.0 -0.4124911259
C  C90  1  0.10606000  0.89394000  0.15190000  1.0 -0.4400968532
O  O1  1  0.69494000  0.73868000  0.69930000  1.0 -0.6029722522
O  O2  1  0.41263000  0.28849000  0.64030000  1.0 -0.5896477531
O  O3  1  0.70999000  0.81389000  0.94590000  1.0 -0.516659675
O  O4  1  0.58353000  0.05363000  0.29230000  1.0 -0.1588668804
O  O5  1  0.40654000  0.31198000  0.96390000  1.0 -0.5512275229
O  O6  1  0.73868000  0.69494000  0.30070000  1.0 -0.6029722522
O  O7  1  0.28849000  0.41263000  0.35970000  1.0 -0.5896477531
O  O8  1  0.81389000  0.70999000  0.05410000  1.0 -0.516659675
O  O9  1  0.05363000  0.58353000  0.70770000  1.0 -0.1588668804
O  O10  1  0.31198000  0.40654000  0.03610000  1.0 -0.5512275229
O  O11  1  0.30506000  0.26132000  0.30070000  1.0 -0.6029722522
O  O12  1  0.58737000  0.71151000  0.35970000  1.0 -0.5896477531
O  O13  1  0.29001000  0.18611000  0.05410000  1.0 -0.516659675
O  O14  1  0.41647000  0.94637000  0.70770000  1.0 -0.1588668804
O  O15  1  0.59346000  0.68802000  0.03610000  1.0 -0.5512275229
O  O16  1  0.26132000  0.30506000  0.69930000  1.0 -0.6029722522
O  O17  1  0.71151000  0.58737000  0.64030000  1.0 -0.5896477531
O  O18  1  0.18611000  0.29001000  0.94590000  1.0 -0.516659675
O  O19  1  0.94637000  0.41647000  0.29230000  1.0 -0.1588668804
O  O20  1  0.68802000  0.59346000  0.96390000  1.0 -0.5512275229
