# DDEC6 charges by PACMAN v1.1 (https://github.com/mtap-research/PACMAN-charge/)
data_NEPCAQ03_ASR_pacman
_symmetry_space_group_name_H-M   'P 1'
_cell_length_a   19.17630000
_cell_length_b   19.17630000
_cell_length_c   6.67430000
_cell_angle_alpha   88.05160000
_cell_angle_beta   91.94840000
_cell_angle_gamma   104.40900000
_symmetry_Int_Tables_number   1
_chemical_formula_structural   Co2H38(C9O2)5
_chemical_formula_sum   'Co4 H76 C90 O20'
_cell_volume   2374.93856747
_cell_formula_units_Z   2
loop_
 _symmetry_equiv_pos_site_id
 _symmetry_equiv_pos_as_xyz
  1  'x, y, z'
loop_
 _atom_site_type_symbol
 _atom_site_label
 _atom_site_symmetry_multiplicity
 _atom_site_fract_x
 _atom_site_fract_y
 _atom_site_fract_z
 _atom_site_occupancy
 _atom_site_charge
Co  Co1  1  0.65944000  0.65944000  0.50000000  1.0 1.053754033
Co  Co2  1  0.34056000  0.34056000  0.50000000  1.0 1.053754033
Co  Co3  1  0.29294000  0.29294000  0.00000000  1.0 0.9485913827
Co  Co4  1  0.70706000  0.70706000  0.00000000  1.0 0.9485913827
H  H1  1  0.71110000  0.18910000  0.81990000  1.0 0.1123491018
H  H2  1  0.73310000  0.82590000  0.37590000  1.0 0.1270536397
H  H3  1  0.67120000  0.02840000  0.60100000  1.0 0.1190044368
H  H4  1  0.80190000  0.04970000  0.11320000  1.0 0.1270536397
H  H5  1  0.59400000  0.16320000  0.67680000  1.0 0.1190044368
H  H6  1  0.73650000  0.92350000  0.16210000  1.0 0.1190044368
H  H7  1  0.46960000  0.23640000  0.17520000  1.0 0.1190044368
H  H8  1  0.55600000  0.17440000  0.26000000  1.0 0.1123491018
H  H9  1  0.67280000  0.93160000  0.81960000  1.0 0.1190044368
H  H10  1  0.50510000  0.22150000  0.59450000  1.0 0.1190044368
H  H11  1  0.49100000  0.98700000  0.23140000  1.0 0.1270536397
H  H12  1  0.55660000  0.96480000  0.14160000  1.0 0.1190044368
H  H13  1  0.54230000  0.95370000  0.37170000  1.0 0.1190044368
H  H14  1  0.80550000  0.13050000  0.55180000  1.0 0.1190044368
H  H15  1  0.79060000  0.20420000  0.60560000  1.0 0.0973585001
H  H16  1  0.86890000  0.20030000  0.55580000  1.0 0.1190044368
H  H17  1  0.91420000  0.11000000  0.97130000  1.0 0.0376632272
H  H18  1  0.92580000  0.12540000  0.74100000  1.0 0.0376632272
H  H19  1  0.86310000  0.06150000  0.81520000  1.0 0.0376632272
H  H20  1  0.18910000  0.71110000  0.18010000  1.0 0.1123491018
H  H21  1  0.82590000  0.73310000  0.62410000  1.0 0.1270536397
H  H22  1  0.02840000  0.67120000  0.39900000  1.0 0.1190044368
H  H23  1  0.04970000  0.80190000  0.88680000  1.0 0.1270536397
H  H24  1  0.16320000  0.59400000  0.32320000  1.0 0.1190044368
H  H25  1  0.92350000  0.73650000  0.83790000  1.0 0.1190044368
H  H26  1  0.23640000  0.46960000  0.82480000  1.0 0.1190044368
H  H27  1  0.17440000  0.55600000  0.74000000  1.0 0.1123491018
H  H28  1  0.93160000  0.67280000  0.18040000  1.0 0.1190044368
H  H29  1  0.22150000  0.50510000  0.40550000  1.0 0.1190044368
H  H30  1  0.98700000  0.49100000  0.76860000  1.0 0.1270536397
H  H31  1  0.96480000  0.55660000  0.85840000  1.0 0.1190044368
H  H32  1  0.95370000  0.54230000  0.62830000  1.0 0.1190044368
H  H33  1  0.13050000  0.80550000  0.44820000  1.0 0.1190044368
H  H34  1  0.20420000  0.79060000  0.39440000  1.0 0.0973585001
H  H35  1  0.20030000  0.86890000  0.44420000  1.0 0.1190044368
H  H36  1  0.11000000  0.91420000  0.02870000  1.0 0.0376632272
H  H37  1  0.12540000  0.92580000  0.25900000  1.0 0.0376632272
H  H38  1  0.06150000  0.86310000  0.18480000  1.0 0.0376632272
H  H39  1  0.28890000  0.81090000  0.18010000  1.0 0.1123491018
H  H40  1  0.26690000  0.17410000  0.62410000  1.0 0.1270536397
H  H41  1  0.32880000  0.97160000  0.39900000  1.0 0.1190044368
H  H42  1  0.19810000  0.95030000  0.88680000  1.0 0.1270536397
H  H43  1  0.40600000  0.83680000  0.32320000  1.0 0.1190044368
H  H44  1  0.26350000  0.07650000  0.83790000  1.0 0.1190044368
H  H45  1  0.53040000  0.76360000  0.82480000  1.0 0.1190044368
H  H46  1  0.44400000  0.82560000  0.74000000  1.0 0.1123491018
H  H47  1  0.32720000  0.06840000  0.18040000  1.0 0.1190044368
H  H48  1  0.49490000  0.77850000  0.40550000  1.0 0.1190044368
H  H49  1  0.50900000  0.01300000  0.76860000  1.0 0.1270536397
H  H50  1  0.44340000  0.03520000  0.85840000  1.0 0.1190044368
H  H51  1  0.45770000  0.04630000  0.62830000  1.0 0.1190044368
H  H52  1  0.19450000  0.86950000  0.44820000  1.0 0.1190044368
H  H53  1  0.20940000  0.79580000  0.39440000  1.0 0.0973585001
H  H54  1  0.13110000  0.79970000  0.44420000  1.0 0.1190044368
H  H55  1  0.08580000  0.89000000  0.02870000  1.0 0.0376632272
H  H56  1  0.07420000  0.87460000  0.25900000  1.0 0.0376632272
H  H57  1  0.13690000  0.93850000  0.18480000  1.0 0.0376632272
H  H58  1  0.81090000  0.28890000  0.81990000  1.0 0.1123491018
H  H59  1  0.17410000  0.26690000  0.37590000  1.0 0.1270536397
H  H60  1  0.97160000  0.32880000  0.60100000  1.0 0.1190044368
H  H61  1  0.95030000  0.19810000  0.11320000  1.0 0.1270536397
H  H62  1  0.83680000  0.40600000  0.67680000  1.0 0.1190044368
H  H63  1  0.07650000  0.26350000  0.16210000  1.0 0.1190044368
H  H64  1  0.76360000  0.53040000  0.17520000  1.0 0.1190044368
H  H65  1  0.82560000  0.44400000  0.26000000  1.0 0.1123491018
H  H66  1  0.06840000  0.32720000  0.81960000  1.0 0.1190044368
H  H67  1  0.77850000  0.49490000  0.59450000  1.0 0.1190044368
H  H68  1  0.01300000  0.50900000  0.23140000  1.0 0.1270536397
H  H69  1  0.03520000  0.44340000  0.14160000  1.0 0.1190044368
H  H70  1  0.04630000  0.45770000  0.37170000  1.0 0.1190044368
H  H71  1  0.86950000  0.19450000  0.55180000  1.0 0.1190044368
H  H72  1  0.79580000  0.20940000  0.60560000  1.0 0.0973585001
H  H73  1  0.79970000  0.13110000  0.55580000  1.0 0.1190044368
H  H74  1  0.89000000  0.08580000  0.97130000  1.0 0.0376632272
H  H75  1  0.87460000  0.07420000  0.74100000  1.0 0.0376632272
H  H76  1  0.93850000  0.13690000  0.81520000  1.0 0.0376632272
C  C1  1  0.64451000  0.07629000  0.17690000  1.0 0.1424837424
C  C2  1  0.76919000  0.12641000  0.95100000  1.0 0.0376632272
C  C3  1  0.70330000  0.04610000  0.20980000  1.0 -0.0257781637
C  C4  1  0.64624000  0.12956000  0.02700000  1.0 -0.0228426412
C  C5  1  0.58564000  0.16336000  0.97950000  1.0 0.0785520966
C  C6  1  0.70942000  0.15338000  0.91860000  1.0 -0.2243455635
C  C7  1  0.42434000  0.27786000  0.82230000  1.0 0.5978557481
C  C8  1  0.72130000  0.86650000  0.42240000  1.0 -0.0798732178
C  C9  1  0.68400000  0.98820000  0.55520000  1.0 -0.1816545153
C  C10  1  0.76359000  0.07101000  0.09420000  1.0 -0.2322535625
C  C11  1  0.56907000  0.17773000  0.77800000  1.0 -0.1622490962
C  C12  1  0.70252000  0.98588000  0.35660000  1.0 0.0785520966
C  C13  1  0.72235000  0.92485000  0.29340000  1.0 -0.1316050687
C  C14  1  0.49475000  0.22165000  0.07480000  1.0 -0.0973473811
C  C15  1  0.70282000  0.86858000  0.61960000  1.0 -0.0421842733
C  C16  1  0.54705000  0.18475000  0.12580000  1.0 -0.1495711566
C  C17  1  0.48009000  0.23671000  0.87660000  1.0 -0.0228426412
C  C18  1  0.68471000  0.92969000  0.68630000  1.0 -0.0973473811
C  C19  1  0.70614000  0.80866000  0.76110000  1.0 0.5720120682
C  C20  1  0.51627000  0.21333000  0.72850000  1.0 -0.108769639
C  C21  1  0.53990000  0.98430000  0.25600000  1.0 -0.2322535625
C  C22  1  0.07629000  0.64451000  0.82310000  1.0 0.1424837424
C  C23  1  0.12641000  0.76919000  0.04900000  1.0 0.0336405909
C  C24  1  0.04610000  0.70330000  0.79020000  1.0 -0.0257781637
C  C25  1  0.12956000  0.64624000  0.97300000  1.0 -0.0257781637
C  C26  1  0.16336000  0.58564000  0.02050000  1.0 0.0785520966
C  C27  1  0.15338000  0.70942000  0.08140000  1.0 -0.2243455635
C  C28  1  0.27786000  0.42434000  0.17770000  1.0 0.5978557481
C  C29  1  0.86650000  0.72130000  0.57760000  1.0 -0.0798732178
C  C30  1  0.98820000  0.68400000  0.44480000  1.0 -0.1816545153
C  C31  1  0.07101000  0.76359000  0.90580000  1.0 -0.2322535625
C  C32  1  0.17773000  0.56907000  0.22200000  1.0 -0.1622490962
C  C33  1  0.98588000  0.70252000  0.64340000  1.0 0.0785520966
C  C34  1  0.92485000  0.72235000  0.70660000  1.0 -0.1316050687
C  C35  1  0.22165000  0.49475000  0.92520000  1.0 -0.0973473811
C  C36  1  0.86858000  0.70282000  0.38040000  1.0 -0.0421842733
C  C37  1  0.18475000  0.54705000  0.87420000  1.0 -0.1495711566
C  C38  1  0.23671000  0.48009000  0.12340000  1.0 -0.0228426412
C  C39  1  0.92969000  0.68471000  0.31370000  1.0 -0.0973473811
C  C40  1  0.80866000  0.70614000  0.23890000  1.0 0.5720120682
C  C41  1  0.21333000  0.51627000  0.27150000  1.0 -0.108769639
C  C42  1  0.98430000  0.53990000  0.74400000  1.0 -0.2322535625
C  C43  1  0.35549000  0.92371000  0.82310000  1.0 0.1424837424
C  C44  1  0.23081000  0.87359000  0.04900000  1.0 0.0336405909
C  C45  1  0.29670000  0.95390000  0.79020000  1.0 -0.0257781637
C  C46  1  0.35376000  0.87044000  0.97300000  1.0 -0.0228426412
C  C47  1  0.41436000  0.83664000  0.02050000  1.0 0.0785520966
C  C48  1  0.29058000  0.84662000  0.08140000  1.0 -0.2243455635
C  C49  1  0.57566000  0.72214000  0.17770000  1.0 0.5978557481
C  C50  1  0.27870000  0.13350000  0.57760000  1.0 -0.0798732178
C  C51  1  0.31600000  0.01180000  0.44480000  1.0 -0.1816545153
C  C52  1  0.23641000  0.92899000  0.90580000  1.0 -0.2322535625
C  C53  1  0.43093000  0.82227000  0.22200000  1.0 -0.1622490962
C  C54  1  0.29748000  0.01412000  0.64340000  1.0 0.0785520966
C  C55  1  0.27765000  0.07515000  0.70660000  1.0 -0.1316050687
C  C56  1  0.50525000  0.77835000  0.92520000  1.0 -0.0973473811
C  C57  1  0.29718000  0.13142000  0.38040000  1.0 -0.0421842733
C  C58  1  0.45295000  0.81525000  0.87420000  1.0 -0.1495711566
C  C59  1  0.51991000  0.76329000  0.12340000  1.0 -0.0228426412
C  C60  1  0.31529000  0.07031000  0.31370000  1.0 -0.0973473811
C  C61  1  0.29386000  0.19134000  0.23890000  1.0 0.5720120682
C  C62  1  0.48373000  0.78667000  0.27150000  1.0 -0.108769639
C  C63  1  0.46010000  0.01570000  0.74400000  1.0 -0.235939859
C  C64  1  0.92371000  0.35549000  0.17690000  1.0 0.1424837424
C  C65  1  0.87359000  0.23081000  0.95100000  1.0 0.0376632272
C  C66  1  0.95390000  0.29670000  0.20980000  1.0 -0.0257781637
C  C67  1  0.87044000  0.35376000  0.02700000  1.0 -0.0257781637
C  C68  1  0.83664000  0.41436000  0.97950000  1.0 0.0785520966
C  C69  1  0.84662000  0.29058000  0.91860000  1.0 -0.2243455635
C  C70  1  0.72214000  0.57566000  0.82230000  1.0 0.5978557481
C  C71  1  0.13350000  0.27870000  0.42240000  1.0 -0.0798732178
C  C72  1  0.01180000  0.31600000  0.55520000  1.0 -0.1816545153
C  C73  1  0.92899000  0.23641000  0.09420000  1.0 -0.2322535625
C  C74  1  0.82227000  0.43093000  0.77800000  1.0 -0.1622490962
C  C75  1  0.01412000  0.29748000  0.35660000  1.0 0.0785520966
C  C76  1  0.07515000  0.27765000  0.29340000  1.0 -0.1316050687
C  C77  1  0.77835000  0.50525000  0.07480000  1.0 -0.0973473811
C  C78  1  0.13142000  0.29718000  0.61960000  1.0 -0.0421842733
C  C79  1  0.81525000  0.45295000  0.12580000  1.0 -0.1495711566
C  C80  1  0.76329000  0.51991000  0.87660000  1.0 -0.0228426412
C  C81  1  0.07031000  0.31529000  0.68630000  1.0 -0.0973473811
C  C82  1  0.19134000  0.29386000  0.76110000  1.0 0.5720120682
C  C83  1  0.78667000  0.48373000  0.72850000  1.0 -0.108769639
C  C84  1  0.01570000  0.46010000  0.25600000  1.0 -0.235939859
C  C85  1  0.83990000  0.16010000  0.84110000  1.0 0.1931768073
C  C86  1  0.82480000  0.17520000  0.61750000  1.0 -0.4540095614
C  C87  1  0.89050000  0.10950000  0.84220000  1.0 -0.2539437996
C  C88  1  0.16010000  0.83990000  0.15890000  1.0 0.1931768073
C  C89  1  0.17520000  0.82480000  0.38250000  1.0 -0.4554141448
C  C90  1  0.10950000  0.89050000  0.15780000  1.0 -0.2539437996
O  O1  1  0.70012000  0.74400000  0.69940000  1.0 -0.6171946512
O  O2  1  0.40607000  0.28253000  0.64120000  1.0 -0.5936075137
O  O3  1  0.71424000  0.81836000  0.94500000  1.0 -0.5152585493
O  O4  1  0.40082000  0.30718000  0.96350000  1.0 -0.5522540347
O  O5  1  0.58412000  0.05448000  0.29080000  1.0 -0.1622490962
O  O6  1  0.74400000  0.70012000  0.30060000  1.0 -0.6171946512
O  O7  1  0.28253000  0.40607000  0.35880000  1.0 -0.5936075137
O  O8  1  0.81836000  0.71424000  0.05500000  1.0 -0.5152585493
O  O9  1  0.30718000  0.40082000  0.03650000  1.0 -0.5522540347
O  O10  1  0.05448000  0.58412000  0.70920000  1.0 -0.1622490962
O  O11  1  0.29988000  0.25600000  0.30060000  1.0 -0.6171946512
O  O12  1  0.59393000  0.71747000  0.35880000  1.0 -0.5936075137
O  O13  1  0.28576000  0.18164000  0.05500000  1.0 -0.5152585493
O  O14  1  0.59918000  0.69282000  0.03650000  1.0 -0.5522540347
O  O15  1  0.41588000  0.94552000  0.70920000  1.0 -0.1622490962
O  O16  1  0.25600000  0.29988000  0.69940000  1.0 -0.6171946512
O  O17  1  0.71747000  0.59393000  0.64120000  1.0 -0.5936075137
O  O18  1  0.18164000  0.28576000  0.94500000  1.0 -0.5152585493
O  O19  1  0.69282000  0.59918000  0.96350000  1.0 -0.5522540347
O  O20  1  0.94552000  0.41588000  0.29080000  1.0 -0.1622490962
