# DDEC6 charges by PACMAN v1.1 (https://github.com/mtap-research/PACMAN-charge/)
data_NEPCAQ04_ASR_pacman
_symmetry_space_group_name_H-M   'P 1'
_cell_length_a   19.27310000
_cell_length_b   19.27310000
_cell_length_c   6.68860000
_cell_angle_alpha   87.97630000
_cell_angle_beta   92.02370000
_cell_angle_gamma   103.91300000
_symmetry_Int_Tables_number   1
_chemical_formula_structural   Co2H38(C9O2)5
_chemical_formula_sum   'Co4 H76 C90 O20'
_cell_volume   2409.18057140
_cell_formula_units_Z   2
loop_
 _symmetry_equiv_pos_site_id
 _symmetry_equiv_pos_as_xyz
  1  'x, y, z'
loop_
 _atom_site_type_symbol
 _atom_site_label
 _atom_site_symmetry_multiplicity
 _atom_site_fract_x
 _atom_site_fract_y
 _atom_site_fract_z
 _atom_site_occupancy
 _atom_site_charge
Co  Co1  1  0.33037000  0.33037000  0.50000000  1.0 1.0498732798
Co  Co2  1  0.66963000  0.66963000  0.50000000  1.0 1.0498732798
Co  Co3  1  0.28378000  0.28378000  0.00000000  1.0 0.9445293419
Co  Co4  1  0.71622000  0.71622000  0.00000000  1.0 0.9445293419
H  H1  1  0.67620000  0.93600000  0.81660000  1.0 0.1271675278
H  H2  1  0.70560000  0.19080000  0.81710000  1.0 0.1204747986
H  H3  1  0.73730000  0.92830000  0.16000000  1.0 0.1271675278
H  H4  1  0.49890000  0.21690000  0.59540000  1.0 0.1204747986
H  H5  1  0.74390000  0.83650000  0.37570000  1.0 0.1271675278
H  H6  1  0.80310000  0.05710000  0.11380000  1.0 0.1377307199
H  H7  1  0.58960000  0.16160000  0.67720000  1.0 0.1204747986
H  H8  1  0.55100000  0.17120000  0.25870000  1.0 0.1137024876
H  H9  1  0.46310000  0.23110000  0.17580000  1.0 0.1271675278
H  H10  1  0.55070000  0.95370000  0.36330000  1.0 0.1204747986
H  H11  1  0.49240000  0.98580000  0.25020000  1.0 0.1271675278
H  H12  1  0.55510000  0.96930000  0.13190000  1.0 0.1204747986
H  H13  1  0.67110000  0.03050000  0.60080000  1.0 0.1204747986
H  H14  1  0.92160000  0.13220000  0.73020000  1.0 0.0661514956
H  H15  1  0.90840000  0.11140000  0.95680000  1.0 0.0596208222
H  H16  1  0.85890000  0.06750000  0.79130000  1.0 0.0661514956
H  H17  1  0.84960000  0.22600000  0.56910000  1.0 0.0536199649
H  H18  1  0.82660000  0.14380000  0.52870000  1.0 0.0596208222
H  H19  1  0.76990000  0.18410000  0.59490000  1.0 0.0536199649
H  H20  1  0.93600000  0.67620000  0.18340000  1.0 0.1271675278
H  H21  1  0.19080000  0.70560000  0.18290000  1.0 0.1271675278
H  H22  1  0.92830000  0.73730000  0.84000000  1.0 0.1271675278
H  H23  1  0.21690000  0.49890000  0.40460000  1.0 0.1204747986
H  H24  1  0.83650000  0.74390000  0.62430000  1.0 0.1271675278
H  H25  1  0.05710000  0.80310000  0.88620000  1.0 0.1377307199
H  H26  1  0.16160000  0.58960000  0.32280000  1.0 0.1204747986
H  H27  1  0.17120000  0.55100000  0.74130000  1.0 0.1137024876
H  H28  1  0.23110000  0.46310000  0.82420000  1.0 0.1271675278
H  H29  1  0.95370000  0.55070000  0.63670000  1.0 0.1204747986
H  H30  1  0.98580000  0.49240000  0.74980000  1.0 0.1271675278
H  H31  1  0.96930000  0.55510000  0.86810000  1.0 0.1204747986
H  H32  1  0.03050000  0.67110000  0.39920000  1.0 0.1204747986
H  H33  1  0.13220000  0.92160000  0.26980000  1.0 0.0661514956
H  H34  1  0.11140000  0.90840000  0.04320000  1.0 0.0596208222
H  H35  1  0.06750000  0.85890000  0.20870000  1.0 0.0596208222
H  H36  1  0.22600000  0.84960000  0.43090000  1.0 0.0536199649
H  H37  1  0.14380000  0.82660000  0.47130000  1.0 0.0596208222
H  H38  1  0.18410000  0.76990000  0.40510000  1.0 0.0536199649
H  H39  1  0.32380000  0.06400000  0.18340000  1.0 0.1271675278
H  H40  1  0.29440000  0.80920000  0.18290000  1.0 0.1271675278
H  H41  1  0.26270000  0.07170000  0.84000000  1.0 0.1271675278
H  H42  1  0.50110000  0.78310000  0.40460000  1.0 0.1204747986
H  H43  1  0.25610000  0.16350000  0.62430000  1.0 0.1271675278
H  H44  1  0.19690000  0.94290000  0.88620000  1.0 0.1377307199
H  H45  1  0.41040000  0.83840000  0.32280000  1.0 0.1204747986
H  H46  1  0.44900000  0.82880000  0.74130000  1.0 0.1137024876
H  H47  1  0.53690000  0.76890000  0.82420000  1.0 0.1271675278
H  H48  1  0.44930000  0.04630000  0.63670000  1.0 0.1204747986
H  H49  1  0.50760000  0.01420000  0.74980000  1.0 0.1271675278
H  H50  1  0.44490000  0.03070000  0.86810000  1.0 0.1204747986
H  H51  1  0.32890000  0.96950000  0.39920000  1.0 0.1204747986
H  H52  1  0.07840000  0.86780000  0.26980000  1.0 0.0661514956
H  H53  1  0.09160000  0.88860000  0.04320000  1.0 0.0596208222
H  H54  1  0.14110000  0.93250000  0.20870000  1.0 0.0661514956
H  H55  1  0.15040000  0.77400000  0.43090000  1.0 0.0536199649
H  H56  1  0.17340000  0.85620000  0.47130000  1.0 0.0596208222
H  H57  1  0.23010000  0.81590000  0.40510000  1.0 0.0536199649
H  H58  1  0.06400000  0.32380000  0.81660000  1.0 0.1271675278
H  H59  1  0.80920000  0.29440000  0.81710000  1.0 0.1204747986
H  H60  1  0.07170000  0.26270000  0.16000000  1.0 0.1271675278
H  H61  1  0.78310000  0.50110000  0.59540000  1.0 0.1204747986
H  H62  1  0.16350000  0.25610000  0.37570000  1.0 0.1271675278
H  H63  1  0.94290000  0.19690000  0.11380000  1.0 0.1377307199
H  H64  1  0.83840000  0.41040000  0.67720000  1.0 0.1204747986
H  H65  1  0.82880000  0.44900000  0.25870000  1.0 0.1137024876
H  H66  1  0.76890000  0.53690000  0.17580000  1.0 0.1271675278
H  H67  1  0.04630000  0.44930000  0.36330000  1.0 0.1204747986
H  H68  1  0.01420000  0.50760000  0.25020000  1.0 0.1271675278
H  H69  1  0.03070000  0.44490000  0.13190000  1.0 0.1204747986
H  H70  1  0.96950000  0.32890000  0.60080000  1.0 0.1204747986
H  H71  1  0.86780000  0.07840000  0.73020000  1.0 0.0661514956
H  H72  1  0.88860000  0.09160000  0.95680000  1.0 0.0596208222
H  H73  1  0.93250000  0.14110000  0.79130000  1.0 0.0661514956
H  H74  1  0.77400000  0.15040000  0.56910000  1.0 0.0536199649
H  H75  1  0.85620000  0.17340000  0.52870000  1.0 0.0596208222
H  H76  1  0.81590000  0.23010000  0.59490000  1.0 0.0536199649
C  C1  1  0.64370000  0.07850000  0.17590000  1.0 0.1501645617
C  C2  1  0.68880000  0.93480000  0.68410000  1.0 -0.1229929753
C  C3  1  0.70539000  0.15561000  0.91590000  1.0 -0.2127832077
C  C4  1  0.70346000  0.05014000  0.20610000  1.0 -0.0335325409
C  C5  1  0.58188000  0.16252000  0.97830000  1.0 0.0811152816
C  C6  1  0.72550000  0.93070000  0.29280000  1.0 -0.1362787798
C  C7  1  0.51020000  0.20920000  0.72930000  1.0 -0.1056180053
C  C8  1  0.76690000  0.13010000  0.94660000  1.0 0.0168186039
C  C9  1  0.72900000  0.87540000  0.42070000  1.0 -0.089983963
C  C10  1  0.76356000  0.07644000  0.09180000  1.0 -0.2288829513
C  C11  1  0.47271000  0.23149000  0.87520000  1.0 -0.036572402
C  C12  1  0.56440000  0.17560000  0.77830000  1.0 -0.1600177465
C  C13  1  0.41633000  0.27007000  0.82180000  1.0 0.5950491898
C  C14  1  0.70480000  0.99060000  0.35380000  1.0 0.0811152816
C  C15  1  0.54200000  0.18180000  0.12510000  1.0 -0.1546960004
C  C16  1  0.64421000  0.13139000  0.02390000  1.0 -0.020937857
C  C17  1  0.48850000  0.21710000  0.07520000  1.0 -0.089983963
C  C18  1  0.54220000  0.98540000  0.25640000  1.0 -0.236818371
C  C19  1  0.71014000  0.87686000  0.61930000  1.0 -0.020937857
C  C20  1  0.68581000  0.99159000  0.55490000  1.0 -0.1698791735
C  C21  1  0.71343000  0.81577000  0.76280000  1.0 0.5626959823
C  C22  1  0.07850000  0.64370000  0.82410000  1.0 0.1501645617
C  C23  1  0.93480000  0.68880000  0.31590000  1.0 -0.1229929753
C  C24  1  0.15561000  0.70539000  0.08410000  1.0 -0.2127832077
C  C25  1  0.05014000  0.70346000  0.79390000  1.0 -0.0335325409
C  C26  1  0.16252000  0.58188000  0.02170000  1.0 0.0811152816
C  C27  1  0.93070000  0.72550000  0.70720000  1.0 -0.1362787798
C  C28  1  0.20920000  0.51020000  0.27070000  1.0 -0.1056180053
C  C29  1  0.13010000  0.76690000  0.05340000  1.0 0.0168186039
C  C30  1  0.87540000  0.72900000  0.57930000  1.0 -0.089983963
C  C31  1  0.07644000  0.76356000  0.90820000  1.0 -0.2288829513
C  C32  1  0.23149000  0.47271000  0.12480000  1.0 -0.036572402
C  C33  1  0.17560000  0.56440000  0.22170000  1.0 -0.1600177465
C  C34  1  0.27007000  0.41633000  0.17820000  1.0 0.5950491898
C  C35  1  0.99060000  0.70480000  0.64620000  1.0 0.0811152816
C  C36  1  0.18180000  0.54200000  0.87490000  1.0 -0.1600177465
C  C37  1  0.13139000  0.64421000  0.97610000  1.0 -0.020937857
C  C38  1  0.21710000  0.48850000  0.92480000  1.0 -0.089983963
C  C39  1  0.98540000  0.54220000  0.74360000  1.0 -0.236818371
C  C40  1  0.87686000  0.71014000  0.38070000  1.0 -0.020937857
C  C41  1  0.99159000  0.68581000  0.44510000  1.0 -0.1698791735
C  C42  1  0.81577000  0.71343000  0.23720000  1.0 0.5626959823
C  C43  1  0.35630000  0.92150000  0.82410000  1.0 0.1501645617
C  C44  1  0.31120000  0.06520000  0.31590000  1.0 -0.1229929753
C  C45  1  0.29461000  0.84439000  0.08410000  1.0 -0.2127832077
C  C46  1  0.29654000  0.94986000  0.79390000  1.0 -0.0335325409
C  C47  1  0.41812000  0.83748000  0.02170000  1.0 0.0811152816
C  C48  1  0.27450000  0.06930000  0.70720000  1.0 -0.1362787798
C  C49  1  0.48980000  0.79080000  0.27070000  1.0 -0.1056180053
C  C50  1  0.23310000  0.86990000  0.05340000  1.0 0.0168186039
C  C51  1  0.27100000  0.12460000  0.57930000  1.0 -0.089983963
C  C52  1  0.23644000  0.92356000  0.90820000  1.0 -0.2288829513
C  C53  1  0.52729000  0.76851000  0.12480000  1.0 -0.036572402
C  C54  1  0.43560000  0.82440000  0.22170000  1.0 -0.1600177465
C  C55  1  0.58367000  0.72993000  0.17820000  1.0 0.5950491898
C  C56  1  0.29520000  0.00940000  0.64620000  1.0 0.0811152816
C  C57  1  0.45800000  0.81820000  0.87490000  1.0 -0.1546960004
C  C58  1  0.35579000  0.86861000  0.97610000  1.0 -0.020937857
C  C59  1  0.51150000  0.78290000  0.92480000  1.0 -0.089983963
C  C60  1  0.45780000  0.01460000  0.74360000  1.0 -0.236818371
C  C61  1  0.28986000  0.12314000  0.38070000  1.0 -0.020937857
C  C62  1  0.31419000  0.00841000  0.44510000  1.0 -0.1698791735
C  C63  1  0.28657000  0.18423000  0.23720000  1.0 0.5626959823
C  C64  1  0.92150000  0.35630000  0.17590000  1.0 0.1501645617
C  C65  1  0.06520000  0.31120000  0.68410000  1.0 -0.1229929753
C  C66  1  0.84439000  0.29461000  0.91590000  1.0 -0.2127832077
C  C67  1  0.94986000  0.29654000  0.20610000  1.0 -0.0335325409
C  C68  1  0.83748000  0.41812000  0.97830000  1.0 0.0811152816
C  C69  1  0.06930000  0.27450000  0.29280000  1.0 -0.1362787798
C  C70  1  0.79080000  0.48980000  0.72930000  1.0 -0.1056180053
C  C71  1  0.86990000  0.23310000  0.94660000  1.0 0.0168186039
C  C72  1  0.12460000  0.27100000  0.42070000  1.0 -0.089983963
C  C73  1  0.92356000  0.23644000  0.09180000  1.0 -0.2288829513
C  C74  1  0.76851000  0.52729000  0.87520000  1.0 -0.036572402
C  C75  1  0.82440000  0.43560000  0.77830000  1.0 -0.1600177465
C  C76  1  0.72993000  0.58367000  0.82180000  1.0 0.5950491898
C  C77  1  0.00940000  0.29520000  0.35380000  1.0 0.0811152816
C  C78  1  0.81820000  0.45800000  0.12510000  1.0 -0.1546960004
C  C79  1  0.86861000  0.35579000  0.02390000  1.0 -0.020937857
C  C80  1  0.78290000  0.51150000  0.07520000  1.0 -0.089983963
C  C81  1  0.01460000  0.45780000  0.25640000  1.0 -0.236818371
C  C82  1  0.12314000  0.28986000  0.61930000  1.0 -0.020937857
C  C83  1  0.00841000  0.31419000  0.55490000  1.0 -0.1698791735
C  C84  1  0.18423000  0.28657000  0.76280000  1.0 0.5626959823
C  C85  1  0.81880000  0.18120000  0.61010000  1.0 -0.3221995212
C  C86  1  0.83550000  0.16450000  0.83470000  1.0 0.1753791444
C  C87  1  0.88580000  0.11420000  0.82760000  1.0 -0.3124369957
C  C88  1  0.18120000  0.81880000  0.38990000  1.0 -0.3221995212
C  C89  1  0.16450000  0.83550000  0.16530000  1.0 0.1753791444
C  C90  1  0.11420000  0.88580000  0.17240000  1.0 -0.3124369957
O  O1  1  0.39616000  0.27364000  0.64200000  1.0 -0.5937795021
O  O2  1  0.58418000  0.05602000  0.29150000  1.0 -0.1600177465
O  O3  1  0.39110000  0.29830000  0.96270000  1.0 -0.5528140791
O  O4  1  0.72077000  0.82623000  0.94380000  1.0 -0.5035123653
O  O5  1  0.70990000  0.75338000  0.69950000  1.0 -0.5937795021
O  O6  1  0.27364000  0.39616000  0.35800000  1.0 -0.5937795021
O  O7  1  0.05602000  0.58418000  0.70850000  1.0 -0.1600177465
O  O8  1  0.29830000  0.39110000  0.03730000  1.0 -0.5528140791
O  O9  1  0.82623000  0.72077000  0.05620000  1.0 -0.5035123653
O  O10  1  0.75338000  0.70990000  0.30050000  1.0 -0.5937795021
O  O11  1  0.60384000  0.72636000  0.35800000  1.0 -0.5937795021
O  O12  1  0.41582000  0.94398000  0.70850000  1.0 -0.1600177465
O  O13  1  0.60890000  0.70170000  0.03730000  1.0 -0.5528140791
O  O14  1  0.27923000  0.17377000  0.05620000  1.0 -0.5035123653
O  O15  1  0.29010000  0.24662000  0.30050000  1.0 -0.5937795021
O  O16  1  0.72636000  0.60384000  0.64200000  1.0 -0.5937795021
O  O17  1  0.94398000  0.41582000  0.29150000  1.0 -0.1600177465
O  O18  1  0.70170000  0.60890000  0.96270000  1.0 -0.5528140791
O  O19  1  0.17377000  0.27923000  0.94380000  1.0 -0.5035123653
O  O20  1  0.24662000  0.29010000  0.69950000  1.0 -0.5937795021
