# DDEC6 charges by PACMAN v1.1 (https://github.com/mtap-research/PACMAN-charge/)
data_NEPCAQ05_ASR_pacman
_symmetry_space_group_name_H-M   'P 1'
_cell_length_a   19.13540000
_cell_length_b   19.13540000
_cell_length_c   6.68130000
_cell_angle_alpha   87.98270000
_cell_angle_beta   92.01730000
_cell_angle_gamma   104.64900000
_symmetry_Int_Tables_number   1
_chemical_formula_structural   Co2H38(C9O2)5
_chemical_formula_sum   'Co4 H76 C90 O20'
_cell_volume   2364.58024267
_cell_formula_units_Z   2
loop_
 _symmetry_equiv_pos_site_id
 _symmetry_equiv_pos_as_xyz
  1  'x, y, z'
loop_
 _atom_site_type_symbol
 _atom_site_label
 _atom_site_symmetry_multiplicity
 _atom_site_fract_x
 _atom_site_fract_y
 _atom_site_fract_z
 _atom_site_occupancy
 _atom_site_charge
Co  Co1  1  0.84266000  0.84266000  0.00000000  1.0 1.0396286776
Co  Co2  1  0.15734000  0.15734000  0.00000000  1.0 1.0396286776
Co  Co3  1  0.79418000  0.79418000  0.50000000  1.0 0.9435954919
Co  Co4  1  0.20582000  0.20582000  0.50000000  1.0 0.9435954919
H  H1  1  0.52560000  0.16980000  0.89930000  1.0 0.1191899279
H  H2  1  0.68850000  0.21090000  0.68070000  1.0 0.1191899279
H  H3  1  0.55060000  0.30280000  0.38210000  1.0 0.1298482697
H  H4  1  0.67420000  0.05540000  0.23930000  1.0 0.1125430433
H  H5  1  0.66270000  0.09410000  0.82040000  1.0 0.1191899279
H  H6  1  0.72240000  0.00580000  0.90430000  1.0 0.1191899279
H  H7  1  0.73560000  0.96980000  0.32440000  1.0 0.1298482697
H  H8  1  0.45230000  0.04750000  0.13860000  1.0 0.1191899279
H  H9  1  0.48780000  0.98940000  0.24080000  1.0 0.1191899279
H  H10  1  0.46940000  0.04880000  0.36990000  1.0 0.1125430433
H  H11  1  0.32580000  0.23260000  0.12660000  1.0 0.1298482697
H  H12  1  0.42260000  0.23400000  0.33850000  1.0 0.1191899279
H  H13  1  0.43120000  0.17160000  0.68180000  1.0 0.1191899279
H  H14  1  0.67850000  0.36950000  0.95280000  1.0 0.0512838807
H  H15  1  0.63460000  0.28880000  0.93270000  1.0 0.0512838807
H  H16  1  0.71810000  0.31050000  0.89900000  1.0 0.0512838807
H  H17  1  0.63200000  0.43360000  0.73110000  1.0 0.1191899279
H  H18  1  0.59860000  0.40400000  0.52380000  1.0 0.1047636127
H  H19  1  0.56500000  0.36660000  0.72300000  1.0 0.1191899279
H  H20  1  0.16980000  0.52560000  0.10070000  1.0 0.1191899279
H  H21  1  0.21090000  0.68850000  0.31930000  1.0 0.1191899279
H  H22  1  0.30280000  0.55060000  0.61790000  1.0 0.1298482697
H  H23  1  0.05540000  0.67420000  0.76070000  1.0 0.1125430433
H  H24  1  0.09410000  0.66270000  0.17960000  1.0 0.1191899279
H  H25  1  0.00580000  0.72240000  0.09570000  1.0 0.1191899279
H  H26  1  0.96980000  0.73560000  0.67560000  1.0 0.1298482697
H  H27  1  0.04750000  0.45230000  0.86140000  1.0 0.1191899279
H  H28  1  0.98940000  0.48780000  0.75920000  1.0 0.1191899279
H  H29  1  0.04880000  0.46940000  0.63010000  1.0 0.1125430433
H  H30  1  0.23260000  0.32580000  0.87340000  1.0 0.1298482697
H  H31  1  0.23400000  0.42260000  0.66150000  1.0 0.1191899279
H  H32  1  0.17160000  0.43120000  0.31820000  1.0 0.1191899279
H  H33  1  0.36950000  0.67850000  0.04720000  1.0 0.0512838807
H  H34  1  0.28880000  0.63460000  0.06730000  1.0 0.0512838807
H  H35  1  0.31050000  0.71810000  0.10100000  1.0 0.0512838807
H  H36  1  0.43360000  0.63200000  0.26890000  1.0 0.1191899279
H  H37  1  0.40400000  0.59860000  0.47620000  1.0 0.1047636127
H  H38  1  0.36660000  0.56500000  0.27700000  1.0 0.1191899279
H  H39  1  0.47440000  0.83020000  0.10070000  1.0 0.1191899279
H  H40  1  0.31150000  0.78910000  0.31930000  1.0 0.1191899279
H  H41  1  0.44940000  0.69720000  0.61790000  1.0 0.1298482697
H  H42  1  0.32580000  0.94460000  0.76070000  1.0 0.1125430433
H  H43  1  0.33730000  0.90590000  0.17960000  1.0 0.1191899279
H  H44  1  0.27760000  0.99420000  0.09570000  1.0 0.1191899279
H  H45  1  0.26440000  0.03020000  0.67560000  1.0 0.1298482697
H  H46  1  0.54770000  0.95250000  0.86140000  1.0 0.1191899279
H  H47  1  0.51220000  0.01060000  0.75920000  1.0 0.1191899279
H  H48  1  0.53060000  0.95120000  0.63010000  1.0 0.1125430433
H  H49  1  0.67420000  0.76740000  0.87340000  1.0 0.1298482697
H  H50  1  0.57740000  0.76600000  0.66150000  1.0 0.1191899279
H  H51  1  0.56880000  0.82840000  0.31820000  1.0 0.1191899279
H  H52  1  0.32150000  0.63050000  0.04720000  1.0 0.0512838807
H  H53  1  0.36540000  0.71120000  0.06730000  1.0 0.0512838807
H  H54  1  0.28190000  0.68950000  0.10100000  1.0 0.0512838807
H  H55  1  0.36800000  0.56640000  0.26890000  1.0 0.1191899279
H  H56  1  0.40140000  0.59600000  0.47620000  1.0 0.1047636127
H  H57  1  0.43500000  0.63340000  0.27700000  1.0 0.1191899279
H  H58  1  0.83020000  0.47440000  0.89930000  1.0 0.1191899279
H  H59  1  0.78910000  0.31150000  0.68070000  1.0 0.1191899279
H  H60  1  0.69720000  0.44940000  0.38210000  1.0 0.1298482697
H  H61  1  0.94460000  0.32580000  0.23930000  1.0 0.1125430433
H  H62  1  0.90590000  0.33730000  0.82040000  1.0 0.1191899279
H  H63  1  0.99420000  0.27760000  0.90430000  1.0 0.1191899279
H  H64  1  0.03020000  0.26440000  0.32440000  1.0 0.1298482697
H  H65  1  0.95250000  0.54770000  0.13860000  1.0 0.1191899279
H  H66  1  0.01060000  0.51220000  0.24080000  1.0 0.1191899279
H  H67  1  0.95120000  0.53060000  0.36990000  1.0 0.1125430433
H  H68  1  0.76740000  0.67420000  0.12660000  1.0 0.1298482697
H  H69  1  0.76600000  0.57740000  0.33850000  1.0 0.1191899279
H  H70  1  0.82840000  0.56880000  0.68180000  1.0 0.1191899279
H  H71  1  0.63050000  0.32150000  0.95280000  1.0 0.0512838807
H  H72  1  0.71120000  0.36540000  0.93270000  1.0 0.0512838807
H  H73  1  0.68950000  0.28190000  0.89900000  1.0 0.0512838807
H  H74  1  0.56640000  0.36800000  0.73110000  1.0 0.1191899279
H  H75  1  0.59600000  0.40140000  0.52380000  1.0 0.1047636127
H  H76  1  0.63340000  0.43500000  0.72300000  1.0 0.1191899279
C  C1  1  0.57550000  0.14430000  0.32080000  1.0 0.1491463413
C  C2  1  0.54520000  0.20280000  0.28850000  1.0 -0.0290575661
C  C3  1  0.48560000  0.18320000  0.94440000  1.0 -0.1704984451
C  C4  1  0.77890000  0.92670000  0.67630000  1.0 0.5965099564
C  C5  1  0.48440000  0.20260000  0.14280000  1.0 0.0744184634
C  C6  1  0.66370000  0.08650000  0.52060000  1.0 0.0823301008
C  C7  1  0.73850000  0.98230000  0.61990000  1.0 -0.0290575661
C  C8  1  0.62900000  0.14660000  0.47350000  1.0 -0.0182560034
C  C9  1  0.65280000  0.20920000  0.58170000  1.0 -0.2188212344
C  C10  1  0.62510000  0.27010000  0.54800000  1.0 0.0138596339
C  C11  1  0.57110000  0.26390000  0.40410000  1.0 -0.2424093256
C  C12  1  0.68500000  0.04700000  0.37330000  1.0 -0.1527082523
C  C13  1  0.67790000  0.06970000  0.71940000  1.0 -0.1644171284
C  C14  1  0.71430000  0.01730000  0.77050000  1.0 -0.1120519484
C  C15  1  0.72180000  0.99580000  0.42450000  1.0 -0.0908412732
C  C16  1  0.48550000  0.03890000  0.24200000  1.0 -0.2291341978
C  C17  1  0.36620000  0.22040000  0.07920000  1.0 -0.0908412732
C  C18  1  0.36720000  0.20200000  0.88160000  1.0 -0.0290575661
C  C19  1  0.42410000  0.22090000  0.20630000  1.0 -0.1363154868
C  C20  1  0.42890000  0.18350000  0.81470000  1.0 -0.120714297
C  C21  1  0.30570000  0.20390000  0.73960000  1.0 0.5602323642
C  C22  1  0.14430000  0.57550000  0.67920000  1.0 0.1491463413
C  C23  1  0.20280000  0.54520000  0.71150000  1.0 -0.0290575661
C  C24  1  0.18320000  0.48560000  0.05560000  1.0 -0.1704984451
C  C25  1  0.92670000  0.77890000  0.32370000  1.0 0.5965099564
C  C26  1  0.20260000  0.48440000  0.85720000  1.0 0.0744184634
C  C27  1  0.08650000  0.66370000  0.47940000  1.0 0.0823301008
C  C28  1  0.98230000  0.73850000  0.38010000  1.0 -0.0290575661
C  C29  1  0.14660000  0.62900000  0.52650000  1.0 -0.0182560034
C  C30  1  0.20920000  0.65280000  0.41830000  1.0 -0.2188212344
C  C31  1  0.27010000  0.62510000  0.45200000  1.0 0.0138596339
C  C32  1  0.26390000  0.57110000  0.59590000  1.0 -0.2424093256
C  C33  1  0.04700000  0.68500000  0.62670000  1.0 -0.1527082523
C  C34  1  0.06970000  0.67790000  0.28060000  1.0 -0.1644171284
C  C35  1  0.01730000  0.71430000  0.22950000  1.0 -0.1120519484
C  C36  1  0.99580000  0.72180000  0.57550000  1.0 -0.0908412732
C  C37  1  0.03890000  0.48550000  0.75800000  1.0 -0.2291341978
C  C38  1  0.22040000  0.36620000  0.92080000  1.0 -0.0908412732
C  C39  1  0.20200000  0.36720000  0.11840000  1.0 -0.0290575661
C  C40  1  0.22090000  0.42410000  0.79370000  1.0 -0.1363154868
C  C41  1  0.18350000  0.42890000  0.18530000  1.0 -0.120714297
C  C42  1  0.20390000  0.30570000  0.26040000  1.0 0.5602323642
C  C43  1  0.42450000  0.85570000  0.67920000  1.0 0.1491463413
C  C44  1  0.45480000  0.79720000  0.71150000  1.0 -0.0290575661
C  C45  1  0.51440000  0.81680000  0.05560000  1.0 -0.1704984451
C  C46  1  0.22110000  0.07330000  0.32370000  1.0 0.5965099564
C  C47  1  0.51560000  0.79740000  0.85720000  1.0 0.0744184634
C  C48  1  0.33630000  0.91350000  0.47940000  1.0 0.0823301008
C  C49  1  0.26150000  0.01770000  0.38010000  1.0 -0.0290575661
C  C50  1  0.37100000  0.85340000  0.52650000  1.0 -0.0182560034
C  C51  1  0.34720000  0.79080000  0.41830000  1.0 -0.2188212344
C  C52  1  0.37490000  0.72990000  0.45200000  1.0 0.0138596339
C  C53  1  0.42890000  0.73610000  0.59590000  1.0 -0.2424093256
C  C54  1  0.31500000  0.95300000  0.62670000  1.0 -0.1527082523
C  C55  1  0.32210000  0.93030000  0.28060000  1.0 -0.1644171284
C  C56  1  0.28570000  0.98270000  0.22950000  1.0 -0.1120519484
C  C57  1  0.27820000  0.00420000  0.57550000  1.0 -0.0908412732
C  C58  1  0.51450000  0.96110000  0.75800000  1.0 -0.2291341978
C  C59  1  0.63380000  0.77960000  0.92080000  1.0 -0.0908412732
C  C60  1  0.63280000  0.79800000  0.11840000  1.0 -0.0290575661
C  C61  1  0.57590000  0.77910000  0.79370000  1.0 -0.1363154868
C  C62  1  0.57110000  0.81650000  0.18530000  1.0 -0.120714297
C  C63  1  0.69430000  0.79610000  0.26040000  1.0 0.5602323642
C  C64  1  0.85570000  0.42450000  0.32080000  1.0 0.1491463413
C  C65  1  0.79720000  0.45480000  0.28850000  1.0 -0.0290575661
C  C66  1  0.81680000  0.51440000  0.94440000  1.0 -0.1704984451
C  C67  1  0.07330000  0.22110000  0.67630000  1.0 0.5965099564
C  C68  1  0.79740000  0.51560000  0.14280000  1.0 0.0744184634
C  C69  1  0.91350000  0.33630000  0.52060000  1.0 0.0823301008
C  C70  1  0.01770000  0.26150000  0.61990000  1.0 -0.0290575661
C  C71  1  0.85340000  0.37100000  0.47350000  1.0 -0.0182560034
C  C72  1  0.79080000  0.34720000  0.58170000  1.0 -0.2188212344
C  C73  1  0.72990000  0.37490000  0.54800000  1.0 0.0138596339
C  C74  1  0.73610000  0.42890000  0.40410000  1.0 -0.2424093256
C  C75  1  0.95300000  0.31500000  0.37330000  1.0 -0.1527082523
C  C76  1  0.93030000  0.32210000  0.71940000  1.0 -0.1644171284
C  C77  1  0.98270000  0.28570000  0.77050000  1.0 -0.1120519484
C  C78  1  0.00420000  0.27820000  0.42450000  1.0 -0.0908412732
C  C79  1  0.96110000  0.51450000  0.24200000  1.0 -0.2291341978
C  C80  1  0.77960000  0.63380000  0.07920000  1.0 -0.0908412732
C  C81  1  0.79800000  0.63280000  0.88160000  1.0 -0.0290575661
C  C82  1  0.77910000  0.57590000  0.20630000  1.0 -0.1363154868
C  C83  1  0.81650000  0.57110000  0.81470000  1.0 -0.120714297
C  C84  1  0.79610000  0.69430000  0.73960000  1.0 0.5602323642
C  C85  1  0.60910000  0.39090000  0.65900000  1.0 -0.4463833491
C  C86  1  0.66050000  0.33950000  0.65980000  1.0 0.1685776716
C  C87  1  0.67420000  0.32580000  0.88150000  1.0 -0.3027101527
C  C88  1  0.39090000  0.60910000  0.34100000  1.0 -0.4463833491
C  C89  1  0.33950000  0.66050000  0.34020000  1.0 0.1685776716
C  C90  1  0.32580000  0.67420000  0.11850000  1.0 -0.3027101527
O  O1  1  0.78391000  0.90729000  0.85650000  1.0 -0.595803983
O  O2  1  0.80785000  0.90215000  0.53780000  1.0 -0.5516403387
O  O3  1  0.55427000  0.08413000  0.20820000  1.0 -0.1527082523
O  O4  1  0.24257000  0.19963000  0.79920000  1.0 -0.5911798546
O  O5  1  0.31667000  0.21373000  0.55600000  1.0 -0.5209505627
O  O6  1  0.90729000  0.78391000  0.14350000  1.0 -0.5911798546
O  O7  1  0.90215000  0.80785000  0.46220000  1.0 -0.5516403387
O  O8  1  0.08413000  0.55427000  0.79180000  1.0 -0.1527082523
O  O9  1  0.19963000  0.24257000  0.20080000  1.0 -0.5911798546
O  O10  1  0.21373000  0.31667000  0.44400000  1.0 -0.5209505627
O  O11  1  0.21609000  0.09271000  0.14350000  1.0 -0.5911798546
O  O12  1  0.19215000  0.09785000  0.46220000  1.0 -0.5516403387
O  O13  1  0.44573000  0.91587000  0.79180000  1.0 -0.1527082523
O  O14  1  0.75743000  0.80037000  0.20080000  1.0 -0.5911798546
O  O15  1  0.68333000  0.78627000  0.44400000  1.0 -0.5209505627
O  O16  1  0.09271000  0.21609000  0.85650000  1.0 -0.5911798546
O  O17  1  0.09785000  0.19215000  0.53780000  1.0 -0.5516403387
O  O18  1  0.91587000  0.44573000  0.20820000  1.0 -0.1527082523
O  O19  1  0.80037000  0.75743000  0.79920000  1.0 -0.5911798546
O  O20  1  0.78627000  0.68333000  0.55600000  1.0 -0.5209505627
