# DDEC6 charges by PACMAN v1.1 (https://github.com/mtap-research/PACMAN-charge/)
data_NEPDAR_FSR_pacman
_symmetry_space_group_name_H-M   'P 1'
_cell_length_a   19.27110000
_cell_length_b   19.27110000
_cell_length_c   6.67970000
_cell_angle_alpha   88.54690000
_cell_angle_beta   91.45310000
_cell_angle_gamma   103.69700000
_symmetry_Int_Tables_number   1
_chemical_formula_structural   Co2H42(C15O4)3
_chemical_formula_sum   'Co4 H84 C90 O24'
_cell_volume   2408.87545481
_cell_formula_units_Z   2
loop_
 _symmetry_equiv_pos_site_id
 _symmetry_equiv_pos_as_xyz
  1  'x, y, z'
loop_
 _atom_site_type_symbol
 _atom_site_label
 _atom_site_symmetry_multiplicity
 _atom_site_fract_x
 _atom_site_fract_y
 _atom_site_fract_z
 _atom_site_occupancy
 _atom_site_charge
Co  Co1  1  0.71967000  0.71967000  0.00000000  1.0 0.9381655575
Co  Co2  1  0.28033000  0.28033000  0.00000000  1.0 0.9381655575
Co  Co3  1  0.67108000  0.67108000  0.50000000  1.0 1.0546342255
Co  Co4  1  0.32892000  0.32892000  0.50000000  1.0 1.0546342255
H  H1  1  0.65940000  0.58328000  0.21266000  1.0 0.351096821
H  H2  1  0.63408000  0.54258000  0.37573000  1.0 0.3434232296
H  H3  1  0.29573000  0.80945000  0.18166000  1.0 0.1186700836
H  H4  1  0.45410000  0.83268000  0.74287000  1.0 0.1186700836
H  H5  1  0.40954000  0.83858000  0.32413000  1.0 0.1186700836
H  H6  1  0.32162000  0.05990000  0.17715000  1.0 0.1186700836
H  H7  1  0.25824000  0.16402000  0.62545000  1.0 0.1292505609
H  H8  1  0.19585000  0.94045000  0.88235000  1.0 0.1292505609
H  H9  1  0.32865000  0.96677000  0.39678000  1.0 0.1186700836
H  H10  1  0.54478000  0.77686000  0.82532000  1.0 0.1186700836
H  H11  1  0.50001000  0.78311000  0.40848000  1.0 0.1186700836
H  H12  1  0.25917000  0.06849000  0.83891000  1.0 0.1292505609
H  H13  1  0.43881000  0.04909000  0.66642000  1.0 0.1186700836
H  H14  1  0.45668000  0.02474000  0.88347000  1.0 0.1186700836
H  H15  1  0.50654000  0.01858000  0.70623000  1.0 0.1292505609
H  H16  1  0.09302000  0.88934000  0.04785000  1.0 0.0648110779
H  H17  1  0.07807000  0.86669000  0.27266000  1.0 0.0775608467
H  H18  1  0.14119000  0.93167000  0.21825000  1.0 0.0775608467
H  H19  1  0.13834000  0.79754000  0.45472000  1.0 0.1127867102
H  H20  1  0.21204000  0.78462000  0.39197000  1.0 0.0895225936
H  H21  1  0.20626000  0.86118000  0.45163000  1.0 0.1127867102
H  H22  1  0.58328000  0.65940000  0.78734000  1.0 0.351096821
H  H23  1  0.54258000  0.63408000  0.62427000  1.0 0.3434232296
H  H24  1  0.80945000  0.29573000  0.81834000  1.0 0.1186700836
H  H25  1  0.83268000  0.45410000  0.25713000  1.0 0.1186700836
H  H26  1  0.83858000  0.40954000  0.67587000  1.0 0.1186700836
H  H27  1  0.05990000  0.32162000  0.82285000  1.0 0.1186700836
H  H28  1  0.16402000  0.25824000  0.37455000  1.0 0.1292505609
H  H29  1  0.94045000  0.19585000  0.11765000  1.0 0.1292505609
H  H30  1  0.96677000  0.32865000  0.60322000  1.0 0.1186700836
H  H31  1  0.77686000  0.54478000  0.17468000  1.0 0.1186700836
H  H32  1  0.78311000  0.50001000  0.59152000  1.0 0.1186700836
H  H33  1  0.06849000  0.25917000  0.16109000  1.0 0.1292505609
H  H34  1  0.04909000  0.43881000  0.33358000  1.0 0.1186700836
H  H35  1  0.02474000  0.45668000  0.11653000  1.0 0.1186700836
H  H36  1  0.01858000  0.50654000  0.29377000  1.0 0.1292505609
H  H37  1  0.88934000  0.09302000  0.95215000  1.0 0.0703412006
H  H38  1  0.86669000  0.07807000  0.72734000  1.0 0.0775608467
H  H39  1  0.93167000  0.14119000  0.78175000  1.0 0.0775608467
H  H40  1  0.79754000  0.13834000  0.54528000  1.0 0.1127867102
H  H41  1  0.78462000  0.21204000  0.60803000  1.0 0.0895225936
H  H42  1  0.86118000  0.20626000  0.54837000  1.0 0.1127867102
H  H43  1  0.34060000  0.41672000  0.78734000  1.0 0.351096821
H  H44  1  0.36592000  0.45742000  0.62427000  1.0 0.3434232296
H  H45  1  0.70427000  0.19055000  0.81834000  1.0 0.1186700836
H  H46  1  0.54590000  0.16732000  0.25713000  1.0 0.1186700836
H  H47  1  0.59046000  0.16142000  0.67587000  1.0 0.1186700836
H  H48  1  0.67838000  0.94010000  0.82285000  1.0 0.1186700836
H  H49  1  0.74176000  0.83598000  0.37455000  1.0 0.1292505609
H  H50  1  0.80415000  0.05955000  0.11765000  1.0 0.1292505609
H  H51  1  0.67135000  0.03323000  0.60322000  1.0 0.1186700836
H  H52  1  0.45522000  0.22314000  0.17468000  1.0 0.1186700836
H  H53  1  0.49999000  0.21689000  0.59152000  1.0 0.1186700836
H  H54  1  0.74083000  0.93151000  0.16109000  1.0 0.1292505609
H  H55  1  0.56119000  0.95091000  0.33358000  1.0 0.1186700836
H  H56  1  0.54332000  0.97526000  0.11653000  1.0 0.1186700836
H  H57  1  0.49346000  0.98142000  0.29377000  1.0 0.1292505609
H  H58  1  0.90698000  0.11066000  0.95215000  1.0 0.0703412006
H  H59  1  0.92193000  0.13331000  0.72734000  1.0 0.0775608467
H  H60  1  0.85881000  0.06833000  0.78175000  1.0 0.0775608467
H  H61  1  0.86166000  0.20246000  0.54528000  1.0 0.1127867102
H  H62  1  0.78796000  0.21538000  0.60803000  1.0 0.0895225936
H  H63  1  0.79374000  0.13882000  0.54837000  1.0 0.1127867102
H  H64  1  0.41672000  0.34060000  0.21266000  1.0 0.351096821
H  H65  1  0.45742000  0.36592000  0.37573000  1.0 0.3434232296
H  H66  1  0.19055000  0.70427000  0.18166000  1.0 0.1186700836
H  H67  1  0.16732000  0.54590000  0.74287000  1.0 0.1186700836
H  H68  1  0.16142000  0.59046000  0.32413000  1.0 0.1186700836
H  H69  1  0.94010000  0.67838000  0.17715000  1.0 0.1186700836
H  H70  1  0.83598000  0.74176000  0.62545000  1.0 0.1292505609
H  H71  1  0.05955000  0.80415000  0.88235000  1.0 0.1292505609
H  H72  1  0.03323000  0.67135000  0.39678000  1.0 0.1186700836
H  H73  1  0.22314000  0.45522000  0.82532000  1.0 0.1186700836
H  H74  1  0.21689000  0.49999000  0.40848000  1.0 0.1186700836
H  H75  1  0.93151000  0.74083000  0.83891000  1.0 0.1292505609
H  H76  1  0.95091000  0.56119000  0.66642000  1.0 0.1186700836
H  H77  1  0.97526000  0.54332000  0.88347000  1.0 0.1186700836
H  H78  1  0.98142000  0.49346000  0.70623000  1.0 0.1292505609
H  H79  1  0.11066000  0.90698000  0.04785000  1.0 0.0648110779
H  H80  1  0.13331000  0.92193000  0.27266000  1.0 0.0775608467
H  H81  1  0.06833000  0.85881000  0.21825000  1.0 0.0775608467
H  H82  1  0.20246000  0.86166000  0.45472000  1.0 0.1127867102
H  H83  1  0.21538000  0.78796000  0.39197000  1.0 0.0895225936
H  H84  1  0.13882000  0.79374000  0.45163000  1.0 0.1127867102
C  C1  1  0.23345000  0.86901000  0.05350000  1.0 0.0262283175
C  C2  1  0.29553000  0.84447000  0.08340000  1.0 -0.2299689511
C  C3  1  0.29644000  0.94916000  0.78940000  1.0 -0.0358067034
C  C4  1  0.35685000  0.92175000  0.82250000  1.0 0.1371793272
C  C5  1  0.42031000  0.83969000  0.02180000  1.0 0.0895225936
C  C6  1  0.28423000  0.18117000  0.23810000  1.0 0.5685334326
C  C7  1  0.35753000  0.86987000  0.97350000  1.0 -0.0328985697
C  C8  1  0.46256000  0.82204000  0.87650000  1.0 -0.1476442991
C  C9  1  0.28933000  0.12187000  0.37960000  1.0 -0.0328985697
C  C10  1  0.29435000  0.00745000  0.64130000  1.0 0.0703412006
C  C11  1  0.43613000  0.82547000  0.22360000  1.0 -0.1693707956
C  C12  1  0.31011000  0.06209000  0.31080000  1.0 -0.1088125951
C  C13  1  0.27135000  0.12405000  0.57830000  1.0 -0.0805037199
C  C14  1  0.23599000  0.92221000  0.90500000  1.0 -0.2299689511
C  C15  1  0.53132000  0.77268000  0.12660000  1.0 -0.0328985697
C  C16  1  0.31342000  0.00578000  0.44230000  1.0 -0.1693707956
C  C17  1  0.58759000  0.73401000  0.18010000  1.0 0.5879377248
C  C18  1  0.51733000  0.78867000  0.92580000  1.0 -0.1088125951
C  C19  1  0.49063000  0.79237000  0.27450000  1.0 -0.1088125951
C  C20  1  0.27276000  0.06704000  0.70680000  1.0 -0.1390230646
C  C21  1  0.45800000  0.01500000  0.74360000  1.0 -0.2400033725
C  C22  1  0.86901000  0.23345000  0.94650000  1.0 0.0262283175
C  C23  1  0.84447000  0.29553000  0.91660000  1.0 -0.2299689511
C  C24  1  0.94916000  0.29644000  0.21060000  1.0 -0.0358067034
C  C25  1  0.92175000  0.35685000  0.17750000  1.0 0.1371793272
C  C26  1  0.83969000  0.42031000  0.97820000  1.0 0.0895225936
C  C27  1  0.18117000  0.28423000  0.76190000  1.0 0.5685334326
C  C28  1  0.86987000  0.35753000  0.02650000  1.0 -0.0328985697
C  C29  1  0.82204000  0.46256000  0.12350000  1.0 -0.1476442991
C  C30  1  0.12187000  0.28933000  0.62040000  1.0 -0.0328985697
C  C31  1  0.00745000  0.29435000  0.35870000  1.0 0.0703412006
C  C32  1  0.82547000  0.43613000  0.77640000  1.0 -0.1693707956
C  C33  1  0.06209000  0.31011000  0.68920000  1.0 -0.1088125951
C  C34  1  0.12405000  0.27135000  0.42170000  1.0 -0.0805037199
C  C35  1  0.92221000  0.23599000  0.09500000  1.0 -0.2299689511
C  C36  1  0.77268000  0.53132000  0.87340000  1.0 -0.0328985697
C  C37  1  0.00578000  0.31342000  0.55770000  1.0 -0.1693707956
C  C38  1  0.73401000  0.58759000  0.81990000  1.0 0.5879377248
C  C39  1  0.78867000  0.51733000  0.07420000  1.0 -0.1088125951
C  C40  1  0.79237000  0.49063000  0.72550000  1.0 -0.1088125951
C  C41  1  0.06704000  0.27276000  0.29320000  1.0 -0.1390230646
C  C42  1  0.01500000  0.45800000  0.25640000  1.0 -0.2400033725
C  C43  1  0.76655000  0.13099000  0.94650000  1.0 0.0262283175
C  C44  1  0.70447000  0.15553000  0.91660000  1.0 -0.2299689511
C  C45  1  0.70356000  0.05084000  0.21060000  1.0 -0.0358067034
C  C46  1  0.64315000  0.07825000  0.17750000  1.0 0.1371793272
C  C47  1  0.57969000  0.16031000  0.97820000  1.0 0.0895225936
C  C48  1  0.71577000  0.81883000  0.76190000  1.0 0.5685334326
C  C49  1  0.64247000  0.13013000  0.02650000  1.0 -0.0328985697
C  C50  1  0.53744000  0.17796000  0.12350000  1.0 -0.1476442991
C  C51  1  0.71067000  0.87813000  0.62040000  1.0 -0.0328985697
C  C52  1  0.70565000  0.99255000  0.35870000  1.0 0.0703412006
C  C53  1  0.56387000  0.17453000  0.77640000  1.0 -0.1693707956
C  C54  1  0.68989000  0.93791000  0.68920000  1.0 -0.1088125951
C  C55  1  0.72865000  0.87595000  0.42170000  1.0 -0.0805037199
C  C56  1  0.76401000  0.07779000  0.09500000  1.0 -0.2299689511
C  C57  1  0.46868000  0.22732000  0.87340000  1.0 -0.0328985697
C  C58  1  0.68658000  0.99422000  0.55770000  1.0 -0.1693707956
C  C59  1  0.41241000  0.26599000  0.81990000  1.0 0.5879377248
C  C60  1  0.48267000  0.21133000  0.07420000  1.0 -0.1088125951
C  C61  1  0.50937000  0.20763000  0.72550000  1.0 -0.1088125951
C  C62  1  0.72724000  0.93296000  0.29320000  1.0 -0.1390230646
C  C63  1  0.54200000  0.98500000  0.25640000  1.0 -0.2400033725
C  C64  1  0.13099000  0.76655000  0.05350000  1.0 0.0262283175
C  C65  1  0.15553000  0.70447000  0.08340000  1.0 -0.2299689511
C  C66  1  0.05084000  0.70356000  0.78940000  1.0 -0.0358067034
C  C67  1  0.07825000  0.64315000  0.82250000  1.0 0.1371793272
C  C68  1  0.16031000  0.57969000  0.02180000  1.0 0.0895225936
C  C69  1  0.81883000  0.71577000  0.23810000  1.0 0.5685334326
C  C70  1  0.13013000  0.64247000  0.97350000  1.0 -0.0328985697
C  C71  1  0.17796000  0.53744000  0.87650000  1.0 -0.1476442991
C  C72  1  0.87813000  0.71067000  0.37960000  1.0 -0.0328985697
C  C73  1  0.99255000  0.70565000  0.64130000  1.0 0.0703412006
C  C74  1  0.17453000  0.56387000  0.22360000  1.0 -0.1693707956
C  C75  1  0.93791000  0.68989000  0.31080000  1.0 -0.1088125951
C  C76  1  0.87595000  0.72865000  0.57830000  1.0 -0.0805037199
C  C77  1  0.07779000  0.76401000  0.90500000  1.0 -0.2299689511
C  C78  1  0.22732000  0.46868000  0.12660000  1.0 -0.0328985697
C  C79  1  0.99422000  0.68658000  0.44230000  1.0 -0.1693707956
C  C80  1  0.26599000  0.41241000  0.18010000  1.0 0.5879377248
C  C81  1  0.21133000  0.48267000  0.92580000  1.0 -0.1088125951
C  C82  1  0.20763000  0.50937000  0.27450000  1.0 -0.1088125951
C  C83  1  0.93296000  0.72724000  0.70680000  1.0 -0.1390230646
C  C84  1  0.98500000  0.54200000  0.74360000  1.0 -0.2400033725
C  C85  1  0.16510000  0.83490000  0.16690000  1.0 0.1615771474
C  C86  1  0.11460000  0.88540000  0.17740000  1.0 -0.352471429
C  C87  1  0.18200000  0.81800000  0.38710000  1.0 -0.4601898519
C  C88  1  0.83490000  0.16510000  0.83310000  1.0 0.1615771474
C  C89  1  0.88540000  0.11460000  0.82260000  1.0 -0.352471429
C  C90  1  0.81800000  0.18200000  0.61290000  1.0 -0.4601898519
O  O1  1  0.28793000  0.24473000  0.30050000  1.0 -0.615873429
O  O2  1  0.60705000  0.73061000  0.35890000  1.0 -0.5691415249
O  O3  1  0.41666000  0.94502000  0.70590000  1.0 -0.163838896
O  O4  1  0.61301000  0.70581000  0.03590000  1.0 -0.5691415249
O  O5  1  0.27444000  0.17004000  0.05440000  1.0 -0.5198156713
O  O6  1  0.63158000  0.58164000  0.31280000  1.0 -0.6633421211
O  O7  1  0.24473000  0.28793000  0.69950000  1.0 -0.615873429
O  O8  1  0.73061000  0.60705000  0.64110000  1.0 -0.5691415249
O  O9  1  0.94502000  0.41666000  0.29410000  1.0 -0.163838896
O  O10  1  0.70581000  0.61301000  0.96410000  1.0 -0.5691415249
O  O11  1  0.17004000  0.27444000  0.94560000  1.0 -0.5198156713
O  O12  1  0.58164000  0.63158000  0.68720000  1.0 -0.6633421211
O  O13  1  0.71207000  0.75527000  0.69950000  1.0 -0.615873429
O  O14  1  0.39295000  0.26939000  0.64110000  1.0 -0.5691415249
O  O15  1  0.58334000  0.05498000  0.29410000  1.0 -0.163838896
O  O16  1  0.38699000  0.29419000  0.96410000  1.0 -0.5691415249
O  O17  1  0.72556000  0.82996000  0.94560000  1.0 -0.5198156713
O  O18  1  0.36842000  0.41836000  0.68720000  1.0 -0.6633421211
O  O19  1  0.75527000  0.71207000  0.30050000  1.0 -0.615873429
O  O20  1  0.26939000  0.39295000  0.35890000  1.0 -0.5691415249
O  O21  1  0.05498000  0.58334000  0.70590000  1.0 -0.163838896
O  O22  1  0.29419000  0.38699000  0.03590000  1.0 -0.5691415249
O  O23  1  0.82996000  0.72556000  0.05440000  1.0 -0.5198156713
O  O24  1  0.41836000  0.36842000  0.31280000  1.0 -0.6633421211
