# DDEC6 charges by PACMAN v1.1 (https://github.com/mtap-research/PACMAN-charge/)
data_NEPDEV_ASR_pacman
_symmetry_space_group_name_H-M   'P 1'
_cell_length_a   19.22260000
_cell_length_b   19.22260000
_cell_length_c   6.64250000
_cell_angle_alpha   88.30220000
_cell_angle_beta   91.69780000
_cell_angle_gamma   104.32100000
_symmetry_Int_Tables_number   1
_chemical_formula_structural   Co2H38(C9O2)5
_chemical_formula_sum   'Co4 H76 C90 O20'
_cell_volume   2376.51302496
_cell_formula_units_Z   2
loop_
 _symmetry_equiv_pos_site_id
 _symmetry_equiv_pos_as_xyz
  1  'x, y, z'
loop_
 _atom_site_type_symbol
 _atom_site_label
 _atom_site_symmetry_multiplicity
 _atom_site_fract_x
 _atom_site_fract_y
 _atom_site_fract_z
 _atom_site_occupancy
 _atom_site_charge
Co  Co1  1  0.16619000  0.16619000  0.50000000  1.0 1.0519917726
Co  Co2  1  0.83381000  0.83381000  0.50000000  1.0 1.0519917726
Co  Co3  1  0.21243000  0.21243000  0.00000000  1.0 0.9443653344
Co  Co4  1  0.78757000  0.78757000  0.00000000  1.0 0.9443653344
H  H1  1  0.31003000  0.79233000  0.81913000  1.0 0.1205067964
H  H2  1  0.44423000  0.69679000  0.11843000  1.0 0.130386075
H  H3  1  0.33362000  0.95324000  0.26083000  1.0 0.109661812
H  H4  1  0.66866000  0.76174000  0.37544000  1.0 0.130386075
H  H5  1  0.47116000  0.83220000  0.60535000  1.0 0.1205067964
H  H6  1  0.56528000  0.82608000  0.82445000  1.0 0.1205067964
H  H7  1  0.57241000  0.76233000  0.16029000  1.0 0.1205067964
H  H8  1  0.27785000  0.99549000  0.59237000  1.0 0.1205067964
H  H9  1  0.33625000  0.90673000  0.67621000  1.0 0.1205067964
H  H10  1  0.27233000  0.04015000  0.17516000  1.0 0.1205067964
H  H11  1  0.53083000  0.95029000  0.12464000  1.0 0.1205067964
H  H12  1  0.51815000  0.00929000  0.26727000  1.0 0.130386075
H  H13  1  0.54959000  0.94659000  0.35537000  1.0 0.1205067964
H  H14  1  0.28243000  0.70301000  0.60394000  1.0 0.0749399631
H  H15  1  0.36303000  0.70951000  0.55413000  1.0 0.0979977312
H  H16  1  0.30707000  0.63495000  0.54163000  1.0 0.0918393551
H  H17  1  0.36469000  0.57013000  0.76248000  1.0 0.109661812
H  H18  1  0.43122000  0.63648000  0.77022000  1.0 0.109661812
H  H19  1  0.39847000  0.59901000  0.97077000  1.0 0.0918393551
H  H20  1  0.79233000  0.31003000  0.18087000  1.0 0.1205067964
H  H21  1  0.69679000  0.44423000  0.88157000  1.0 0.130386075
H  H22  1  0.95324000  0.33362000  0.73917000  1.0 0.109661812
H  H23  1  0.76174000  0.66866000  0.62456000  1.0 0.130386075
H  H24  1  0.83220000  0.47116000  0.39465000  1.0 0.1205067964
H  H25  1  0.82608000  0.56528000  0.17555000  1.0 0.1205067964
H  H26  1  0.76233000  0.57241000  0.83971000  1.0 0.1205067964
H  H27  1  0.99549000  0.27785000  0.40763000  1.0 0.1205067964
H  H28  1  0.90673000  0.33625000  0.32379000  1.0 0.1205067964
H  H29  1  0.04015000  0.27233000  0.82484000  1.0 0.1205067964
H  H30  1  0.95029000  0.53083000  0.87536000  1.0 0.1205067964
H  H31  1  0.00929000  0.51815000  0.73273000  1.0 0.130386075
H  H32  1  0.94659000  0.54959000  0.64463000  1.0 0.1205067964
H  H33  1  0.70301000  0.28243000  0.39606000  1.0 0.0749399631
H  H34  1  0.70951000  0.36303000  0.44587000  1.0 0.0979977312
H  H35  1  0.63495000  0.30707000  0.45837000  1.0 0.0918393551
H  H36  1  0.57013000  0.36469000  0.23752000  1.0 0.109661812
H  H37  1  0.63648000  0.43122000  0.22978000  1.0 0.109661812
H  H38  1  0.59901000  0.39847000  0.02923000  1.0 0.0918393551
H  H39  1  0.68997000  0.20767000  0.18087000  1.0 0.1205067964
H  H40  1  0.55577000  0.30321000  0.88157000  1.0 0.130386075
H  H41  1  0.66638000  0.04676000  0.73917000  1.0 0.109661812
H  H42  1  0.33134000  0.23826000  0.62456000  1.0 0.130386075
H  H43  1  0.52884000  0.16780000  0.39465000  1.0 0.1205067964
H  H44  1  0.43472000  0.17392000  0.17555000  1.0 0.1205067964
H  H45  1  0.42759000  0.23767000  0.83971000  1.0 0.1205067964
H  H46  1  0.72215000  0.00451000  0.40763000  1.0 0.1205067964
H  H47  1  0.66375000  0.09327000  0.32379000  1.0 0.1205067964
H  H48  1  0.72767000  0.95985000  0.82484000  1.0 0.1205067964
H  H49  1  0.46917000  0.04971000  0.87536000  1.0 0.1205067964
H  H50  1  0.48185000  0.99071000  0.73273000  1.0 0.130386075
H  H51  1  0.45041000  0.05341000  0.64463000  1.0 0.1205067964
H  H52  1  0.71757000  0.29699000  0.39606000  1.0 0.0749399631
H  H53  1  0.63697000  0.29049000  0.44587000  1.0 0.0979977312
H  H54  1  0.69293000  0.36505000  0.45837000  1.0 0.0918393551
H  H55  1  0.63531000  0.42987000  0.23752000  1.0 0.109661812
H  H56  1  0.56878000  0.36352000  0.22978000  1.0 0.109661812
H  H57  1  0.60153000  0.40099000  0.02923000  1.0 0.0918393551
H  H58  1  0.20767000  0.68997000  0.81913000  1.0 0.1205067964
H  H59  1  0.30321000  0.55577000  0.11843000  1.0 0.130386075
H  H60  1  0.04676000  0.66638000  0.26083000  1.0 0.109661812
H  H61  1  0.23826000  0.33134000  0.37544000  1.0 0.130386075
H  H62  1  0.16780000  0.52884000  0.60535000  1.0 0.1205067964
H  H63  1  0.17392000  0.43472000  0.82445000  1.0 0.1205067964
H  H64  1  0.23767000  0.42759000  0.16029000  1.0 0.1205067964
H  H65  1  0.00451000  0.72215000  0.59237000  1.0 0.1205067964
H  H66  1  0.09327000  0.66375000  0.67621000  1.0 0.1205067964
H  H67  1  0.95985000  0.72767000  0.17516000  1.0 0.1205067964
H  H68  1  0.04971000  0.46917000  0.12464000  1.0 0.1205067964
H  H69  1  0.99071000  0.48185000  0.26727000  1.0 0.130386075
H  H70  1  0.05341000  0.45041000  0.35537000  1.0 0.1205067964
H  H71  1  0.29699000  0.71757000  0.60394000  1.0 0.0749399631
H  H72  1  0.29049000  0.63697000  0.55413000  1.0 0.0979977312
H  H73  1  0.36505000  0.69293000  0.54163000  1.0 0.0918393551
H  H74  1  0.42987000  0.63531000  0.76248000  1.0 0.109661812
H  H75  1  0.36352000  0.56878000  0.77022000  1.0 0.109661812
H  H76  1  0.40099000  0.60153000  0.97077000  1.0 0.0918393551
C  C1  1  0.34558000  0.79342000  0.91780000  1.0 -0.232327827
C  C2  1  0.45191000  0.79729000  0.21020000  1.0 -0.0362794691
C  C3  1  0.37021000  0.85619000  0.02710000  1.0 -0.0287356149
C  C4  1  0.68713000  0.78927000  0.76440000  1.0 0.5680332898
C  C5  1  0.42344000  0.85716000  0.17750000  1.0 0.1425772576
C  C6  1  0.33856000  0.91784000  0.97650000  1.0 0.0794706416
C  C7  1  0.37168000  0.73292000  0.94950000  1.0 0.0172038979
C  C8  1  0.42530000  0.73650000  0.09580000  1.0 -0.2374591908
C  C9  1  0.51167000  0.79673000  0.35910000  1.0 0.0794706416
C  C10  1  0.32105000  0.96035000  0.12690000  1.0 -0.1593510738
C  C11  1  0.62650000  0.79310000  0.62220000  1.0 -0.0287356149
C  C12  1  0.26748000  0.02552000  0.87550000  1.0 -0.0287356149
C  C13  1  0.62865000  0.77475000  0.42230000  1.0 -0.0846835555
C  C14  1  0.51010000  0.81690000  0.56010000  1.0 -0.1775776626
C  C15  1  0.22766000  0.08114000  0.82170000  1.0 0.5947616814
C  C16  1  0.56682000  0.81398000  0.69040000  1.0 -0.1203323187
C  C17  1  0.57119000  0.77581000  0.29320000  1.0 -0.139032475
C  C18  1  0.28778000  0.98622000  0.72700000  1.0 -0.1056400568
C  C19  1  0.32297000  0.93283000  0.77770000  1.0 -0.1593510738
C  C20  1  0.28492000  0.01308000  0.07490000  1.0 -0.0915222944
C  C21  1  0.51690000  0.95930000  0.25710000  1.0 -0.232327827
C  C22  1  0.79342000  0.34558000  0.08220000  1.0 -0.232327827
C  C23  1  0.79729000  0.45191000  0.78980000  1.0 -0.0362794691
C  C24  1  0.85619000  0.37021000  0.97290000  1.0 -0.0287356149
C  C25  1  0.78927000  0.68713000  0.23560000  1.0 0.5680332898
C  C26  1  0.85716000  0.42344000  0.82250000  1.0 0.1425772576
C  C27  1  0.91784000  0.33856000  0.02350000  1.0 0.0794706416
C  C28  1  0.73292000  0.37168000  0.05050000  1.0 0.0172038979
C  C29  1  0.73650000  0.42530000  0.90420000  1.0 -0.2374591908
C  C30  1  0.79673000  0.51167000  0.64090000  1.0 0.0794706416
C  C31  1  0.96035000  0.32105000  0.87310000  1.0 -0.1593510738
C  C32  1  0.79310000  0.62650000  0.37780000  1.0 -0.0287356149
C  C33  1  0.02552000  0.26748000  0.12450000  1.0 -0.0287356149
C  C34  1  0.77475000  0.62865000  0.57770000  1.0 -0.0846835555
C  C35  1  0.81690000  0.51010000  0.43990000  1.0 -0.1775776626
C  C36  1  0.08114000  0.22766000  0.17830000  1.0 0.5947616814
C  C37  1  0.81398000  0.56682000  0.30960000  1.0 -0.1203323187
C  C38  1  0.77581000  0.57119000  0.70680000  1.0 -0.139032475
C  C39  1  0.98622000  0.28778000  0.27300000  1.0 -0.1056400568
C  C40  1  0.93283000  0.32297000  0.22230000  1.0 -0.1593510738
C  C41  1  0.01308000  0.28492000  0.92510000  1.0 -0.0915222944
C  C42  1  0.95930000  0.51690000  0.74290000  1.0 -0.232327827
C  C43  1  0.65442000  0.20658000  0.08220000  1.0 -0.232327827
C  C44  1  0.54809000  0.20271000  0.78980000  1.0 -0.0362794691
C  C45  1  0.62979000  0.14381000  0.97290000  1.0 -0.0287356149
C  C46  1  0.31287000  0.21073000  0.23560000  1.0 0.5680332898
C  C47  1  0.57656000  0.14284000  0.82250000  1.0 0.1425772576
C  C48  1  0.66144000  0.08216000  0.02350000  1.0 0.0794706416
C  C49  1  0.62832000  0.26708000  0.05050000  1.0 0.0172038979
C  C50  1  0.57470000  0.26350000  0.90420000  1.0 -0.2374591908
C  C51  1  0.48833000  0.20327000  0.64090000  1.0 0.0794706416
C  C52  1  0.67895000  0.03965000  0.87310000  1.0 -0.1593510738
C  C53  1  0.37350000  0.20690000  0.37780000  1.0 -0.0247924918
C  C54  1  0.73252000  0.97448000  0.12450000  1.0 -0.0287356149
C  C55  1  0.37135000  0.22525000  0.57770000  1.0 -0.0846835555
C  C56  1  0.48990000  0.18310000  0.43990000  1.0 -0.1775776626
C  C57  1  0.77234000  0.91886000  0.17830000  1.0 0.5947616814
C  C58  1  0.43318000  0.18602000  0.30960000  1.0 -0.1203323187
C  C59  1  0.42881000  0.22419000  0.70680000  1.0 -0.139032475
C  C60  1  0.71222000  0.01378000  0.27300000  1.0 -0.1056400568
C  C61  1  0.67703000  0.06717000  0.22230000  1.0 -0.1593510738
C  C62  1  0.71508000  0.98692000  0.92510000  1.0 -0.0915222944
C  C63  1  0.48310000  0.04070000  0.74290000  1.0 -0.2374591908
C  C64  1  0.20658000  0.65442000  0.91780000  1.0 -0.232327827
C  C65  1  0.20271000  0.54809000  0.21020000  1.0 -0.0362794691
C  C66  1  0.14381000  0.62979000  0.02710000  1.0 -0.0287356149
C  C67  1  0.21073000  0.31287000  0.76440000  1.0 0.5680332898
C  C68  1  0.14284000  0.57656000  0.17750000  1.0 0.1425772576
C  C69  1  0.08216000  0.66144000  0.97650000  1.0 0.0794706416
C  C70  1  0.26708000  0.62832000  0.94950000  1.0 0.0172038979
C  C71  1  0.26350000  0.57470000  0.09580000  1.0 -0.2374591908
C  C72  1  0.20327000  0.48833000  0.35910000  1.0 0.0794706416
C  C73  1  0.03965000  0.67895000  0.12690000  1.0 -0.1593510738
C  C74  1  0.20690000  0.37350000  0.62220000  1.0 -0.0287356149
C  C75  1  0.97448000  0.73252000  0.87550000  1.0 -0.0287356149
C  C76  1  0.22525000  0.37135000  0.42230000  1.0 -0.0846835555
C  C77  1  0.18310000  0.48990000  0.56010000  1.0 -0.1775776626
C  C78  1  0.91886000  0.77234000  0.82170000  1.0 0.5947616814
C  C79  1  0.18602000  0.43318000  0.69040000  1.0 -0.1203323187
C  C80  1  0.22419000  0.42881000  0.29320000  1.0 -0.139032475
C  C81  1  0.01378000  0.71222000  0.72700000  1.0 -0.1056400568
C  C82  1  0.06717000  0.67703000  0.77770000  1.0 -0.1593510738
C  C83  1  0.98692000  0.71508000  0.07490000  1.0 -0.0915222944
C  C84  1  0.04070000  0.48310000  0.25710000  1.0 -0.2374591908
C  C85  1  0.33710000  0.66290000  0.83900000  1.0 0.1541609808
C  C86  1  0.38760000  0.61240000  0.83530000  1.0 -0.4440668256
C  C87  1  0.32080000  0.67920000  0.61290000  1.0 -0.4190912725
C  C88  1  0.66290000  0.33710000  0.16100000  1.0 0.1541609808
C  C89  1  0.61240000  0.38760000  0.16470000  1.0 -0.4440668256
C  C90  1  0.67920000  0.32080000  0.38710000  1.0 -0.4190912725
O  O1  1  0.75006000  0.79282000  0.70070000  1.0 -0.5981765867
O  O2  1  0.67617000  0.78129000  0.94950000  1.0 -0.5202980519
O  O3  1  0.44636000  0.91746000  0.29270000  1.0 -0.1593510738
O  O4  1  0.19844000  0.10510000  0.96430000  1.0 -0.5515373827
O  O5  1  0.22400000  0.10092000  0.63990000  1.0 -0.5934839727
O  O6  1  0.79282000  0.75006000  0.29930000  1.0 -0.5981765867
O  O7  1  0.78129000  0.67617000  0.05050000  1.0 -0.5202980519
O  O8  1  0.91746000  0.44636000  0.70730000  1.0 -0.1593510738
O  O9  1  0.10510000  0.19844000  0.03570000  1.0 -0.5515373827
O  O10  1  0.10092000  0.22400000  0.36010000  1.0 -0.5934839727
O  O11  1  0.24994000  0.20718000  0.29930000  1.0 -0.5981765867
O  O12  1  0.32383000  0.21871000  0.05050000  1.0 -0.5202980519
O  O13  1  0.55364000  0.08254000  0.70730000  1.0 -0.1593510738
O  O14  1  0.80156000  0.89490000  0.03570000  1.0 -0.5515373827
O  O15  1  0.77600000  0.89908000  0.36010000  1.0 -0.5934839727
O  O16  1  0.20718000  0.24994000  0.70070000  1.0 -0.5981765867
O  O17  1  0.21871000  0.32383000  0.94950000  1.0 -0.5202980519
O  O18  1  0.08254000  0.55364000  0.29270000  1.0 -0.1593510738
O  O19  1  0.89490000  0.80156000  0.96430000  1.0 -0.5515373827
O  O20  1  0.89908000  0.77600000  0.63990000  1.0 -0.5934839727
