# DDEC6 charges by PACMAN v1.1 (https://github.com/mtap-research/PACMAN-charge/)
data_NEPDIZ_ASR_pacman
_symmetry_space_group_name_H-M   'P 1'
_cell_length_a   19.27250000
_cell_length_b   19.27250000
_cell_length_c   6.63950000
_cell_angle_alpha   88.15720000
_cell_angle_beta   91.84280000
_cell_angle_gamma   104.55400000
_symmetry_Int_Tables_number   1
_chemical_formula_structural   Co2H38(C9O2)5
_chemical_formula_sum   'Co4 H76 C90 O20'
_cell_volume   2384.99682841
_cell_formula_units_Z   2
loop_
 _symmetry_equiv_pos_site_id
 _symmetry_equiv_pos_as_xyz
  1  'x, y, z'
loop_
 _atom_site_type_symbol
 _atom_site_label
 _atom_site_symmetry_multiplicity
 _atom_site_fract_x
 _atom_site_fract_y
 _atom_site_fract_z
 _atom_site_occupancy
 _atom_site_charge
Co  Co1  1  0.82978000  0.82978000  0.00000000  1.0 1.0475892822
Co  Co2  1  0.17022000  0.17022000  0.00000000  1.0 1.0475892822
Co  Co3  1  0.78307000  0.78307000  0.50000000  1.0 0.9528620342
Co  Co4  1  0.21693000  0.21693000  0.50000000  1.0 0.9528620342
H  H1  1  0.08870000  0.66190000  0.17430000  1.0 0.1195422547
H  H2  1  0.24070000  0.33550000  0.87430000  1.0 0.1299005902
H  H3  1  0.23940000  0.42980000  0.65930000  1.0 0.1299005902
H  H4  1  0.95770000  0.72530000  0.67710000  1.0 0.1195422547
H  H5  1  0.04770000  0.66990000  0.75990000  1.0 0.1104585404
H  H6  1  0.16810000  0.53050000  0.10390000  1.0 0.1195422547
H  H7  1  0.17360000  0.43540000  0.31900000  1.0 0.1195422547
H  H8  1  0.05790000  0.46630000  0.64140000  1.0 0.1195422547
H  H9  1  0.04430000  0.45450000  0.87300000  1.0 0.1299005902
H  H10  1  0.99140000  0.48540000  0.73400000  1.0 0.1299005902
H  H11  1  0.20460000  0.69160000  0.31450000  1.0 0.1195422547
H  H12  1  0.00100000  0.72160000  0.09100000  1.0 0.1195422547
H  H13  1  0.30170000  0.55930000  0.61130000  1.0 0.1299005902
H  H14  1  0.35830000  0.56990000  0.27160000  1.0 0.097794335
H  H15  1  0.42350000  0.63610000  0.23410000  1.0 0.097794335
H  H16  1  0.40310000  0.60910000  0.45480000  1.0 0.0813685969
H  H17  1  0.28240000  0.71180000  0.10200000  1.0 0.0858157832
H  H18  1  0.35980000  0.70940000  0.04280000  1.0 0.1104585404
H  H19  1  0.29720000  0.63940000  0.03740000  1.0 0.1104585404
H  H20  1  0.66190000  0.08870000  0.82570000  1.0 0.1195422547
H  H21  1  0.33550000  0.24070000  0.12570000  1.0 0.1299005902
H  H22  1  0.42980000  0.23940000  0.34070000  1.0 0.1299005902
H  H23  1  0.72530000  0.95770000  0.32290000  1.0 0.1195422547
H  H24  1  0.66990000  0.04770000  0.24010000  1.0 0.1104585404
H  H25  1  0.53050000  0.16810000  0.89610000  1.0 0.1195422547
H  H26  1  0.43540000  0.17360000  0.68100000  1.0 0.1195422547
H  H27  1  0.46630000  0.05790000  0.35860000  1.0 0.1195422547
H  H28  1  0.45450000  0.04430000  0.12700000  1.0 0.1299005902
H  H29  1  0.48540000  0.99140000  0.26600000  1.0 0.1299005902
H  H30  1  0.69160000  0.20460000  0.68550000  1.0 0.1195422547
H  H31  1  0.72160000  0.00100000  0.90900000  1.0 0.1195422547
H  H32  1  0.55930000  0.30170000  0.38870000  1.0 0.1299005902
H  H33  1  0.56990000  0.35830000  0.72840000  1.0 0.097794335
H  H34  1  0.63610000  0.42350000  0.76590000  1.0 0.097794335
H  H35  1  0.60910000  0.40310000  0.54520000  1.0 0.0813685969
H  H36  1  0.71180000  0.28240000  0.89800000  1.0 0.0858157832
H  H37  1  0.70940000  0.35980000  0.95720000  1.0 0.1104585404
H  H38  1  0.63940000  0.29720000  0.96260000  1.0 0.1104585404
H  H39  1  0.91130000  0.33810000  0.82570000  1.0 0.1195422547
H  H40  1  0.75930000  0.66450000  0.12570000  1.0 0.1299005902
H  H41  1  0.76060000  0.57020000  0.34070000  1.0 0.1299005902
H  H42  1  0.04230000  0.27470000  0.32290000  1.0 0.1195422547
H  H43  1  0.95230000  0.33010000  0.24010000  1.0 0.1104585404
H  H44  1  0.83190000  0.46950000  0.89610000  1.0 0.1195422547
H  H45  1  0.82640000  0.56460000  0.68100000  1.0 0.1195422547
H  H46  1  0.94210000  0.53370000  0.35860000  1.0 0.1195422547
H  H47  1  0.95570000  0.54550000  0.12700000  1.0 0.1299005902
H  H48  1  0.00860000  0.51460000  0.26600000  1.0 0.1299005902
H  H49  1  0.79540000  0.30840000  0.68550000  1.0 0.1195422547
H  H50  1  0.99900000  0.27840000  0.90900000  1.0 0.1195422547
H  H51  1  0.69830000  0.44070000  0.38870000  1.0 0.1299005902
H  H52  1  0.64170000  0.43010000  0.72840000  1.0 0.097794335
H  H53  1  0.57650000  0.36390000  0.76590000  1.0 0.097794335
H  H54  1  0.59690000  0.39090000  0.54520000  1.0 0.0813685969
H  H55  1  0.71760000  0.28820000  0.89800000  1.0 0.0858157832
H  H56  1  0.64020000  0.29060000  0.95720000  1.0 0.1104585404
H  H57  1  0.70280000  0.36060000  0.96260000  1.0 0.1104585404
H  H58  1  0.33810000  0.91130000  0.17430000  1.0 0.1195422547
H  H59  1  0.66450000  0.75930000  0.87430000  1.0 0.1299005902
H  H60  1  0.57020000  0.76060000  0.65930000  1.0 0.1299005902
H  H61  1  0.27470000  0.04230000  0.67710000  1.0 0.1195422547
H  H62  1  0.33010000  0.95230000  0.75990000  1.0 0.1104585404
H  H63  1  0.46950000  0.83190000  0.10390000  1.0 0.1195422547
H  H64  1  0.56460000  0.82640000  0.31900000  1.0 0.1195422547
H  H65  1  0.53370000  0.94210000  0.64140000  1.0 0.1195422547
H  H66  1  0.54550000  0.95570000  0.87300000  1.0 0.1299005902
H  H67  1  0.51460000  0.00860000  0.73400000  1.0 0.1299005902
H  H68  1  0.30840000  0.79540000  0.31450000  1.0 0.1195422547
H  H69  1  0.27840000  0.99900000  0.09100000  1.0 0.1195422547
H  H70  1  0.44070000  0.69830000  0.61130000  1.0 0.1299005902
H  H71  1  0.43010000  0.64170000  0.27160000  1.0 0.097794335
H  H72  1  0.36390000  0.57650000  0.23410000  1.0 0.097794335
H  H73  1  0.39090000  0.59690000  0.45480000  1.0 0.0813685969
H  H74  1  0.28820000  0.71760000  0.10200000  1.0 0.0858157832
H  H75  1  0.29060000  0.64020000  0.04280000  1.0 0.1104585404
H  H76  1  0.36060000  0.70280000  0.03740000  1.0 0.1104585404
C  C1  1  0.06370000  0.67610000  0.27620000  1.0 -0.1684253042
C  C2  1  0.22750000  0.37530000  0.92050000  1.0 -0.0831328383
C  C3  1  0.20190000  0.55070000  0.70760000  1.0 -0.0390412075
C  C4  1  0.22550000  0.43110000  0.79170000  1.0 -0.143789248
C  C5  1  0.21410000  0.31690000  0.26210000  1.0 0.5748117963
C  C6  1  0.98500000  0.71380000  0.57600000  1.0 -0.0937551385
C  C7  1  0.97120000  0.73080000  0.37490000  1.0 -0.0297409118
C  C8  1  0.03870000  0.68030000  0.62540000  1.0 -0.1529212644
C  C9  1  0.14180000  0.57860000  0.67500000  1.0 0.1299005902
C  C10  1  0.20290000  0.49110000  0.85500000  1.0 0.0813685969
C  C11  1  0.08010000  0.66190000  0.47570000  1.0 0.0858157832
C  C12  1  0.20980000  0.37740000  0.11970000  1.0 -0.0297409118
C  C13  1  0.18330000  0.49190000  0.05720000  1.0 -0.1789940385
C  C14  1  0.18680000  0.43500000  0.18570000  1.0 -0.118072634
C  C15  1  0.26460000  0.63120000  0.44340000  1.0 0.0232413082
C  C16  1  0.91490000  0.76930000  0.32370000  1.0 0.594562153
C  C17  1  0.04060000  0.48460000  0.75740000  1.0 -0.2384905865
C  C18  1  0.14220000  0.63100000  0.52580000  1.0 -0.0297409118
C  C19  1  0.20430000  0.65630000  0.41360000  1.0 -0.2273247292
C  C20  1  0.01030000  0.71130000  0.22550000  1.0 -0.1068797627
C  C21  1  0.26180000  0.57780000  0.59020000  1.0 -0.2384905865
C  C22  1  0.67610000  0.06370000  0.72380000  1.0 -0.1684253042
C  C23  1  0.37530000  0.22750000  0.07950000  1.0 -0.0831328383
C  C24  1  0.55070000  0.20190000  0.29240000  1.0 -0.0390412075
C  C25  1  0.43110000  0.22550000  0.20830000  1.0 -0.143789248
C  C26  1  0.31690000  0.21410000  0.73790000  1.0 0.5748117963
C  C27  1  0.71380000  0.98500000  0.42400000  1.0 -0.0937551385
C  C28  1  0.73080000  0.97120000  0.62510000  1.0 -0.0297409118
C  C29  1  0.68030000  0.03870000  0.37460000  1.0 -0.1529212644
C  C30  1  0.57860000  0.14180000  0.32500000  1.0 0.1299005902
C  C31  1  0.49110000  0.20290000  0.14500000  1.0 0.0813685969
C  C32  1  0.66190000  0.08010000  0.52430000  1.0 0.0858157832
C  C33  1  0.37740000  0.20980000  0.88030000  1.0 -0.0297409118
C  C34  1  0.49190000  0.18330000  0.94280000  1.0 -0.1789940385
C  C35  1  0.43500000  0.18680000  0.81430000  1.0 -0.118072634
C  C36  1  0.63120000  0.26460000  0.55660000  1.0 0.0232413082
C  C37  1  0.76930000  0.91490000  0.67630000  1.0 0.594562153
C  C38  1  0.48460000  0.04060000  0.24260000  1.0 -0.2384905865
C  C39  1  0.63100000  0.14220000  0.47420000  1.0 -0.0297409118
C  C40  1  0.65630000  0.20430000  0.58640000  1.0 -0.2273247292
C  C41  1  0.71130000  0.01030000  0.77450000  1.0 -0.1068797627
C  C42  1  0.57780000  0.26180000  0.40980000  1.0 -0.2384905865
C  C43  1  0.93630000  0.32390000  0.72380000  1.0 -0.1684253042
C  C44  1  0.77250000  0.62470000  0.07950000  1.0 -0.0831328383
C  C45  1  0.79810000  0.44930000  0.29240000  1.0 -0.0390412075
C  C46  1  0.77450000  0.56890000  0.20830000  1.0 -0.143789248
C  C47  1  0.78590000  0.68310000  0.73790000  1.0 0.5748117963
C  C48  1  0.01500000  0.28620000  0.42400000  1.0 -0.0937551385
C  C49  1  0.02880000  0.26920000  0.62510000  1.0 -0.0297409118
C  C50  1  0.96130000  0.31970000  0.37460000  1.0 -0.1529212644
C  C51  1  0.85820000  0.42140000  0.32500000  1.0 0.1299005902
C  C52  1  0.79710000  0.50890000  0.14500000  1.0 0.0813685969
C  C53  1  0.91990000  0.33810000  0.52430000  1.0 0.0858157832
C  C54  1  0.79020000  0.62260000  0.88030000  1.0 -0.0297409118
C  C55  1  0.81670000  0.50810000  0.94280000  1.0 -0.1789940385
C  C56  1  0.81320000  0.56500000  0.81430000  1.0 -0.118072634
C  C57  1  0.73540000  0.36880000  0.55660000  1.0 0.0232413082
C  C58  1  0.08510000  0.23070000  0.67630000  1.0 0.594562153
C  C59  1  0.95940000  0.51540000  0.24260000  1.0 -0.2384905865
C  C60  1  0.85780000  0.36900000  0.47420000  1.0 -0.0297409118
C  C61  1  0.79570000  0.34370000  0.58640000  1.0 -0.2273247292
C  C62  1  0.98970000  0.28870000  0.77450000  1.0 -0.1068797627
C  C63  1  0.73820000  0.42220000  0.40980000  1.0 -0.2384905865
C  C64  1  0.32390000  0.93630000  0.27620000  1.0 -0.1684253042
C  C65  1  0.62470000  0.77250000  0.92050000  1.0 -0.0831328383
C  C66  1  0.44930000  0.79810000  0.70760000  1.0 -0.0390412075
C  C67  1  0.56890000  0.77450000  0.79170000  1.0 -0.143789248
C  C68  1  0.68310000  0.78590000  0.26210000  1.0 0.5748117963
C  C69  1  0.28620000  0.01500000  0.57600000  1.0 -0.0937551385
C  C70  1  0.26920000  0.02880000  0.37490000  1.0 -0.0297409118
C  C71  1  0.31970000  0.96130000  0.62540000  1.0 -0.1529212644
C  C72  1  0.42140000  0.85820000  0.67500000  1.0 0.1299005902
C  C73  1  0.50890000  0.79710000  0.85500000  1.0 0.0813685969
C  C74  1  0.33810000  0.91990000  0.47570000  1.0 0.0858157832
C  C75  1  0.62260000  0.79020000  0.11970000  1.0 -0.0297409118
C  C76  1  0.50810000  0.81670000  0.05720000  1.0 -0.1789940385
C  C77  1  0.56500000  0.81320000  0.18570000  1.0 -0.118072634
C  C78  1  0.36880000  0.73540000  0.44340000  1.0 0.0232413082
C  C79  1  0.23070000  0.08510000  0.32370000  1.0 0.594562153
C  C80  1  0.51540000  0.95940000  0.75740000  1.0 -0.2384905865
C  C81  1  0.36900000  0.85780000  0.52580000  1.0 -0.0297409118
C  C82  1  0.34370000  0.79570000  0.41360000  1.0 -0.2273247292
C  C83  1  0.28870000  0.98970000  0.22550000  1.0 -0.1068797627
C  C84  1  0.42220000  0.73820000  0.59020000  1.0 -0.2384905865
C  C85  1  0.31680000  0.68320000  0.10670000  1.0 -0.4493478438
C  C86  1  0.33400000  0.66600000  0.32830000  1.0 0.1606073776
C  C87  1  0.38450000  0.61550000  0.32200000  1.0 -0.4204454025
C  C88  1  0.68320000  0.31680000  0.89330000  1.0 -0.4493478438
C  C89  1  0.66600000  0.33400000  0.67170000  1.0 0.1606073776
C  C90  1  0.61550000  0.38450000  0.67800000  1.0 -0.4204454025
O  O1  1  0.89524000  0.77276000  0.14160000  1.0 -0.5945041975
O  O2  1  0.08214000  0.55486000  0.79230000  1.0 -0.1637430092
O  O3  1  0.21131000  0.25369000  0.19970000  1.0 -0.6060172519
O  O4  1  0.89001000  0.79759000  0.46430000  1.0 -0.5485090514
O  O5  1  0.22244000  0.32736000  0.44860000  1.0 -0.5244667729
O  O6  1  0.77276000  0.89524000  0.85840000  1.0 -0.5945041975
O  O7  1  0.55486000  0.08214000  0.20770000  1.0 -0.1637430092
O  O8  1  0.25369000  0.21131000  0.80030000  1.0 -0.6060172519
O  O9  1  0.79759000  0.89001000  0.53570000  1.0 -0.5485090514
O  O10  1  0.32736000  0.22244000  0.55140000  1.0 -0.5244667729
O  O11  1  0.10476000  0.22724000  0.85840000  1.0 -0.5945041975
O  O12  1  0.91786000  0.44514000  0.20770000  1.0 -0.1637430092
O  O13  1  0.78869000  0.74631000  0.80030000  1.0 -0.6060172519
O  O14  1  0.10999000  0.20241000  0.53570000  1.0 -0.5485090514
O  O15  1  0.77756000  0.67264000  0.55140000  1.0 -0.5244667729
O  O16  1  0.22724000  0.10476000  0.14160000  1.0 -0.5945041975
O  O17  1  0.44514000  0.91786000  0.79230000  1.0 -0.1637430092
O  O18  1  0.74631000  0.78869000  0.19970000  1.0 -0.6060172519
O  O19  1  0.20241000  0.10999000  0.46430000  1.0 -0.5485090514
O  O20  1  0.67264000  0.77756000  0.44860000  1.0 -0.5244667729
