# DDEC6 charges by PACMAN v1.1 (https://github.com/mtap-research/PACMAN-charge/)
data_NEPGUO_ASR_pacman
_symmetry_space_group_name_H-M   'P 1'
_cell_length_a   19.18290000
_cell_length_b   19.18290000
_cell_length_c   6.64460000
_cell_angle_alpha   88.23580000
_cell_angle_beta   91.76420000
_cell_angle_gamma   104.53200000
_symmetry_Int_Tables_number   1
_chemical_formula_structural   Co2H38(C9O2)5
_chemical_formula_sum   'Co4 H76 C90 O20'
_cell_volume   2365.08554323
_cell_formula_units_Z   2
loop_
 _symmetry_equiv_pos_site_id
 _symmetry_equiv_pos_as_xyz
  1  'x, y, z'
loop_
 _atom_site_type_symbol
 _atom_site_label
 _atom_site_symmetry_multiplicity
 _atom_site_fract_x
 _atom_site_fract_y
 _atom_site_fract_z
 _atom_site_occupancy
 _atom_site_charge
Co  Co1  1  0.66013000  0.66013000  0.50000000  1.0 1.0388297274
Co  Co2  1  0.33987000  0.33987000  0.50000000  1.0 1.0388297274
Co  Co3  1  0.70882000  0.70882000  0.00000000  1.0 0.9372863307
Co  Co4  1  0.29118000  0.29118000  0.00000000  1.0 0.9372863307
H  H1  1  0.02958000  0.67398000  0.41317000  1.0 0.1308128222
H  H2  1  0.19139000  0.70861000  0.17107000  1.0 0.1205121924
H  H3  1  0.22481000  0.50729000  0.40704000  1.0 0.1205121924
H  H4  1  0.93216000  0.67168000  0.18224000  1.0 0.1105235352
H  H5  1  0.05282000  0.80240000  0.88328000  1.0 0.1308128222
H  H6  1  0.16952000  0.55580000  0.74614000  1.0 0.1205121924
H  H7  1  0.92705000  0.73379000  0.83911000  1.0 0.1205121924
H  H8  1  0.16399000  0.59529000  0.32022000  1.0 0.1105235352
H  H9  1  0.22956000  0.46402000  0.82352000  1.0 0.1205121924
H  H10  1  0.13669000  0.93365000  0.21264000  1.0 0.1105235352
H  H11  1  0.82805000  0.73347000  0.62957000  1.0 0.1308128222
H  H12  1  0.98343000  0.48841000  0.73154000  1.0 0.1205121924
H  H13  1  0.96949000  0.54599000  0.87716000  1.0 0.1205121924
H  H14  1  0.94946000  0.55002000  0.64732000  1.0 0.1205121924
H  H15  1  0.09608000  0.89608000  0.02122000  1.0 0.0902728311
H  H16  1  0.07046000  0.86704000  0.23664000  1.0 0.1035391468
H  H17  1  0.21667000  0.79995000  0.38787000  1.0 0.076951748
H  H18  1  0.18992000  0.86696000  0.44919000  1.0 0.0902728311
H  H19  1  0.13533000  0.79117000  0.43532000  1.0 0.0902728311
H  H20  1  0.67398000  0.02958000  0.58683000  1.0 0.1308128222
H  H21  1  0.70861000  0.19139000  0.82893000  1.0 0.1205121924
H  H22  1  0.50729000  0.22481000  0.59296000  1.0 0.1205121924
H  H23  1  0.67168000  0.93216000  0.81776000  1.0 0.1105235352
H  H24  1  0.80240000  0.05282000  0.11672000  1.0 0.1308128222
H  H25  1  0.55580000  0.16952000  0.25386000  1.0 0.1205121924
H  H26  1  0.73379000  0.92705000  0.16089000  1.0 0.1205121924
H  H27  1  0.59529000  0.16399000  0.67978000  1.0 0.1105235352
H  H28  1  0.46402000  0.22956000  0.17648000  1.0 0.1205121924
H  H29  1  0.93365000  0.13669000  0.78736000  1.0 0.1105235352
H  H30  1  0.73347000  0.82805000  0.37043000  1.0 0.1308128222
H  H31  1  0.48841000  0.98343000  0.26846000  1.0 0.1205121924
H  H32  1  0.54599000  0.96949000  0.12284000  1.0 0.1205121924
H  H33  1  0.55002000  0.94946000  0.35268000  1.0 0.1205121924
H  H34  1  0.89608000  0.09608000  0.97878000  1.0 0.0902728311
H  H35  1  0.86704000  0.07046000  0.76336000  1.0 0.1035391468
H  H36  1  0.79995000  0.21667000  0.61213000  1.0 0.076951748
H  H37  1  0.86696000  0.18992000  0.55081000  1.0 0.0902728311
H  H38  1  0.79117000  0.13533000  0.56468000  1.0 0.0902728311
H  H39  1  0.97042000  0.32602000  0.58683000  1.0 0.1308128222
H  H40  1  0.80861000  0.29139000  0.82893000  1.0 0.1205121924
H  H41  1  0.77519000  0.49271000  0.59296000  1.0 0.1205121924
H  H42  1  0.06784000  0.32832000  0.81776000  1.0 0.1105235352
H  H43  1  0.94718000  0.19760000  0.11672000  1.0 0.1308128222
H  H44  1  0.83048000  0.44420000  0.25386000  1.0 0.1205121924
H  H45  1  0.07295000  0.26621000  0.16089000  1.0 0.1205121924
H  H46  1  0.83601000  0.40471000  0.67978000  1.0 0.1105235352
H  H47  1  0.77044000  0.53598000  0.17648000  1.0 0.1205121924
H  H48  1  0.86331000  0.06635000  0.78736000  1.0 0.1105235352
H  H49  1  0.17195000  0.26653000  0.37043000  1.0 0.1308128222
H  H50  1  0.01657000  0.51159000  0.26846000  1.0 0.1205121924
H  H51  1  0.03051000  0.45401000  0.12284000  1.0 0.1205121924
H  H52  1  0.05054000  0.44998000  0.35268000  1.0 0.1205121924
H  H53  1  0.90392000  0.10392000  0.97878000  1.0 0.0902728311
H  H54  1  0.92954000  0.13296000  0.76336000  1.0 0.1035391468
H  H55  1  0.78333000  0.20005000  0.61213000  1.0 0.076951748
H  H56  1  0.81008000  0.13304000  0.55081000  1.0 0.0902728311
H  H57  1  0.86467000  0.20883000  0.56468000  1.0 0.0902728311
H  H58  1  0.32602000  0.97042000  0.41317000  1.0 0.1308128222
H  H59  1  0.29139000  0.80861000  0.17107000  1.0 0.1205121924
H  H60  1  0.49271000  0.77519000  0.40704000  1.0 0.1205121924
H  H61  1  0.32832000  0.06784000  0.18224000  1.0 0.1105235352
H  H62  1  0.19760000  0.94718000  0.88328000  1.0 0.1308128222
H  H63  1  0.44420000  0.83048000  0.74614000  1.0 0.1205121924
H  H64  1  0.26621000  0.07295000  0.83911000  1.0 0.1205121924
H  H65  1  0.40471000  0.83601000  0.32022000  1.0 0.1105235352
H  H66  1  0.53598000  0.77044000  0.82352000  1.0 0.1205121924
H  H67  1  0.06635000  0.86331000  0.21264000  1.0 0.1105235352
H  H68  1  0.26653000  0.17195000  0.62957000  1.0 0.1308128222
H  H69  1  0.51159000  0.01657000  0.73154000  1.0 0.1205121924
H  H70  1  0.45401000  0.03051000  0.87716000  1.0 0.1205121924
H  H71  1  0.44998000  0.05054000  0.64732000  1.0 0.1205121924
H  H72  1  0.10392000  0.90392000  0.02122000  1.0 0.0902728311
H  H73  1  0.13296000  0.92954000  0.23664000  1.0 0.1035391468
H  H74  1  0.20005000  0.78333000  0.38787000  1.0 0.076951748
H  H75  1  0.13304000  0.81008000  0.44919000  1.0 0.0902728311
H  H76  1  0.20883000  0.86467000  0.43532000  1.0 0.0902728311
C  C1  1  0.98440000  0.70140000  0.63190000  1.0 0.0538807803
C  C2  1  0.27680000  0.42220000  0.18050000  1.0 0.5900730326
C  C3  1  0.98830000  0.68550000  0.45600000  1.0 -0.1389994451
C  C4  1  0.16360000  0.58120000  0.01370000  1.0 0.0735027886
C  C5  1  0.13000000  0.64460000  0.96910000  1.0 -0.0314383591
C  C6  1  0.04670000  0.70150000  0.78700000  1.0 -0.0314383591
C  C7  1  0.15480000  0.70700000  0.07490000  1.0 -0.2427424153
C  C8  1  0.12800000  0.76820000  0.04560000  1.0 0.009023608
C  C9  1  0.80940000  0.70660000  0.23760000  1.0 0.5641977026
C  C10  1  0.21440000  0.51620000  0.27260000  1.0 -0.1169133947
C  C11  1  0.92970000  0.68470000  0.31500000  1.0 -0.0866343395
C  C12  1  0.07310000  0.76350000  0.90330000  1.0 -0.2606459872
C  C13  1  0.18060000  0.54620000  0.87970000  1.0 -0.1306786795
C  C14  1  0.92690000  0.72090000  0.70530000  1.0 -0.1306786795
C  C15  1  0.17820000  0.56880000  0.22140000  1.0 -0.1682507635
C  C16  1  0.07580000  0.64220000  0.82160000  1.0 0.1308128222
C  C17  1  0.86910000  0.70370000  0.38230000  1.0 -0.0314383591
C  C18  1  0.21750000  0.49050000  0.92580000  1.0 -0.1063203604
C  C19  1  0.23460000  0.47740000  0.12430000  1.0 -0.0184874056
C  C20  1  0.86810000  0.72130000  0.58000000  1.0 -0.0812540517
C  C21  1  0.98330000  0.53810000  0.74400000  1.0 -0.2427424153
C  C22  1  0.70140000  0.98440000  0.36810000  1.0 0.0538807803
C  C23  1  0.42220000  0.27680000  0.81950000  1.0 0.5900730326
C  C24  1  0.68550000  0.98830000  0.54400000  1.0 -0.1389994451
C  C25  1  0.58120000  0.16360000  0.98630000  1.0 0.0735027886
C  C26  1  0.64460000  0.13000000  0.03090000  1.0 -0.0314383591
C  C27  1  0.70150000  0.04670000  0.21300000  1.0 -0.0314383591
C  C28  1  0.70700000  0.15480000  0.92510000  1.0 -0.2427424153
C  C29  1  0.76820000  0.12800000  0.95440000  1.0 0.009023608
C  C30  1  0.70660000  0.80940000  0.76240000  1.0 0.5641977026
C  C31  1  0.51620000  0.21440000  0.72740000  1.0 -0.1169133947
C  C32  1  0.68470000  0.92970000  0.68500000  1.0 -0.0866343395
C  C33  1  0.76350000  0.07310000  0.09670000  1.0 -0.2606459872
C  C34  1  0.54620000  0.18060000  0.12030000  1.0 -0.1306786795
C  C35  1  0.72090000  0.92690000  0.29470000  1.0 -0.1306786795
C  C36  1  0.56880000  0.17820000  0.77860000  1.0 -0.1682507635
C  C37  1  0.64220000  0.07580000  0.17840000  1.0 0.1308128222
C  C38  1  0.70370000  0.86910000  0.61770000  1.0 -0.0314383591
C  C39  1  0.49050000  0.21750000  0.07420000  1.0 -0.1063203604
C  C40  1  0.47740000  0.23460000  0.87570000  1.0 -0.0184874056
C  C41  1  0.72130000  0.86810000  0.42000000  1.0 -0.0812540517
C  C42  1  0.53810000  0.98330000  0.25600000  1.0 -0.2427424153
C  C43  1  0.01560000  0.29860000  0.36810000  1.0 0.0538807803
C  C44  1  0.72320000  0.57780000  0.81950000  1.0 0.5900730326
C  C45  1  0.01170000  0.31450000  0.54400000  1.0 -0.1389994451
C  C46  1  0.83640000  0.41880000  0.98630000  1.0 0.0735027886
C  C47  1  0.87000000  0.35540000  0.03090000  1.0 -0.0314383591
C  C48  1  0.95330000  0.29850000  0.21300000  1.0 -0.0314383591
C  C49  1  0.84520000  0.29300000  0.92510000  1.0 -0.2427424153
C  C50  1  0.87200000  0.23180000  0.95440000  1.0 0.009023608
C  C51  1  0.19060000  0.29340000  0.76240000  1.0 0.5641977026
C  C52  1  0.78560000  0.48380000  0.72740000  1.0 -0.1169133947
C  C53  1  0.07030000  0.31530000  0.68500000  1.0 -0.0866343395
C  C54  1  0.92690000  0.23650000  0.09670000  1.0 -0.2606459872
C  C55  1  0.81940000  0.45380000  0.12030000  1.0 -0.1306786795
C  C56  1  0.07310000  0.27910000  0.29470000  1.0 -0.1306786795
C  C57  1  0.82180000  0.43120000  0.77860000  1.0 -0.1682507635
C  C58  1  0.92420000  0.35780000  0.17840000  1.0 0.1308128222
C  C59  1  0.13090000  0.29630000  0.61770000  1.0 -0.0314383591
C  C60  1  0.78250000  0.50950000  0.07420000  1.0 -0.1063203604
C  C61  1  0.76540000  0.52260000  0.87570000  1.0 -0.0184874056
C  C62  1  0.13190000  0.27870000  0.42000000  1.0 -0.0812540517
C  C63  1  0.01670000  0.46190000  0.25600000  1.0 -0.2427424153
C  C64  1  0.29860000  0.01560000  0.63190000  1.0 0.0538807803
C  C65  1  0.57780000  0.72320000  0.18050000  1.0 0.5900730326
C  C66  1  0.31450000  0.01170000  0.45600000  1.0 -0.1389994451
C  C67  1  0.41880000  0.83640000  0.01370000  1.0 0.0735027886
C  C68  1  0.35540000  0.87000000  0.96910000  1.0 -0.0314383591
C  C69  1  0.29850000  0.95330000  0.78700000  1.0 -0.0314383591
C  C70  1  0.29300000  0.84520000  0.07490000  1.0 -0.2427424153
C  C71  1  0.23180000  0.87200000  0.04560000  1.0 0.009023608
C  C72  1  0.29340000  0.19060000  0.23760000  1.0 0.5641977026
C  C73  1  0.48380000  0.78560000  0.27260000  1.0 -0.1169133947
C  C74  1  0.31530000  0.07030000  0.31500000  1.0 -0.0866343395
C  C75  1  0.23650000  0.92690000  0.90330000  1.0 -0.2606459872
C  C76  1  0.45380000  0.81940000  0.87970000  1.0 -0.1306786795
C  C77  1  0.27910000  0.07310000  0.70530000  1.0 -0.1306786795
C  C78  1  0.43120000  0.82180000  0.22140000  1.0 -0.1682507635
C  C79  1  0.35780000  0.92420000  0.82160000  1.0 0.1308128222
C  C80  1  0.29630000  0.13090000  0.38230000  1.0 -0.0314383591
C  C81  1  0.50950000  0.78250000  0.92580000  1.0 -0.1063203604
C  C82  1  0.52260000  0.76540000  0.12430000  1.0 -0.0184874056
C  C83  1  0.27870000  0.13190000  0.58000000  1.0 -0.0812540517
C  C84  1  0.46190000  0.01670000  0.74400000  1.0 -0.2427424153
C  C85  1  0.16190000  0.83810000  0.15800000  1.0 0.1551398172
C  C86  1  0.11160000  0.88840000  0.15700000  1.0 -0.438063176
C  C87  1  0.17740000  0.82260000  0.37800000  1.0 -0.4006791428
C  C88  1  0.83810000  0.16190000  0.84200000  1.0 0.1544911399
C  C89  1  0.88840000  0.11160000  0.84300000  1.0 -0.438063176
C  C90  1  0.82260000  0.17740000  0.62200000  1.0 -0.4006791428
O  O1  1  0.74490000  0.70250000  0.30220000  1.0 -0.6160991953
O  O2  1  0.05300000  0.58220000  0.70680000  1.0 -0.1682507635
O  O3  1  0.81910000  0.71530000  0.05590000  1.0 -0.490753697
O  O4  1  0.28160000  0.40420000  0.35990000  1.0 -0.5769214795
O  O5  1  0.30400000  0.39880000  0.03780000  1.0 -0.5363131926
O  O6  1  0.70250000  0.74490000  0.69780000  1.0 -0.6160991953
O  O7  1  0.58220000  0.05300000  0.29320000  1.0 -0.1682507635
O  O8  1  0.71530000  0.81910000  0.94410000  1.0 -0.490753697
O  O9  1  0.40420000  0.28160000  0.64010000  1.0 -0.5769214795
O  O10  1  0.39880000  0.30400000  0.96220000  1.0 -0.5363131926
O  O11  1  0.25510000  0.29750000  0.69780000  1.0 -0.6160991953
O  O12  1  0.94700000  0.41780000  0.29320000  1.0 -0.1682507635
O  O13  1  0.18090000  0.28470000  0.94410000  1.0 -0.490753697
O  O14  1  0.71840000  0.59580000  0.64010000  1.0 -0.5769214795
O  O15  1  0.69600000  0.60120000  0.96220000  1.0 -0.5363131926
O  O16  1  0.29750000  0.25510000  0.30220000  1.0 -0.6160991953
O  O17  1  0.41780000  0.94700000  0.70680000  1.0 -0.1682507635
O  O18  1  0.28470000  0.18090000  0.05590000  1.0 -0.490753697
O  O19  1  0.59580000  0.71840000  0.35990000  1.0 -0.5769214795
O  O20  1  0.60120000  0.69600000  0.03780000  1.0 -0.5363131926
