# DDEC6 charges by PACMAN v1.1 (https://github.com/mtap-research/PACMAN-charge/)
data_NESVAK_FSR_pacman
_symmetry_space_group_name_H-M   'P 1'
_cell_length_a   25.33390000
_cell_length_b   25.33390000
_cell_length_c   25.33390000
_cell_angle_alpha   50.27200000
_cell_angle_beta   50.27200000
_cell_angle_gamma   50.27200000
_symmetry_Int_Tables_number   1
_chemical_formula_structural   Cd3H14C30N3O13
_chemical_formula_sum   'Cd18 H84 C180 N18 O78'
_cell_volume   8856.14381567
_cell_formula_units_Z   6
loop_
 _symmetry_equiv_pos_site_id
 _symmetry_equiv_pos_as_xyz
  1  'x, y, z'
loop_
 _atom_site_type_symbol
 _atom_site_label
 _atom_site_symmetry_multiplicity
 _atom_site_fract_x
 _atom_site_fract_y
 _atom_site_fract_z
 _atom_site_occupancy
 _atom_site_charge
Cd  Cd1  1  0.73331000  0.51554000  0.33769000  1.0 0.9510684628
Cd  Cd2  1  0.51554000  0.33769000  0.73331000  1.0 0.9510684628
Cd  Cd3  1  0.33769000  0.73331000  0.51554000  1.0 0.9510684628
Cd  Cd4  1  0.23331000  0.83769000  0.01554000  1.0 0.9510684628
Cd  Cd5  1  0.83769000  0.01554000  0.23331000  1.0 0.9510684628
Cd  Cd6  1  0.01554000  0.23331000  0.83769000  1.0 0.9510684628
Cd  Cd7  1  0.78009000  0.44950000  0.21742000  1.0 0.9097142139
Cd  Cd8  1  0.44950000  0.21742000  0.78009000  1.0 0.9097142139
Cd  Cd9  1  0.21742000  0.78009000  0.44950000  1.0 0.9097142139
Cd  Cd10  1  0.28009000  0.71742000  0.94950000  1.0 0.9097142139
Cd  Cd11  1  0.71742000  0.94950000  0.28009000  1.0 0.9097142139
Cd  Cd12  1  0.94950000  0.28009000  0.71742000  1.0 0.9097142139
Cd  Cd13  1  0.77979000  0.07674000  0.36794000  1.0 0.9097142139
Cd  Cd14  1  0.07674000  0.36794000  0.77979000  1.0 0.9097142139
Cd  Cd15  1  0.36794000  0.77979000  0.07674000  1.0 0.9097142139
Cd  Cd16  1  0.27979000  0.86794000  0.57674000  1.0 0.9097142139
Cd  Cd17  1  0.86794000  0.57674000  0.27979000  1.0 0.9097142139
Cd  Cd18  1  0.57674000  0.27979000  0.86794000  1.0 0.9097142139
H  H1  1  0.74610000  0.29030000  0.36330000  1.0 0.1424637729
H  H2  1  0.29030000  0.36330000  0.74610000  1.0 0.1424637729
H  H3  1  0.36330000  0.74610000  0.29030000  1.0 0.1424637729
H  H4  1  0.24610000  0.86330000  0.79030000  1.0 0.1424637729
H  H5  1  0.86330000  0.79030000  0.24610000  1.0 0.1424637729
H  H6  1  0.79030000  0.24610000  0.86330000  1.0 0.1424637729
H  H7  1  0.62480000  0.17340000  0.55650000  1.0 0.1283642454
H  H8  1  0.17340000  0.55650000  0.62480000  1.0 0.1283642454
H  H9  1  0.55650000  0.62480000  0.17340000  1.0 0.1283642454
H  H10  1  0.12480000  0.05650000  0.67340000  1.0 0.1283642454
H  H11  1  0.05650000  0.67340000  0.12480000  1.0 0.1283642454
H  H12  1  0.67340000  0.12480000  0.05650000  1.0 0.1283642454
H  H13  1  0.63520000  0.33410000  0.54410000  1.0 0.1424637729
H  H14  1  0.33410000  0.54410000  0.63520000  1.0 0.1424637729
H  H15  1  0.54410000  0.63520000  0.33410000  1.0 0.1424637729
H  H16  1  0.13520000  0.04410000  0.83410000  1.0 0.1424637729
H  H17  1  0.04410000  0.83410000  0.13520000  1.0 0.1424637729
H  H18  1  0.83410000  0.13520000  0.04410000  1.0 0.1424637729
H  H19  1  0.52470000  0.70730000  0.42450000  1.0 0.1424637729
H  H20  1  0.70730000  0.42450000  0.52470000  1.0 0.1424637729
H  H21  1  0.42450000  0.52470000  0.70730000  1.0 0.1424637729
H  H22  1  0.02470000  0.92450000  0.20730000  1.0 0.1424637729
H  H23  1  0.92450000  0.20730000  0.02470000  1.0 0.1424637729
H  H24  1  0.20730000  0.02470000  0.92450000  1.0 0.1424637729
H  H25  1  0.51700000  0.86820000  0.43000000  1.0 0.1283642454
H  H26  1  0.86820000  0.43000000  0.51700000  1.0 0.1283642454
H  H27  1  0.43000000  0.51700000  0.86820000  1.0 0.1283642454
H  H28  1  0.01700000  0.93000000  0.36820000  1.0 0.1283642454
H  H29  1  0.93000000  0.36820000  0.01700000  1.0 0.1283642454
H  H30  1  0.36820000  0.01700000  0.93000000  1.0 0.1283642454
H  H31  1  0.71660000  0.73990000  0.31730000  1.0 0.1471337944
H  H32  1  0.73990000  0.31730000  0.71660000  1.0 0.1471337944
H  H33  1  0.31730000  0.71660000  0.73990000  1.0 0.1471337944
H  H34  1  0.21660000  0.81730000  0.23990000  1.0 0.1471337944
H  H35  1  0.81730000  0.23990000  0.21660000  1.0 0.1471337944
H  H36  1  0.23990000  0.21660000  0.81730000  1.0 0.1471337944
H  H37  1  0.02900000  0.53990000  0.11910000  1.0 0.1283642454
H  H38  1  0.53990000  0.11910000  0.02900000  1.0 0.1283642454
H  H39  1  0.11910000  0.02900000  0.53990000  1.0 0.1283642454
H  H40  1  0.52900000  0.61910000  0.03990000  1.0 0.1283642454
H  H41  1  0.61910000  0.03990000  0.52900000  1.0 0.1283642454
H  H42  1  0.03990000  0.52900000  0.61910000  1.0 0.1283642454
H  H43  1  0.11320000  0.50280000  0.01860000  1.0 0.1104636074
H  H44  1  0.50280000  0.01860000  0.11320000  1.0 0.1104636074
H  H45  1  0.01860000  0.11320000  0.50280000  1.0 0.1104636074
H  H46  1  0.61320000  0.51860000  0.00280000  1.0 0.1104636074
H  H47  1  0.51860000  0.00280000  0.61320000  1.0 0.1104636074
H  H48  1  0.00280000  0.61320000  0.51860000  1.0 0.1104636074
H  H49  1  0.08160000  0.45610000  0.99130000  1.0 0.1192795351
H  H50  1  0.45610000  0.99130000  0.08160000  1.0 0.1192795351
H  H51  1  0.99130000  0.08160000  0.45610000  1.0 0.1192795351
H  H52  1  0.58160000  0.49130000  0.95610000  1.0 0.1192795351
H  H53  1  0.49130000  0.95610000  0.58160000  1.0 0.1192795351
H  H54  1  0.95610000  0.58160000  0.49130000  1.0 0.1192795351
H  H55  1  0.96610000  0.44650000  0.06450000  1.0 0.1192795351
H  H56  1  0.44650000  0.06450000  0.96610000  1.0 0.1192795351
H  H57  1  0.06450000  0.96610000  0.44650000  1.0 0.1192795351
H  H58  1  0.46610000  0.56450000  0.94650000  1.0 0.1192795351
H  H59  1  0.56450000  0.94650000  0.46610000  1.0 0.1192795351
H  H60  1  0.94650000  0.46610000  0.56450000  1.0 0.1192795351
H  H61  1  0.97900000  0.61950000  0.07780000  1.0 0.1283642454
H  H62  1  0.61950000  0.07780000  0.97900000  1.0 0.1283642454
H  H63  1  0.07780000  0.97900000  0.61950000  1.0 0.1283642454
H  H64  1  0.47900000  0.57780000  0.11950000  1.0 0.1283642454
H  H65  1  0.57780000  0.11950000  0.47900000  1.0 0.1283642454
H  H66  1  0.11950000  0.47900000  0.57780000  1.0 0.1283642454
H  H67  1  0.03200000  0.62530000  0.95840000  1.0 0.1104636074
H  H68  1  0.62530000  0.95840000  0.03200000  1.0 0.1104636074
H  H69  1  0.95840000  0.03200000  0.62530000  1.0 0.1104636074
H  H70  1  0.53200000  0.45840000  0.12530000  1.0 0.1104636074
H  H71  1  0.45840000  0.12530000  0.53200000  1.0 0.1104636074
H  H72  1  0.12530000  0.53200000  0.45840000  1.0 0.1104636074
H  H73  1  0.00120000  0.57230000  0.93750000  1.0 0.1104636074
H  H74  1  0.57230000  0.93750000  0.00120000  1.0 0.1104636074
H  H75  1  0.93750000  0.00120000  0.57230000  1.0 0.1104636074
H  H76  1  0.50120000  0.43750000  0.07230000  1.0 0.1104636074
H  H77  1  0.43750000  0.07230000  0.50120000  1.0 0.1104636074
H  H78  1  0.07230000  0.50120000  0.43750000  1.0 0.1104636074
H  H79  1  0.91740000  0.51340000  0.03610000  1.0 0.1192795351
H  H80  1  0.51340000  0.03610000  0.91740000  1.0 0.1192795351
H  H81  1  0.03610000  0.91740000  0.51340000  1.0 0.1192795351
H  H82  1  0.41740000  0.53610000  0.01340000  1.0 0.1192795351
H  H83  1  0.53610000  0.01340000  0.41740000  1.0 0.1192795351
H  H84  1  0.01340000  0.41740000  0.53610000  1.0 0.1192795351
C  C1  1  0.71593000  0.38633000  0.40283000  1.0 0.57857757
C  C2  1  0.38633000  0.40283000  0.71593000  1.0 0.57857757
C  C3  1  0.40283000  0.71593000  0.38633000  1.0 0.57857757
C  C4  1  0.21593000  0.90283000  0.88633000  1.0 0.57857757
C  C5  1  0.90283000  0.88633000  0.21593000  1.0 0.57857757
C  C6  1  0.88633000  0.21593000  0.90283000  1.0 0.57857757
C  C7  1  0.69329000  0.32149000  0.44699000  1.0 -0.0072020417
C  C8  1  0.32149000  0.44699000  0.69329000  1.0 -0.0072020417
C  C9  1  0.44699000  0.69329000  0.32149000  1.0 -0.0072020417
C  C10  1  0.19329000  0.94699000  0.82149000  1.0 -0.0072020417
C  C11  1  0.94699000  0.82149000  0.19329000  1.0 -0.0072020417
C  C12  1  0.82149000  0.19329000  0.94699000  1.0 -0.0072020417
C  C13  1  0.71354000  0.28064000  0.41434000  1.0 -0.0777577938
C  C14  1  0.28064000  0.41434000  0.71354000  1.0 -0.0777577938
C  C15  1  0.41434000  0.71354000  0.28064000  1.0 -0.0777577938
C  C16  1  0.21354000  0.91434000  0.78064000  1.0 -0.0777577938
C  C17  1  0.91434000  0.78064000  0.21354000  1.0 -0.0777577938
C  C18  1  0.78064000  0.21354000  0.91434000  1.0 -0.0777577938
C  C19  1  0.68804000  0.22684000  0.45374000  1.0 -0.0072020417
C  C20  1  0.22684000  0.45374000  0.68804000  1.0 -0.0072020417
C  C21  1  0.45374000  0.68804000  0.22684000  1.0 -0.0072020417
C  C22  1  0.18804000  0.95374000  0.72684000  1.0 -0.0072020417
C  C23  1  0.95374000  0.72684000  0.18804000  1.0 -0.0072020417
C  C24  1  0.72684000  0.18804000  0.95374000  1.0 -0.0072020417
C  C25  1  0.64094000  0.21244000  0.52874000  1.0 -0.0777577938
C  C26  1  0.21244000  0.52874000  0.64094000  1.0 -0.0777577938
C  C27  1  0.52874000  0.64094000  0.21244000  1.0 -0.0777577938
C  C28  1  0.14094000  0.02874000  0.71244000  1.0 -0.0777577938
C  C29  1  0.02874000  0.71244000  0.14094000  1.0 -0.0777577938
C  C30  1  0.71244000  0.14094000  0.02874000  1.0 -0.0777577938
C  C31  1  0.61649000  0.25329000  0.56499000  1.0 -0.0777577938
C  C32  1  0.25329000  0.56499000  0.61649000  1.0 -0.0777577938
C  C33  1  0.56499000  0.61649000  0.25329000  1.0 -0.0777577938
C  C34  1  0.11649000  0.06499000  0.75329000  1.0 -0.0726244932
C  C35  1  0.06499000  0.75329000  0.11649000  1.0 -0.0777577938
C  C36  1  0.75329000  0.11649000  0.06499000  1.0 -0.0777577938
C  C37  1  0.64691000  0.30721000  0.52151000  1.0 -0.0777577938
C  C38  1  0.30721000  0.52151000  0.64691000  1.0 -0.0777577938
C  C39  1  0.52151000  0.64691000  0.30721000  1.0 -0.0777577938
C  C40  1  0.14691000  0.02151000  0.80721000  1.0 -0.0777577938
C  C41  1  0.02151000  0.80721000  0.14691000  1.0 -0.0777577938
C  C42  1  0.80721000  0.14691000  0.02151000  1.0 -0.0777577938
C  C43  1  0.71321000  0.17891000  0.42001000  1.0 0.5313578565
C  C44  1  0.17891000  0.42001000  0.71321000  1.0 0.5313578565
C  C45  1  0.42001000  0.71321000  0.17891000  1.0 0.5313578565
C  C46  1  0.21321000  0.92001000  0.67891000  1.0 0.5313578565
C  C47  1  0.92001000  0.67891000  0.21321000  1.0 0.5313578565
C  C48  1  0.67891000  0.21321000  0.92001000  1.0 0.5313578565
C  C49  1  0.56681000  0.24081000  0.64101000  1.0 0.5684426422
C  C50  1  0.24081000  0.64101000  0.56681000  1.0 0.5684426422
C  C51  1  0.64101000  0.56681000  0.24081000  1.0 0.5684426422
C  C52  1  0.06681000  0.14101000  0.74081000  1.0 0.5684426422
C  C53  1  0.14101000  0.74081000  0.06681000  1.0 0.5684426422
C  C54  1  0.74081000  0.06681000  0.14101000  1.0 0.5684426422
C  C55  1  0.67277000  0.64437000  0.35037000  1.0 0.5684426422
C  C56  1  0.64437000  0.35037000  0.67277000  1.0 0.5684426422
C  C57  1  0.35037000  0.67277000  0.64437000  1.0 0.5684426422
C  C58  1  0.17277000  0.85037000  0.14437000  1.0 0.5684426422
C  C59  1  0.85037000  0.14437000  0.17277000  1.0 0.5684426422
C  C60  1  0.14437000  0.17277000  0.85037000  1.0 0.5684426422
C  C61  1  0.62691000  0.71191000  0.36991000  1.0 0.017250816
C  C62  1  0.71191000  0.36991000  0.62691000  1.0 0.017250816
C  C63  1  0.36991000  0.62691000  0.71191000  1.0 0.017250816
C  C64  1  0.12691000  0.86991000  0.21191000  1.0 0.017250816
C  C65  1  0.86991000  0.21191000  0.12691000  1.0 0.017250816
C  C66  1  0.21191000  0.12691000  0.86991000  1.0 0.017250816
C  C67  1  0.54971000  0.73221000  0.41211000  1.0 -0.1088133387
C  C68  1  0.73221000  0.41211000  0.54971000  1.0 -0.1219744654
C  C69  1  0.41211000  0.54971000  0.73221000  1.0 -0.1088133387
C  C70  1  0.04971000  0.91211000  0.23221000  1.0 -0.1088133387
C  C71  1  0.91211000  0.23221000  0.04971000  1.0 -0.1088133387
C  C72  1  0.23221000  0.04971000  0.91211000  1.0 -0.1088133387
C  C73  1  0.50995000  0.78945000  0.43585000  1.0 0.0014143272
C  C74  1  0.78945000  0.43585000  0.50995000  1.0 0.0014143272
C  C75  1  0.43585000  0.50995000  0.78945000  1.0 0.0014143272
C  C76  1  0.00995000  0.93585000  0.28945000  1.0 0.0014143272
C  C77  1  0.93585000  0.28945000  0.00995000  1.0 0.0014143272
C  C78  1  0.28945000  0.00995000  0.93585000  1.0 0.0014143272
C  C79  1  0.54502000  0.82932000  0.41362000  1.0 -0.1088133387
C  C80  1  0.82932000  0.41362000  0.54502000  1.0 -0.1088133387
C  C81  1  0.41362000  0.54502000  0.82932000  1.0 -0.1088133387
C  C82  1  0.04502000  0.91362000  0.32932000  1.0 -0.1088133387
C  C83  1  0.91362000  0.32932000  0.04502000  1.0 -0.1088133387
C  C84  1  0.32932000  0.04502000  0.91362000  1.0 -0.1088133387
C  C85  1  0.62076000  0.81386000  0.36756000  1.0 -0.018454566
C  C86  1  0.81386000  0.36756000  0.62076000  1.0 -0.018454566
C  C87  1  0.36756000  0.62076000  0.81386000  1.0 -0.018454566
C  C88  1  0.12076000  0.86756000  0.31386000  1.0 -0.018454566
C  C89  1  0.86756000  0.31386000  0.12076000  1.0 -0.018454566
C  C90  1  0.31386000  0.12076000  0.86756000  1.0 -0.018454566
C  C91  1  0.66445000  0.75315000  0.34615000  1.0 -0.1088133387
C  C92  1  0.75315000  0.34615000  0.66445000  1.0 -0.1037510776
C  C93  1  0.34615000  0.66445000  0.75315000  1.0 -0.1088133387
C  C94  1  0.16445000  0.84615000  0.25315000  1.0 -0.1088133387
C  C95  1  0.84615000  0.25315000  0.16445000  1.0 -0.1088133387
C  C96  1  0.25315000  0.16445000  0.84615000  1.0 -0.1088133387
C  C97  1  0.65740000  0.85820000  0.34160000  1.0 0.5194269636
C  C98  1  0.85820000  0.34160000  0.65740000  1.0 0.5194269636
C  C99  1  0.34160000  0.65740000  0.85820000  1.0 0.5194269636
C  C100  1  0.15740000  0.84160000  0.35820000  1.0 0.5194269636
C  C101  1  0.84160000  0.35820000  0.15740000  1.0 0.5194269636
C  C102  1  0.35820000  0.15740000  0.84160000  1.0 0.5194269636
C  C103  1  0.42715000  0.81095000  0.48245000  1.0 0.5684426422
C  C104  1  0.81095000  0.48245000  0.42715000  1.0 0.5684426422
C  C105  1  0.48245000  0.42715000  0.81095000  1.0 0.5684426422
C  C106  1  0.92715000  0.98245000  0.31095000  1.0 0.5684426422
C  C107  1  0.98245000  0.31095000  0.92715000  1.0 0.5684426422
C  C108  1  0.31095000  0.92715000  0.98245000  1.0 0.5649254738
C  C109  1  0.92895000  0.48745000  0.13525000  1.0 0.0709166794
C  C110  1  0.48745000  0.13525000  0.92895000  1.0 0.0709166794
C  C111  1  0.13525000  0.92895000  0.48745000  1.0 0.0754332894
C  C112  1  0.42895000  0.63525000  0.98745000  1.0 0.0709166794
C  C113  1  0.63525000  0.98745000  0.42895000  1.0 0.0754332894
C  C114  1  0.98745000  0.42895000  0.63525000  1.0 0.0754332894
C  C115  1  0.94761000  0.51521000  0.15141000  1.0 0.0709166794
C  C116  1  0.51521000  0.15141000  0.94761000  1.0 0.0709166794
C  C117  1  0.15141000  0.94761000  0.51521000  1.0 0.0709166794
C  C118  1  0.44761000  0.65141000  0.01521000  1.0 0.0709166794
C  C119  1  0.65141000  0.01521000  0.44761000  1.0 0.0709166794
C  C120  1  0.01521000  0.44761000  0.65141000  1.0 0.0709166794
C  C121  1  0.01620000  0.52090000  0.10800000  1.0 -0.0777577938
C  C122  1  0.52090000  0.10800000  0.01620000  1.0 -0.0726244932
C  C123  1  0.10800000  0.01620000  0.52090000  1.0 -0.0726244932
C  C124  1  0.51620000  0.60800000  0.02090000  1.0 -0.0726244932
C  C125  1  0.60800000  0.02090000  0.51620000  1.0 -0.0726244932
C  C126  1  0.02090000  0.51620000  0.60800000  1.0 -0.0726244932
C  C127  1  0.06613000  0.49893000  0.04833000  1.0 -0.1397263841
C  C128  1  0.49893000  0.04833000  0.06613000  1.0 -0.1397263841
C  C129  1  0.04833000  0.06613000  0.49893000  1.0 -0.1397263841
C  C130  1  0.56613000  0.54833000  0.99893000  1.0 -0.1397263841
C  C131  1  0.54833000  0.99893000  0.56613000  1.0 -0.1397263841
C  C132  1  0.99893000  0.56613000  0.54833000  1.0 -0.1397263841
C  C133  1  0.04747000  0.47117000  0.03217000  1.0 -0.1295820997
C  C134  1  0.47117000  0.03217000  0.04747000  1.0 -0.1219744654
C  C135  1  0.03217000  0.04747000  0.47117000  1.0 -0.1219744654
C  C136  1  0.54747000  0.53217000  0.97117000  1.0 -0.1219744654
C  C137  1  0.53217000  0.97117000  0.54747000  1.0 -0.1295820997
C  C138  1  0.97117000  0.54747000  0.53217000  1.0 -0.1219744654
C  C139  1  0.97888000  0.46548000  0.07558000  1.0 -0.0726244932
C  C140  1  0.46548000  0.07558000  0.97888000  1.0 -0.0726244932
C  C141  1  0.07558000  0.97888000  0.46548000  1.0 -0.0726244932
C  C142  1  0.47888000  0.57558000  0.96548000  1.0 -0.0726244932
C  C143  1  0.57558000  0.96548000  0.47888000  1.0 -0.0726244932
C  C144  1  0.96548000  0.47888000  0.57558000  1.0 -0.0726244932
C  C145  1  0.89838000  0.53148000  0.11558000  1.0 0.0754332894
C  C146  1  0.53148000  0.11558000  0.89838000  1.0 0.0709166794
C  C147  1  0.11558000  0.89838000  0.53148000  1.0 0.0754332894
C  C148  1  0.39838000  0.61558000  0.03148000  1.0 0.0754332894
C  C149  1  0.61558000  0.03148000  0.39838000  1.0 0.0709166794
C  C150  1  0.03148000  0.39838000  0.61558000  1.0 0.0754332894
C  C151  1  0.91672000  0.56302000  0.12792000  1.0 0.0709166794
C  C152  1  0.56302000  0.12792000  0.91672000  1.0 0.0709166794
C  C153  1  0.12792000  0.91672000  0.56302000  1.0 0.0709166794
C  C154  1  0.41672000  0.62792000  0.06302000  1.0 0.0709166794
C  C155  1  0.62792000  0.06302000  0.41672000  1.0 0.0709166794
C  C156  1  0.06302000  0.41672000  0.62792000  1.0 0.0709166794
C  C157  1  0.96654000  0.59794000  0.06934000  1.0 -0.0777577938
C  C158  1  0.59794000  0.06934000  0.96654000  1.0 -0.0777577938
C  C159  1  0.06934000  0.96654000  0.59794000  1.0 -0.0777577938
C  C160  1  0.46654000  0.56934000  0.09794000  1.0 -0.0777577938
C  C161  1  0.56934000  0.09794000  0.46654000  1.0 -0.0777577938
C  C162  1  0.09794000  0.46654000  0.56934000  1.0 -0.0777577938
C  C163  1  0.99792000  0.60142000  0.99842000  1.0 -0.1397263841
C  C164  1  0.60142000  0.99842000  0.99792000  1.0 -0.1295820997
C  C165  1  0.99842000  0.99792000  0.60142000  1.0 -0.1397263841
C  C166  1  0.49792000  0.49842000  0.10142000  1.0 -0.1295820997
C  C167  1  0.49842000  0.10142000  0.49792000  1.0 -0.1397263841
C  C168  1  0.10142000  0.49792000  0.49842000  1.0 -0.1397263841
C  C169  1  0.97968000  0.56988000  0.98598000  1.0 -0.1037510776
C  C170  1  0.56988000  0.98598000  0.97968000  1.0 -0.1088133387
C  C171  1  0.98598000  0.97968000  0.56988000  1.0 -0.1037510776
C  C172  1  0.47968000  0.48598000  0.06988000  1.0 -0.1088133387
C  C173  1  0.48598000  0.06988000  0.47968000  1.0 -0.1037510776
C  C174  1  0.06988000  0.47968000  0.48598000  1.0 -0.1088133387
C  C175  1  0.92985000  0.53495000  0.04455000  1.0 -0.0726244932
C  C176  1  0.53495000  0.04455000  0.92985000  1.0 -0.0726244932
C  C177  1  0.04455000  0.92985000  0.53495000  1.0 -0.0777577938
C  C178  1  0.42985000  0.54455000  0.03495000  1.0 -0.0726244932
C  C179  1  0.54455000  0.03495000  0.42985000  1.0 -0.0777577938
C  C180  1  0.03495000  0.42985000  0.54455000  1.0 -0.0726244932
N  N1  1  0.85582000  0.49262000  0.18512000  1.0 -0.2089259324
N  N2  1  0.49262000  0.18512000  0.85582000  1.0 -0.2089259324
N  N3  1  0.18512000  0.85582000  0.49262000  1.0 -0.2089259324
N  N4  1  0.35582000  0.68512000  0.99262000  1.0 -0.2089259324
N  N5  1  0.68512000  0.99262000  0.35582000  1.0 -0.2089259324
N  N6  1  0.99262000  0.35582000  0.68512000  1.0 -0.2089259324
N  N7  1  0.83520000  0.51720000  0.23030000  1.0 -0.1295820997
N  N8  1  0.51720000  0.23030000  0.83520000  1.0 -0.1295820997
N  N9  1  0.23030000  0.83520000  0.51720000  1.0 -0.1295820997
N  N10  1  0.33520000  0.73030000  0.01720000  1.0 -0.1295820997
N  N11  1  0.73030000  0.01720000  0.33520000  1.0 -0.1295820997
N  N12  1  0.01720000  0.33520000  0.73030000  1.0 -0.1295820997
N  N13  1  0.88376000  0.54266000  0.20626000  1.0 -0.2168856062
N  N14  1  0.54266000  0.20626000  0.88376000  1.0 -0.2168856062
N  N15  1  0.20626000  0.88376000  0.54266000  1.0 -0.2089259324
N  N16  1  0.38376000  0.70626000  0.04266000  1.0 -0.2168856062
N  N17  1  0.70626000  0.04266000  0.38376000  1.0 -0.2168856062
N  N18  1  0.04266000  0.38376000  0.70626000  1.0 -0.2168856062
O  O1  1  0.76610000  0.39240000  0.33900000  1.0 -0.5373582821
O  O2  1  0.39240000  0.33900000  0.76610000  1.0 -0.5373582821
O  O3  1  0.33900000  0.76610000  0.39240000  1.0 -0.5373582821
O  O4  1  0.26610000  0.83900000  0.89240000  1.0 -0.5373582821
O  O5  1  0.83900000  0.89240000  0.26610000  1.0 -0.5373582821
O  O6  1  0.89240000  0.26610000  0.83900000  1.0 -0.5373582821
O  O7  1  0.68309000  0.42969000  0.43239000  1.0 -0.4688471497
O  O8  1  0.42969000  0.43239000  0.68309000  1.0 -0.4688471497
O  O9  1  0.43239000  0.68309000  0.42969000  1.0 -0.4688471497
O  O10  1  0.18309000  0.93239000  0.92969000  1.0 -0.4688471497
O  O11  1  0.93239000  0.92969000  0.18309000  1.0 -0.4688471497
O  O12  1  0.92969000  0.18309000  0.93239000  1.0 -0.4688471497
O  O13  1  0.77047000  0.17597000  0.36347000  1.0 -0.4688471497
O  O14  1  0.17597000  0.36347000  0.77047000  1.0 -0.4688471497
O  O15  1  0.36347000  0.77047000  0.17597000  1.0 -0.4688471497
O  O16  1  0.27047000  0.86347000  0.67597000  1.0 -0.4688471497
O  O17  1  0.86347000  0.67597000  0.27047000  1.0 -0.4688471497
O  O18  1  0.67597000  0.27047000  0.86347000  1.0 -0.4688471497
O  O19  1  0.67583000  0.14273000  0.45133000  1.0 -0.5373582821
O  O20  1  0.14273000  0.45133000  0.67583000  1.0 -0.5373582821
O  O21  1  0.45133000  0.67583000  0.14273000  1.0 -0.5313521207
O  O22  1  0.17583000  0.95133000  0.64273000  1.0 -0.5313521207
O  O23  1  0.95133000  0.64273000  0.17583000  1.0 -0.5373582821
O  O24  1  0.64273000  0.17583000  0.95133000  1.0 -0.5373582821
O  O25  1  0.53215000  0.20235000  0.67345000  1.0 -0.4688471497
O  O26  1  0.20235000  0.67345000  0.53215000  1.0 -0.4688471497
O  O27  1  0.67345000  0.53215000  0.20235000  1.0 -0.4688471497
O  O28  1  0.03215000  0.17345000  0.70235000  1.0 -0.4688471497
O  O29  1  0.17345000  0.70235000  0.03215000  1.0 -0.4688471497
O  O30  1  0.70235000  0.03215000  0.17345000  1.0 -0.4688471497
O  O31  1  0.55297000  0.27107000  0.67517000  1.0 -0.5313521207
O  O32  1  0.27107000  0.67517000  0.55297000  1.0 -0.5313521207
O  O33  1  0.67517000  0.55297000  0.27107000  1.0 -0.5313521207
O  O34  1  0.05297000  0.17517000  0.77107000  1.0 -0.5313521207
O  O35  1  0.17517000  0.77107000  0.05297000  1.0 -0.5313521207
O  O36  1  0.77107000  0.05297000  0.17517000  1.0 -0.5313521207
O  O37  1  0.64108000  0.60198000  0.38518000  1.0 -0.4688471497
O  O38  1  0.60198000  0.38518000  0.64108000  1.0 -0.4688471497
O  O39  1  0.38518000  0.64108000  0.60198000  1.0 -0.4688471497
O  O40  1  0.14108000  0.88518000  0.10198000  1.0 -0.4688471497
O  O41  1  0.88518000  0.10198000  0.14108000  1.0 -0.4688471497
O  O42  1  0.10198000  0.14108000  0.88518000  1.0 -0.4688471497
O  O43  1  0.73624000  0.63604000  0.29934000  1.0 -0.5373582821
O  O44  1  0.63604000  0.29934000  0.73624000  1.0 -0.5462087871
O  O45  1  0.29934000  0.73624000  0.63604000  1.0 -0.5462087871
O  O46  1  0.23624000  0.79934000  0.13604000  1.0 -0.5373582821
O  O47  1  0.79934000  0.13604000  0.23624000  1.0 -0.5462087871
O  O48  1  0.13604000  0.23624000  0.79934000  1.0 -0.5462087871
O  O49  1  0.38925000  0.80975000  0.46905000  1.0 -0.5175620497
O  O50  1  0.80975000  0.46905000  0.38925000  1.0 -0.5175620497
O  O51  1  0.46905000  0.38925000  0.80975000  1.0 -0.5175620497
O  O52  1  0.88925000  0.96905000  0.30975000  1.0 -0.5175620497
O  O53  1  0.96905000  0.30975000  0.88925000  1.0 -0.5175620497
O  O54  1  0.30975000  0.88925000  0.96905000  1.0 -0.5175620497
O  O55  1  0.40394000  0.82894000  0.53234000  1.0 -0.4688471497
O  O56  1  0.82894000  0.53234000  0.40394000  1.0 -0.4688471497
O  O57  1  0.53234000  0.40394000  0.82894000  1.0 -0.4688471497
O  O58  1  0.90394000  0.03234000  0.32894000  1.0 -0.4688471497
O  O59  1  0.03234000  0.32894000  0.90394000  1.0 -0.4688471497
O  O60  1  0.32894000  0.90394000  0.03234000  1.0 -0.4688471497
O  O61  1  0.72198000  0.84718000  0.29638000  1.0 -0.4487534892
O  O62  1  0.84718000  0.29638000  0.72198000  1.0 -0.4487534892
O  O63  1  0.29638000  0.72198000  0.84718000  1.0 -0.4487534892
O  O64  1  0.22198000  0.79638000  0.34718000  1.0 -0.4487534892
O  O65  1  0.79638000  0.34718000  0.22198000  1.0 -0.4487534892
O  O66  1  0.34718000  0.22198000  0.79638000  1.0 -0.4487534892
O  O67  1  0.61857000  0.91497000  0.35327000  1.0 -0.4873519124
O  O68  1  0.91497000  0.35327000  0.61857000  1.0 -0.4873519124
O  O69  1  0.35327000  0.61857000  0.91497000  1.0 -0.4873519124
O  O70  1  0.11857000  0.85327000  0.41497000  1.0 -0.4873519124
O  O71  1  0.85327000  0.41497000  0.11857000  1.0 -0.4873519124
O  O72  1  0.41497000  0.11857000  0.85327000  1.0 -0.4873519124
O  O73  1  0.78917000  0.98077000  0.48207000  1.0 -0.2089259324
O  O74  1  0.98077000  0.48207000  0.78917000  1.0 -0.2168856062
O  O75  1  0.48207000  0.78917000  0.98077000  1.0 -0.2168856062
O  O76  1  0.28917000  0.98207000  0.48077000  1.0 -0.2168856062
O  O77  1  0.98207000  0.48077000  0.28917000  1.0 -0.2089259324
O  O78  1  0.48077000  0.28917000  0.98207000  1.0 -0.2168856062
