# DDEC6 charges by PACMAN v1.1 (https://github.com/mtap-research/PACMAN-charge/)
data_NESVEO_ASR_pacman
_symmetry_space_group_name_H-M   'P 1'
_cell_length_a   19.22230000
_cell_length_b   19.22230000
_cell_length_c   19.22230000
_cell_angle_alpha   110.02200000
_cell_angle_beta   110.02200000
_cell_angle_gamma   108.37600000
_symmetry_Int_Tables_number   1
_chemical_formula_structural   Zn3H10C24N3O16
_chemical_formula_sum   'Zn12 H40 C96 N12 O64'
_cell_volume   5466.01698640
_cell_formula_units_Z   4
loop_
 _symmetry_equiv_pos_site_id
 _symmetry_equiv_pos_as_xyz
  1  'x, y, z'
loop_
 _atom_site_type_symbol
 _atom_site_label
 _atom_site_symmetry_multiplicity
 _atom_site_fract_x
 _atom_site_fract_y
 _atom_site_fract_z
 _atom_site_occupancy
 _atom_site_charge
Zn  Zn1  1  0.78545000  0.32208000  0.84905000  1.0 0.7829515648
Zn  Zn2  1  0.47303000  0.93640000  0.15095000  1.0 0.7829515648
Zn  Zn3  1  0.32208000  0.47303000  0.53663000  1.0 0.7829515648
Zn  Zn4  1  0.93640000  0.78545000  0.46337000  1.0 0.7829515648
Zn  Zn5  1  0.21455000  0.67792000  0.15095000  1.0 0.7829515648
Zn  Zn6  1  0.52697000  0.06360000  0.84905000  1.0 0.7829515648
Zn  Zn7  1  0.67792000  0.52697000  0.46337000  1.0 0.7829515648
Zn  Zn8  1  0.06360000  0.21455000  0.53663000  1.0 0.7829515648
Zn  Zn9  1  0.60818000  0.28698000  0.89516000  1.0 0.9252634732
Zn  Zn10  1  0.39182000  0.71302000  0.10484000  1.0 0.9252634732
Zn  Zn11  1  0.28698000  0.39182000  0.67880000  1.0 0.9249525753
Zn  Zn12  1  0.71302000  0.60818000  0.32120000  1.0 0.9252634732
H  H1  1  0.78810000  0.50840000  0.14770000  1.0 0.1463945148
H  H2  1  0.36070000  0.64040000  0.85230000  1.0 0.1463945148
H  H3  1  0.50840000  0.36070000  0.72030000  1.0 0.1463945148
H  H4  1  0.64040000  0.78810000  0.27970000  1.0 0.1463945148
H  H5  1  0.21190000  0.49160000  0.85230000  1.0 0.1463945148
H  H6  1  0.63930000  0.35960000  0.14770000  1.0 0.1463945148
H  H7  1  0.49160000  0.63930000  0.27970000  1.0 0.1463945148
H  H8  1  0.35960000  0.21190000  0.72030000  1.0 0.1463945148
H  H9  1  0.02700000  0.70270000  0.30630000  1.0 0.1306803016
H  H10  1  0.39640000  0.72070000  0.69370000  1.0 0.1306803016
H  H11  1  0.70270000  0.39640000  0.67570000  1.0 0.1306803016
H  H12  1  0.72070000  0.02700000  0.32430000  1.0 0.1306803016
H  H13  1  0.97300000  0.29730000  0.69370000  1.0 0.1306803016
H  H14  1  0.60360000  0.27930000  0.30630000  1.0 0.1306803016
H  H15  1  0.29730000  0.60360000  0.32430000  1.0 0.1306803016
H  H16  1  0.27930000  0.97300000  0.67570000  1.0 0.1306803016
H  H17  1  0.96120000  0.53140000  0.07240000  1.0 0.1306803016
H  H18  1  0.45900000  0.88880000  0.92760000  1.0 0.1306803016
H  H19  1  0.53140000  0.45900000  0.57020000  1.0 0.1306803016
H  H20  1  0.88880000  0.96120000  0.42980000  1.0 0.1306803016
H  H21  1  0.03880000  0.46860000  0.92760000  1.0 0.1306803016
H  H22  1  0.54100000  0.11120000  0.07240000  1.0 0.1306803016
H  H23  1  0.46860000  0.54100000  0.42980000  1.0 0.1306803016
H  H24  1  0.11120000  0.03880000  0.57020000  1.0 0.1306803016
H  H25  1  0.82390000  0.16470000  0.77760000  1.0 0.1371064683
H  H26  1  0.38710000  0.04630000  0.22240000  1.0 0.1371064683
H  H27  1  0.16470000  0.38710000  0.34080000  1.0 0.1371064683
H  H28  1  0.04630000  0.82390000  0.65920000  1.0 0.1371064683
H  H29  1  0.17610000  0.83530000  0.22240000  1.0 0.1371064683
H  H30  1  0.61290000  0.95370000  0.77760000  1.0 0.1371064683
H  H31  1  0.83530000  0.61290000  0.65920000  1.0 0.1371064683
H  H32  1  0.95370000  0.17610000  0.34080000  1.0 0.1371064683
H  H33  1  0.81630000  0.03260000  0.74210000  1.0 0.1092443697
H  H34  1  0.29050000  0.07420000  0.25790000  1.0 0.1092443697
H  H35  1  0.03260000  0.29050000  0.21630000  1.0 0.1092443697
H  H36  1  0.07420000  0.81630000  0.78370000  1.0 0.1092443697
H  H37  1  0.18370000  0.96740000  0.25790000  1.0 0.1092443697
H  H38  1  0.70950000  0.92580000  0.74210000  1.0 0.1092443697
H  H39  1  0.96740000  0.70950000  0.78370000  1.0 0.1092443697
H  H40  1  0.92580000  0.18370000  0.21630000  1.0 0.1092443697
C  C1  1  0.88271000  0.64691000  0.30480000  1.0 0.500783549
C  C2  1  0.34211000  0.57791000  0.69520000  1.0 0.500783549
C  C3  1  0.64691000  0.34211000  0.76420000  1.0 0.500783549
C  C4  1  0.57791000  0.88271000  0.23580000  1.0 0.500783549
C  C5  1  0.11729000  0.35309000  0.69520000  1.0 0.500783549
C  C6  1  0.65789000  0.42209000  0.30480000  1.0 0.500783549
C  C7  1  0.35309000  0.65789000  0.23580000  1.0 0.500783549
C  C8  1  0.42209000  0.11729000  0.76420000  1.0 0.500783549
C  C9  1  0.90395000  0.61187000  0.23714000  1.0 -0.0266442709
C  C10  1  0.37473000  0.66681000  0.76286000  1.0 -0.0266442709
C  C11  1  0.61187000  0.37473000  0.70792000  1.0 -0.0266442709
C  C12  1  0.66681000  0.90395000  0.29208000  1.0 -0.0266442709
C  C13  1  0.09605000  0.38813000  0.76286000  1.0 -0.0266442709
C  C14  1  0.62527000  0.33319000  0.23714000  1.0 -0.0266442709
C  C15  1  0.38813000  0.62527000  0.29208000  1.0 -0.0266442709
C  C16  1  0.33319000  0.09605000  0.70792000  1.0 -0.0266442709
C  C17  1  0.84282000  0.53786000  0.15848000  1.0 -0.1048126134
C  C18  1  0.37938000  0.68434000  0.84152000  1.0 -0.1093562699
C  C19  1  0.53786000  0.37938000  0.69504000  1.0 -0.1093562699
C  C20  1  0.68434000  0.84282000  0.30496000  1.0 -0.1093562699
C  C21  1  0.15718000  0.46214000  0.84152000  1.0 -0.1093562699
C  C22  1  0.62062000  0.31566000  0.15848000  1.0 -0.1093562699
C  C23  1  0.46214000  0.62062000  0.30496000  1.0 -0.1093562699
C  C24  1  0.31566000  0.15718000  0.69504000  1.0 -0.1093562699
C  C25  1  0.98607000  0.65417000  0.25330000  1.0 -0.1093562699
C  C26  1  0.40087000  0.73277000  0.74670000  1.0 -0.1093562699
C  C27  1  0.65417000  0.40087000  0.66810000  1.0 -0.1093562699
C  C28  1  0.73277000  0.98607000  0.33190000  1.0 -0.1093562699
C  C29  1  0.01393000  0.34583000  0.74670000  1.0 -0.1093562699
C  C30  1  0.59913000  0.26723000  0.25330000  1.0 -0.1093562699
C  C31  1  0.34583000  0.59913000  0.33190000  1.0 -0.1093562699
C  C32  1  0.26723000  0.01393000  0.66810000  1.0 -0.1093562699
C  C33  1  0.09760000  0.67258000  0.21014000  1.0 0.5626243514
C  C34  1  0.46244000  0.88746000  0.78986000  1.0 0.5626243514
C  C35  1  0.67258000  0.46244000  0.57498000  1.0 0.5626243514
C  C36  1  0.88746000  0.09760000  0.42502000  1.0 0.5626243514
C  C37  1  0.90240000  0.32742000  0.78986000  1.0 0.5626243514
C  C38  1  0.53756000  0.11254000  0.21014000  1.0 0.5626243514
C  C39  1  0.32742000  0.53756000  0.42502000  1.0 0.5626243514
C  C40  1  0.11254000  0.90240000  0.57498000  1.0 0.5626243514
C  C41  1  0.00847000  0.62517000  0.19130000  1.0 -0.0117272098
C  C42  1  0.43387000  0.81717000  0.80870000  1.0 -0.0117272098
C  C43  1  0.62517000  0.43387000  0.61670000  1.0 -0.0117272098
C  C44  1  0.81717000  0.00847000  0.38330000  1.0 -0.0117272098
C  C45  1  0.99153000  0.37483000  0.80870000  1.0 -0.0117272098
C  C46  1  0.56613000  0.18283000  0.19130000  1.0 -0.0117272098
C  C47  1  0.37483000  0.56613000  0.38330000  1.0 -0.0117272098
C  C48  1  0.18283000  0.99153000  0.61670000  1.0 -0.0117272098
C  C49  1  0.80107000  0.42897000  0.01050000  1.0 0.500783549
C  C50  1  0.41847000  0.79057000  0.98950000  1.0 0.500783549
C  C51  1  0.42897000  0.41847000  0.62790000  1.0 0.500783549
C  C52  1  0.79057000  0.80107000  0.37210000  1.0 0.500783549
C  C53  1  0.19893000  0.57103000  0.98950000  1.0 0.500783549
C  C54  1  0.58153000  0.20943000  0.01050000  1.0 0.500783549
C  C55  1  0.57103000  0.58153000  0.37210000  1.0 0.500783549
C  C56  1  0.20943000  0.19893000  0.62790000  1.0 0.500783549
C  C57  1  0.86429000  0.50810000  0.09579000  1.0 -0.0266442709
C  C58  1  0.41231000  0.76850000  0.90421000  1.0 -0.0266442709
C  C59  1  0.50810000  0.41231000  0.64381000  1.0 -0.0266442709
C  C60  1  0.76850000  0.86429000  0.35619000  1.0 -0.0266442709
C  C61  1  0.13571000  0.49190000  0.90421000  1.0 -0.0266442709
C  C62  1  0.58769000  0.23150000  0.09579000  1.0 -0.0266442709
C  C63  1  0.49190000  0.58769000  0.35619000  1.0 -0.0266442709
C  C64  1  0.23150000  0.13571000  0.64381000  1.0 -0.0266442709
C  C65  1  0.94701000  0.55191000  0.11370000  1.0 -0.1093562699
C  C66  1  0.43821000  0.83331000  0.88630000  1.0 -0.1093562699
C  C67  1  0.55191000  0.43821000  0.60490000  1.0 -0.1093562699
C  C68  1  0.83331000  0.94701000  0.39510000  1.0 -0.1093562699
C  C69  1  0.05299000  0.44809000  0.88630000  1.0 -0.1093562699
C  C70  1  0.56179000  0.16669000  0.11370000  1.0 -0.1093562699
C  C71  1  0.44809000  0.56179000  0.39510000  1.0 -0.1093562699
C  C72  1  0.16669000  0.05299000  0.60490000  1.0 -0.1093562699
C  C73  1  0.72820000  0.13960000  0.80720000  1.0 0.1092443697
C  C74  1  0.33240000  0.92100000  0.19280000  1.0 0.1048918155
C  C75  1  0.13960000  0.33240000  0.41140000  1.0 0.1092443697
C  C76  1  0.92100000  0.72820000  0.58860000  1.0 0.1092443697
C  C77  1  0.27180000  0.86040000  0.19280000  1.0 0.1092443697
C  C78  1  0.66760000  0.07900000  0.80720000  1.0 0.1092443697
C  C79  1  0.86040000  0.66760000  0.58860000  1.0 0.1092443697
C  C80  1  0.07900000  0.27180000  0.41140000  1.0 0.1048918155
C  C81  1  0.78470000  0.12370000  0.78000000  1.0 -0.1421833647
C  C82  1  0.34370000  0.00470000  0.22000000  1.0 -0.1421833647
C  C83  1  0.12370000  0.34370000  0.33900000  1.0 -0.1421833647
C  C84  1  0.00470000  0.78470000  0.66100000  1.0 -0.1421833647
C  C85  1  0.21530000  0.87630000  0.22000000  1.0 -0.1421833647
C  C86  1  0.65630000  0.99530000  0.78000000  1.0 -0.1421833647
C  C87  1  0.87630000  0.65630000  0.66100000  1.0 -0.1421833647
C  C88  1  0.99530000  0.21530000  0.33900000  1.0 -0.1421833647
C  C89  1  0.77870000  0.04450000  0.75740000  1.0 -0.0810775829
C  C90  1  0.28710000  0.02130000  0.24260000  1.0 -0.0810775829
C  C91  1  0.04450000  0.28710000  0.26580000  1.0 -0.0810775829
C  C92  1  0.02130000  0.77870000  0.73420000  1.0 -0.0810775829
C  C93  1  0.22130000  0.95550000  0.24260000  1.0 -0.0810775829
C  C94  1  0.71290000  0.97870000  0.75740000  1.0 -0.0810775829
C  C95  1  0.95550000  0.71290000  0.73420000  1.0 -0.0810775829
C  C96  1  0.97870000  0.22130000  0.26580000  1.0 -0.0810775829
N  N1  1  0.72127000  0.21157000  0.83528000  1.0 -0.2662349405
N  N2  1  0.37629000  0.88599000  0.16472000  1.0 -0.2662349405
N  N3  1  0.21157000  0.37629000  0.49030000  1.0 -0.2662349405
N  N4  1  0.88599000  0.72127000  0.50970000  1.0 -0.2662349405
N  N5  1  0.27873000  0.78843000  0.16472000  1.0 -0.2662349405
N  N6  1  0.62371000  0.11401000  0.83528000  1.0 -0.2662349405
N  N7  1  0.78843000  0.62371000  0.50970000  1.0 -0.2662349405
N  N8  1  0.11401000  0.27873000  0.49030000  1.0 -0.2662349405
N  N9  1  0.65659000  0.19377000  0.85036000  1.0 -0.0883407692
N  N10  1  0.34341000  0.80623000  0.14964000  1.0 -0.0883407692
N  N11  1  0.19377000  0.34341000  0.53718000  1.0 -0.0883407692
N  N12  1  0.80623000  0.65659000  0.46282000  1.0 -0.0883407692
O  O1  1  0.15366000  0.73249000  0.28253000  1.0 -0.5167241717
O  O2  1  0.44996000  0.87113000  0.71747000  1.0 -0.5167241717
O  O3  1  0.73249000  0.44996000  0.57883000  1.0 -0.5167241717
O  O4  1  0.87113000  0.15366000  0.42117000  1.0 -0.5167241717
O  O5  1  0.84634000  0.26751000  0.71747000  1.0 -0.5167241717
O  O6  1  0.55004000  0.12887000  0.28253000  1.0 -0.5167241717
O  O7  1  0.26751000  0.55004000  0.42117000  1.0 -0.5167241717
O  O8  1  0.12887000  0.84634000  0.57883000  1.0 -0.5167241717
O  O9  1  0.80921000  0.60958000  0.29043000  1.0 -0.5167241717
O  O10  1  0.31915000  0.51878000  0.70957000  1.0 -0.5167241717
O  O11  1  0.60958000  0.31915000  0.80037000  1.0 -0.5167241717
O  O12  1  0.51878000  0.80921000  0.19963000  1.0 -0.5167241717
O  O13  1  0.19079000  0.39042000  0.70957000  1.0 -0.5167241717
O  O14  1  0.68085000  0.48122000  0.29043000  1.0 -0.5167241717
O  O15  1  0.39042000  0.68085000  0.19963000  1.0 -0.5167241717
O  O16  1  0.48122000  0.19079000  0.80037000  1.0 -0.5167241717
O  O17  1  0.72809000  0.38958000  0.99413000  1.0 -0.4833506296
O  O18  1  0.39545000  0.73396000  0.00587000  1.0 -0.4833506296
O  O19  1  0.38958000  0.39545000  0.66149000  1.0 -0.4833506296
O  O20  1  0.73396000  0.72809000  0.33851000  1.0 -0.4833506296
O  O21  1  0.27191000  0.61042000  0.00587000  1.0 -0.4833506296
O  O22  1  0.60455000  0.26604000  0.99413000  1.0 -0.4833506296
O  O23  1  0.61042000  0.60455000  0.33851000  1.0 -0.4833506296
O  O24  1  0.26604000  0.27191000  0.66149000  1.0 -0.4833506296
O  O25  1  0.94870000  0.70650000  0.37800000  1.0 -0.1261097374
O  O26  1  0.32850000  0.57070000  0.62200000  1.0 -0.1247431474
O  O27  1  0.70650000  0.32850000  0.75780000  1.0 -0.1261097374
O  O28  1  0.57070000  0.94870000  0.24220000  1.0 -0.1261097374
O  O29  1  0.05130000  0.29350000  0.62200000  1.0 -0.1247431474
O  O30  1  0.67150000  0.42930000  0.37800000  1.0 -0.1261097374
O  O31  1  0.29350000  0.67150000  0.24220000  1.0 -0.1261097374
O  O32  1  0.42930000  0.05130000  0.75780000  1.0 -0.1247431474
O  O33  1  0.83390000  0.40020000  0.96910000  1.0 -0.1421833647
O  O34  1  0.43110000  0.86480000  0.03090000  1.0 -0.1421833647
O  O35  1  0.40020000  0.43110000  0.56630000  1.0 -0.1421833647
O  O36  1  0.86480000  0.83390000  0.43370000  1.0 -0.1421833647
O  O37  1  0.16610000  0.59980000  0.03090000  1.0 -0.1421833647
O  O38  1  0.56890000  0.13520000  0.96910000  1.0 -0.1421833647
O  O39  1  0.59980000  0.56890000  0.43370000  1.0 -0.1421833647
O  O40  1  0.13520000  0.16610000  0.56630000  1.0 -0.1421833647
O  O41  1  0.10618000  0.64665000  0.14453000  1.0 -0.5630035164
O  O42  1  0.50212000  0.96165000  0.85547000  1.0 -0.5630035164
O  O43  1  0.64665000  0.50212000  0.54047000  1.0 -0.5630035164
O  O44  1  0.96165000  0.10618000  0.45953000  1.0 -0.5630035164
O  O45  1  0.89382000  0.35335000  0.85547000  1.0 -0.5630035164
O  O46  1  0.49788000  0.03835000  0.14453000  1.0 -0.5630035164
O  O47  1  0.35335000  0.49788000  0.45953000  1.0 -0.5630035164
O  O48  1  0.03835000  0.89382000  0.54047000  1.0 -0.5630035164
O  O49  1  0.73000000  0.37480000  0.80340000  1.0 -0.1421833647
O  O50  1  0.57140000  0.92660000  0.19660000  1.0 -0.1421833647
O  O51  1  0.37480000  0.57140000  0.64480000  1.0 -0.1421833647
O  O52  1  0.92660000  0.73000000  0.35520000  1.0 -0.1421833647
O  O53  1  0.27000000  0.62520000  0.19660000  1.0 -0.1421833647
O  O54  1  0.42860000  0.07340000  0.80340000  1.0 -0.1421833647
O  O55  1  0.62520000  0.42860000  0.35520000  1.0 -0.1421833647
O  O56  1  0.07340000  0.27000000  0.64480000  1.0 -0.1421833647
O  O57  1  0.52110000  0.13040000  0.94690000  1.0 -0.1560487139
O  O58  1  0.18350000  0.57420000  0.05310000  1.0 -0.1560487139
O  O59  1  0.13040000  0.18350000  0.60930000  1.0 -0.1560487139
O  O60  1  0.57420000  0.52110000  0.39070000  1.0 -0.1560487139
O  O61  1  0.47890000  0.86960000  0.05310000  1.0 -0.1560487139
O  O62  1  0.81650000  0.42580000  0.94690000  1.0 -0.1560487139
O  O63  1  0.86960000  0.81650000  0.39070000  1.0 -0.1560487139
O  O64  1  0.42580000  0.47890000  0.60930000  1.0 -0.1560487139
