# DDEC6 charges by PACMAN v1.1 (https://github.com/mtap-research/PACMAN-charge/)
data_NESVOA_ASR_pacman
_symmetry_space_group_name_H-M   'P 1'
_cell_length_a   19.13400000
_cell_length_b   19.13400000
_cell_length_c   19.13400000
_cell_angle_alpha   90.00000000
_cell_angle_beta   90.00000000
_cell_angle_gamma   90.00000000
_symmetry_Int_Tables_number   1
_chemical_formula_structural   Mn4H24C24N32Cl
_chemical_formula_sum   'Mn12 H72 C72 N96 Cl3'
_cell_volume   7005.14789810
_cell_formula_units_Z   3
loop_
 _symmetry_equiv_pos_site_id
 _symmetry_equiv_pos_as_xyz
  1  'x, y, z'
loop_
 _atom_site_type_symbol
 _atom_site_label
 _atom_site_symmetry_multiplicity
 _atom_site_fract_x
 _atom_site_fract_y
 _atom_site_fract_z
 _atom_site_occupancy
 _atom_site_charge
Mn  Mn1  1  0.00000000  0.50000000  0.64220000  1.0 0.4814385755
Mn  Mn2  1  0.00000000  0.50000000  0.35780000  1.0 0.4814385755
Mn  Mn3  1  0.64220000  0.00000000  0.50000000  1.0 0.4814385755
Mn  Mn4  1  0.35780000  0.00000000  0.50000000  1.0 0.4814385755
Mn  Mn5  1  0.50000000  0.64220000  0.00000000  1.0 0.4814385755
Mn  Mn6  1  0.50000000  0.35780000  0.00000000  1.0 0.4814385755
Mn  Mn7  1  0.50000000  0.00000000  0.35780000  1.0 0.4814385755
Mn  Mn8  1  0.50000000  0.00000000  0.64220000  1.0 0.4814385755
Mn  Mn9  1  0.00000000  0.64220000  0.50000000  1.0 0.4814385755
Mn  Mn10  1  0.00000000  0.35780000  0.50000000  1.0 0.4814385755
Mn  Mn11  1  0.64220000  0.50000000  0.00000000  1.0 0.4814385755
Mn  Mn12  1  0.35780000  0.50000000  0.00000000  1.0 0.4814385755
H  H1  1  0.85292000  0.43239000  0.71127000  1.0 0.2436066198
H  H2  1  0.14708000  0.56761000  0.71127000  1.0 0.2436066198
H  H3  1  0.14708000  0.43239000  0.28873000  1.0 0.2436066198
H  H4  1  0.85292000  0.56761000  0.28873000  1.0 0.2436066198
H  H5  1  0.71127000  0.85292000  0.43239000  1.0 0.2436066198
H  H6  1  0.71127000  0.14708000  0.56761000  1.0 0.2436066198
H  H7  1  0.28873000  0.14708000  0.43239000  1.0 0.2436066198
H  H8  1  0.28873000  0.85292000  0.56761000  1.0 0.2436066198
H  H9  1  0.43239000  0.71127000  0.85292000  1.0 0.2436066198
H  H10  1  0.56761000  0.71127000  0.14708000  1.0 0.2436066198
H  H11  1  0.43239000  0.28873000  0.14708000  1.0 0.2436066198
H  H12  1  0.56761000  0.28873000  0.85292000  1.0 0.2436066198
H  H13  1  0.43239000  0.85292000  0.28873000  1.0 0.2436066198
H  H14  1  0.56761000  0.14708000  0.28873000  1.0 0.2436066198
H  H15  1  0.43239000  0.14708000  0.71127000  1.0 0.2436066198
H  H16  1  0.56761000  0.85292000  0.71127000  1.0 0.2436066198
H  H17  1  0.85292000  0.71127000  0.56761000  1.0 0.2436066198
H  H18  1  0.14708000  0.71127000  0.43239000  1.0 0.2436066198
H  H19  1  0.14708000  0.28873000  0.56761000  1.0 0.2436066198
H  H20  1  0.85292000  0.28873000  0.43239000  1.0 0.2436066198
H  H21  1  0.71127000  0.43239000  0.14708000  1.0 0.2436066198
H  H22  1  0.71127000  0.56761000  0.85292000  1.0 0.2436066198
H  H23  1  0.28873000  0.43239000  0.85292000  1.0 0.2436066198
H  H24  1  0.28873000  0.56761000  0.14708000  1.0 0.2436066198
H  H25  1  0.14708000  0.56761000  0.28873000  1.0 0.2436066198
H  H26  1  0.85292000  0.43239000  0.28873000  1.0 0.2436066198
H  H27  1  0.85292000  0.56761000  0.71127000  1.0 0.2436066198
H  H28  1  0.14708000  0.43239000  0.71127000  1.0 0.2436066198
H  H29  1  0.28873000  0.14708000  0.56761000  1.0 0.2436066198
H  H30  1  0.28873000  0.85292000  0.43239000  1.0 0.2436066198
H  H31  1  0.71127000  0.85292000  0.56761000  1.0 0.2436066198
H  H32  1  0.71127000  0.14708000  0.43239000  1.0 0.2436066198
H  H33  1  0.56761000  0.28873000  0.14708000  1.0 0.2436066198
H  H34  1  0.43239000  0.28873000  0.85292000  1.0 0.2436066198
H  H35  1  0.56761000  0.71127000  0.85292000  1.0 0.2436066198
H  H36  1  0.43239000  0.71127000  0.14708000  1.0 0.2436066198
H  H37  1  0.56761000  0.14708000  0.71127000  1.0 0.2436066198
H  H38  1  0.43239000  0.85292000  0.71127000  1.0 0.2436066198
H  H39  1  0.56761000  0.85292000  0.28873000  1.0 0.2436066198
H  H40  1  0.43239000  0.14708000  0.28873000  1.0 0.2436066198
H  H41  1  0.14708000  0.28873000  0.43239000  1.0 0.2436066198
H  H42  1  0.85292000  0.28873000  0.56761000  1.0 0.2436066198
H  H43  1  0.85292000  0.71127000  0.43239000  1.0 0.2436066198
H  H44  1  0.14708000  0.71127000  0.56761000  1.0 0.2436066198
H  H45  1  0.28873000  0.56761000  0.85292000  1.0 0.2436066198
H  H46  1  0.28873000  0.43239000  0.14708000  1.0 0.2436066198
H  H47  1  0.71127000  0.56761000  0.14708000  1.0 0.2436066198
H  H48  1  0.71127000  0.43239000  0.85292000  1.0 0.2436066198
H  H49  1  0.76040000  0.23961000  0.60954000  1.0 0.0865312736
H  H50  1  0.23961000  0.76040000  0.60954000  1.0 0.0865312736
H  H51  1  0.23961000  0.23961000  0.39046000  1.0 0.0865312736
H  H52  1  0.76040000  0.76040000  0.39046000  1.0 0.0865312736
H  H53  1  0.60954000  0.76040000  0.23961000  1.0 0.0865312736
H  H54  1  0.60954000  0.23961000  0.76040000  1.0 0.0865312736
H  H55  1  0.39046000  0.23961000  0.23961000  1.0 0.0865312736
H  H56  1  0.39046000  0.76040000  0.76040000  1.0 0.0865312736
H  H57  1  0.23961000  0.60954000  0.76040000  1.0 0.0865312736
H  H58  1  0.76040000  0.60954000  0.23961000  1.0 0.0865312736
H  H59  1  0.23961000  0.39046000  0.23961000  1.0 0.0865312736
H  H60  1  0.76040000  0.39046000  0.76040000  1.0 0.0865312736
H  H61  1  0.23961000  0.76040000  0.39046000  1.0 0.0865312736
H  H62  1  0.76040000  0.23961000  0.39046000  1.0 0.0865312736
H  H63  1  0.23961000  0.23961000  0.60954000  1.0 0.0865312736
H  H64  1  0.76040000  0.76040000  0.60954000  1.0 0.0865312736
H  H65  1  0.76040000  0.60954000  0.76040000  1.0 0.0865312736
H  H66  1  0.23961000  0.60954000  0.23961000  1.0 0.0865312736
H  H67  1  0.23961000  0.39046000  0.76040000  1.0 0.0865312736
H  H68  1  0.76040000  0.39046000  0.23961000  1.0 0.0865312736
H  H69  1  0.60954000  0.23961000  0.23961000  1.0 0.0865312736
H  H70  1  0.60954000  0.76040000  0.76040000  1.0 0.0865312736
H  H71  1  0.39046000  0.23961000  0.76040000  1.0 0.0865312736
H  H72  1  0.39046000  0.76040000  0.23961000  1.0 0.0865312736
C  C1  1  0.83280000  0.35024000  0.64976000  1.0 0.1399920318
C  C2  1  0.76930000  0.31967000  0.68033000  1.0 0.0257532637
C  C3  1  0.16720000  0.64976000  0.64976000  1.0 0.1399920318
C  C4  1  0.23070000  0.68033000  0.68033000  1.0 0.0257532637
C  C5  1  0.16720000  0.35024000  0.35024000  1.0 0.1399920318
C  C6  1  0.23070000  0.31967000  0.31967000  1.0 0.0238701163
C  C7  1  0.83280000  0.64976000  0.35024000  1.0 0.1399920318
C  C8  1  0.76930000  0.68033000  0.31967000  1.0 0.0257532637
C  C9  1  0.64976000  0.83280000  0.35024000  1.0 0.1399920318
C  C10  1  0.68033000  0.76930000  0.31967000  1.0 0.0257532637
C  C11  1  0.64976000  0.16720000  0.64976000  1.0 0.1399920318
C  C12  1  0.68033000  0.23070000  0.68033000  1.0 0.0257532637
C  C13  1  0.35024000  0.16720000  0.35024000  1.0 0.1399920318
C  C14  1  0.31967000  0.23070000  0.31967000  1.0 0.0238701163
C  C15  1  0.35024000  0.83280000  0.64976000  1.0 0.1399920318
C  C16  1  0.31967000  0.76930000  0.68033000  1.0 0.0257532637
C  C17  1  0.35024000  0.64976000  0.83280000  1.0 0.1399920318
C  C18  1  0.31967000  0.68033000  0.76930000  1.0 0.0257532637
C  C19  1  0.64976000  0.64976000  0.16720000  1.0 0.1399920318
C  C20  1  0.68033000  0.68033000  0.23070000  1.0 0.0257532637
C  C21  1  0.35024000  0.35024000  0.16720000  1.0 0.1399920318
C  C22  1  0.31967000  0.31967000  0.23070000  1.0 0.0238701163
C  C23  1  0.64976000  0.35024000  0.83280000  1.0 0.1399920318
C  C24  1  0.68033000  0.31967000  0.76930000  1.0 0.0257532637
C  C25  1  0.35024000  0.83280000  0.35024000  1.0 0.1399920318
C  C26  1  0.31967000  0.76930000  0.31967000  1.0 0.0257532637
C  C27  1  0.64976000  0.16720000  0.35024000  1.0 0.1399920318
C  C28  1  0.68033000  0.23070000  0.31967000  1.0 0.0257532637
C  C29  1  0.35024000  0.16720000  0.64976000  1.0 0.1399920318
C  C30  1  0.31967000  0.23070000  0.68033000  1.0 0.0257532637
C  C31  1  0.64976000  0.83280000  0.64976000  1.0 0.1399920318
C  C32  1  0.68033000  0.76930000  0.68033000  1.0 0.0257532637
C  C33  1  0.83280000  0.64976000  0.64976000  1.0 0.1399920318
C  C34  1  0.76930000  0.68033000  0.68033000  1.0 0.0257532637
C  C35  1  0.16720000  0.64976000  0.35024000  1.0 0.1399920318
C  C36  1  0.23070000  0.68033000  0.31967000  1.0 0.0257532637
C  C37  1  0.16720000  0.35024000  0.64976000  1.0 0.1399920318
C  C38  1  0.23070000  0.31967000  0.68033000  1.0 0.0257532637
C  C39  1  0.83280000  0.35024000  0.35024000  1.0 0.1399920318
C  C40  1  0.76930000  0.31967000  0.31967000  1.0 0.0257532637
C  C41  1  0.64976000  0.35024000  0.16720000  1.0 0.1399920318
C  C42  1  0.68033000  0.31967000  0.23070000  1.0 0.0257532637
C  C43  1  0.64976000  0.64976000  0.83280000  1.0 0.1399920318
C  C44  1  0.68033000  0.68033000  0.76930000  1.0 0.0257532637
C  C45  1  0.35024000  0.35024000  0.83280000  1.0 0.1399920318
C  C46  1  0.31967000  0.31967000  0.76930000  1.0 0.0257532637
C  C47  1  0.35024000  0.64976000  0.16720000  1.0 0.1399920318
C  C48  1  0.31967000  0.68033000  0.23070000  1.0 0.0257532637
C  C49  1  0.74006000  0.25994000  0.65000000  1.0 -0.2209446838
C  C50  1  0.25994000  0.74006000  0.65000000  1.0 -0.2209446838
C  C51  1  0.25994000  0.25994000  0.35000000  1.0 -0.2209446838
C  C52  1  0.74006000  0.74006000  0.35000000  1.0 -0.2209446838
C  C53  1  0.65000000  0.74006000  0.25994000  1.0 -0.2209446838
C  C54  1  0.65000000  0.25994000  0.74006000  1.0 -0.2209446838
C  C55  1  0.35000000  0.25994000  0.25994000  1.0 -0.2209446838
C  C56  1  0.35000000  0.74006000  0.74006000  1.0 -0.2209446838
C  C57  1  0.25994000  0.65000000  0.74006000  1.0 -0.2209446838
C  C58  1  0.74006000  0.65000000  0.25994000  1.0 -0.2209446838
C  C59  1  0.25994000  0.35000000  0.25994000  1.0 -0.2209446838
C  C60  1  0.74006000  0.35000000  0.74006000  1.0 -0.2209446838
C  C61  1  0.25994000  0.74006000  0.35000000  1.0 -0.2209446838
C  C62  1  0.74006000  0.25994000  0.35000000  1.0 -0.2209446838
C  C63  1  0.25994000  0.25994000  0.65000000  1.0 -0.2209446838
C  C64  1  0.74006000  0.74006000  0.65000000  1.0 -0.2209446838
C  C65  1  0.74006000  0.65000000  0.74006000  1.0 -0.2209446838
C  C66  1  0.25994000  0.65000000  0.25994000  1.0 -0.2209446838
C  C67  1  0.25994000  0.35000000  0.74006000  1.0 -0.2209446838
C  C68  1  0.74006000  0.35000000  0.25994000  1.0 -0.2209446838
C  C69  1  0.65000000  0.25994000  0.25994000  1.0 -0.2209446838
C  C70  1  0.65000000  0.74006000  0.74006000  1.0 -0.2209446838
C  C71  1  0.35000000  0.25994000  0.74006000  1.0 -0.2209446838
C  C72  1  0.35000000  0.74006000  0.25994000  1.0 -0.2209446838
N  N1  1  0.86496000  0.40711000  0.67479000  1.0 -0.2565952784
N  N2  1  0.91933000  0.41700000  0.63224000  1.0 -0.0888222544
N  N3  1  0.13504000  0.59289000  0.67479000  1.0 -0.2565952784
N  N4  1  0.08067000  0.58300000  0.63224000  1.0 -0.0888222544
N  N5  1  0.13504000  0.40711000  0.32521000  1.0 -0.2526878156
N  N6  1  0.08067000  0.41700000  0.36776000  1.0 -0.0888222544
N  N7  1  0.86496000  0.59289000  0.32521000  1.0 -0.2565952784
N  N8  1  0.91933000  0.58300000  0.36776000  1.0 -0.0888222544
N  N9  1  0.67479000  0.86496000  0.40711000  1.0 -0.2565952784
N  N10  1  0.63224000  0.91933000  0.41700000  1.0 -0.0888222544
N  N11  1  0.67479000  0.13504000  0.59289000  1.0 -0.2565952784
N  N12  1  0.63224000  0.08067000  0.58300000  1.0 -0.0888222544
N  N13  1  0.32521000  0.13504000  0.40711000  1.0 -0.2526878156
N  N14  1  0.36776000  0.08067000  0.41700000  1.0 -0.0888222544
N  N15  1  0.32521000  0.86496000  0.59289000  1.0 -0.2565952784
N  N16  1  0.36776000  0.91933000  0.58300000  1.0 -0.0888222544
N  N17  1  0.40711000  0.67479000  0.86496000  1.0 -0.2565952784
N  N18  1  0.41700000  0.63224000  0.91933000  1.0 -0.0888222544
N  N19  1  0.59289000  0.67479000  0.13504000  1.0 -0.2565952784
N  N20  1  0.58300000  0.63224000  0.08067000  1.0 -0.0888222544
N  N21  1  0.40711000  0.32521000  0.13504000  1.0 -0.2526878156
N  N22  1  0.41700000  0.36776000  0.08067000  1.0 -0.0888222544
N  N23  1  0.59289000  0.32521000  0.86496000  1.0 -0.2565952784
N  N24  1  0.58300000  0.36776000  0.91933000  1.0 -0.0888222544
N  N25  1  0.40711000  0.86496000  0.32521000  1.0 -0.2526878156
N  N26  1  0.41700000  0.91933000  0.36776000  1.0 -0.0888222544
N  N27  1  0.59289000  0.13504000  0.32521000  1.0 -0.2526878156
N  N28  1  0.58300000  0.08067000  0.36776000  1.0 -0.0888222544
N  N29  1  0.40711000  0.13504000  0.67479000  1.0 -0.2565952784
N  N30  1  0.41700000  0.08067000  0.63224000  1.0 -0.0888222544
N  N31  1  0.59289000  0.86496000  0.67479000  1.0 -0.2565952784
N  N32  1  0.58300000  0.91933000  0.63224000  1.0 -0.0888222544
N  N33  1  0.86496000  0.67479000  0.59289000  1.0 -0.2565952784
N  N34  1  0.91933000  0.63224000  0.58300000  1.0 -0.0888222544
N  N35  1  0.13504000  0.67479000  0.40711000  1.0 -0.2565952784
N  N36  1  0.08067000  0.63224000  0.41700000  1.0 -0.0888222544
N  N37  1  0.13504000  0.32521000  0.59289000  1.0 -0.2526878156
N  N38  1  0.08067000  0.36776000  0.58300000  1.0 -0.0888222544
N  N39  1  0.86496000  0.32521000  0.40711000  1.0 -0.2565952784
N  N40  1  0.91933000  0.36776000  0.41700000  1.0 -0.0888222544
N  N41  1  0.67479000  0.40711000  0.13504000  1.0 -0.2565952784
N  N42  1  0.63224000  0.41700000  0.08067000  1.0 -0.0888222544
N  N43  1  0.67479000  0.59289000  0.86496000  1.0 -0.2565952784
N  N44  1  0.63224000  0.58300000  0.91933000  1.0 -0.0888222544
N  N45  1  0.32521000  0.40711000  0.86496000  1.0 -0.2565952784
N  N46  1  0.36776000  0.41700000  0.91933000  1.0 -0.0888222544
N  N47  1  0.32521000  0.59289000  0.13504000  1.0 -0.2526878156
N  N48  1  0.36776000  0.58300000  0.08067000  1.0 -0.0888222544
N  N49  1  0.13504000  0.59289000  0.32521000  1.0 -0.2526878156
N  N50  1  0.08067000  0.58300000  0.36776000  1.0 -0.0888222544
N  N51  1  0.86496000  0.40711000  0.32521000  1.0 -0.2565952784
N  N52  1  0.91933000  0.41700000  0.36776000  1.0 -0.0888222544
N  N53  1  0.86496000  0.59289000  0.67479000  1.0 -0.2565952784
N  N54  1  0.91933000  0.58300000  0.63224000  1.0 -0.0888222544
N  N55  1  0.13504000  0.40711000  0.67479000  1.0 -0.2565952784
N  N56  1  0.08067000  0.41700000  0.63224000  1.0 -0.0888222544
N  N57  1  0.32521000  0.13504000  0.59289000  1.0 -0.2526878156
N  N58  1  0.36776000  0.08067000  0.58300000  1.0 -0.0888222544
N  N59  1  0.32521000  0.86496000  0.40711000  1.0 -0.2526878156
N  N60  1  0.36776000  0.91933000  0.41700000  1.0 -0.0888222544
N  N61  1  0.67479000  0.86496000  0.59289000  1.0 -0.2565952784
N  N62  1  0.63224000  0.91933000  0.58300000  1.0 -0.0888222544
N  N63  1  0.67479000  0.13504000  0.40711000  1.0 -0.2565952784
N  N64  1  0.63224000  0.08067000  0.41700000  1.0 -0.0888222544
N  N65  1  0.59289000  0.32521000  0.13504000  1.0 -0.2526878156
N  N66  1  0.58300000  0.36776000  0.08067000  1.0 -0.0888222544
N  N67  1  0.40711000  0.32521000  0.86496000  1.0 -0.2565952784
N  N68  1  0.41700000  0.36776000  0.91933000  1.0 -0.0888222544
N  N69  1  0.59289000  0.67479000  0.86496000  1.0 -0.2565952784
N  N70  1  0.58300000  0.63224000  0.91933000  1.0 -0.0888222544
N  N71  1  0.40711000  0.67479000  0.13504000  1.0 -0.2565952784
N  N72  1  0.41700000  0.63224000  0.08067000  1.0 -0.0888222544
N  N73  1  0.59289000  0.13504000  0.67479000  1.0 -0.2565952784
N  N74  1  0.58300000  0.08067000  0.63224000  1.0 -0.0888222544
N  N75  1  0.40711000  0.86496000  0.67479000  1.0 -0.2565952784
N  N76  1  0.41700000  0.91933000  0.63224000  1.0 -0.0888222544
N  N77  1  0.59289000  0.86496000  0.32521000  1.0 -0.2565952784
N  N78  1  0.58300000  0.91933000  0.36776000  1.0 -0.0888222544
N  N79  1  0.40711000  0.13504000  0.32521000  1.0 -0.2526878156
N  N80  1  0.41700000  0.08067000  0.36776000  1.0 -0.0888222544
N  N81  1  0.13504000  0.32521000  0.40711000  1.0 -0.2526878156
N  N82  1  0.08067000  0.36776000  0.41700000  1.0 -0.0888222544
N  N83  1  0.86496000  0.32521000  0.59289000  1.0 -0.2565952784
N  N84  1  0.91933000  0.36776000  0.58300000  1.0 -0.0888222544
N  N85  1  0.86496000  0.67479000  0.40711000  1.0 -0.2565952784
N  N86  1  0.91933000  0.63224000  0.41700000  1.0 -0.0888222544
N  N87  1  0.13504000  0.67479000  0.59289000  1.0 -0.2565952784
N  N88  1  0.08067000  0.63224000  0.58300000  1.0 -0.0888222544
N  N89  1  0.32521000  0.59289000  0.86496000  1.0 -0.2565952784
N  N90  1  0.36776000  0.58300000  0.91933000  1.0 -0.0888222544
N  N91  1  0.32521000  0.40711000  0.13504000  1.0 -0.2526878156
N  N92  1  0.36776000  0.41700000  0.08067000  1.0 -0.0888222544
N  N93  1  0.67479000  0.59289000  0.13504000  1.0 -0.2565952784
N  N94  1  0.63224000  0.58300000  0.08067000  1.0 -0.0888222544
N  N95  1  0.67479000  0.40711000  0.86496000  1.0 -0.2565952784
N  N96  1  0.63224000  0.41700000  0.91933000  1.0 -0.0888222544
Cl  Cl1  1  0.00000000  0.50000000  0.50000000  1.0 -0.5637864561
Cl  Cl2  1  0.50000000  0.00000000  0.50000000  1.0 -0.5637864561
Cl  Cl3  1  0.50000000  0.50000000  0.00000000  1.0 -0.5637864561
