# DDEC6 charges by PACMAN v1.1 (https://github.com/mtap-research/PACMAN-charge/)
data_NETHOJ_FSR_pacman
_symmetry_space_group_name_H-M   'P 1'
_cell_length_a   8.46200000
_cell_length_b   17.26600000
_cell_length_c   9.72100000
_cell_angle_alpha   90.00000000
_cell_angle_beta   112.17000000
_cell_angle_gamma   90.00000000
_symmetry_Int_Tables_number   1
_chemical_formula_structural   Dy(C3O4)2
_chemical_formula_sum   'Dy4 C24 O32'
_cell_volume   1315.28151486
_cell_formula_units_Z   4
loop_
 _symmetry_equiv_pos_site_id
 _symmetry_equiv_pos_as_xyz
  1  'x, y, z'
loop_
 _atom_site_type_symbol
 _atom_site_label
 _atom_site_symmetry_multiplicity
 _atom_site_fract_x
 _atom_site_fract_y
 _atom_site_fract_z
 _atom_site_occupancy
 _atom_site_charge
Dy  Dy1  1  0.84353000  0.74222000  0.52470000  1.0 2.0186036714
Dy  Dy2  1  0.15647000  0.24222000  0.97530000  1.0 2.0186036714
Dy  Dy3  1  0.15647000  0.25778000  0.47530000  1.0 2.0186036714
Dy  Dy4  1  0.84353000  0.75778000  0.02470000  1.0 2.0186036714
C  C1  1  0.90500000  0.90210000  0.52400000  1.0 0.5885184892
C  C2  1  0.09500000  0.40210000  0.97600000  1.0 0.5885184892
C  C3  1  0.09500000  0.09790000  0.47600000  1.0 0.5885184892
C  C4  1  0.90500000  0.59790000  0.02400000  1.0 0.5885184892
C  C5  1  0.94400000  0.98630000  0.52900000  1.0 -0.0508763367
C  C6  1  0.05600000  0.48630000  0.97100000  1.0 -0.0551504976
C  C7  1  0.05600000  0.01370000  0.47100000  1.0 -0.0508763367
C  C8  1  0.94400000  0.51370000  0.02900000  1.0 -0.0508763367
C  C9  1  0.13000000  0.78750000  0.86700000  1.0 0.6919259318
C  C10  1  0.87000000  0.28750000  0.63300000  1.0 0.6919259318
C  C11  1  0.87000000  0.21250000  0.13300000  1.0 0.6919259318
C  C12  1  0.13000000  0.71250000  0.36700000  1.0 0.6919259318
C  C13  1  0.31400000  0.78440000  0.96200000  1.0 -0.097766336
C  C14  1  0.68600000  0.28440000  0.53800000  1.0 -0.097766336
C  C15  1  0.68600000  0.21560000  0.03800000  1.0 -0.097766336
C  C16  1  0.31400000  0.71560000  0.46200000  1.0 -0.097766336
C  C17  1  0.37500000  0.80200000  0.10500000  1.0 -0.0776852853
C  C18  1  0.62500000  0.30200000  0.39500000  1.0 -0.0776852853
C  C19  1  0.62500000  0.19800000  0.89500000  1.0 -0.0776852853
C  C20  1  0.37500000  0.69800000  0.60500000  1.0 -0.0776852853
C  C21  1  0.56000000  0.79050000  0.20100000  1.0 0.6757827588
C  C22  1  0.44000000  0.29050000  0.29900000  1.0 0.6757827588
C  C23  1  0.44000000  0.20950000  0.79900000  1.0 0.6757827588
C  C24  1  0.56000000  0.70950000  0.70100000  1.0 0.6757827588
O  O1  1  0.96300000  0.85560000  0.45370000  1.0 -0.6039805896
O  O2  1  0.03700000  0.35560000  0.04630000  1.0 -0.6039805896
O  O3  1  0.03700000  0.14440000  0.54630000  1.0 -0.6039805896
O  O4  1  0.96300000  0.64440000  0.95370000  1.0 -0.6039805896
O  O5  1  0.81300000  0.87810000  0.59140000  1.0 -0.5779308192
O  O6  1  0.18700000  0.37810000  0.90860000  1.0 -0.5779308192
O  O7  1  0.18700000  0.12190000  0.40860000  1.0 -0.5779308192
O  O8  1  0.81300000  0.62190000  0.09140000  1.0 -0.5779308192
O  O9  1  0.09000000  0.76920000  0.73300000  1.0 -0.6291901729
O  O10  1  0.91000000  0.26920000  0.76700000  1.0 -0.6291901729
O  O11  1  0.91000000  0.23080000  0.26700000  1.0 -0.6291901729
O  O12  1  0.09000000  0.73080000  0.23300000  1.0 -0.6291901729
O  O13  1  0.02510000  0.80610000  0.92410000  1.0 -0.6291901729
O  O14  1  0.97490000  0.30610000  0.57590000  1.0 -0.6291901729
O  O15  1  0.97490000  0.19390000  0.07590000  1.0 -0.6291901729
O  O16  1  0.02510000  0.69390000  0.42410000  1.0 -0.6291901729
O  O17  1  0.66100000  0.77100000  0.14300000  1.0 -0.6291901729
O  O18  1  0.33900000  0.27100000  0.35700000  1.0 -0.6291901729
O  O19  1  0.33900000  0.22900000  0.85700000  1.0 -0.6291901729
O  O20  1  0.66100000  0.72900000  0.64300000  1.0 -0.6291901729
O  O21  1  0.60100000  0.79790000  0.33830000  1.0 -0.6039805896
O  O22  1  0.39900000  0.29790000  0.16170000  1.0 -0.6039805896
O  O23  1  0.39900000  0.20210000  0.66170000  1.0 -0.6039805896
O  O24  1  0.60100000  0.70210000  0.83830000  1.0 -0.6039805896
O  O25  1  0.69500000  0.63520000  0.36700000  1.0 -0.1195656321
O  O26  1  0.30500000  0.13520000  0.13300000  1.0 -0.1195656321
O  O27  1  0.30500000  0.36480000  0.63300000  1.0 -0.1195656321
O  O28  1  0.69500000  0.86480000  0.86700000  1.0 -0.1195656321
O  O29  1  0.92600000  0.62020000  0.66500000  1.0 0.0460549966
O  O30  1  0.07400000  0.12020000  0.83500000  1.0 0.0442101956
O  O31  1  0.07400000  0.37980000  0.33500000  1.0 0.0460549966
O  O32  1  0.92600000  0.87980000  0.16500000  1.0 0.0460549966
