# DDEC6 charges by PACMAN v1.1 (https://github.com/mtap-research/PACMAN-charge/)
data_NETYIV_ion_pacman
_symmetry_space_group_name_H-M   'P 1'
_cell_length_a   13.19110000
_cell_length_b   13.19110000
_cell_length_c   22.16000000
_cell_angle_alpha   75.29010000
_cell_angle_beta   104.71000000
_cell_angle_gamma   96.92700000
_symmetry_Int_Tables_number   1
_chemical_formula_structural   Cu3Mo8H28C40N8ClO26
_chemical_formula_sum   'Cu6 Mo16 H56 C80 N16 Cl2 O52'
_cell_volume   3600.82996276
_cell_formula_units_Z   2
loop_
 _symmetry_equiv_pos_site_id
 _symmetry_equiv_pos_as_xyz
  1  'x, y, z'
loop_
 _atom_site_type_symbol
 _atom_site_label
 _atom_site_symmetry_multiplicity
 _atom_site_fract_x
 _atom_site_fract_y
 _atom_site_fract_z
 _atom_site_occupancy
 _atom_site_charge
Cu  Cu1  1  0.96731000  0.96731000  0.25000000  1.0 0.2643977711
Cu  Cu2  1  0.03269000  0.03269000  0.75000000  1.0 0.2643977711
Cu  Cu3  1  0.04671000  0.31203000  0.66596000  1.0 0.269077682
Cu  Cu4  1  0.31203000  0.04671000  0.83404000  1.0 0.269077682
Cu  Cu5  1  0.95329000  0.68797000  0.33404000  1.0 0.269077682
Cu  Cu6  1  0.68797000  0.95329000  0.16596000  1.0 0.269077682
Mo  Mo1  1  0.03902000  0.61446000  0.94639000  1.0 2.099501581
Mo  Mo2  1  0.96098000  0.38554000  0.05361000  1.0 2.099501581
Mo  Mo3  1  0.97610000  0.40136000  0.89702000  1.0 2.0646722028
Mo  Mo4  1  0.02390000  0.59864000  0.10298000  1.0 2.0682460973
Mo  Mo5  1  0.74477000  0.38875000  0.92698000  1.0 2.099501581
Mo  Mo6  1  0.25523000  0.61125000  0.07302000  1.0 2.099501581
Mo  Mo7  1  0.18798000  0.39564000  0.02390000  1.0 2.0504428456
Mo  Mo8  1  0.81202000  0.60436000  0.97610000  1.0 2.0504428456
Mo  Mo9  1  0.61446000  0.03902000  0.55361000  1.0 2.099501581
Mo  Mo10  1  0.38554000  0.96098000  0.44639000  1.0 2.099501581
Mo  Mo11  1  0.40136000  0.97610000  0.60298000  1.0 2.0646722028
Mo  Mo12  1  0.59864000  0.02390000  0.39702000  1.0 2.0646722028
Mo  Mo13  1  0.38875000  0.74477000  0.57302000  1.0 2.099501581
Mo  Mo14  1  0.61125000  0.25523000  0.42698000  1.0 2.099501581
Mo  Mo15  1  0.39564000  0.18798000  0.47610000  1.0 2.0504428456
Mo  Mo16  1  0.60436000  0.81202000  0.52390000  1.0 2.0504428456
H  H1  1  0.17790000  0.51750000  0.82860000  1.0 0.1473942935
H  H2  1  0.51750000  0.17790000  0.67140000  1.0 0.1473942935
H  H3  1  0.82210000  0.48250000  0.17140000  1.0 0.1473942935
H  H4  1  0.48250000  0.82210000  0.32860000  1.0 0.1473942935
H  H5  1  0.39060000  0.91960000  0.75970000  1.0 0.1281739006
H  H6  1  0.91960000  0.39060000  0.74030000  1.0 0.1281739006
H  H7  1  0.60940000  0.08040000  0.24030000  1.0 0.1281739006
H  H8  1  0.08040000  0.60940000  0.25970000  1.0 0.1281739006
H  H9  1  0.12090000  0.37250000  0.78820000  1.0 0.1214000841
H  H10  1  0.37250000  0.12090000  0.71180000  1.0 0.1214000841
H  H11  1  0.87910000  0.62750000  0.21180000  1.0 0.1214000841
H  H12  1  0.62750000  0.87910000  0.28820000  1.0 0.1214000841
H  H13  1  0.83290000  0.02930000  0.31850000  1.0 0.1075470134
H  H14  1  0.02930000  0.83290000  0.18150000  1.0 0.1075470134
H  H15  1  0.16710000  0.97070000  0.68150000  1.0 0.1075470134
H  H16  1  0.97070000  0.16710000  0.81850000  1.0 0.1075470134
H  H17  1  0.14920000  0.52620000  0.61780000  1.0 0.1214000841
H  H18  1  0.52620000  0.14920000  0.88220000  1.0 0.1214000841
H  H19  1  0.85080000  0.47380000  0.38220000  1.0 0.1214000841
H  H20  1  0.47380000  0.85080000  0.11780000  1.0 0.1214000841
H  H21  1  0.84500000  0.10760000  0.40120000  1.0 0.1473942935
H  H22  1  0.10760000  0.84500000  0.09880000  1.0 0.1473942935
H  H23  1  0.15500000  0.89240000  0.59880000  1.0 0.1473942935
H  H24  1  0.89240000  0.15500000  0.90120000  1.0 0.1473942935
H  H25  1  0.21540000  0.67260000  0.65490000  1.0 0.1411918527
H  H26  1  0.67260000  0.21540000  0.84510000  1.0 0.1411918527
H  H27  1  0.78460000  0.32740000  0.34510000  1.0 0.1411918527
H  H28  1  0.32740000  0.78460000  0.15490000  1.0 0.1411918527
H  H29  1  0.17640000  0.21180000  0.61040000  1.0 0.1281739006
H  H30  1  0.21180000  0.17640000  0.88960000  1.0 0.1281739006
H  H31  1  0.82360000  0.78820000  0.38960000  1.0 0.1281739006
H  H32  1  0.78820000  0.82360000  0.11040000  1.0 0.1281739006
H  H33  1  0.13610000  0.04390000  0.34600000  1.0 0.1281739006
H  H34  1  0.04390000  0.13610000  0.15400000  1.0 0.1281739006
H  H35  1  0.86390000  0.95610000  0.65400000  1.0 0.1281739006
H  H36  1  0.95610000  0.86390000  0.84600000  1.0 0.1281739006
H  H37  1  0.16280000  0.13440000  0.52680000  1.0 0.1473942935
H  H38  1  0.13440000  0.16280000  0.97320000  1.0 0.1473942935
H  H39  1  0.83720000  0.86560000  0.47320000  1.0 0.1473942935
H  H40  1  0.86560000  0.83720000  0.02680000  1.0 0.1473942935
H  H41  1  0.89040000  0.30200000  0.54260000  1.0 0.1281739006
H  H42  1  0.30200000  0.89040000  0.95740000  1.0 0.1281739006
H  H43  1  0.10960000  0.69800000  0.45740000  1.0 0.1281739006
H  H44  1  0.69800000  0.10960000  0.04260000  1.0 0.1281739006
H  H45  1  0.15690000  0.11370000  0.43290000  1.0 0.1411918527
H  H46  1  0.11370000  0.15690000  0.06710000  1.0 0.1411918527
H  H47  1  0.84310000  0.88630000  0.56710000  1.0 0.1411918527
H  H48  1  0.88630000  0.84310000  0.93290000  1.0 0.1411918527
H  H49  1  0.86870000  0.22410000  0.45870000  1.0 0.1411918527
H  H50  1  0.22410000  0.86870000  0.04130000  1.0 0.1473942935
H  H51  1  0.13130000  0.77590000  0.54130000  1.0 0.1473942935
H  H52  1  0.77590000  0.13130000  0.95870000  1.0 0.1473942935
H  H53  1  0.17210000  0.84690000  0.85530000  1.0 0.1214000841
H  H54  1  0.84690000  0.17210000  0.64470000  1.0 0.1214000841
H  H55  1  0.82790000  0.15310000  0.14470000  1.0 0.1214000841
H  H56  1  0.15310000  0.82790000  0.35530000  1.0 0.1214000841
C  C1  1  0.20144000  0.61410000  0.74580000  1.0 0.1281739006
C  C2  1  0.61410000  0.20144000  0.75420000  1.0 0.1281739006
C  C3  1  0.79856000  0.38590000  0.25420000  1.0 0.1281739006
C  C4  1  0.38590000  0.79856000  0.24580000  1.0 0.1281739006
C  C5  1  0.17286000  0.52126000  0.78553000  1.0 -0.1587420268
C  C6  1  0.52126000  0.17286000  0.71447000  1.0 -0.1587420268
C  C7  1  0.82714000  0.47874000  0.21447000  1.0 -0.1587420268
C  C8  1  0.47874000  0.82714000  0.28553000  1.0 -0.1587420268
C  C9  1  0.33622000  0.87378000  0.77199000  1.0 0.051659537
C  C10  1  0.87378000  0.33622000  0.72801000  1.0 0.051659537
C  C11  1  0.66378000  0.12622000  0.22801000  1.0 0.051659537
C  C12  1  0.12622000  0.66378000  0.27199000  1.0 0.051659537
C  C13  1  0.00230000  0.12062000  0.42735000  1.0 0.1075470134
C  C14  1  0.12062000  0.00230000  0.07265000  1.0 0.1075470134
C  C15  1  0.99770000  0.87938000  0.57265000  1.0 0.1075470134
C  C16  1  0.87938000  0.99770000  0.92735000  1.0 0.1075470134
C  C17  1  0.18210000  0.73650000  0.81006000  1.0 -0.0592443393
C  C18  1  0.73650000  0.18210000  0.68994000  1.0 -0.0592443393
C  C19  1  0.81790000  0.26350000  0.18994000  1.0 -0.0592443393
C  C20  1  0.26350000  0.81790000  0.31006000  1.0 -0.0592443393
C  C21  1  0.13721000  0.43461000  0.76048000  1.0 0.0801602785
C  C22  1  0.43461000  0.13721000  0.73952000  1.0 0.0801602785
C  C23  1  0.86279000  0.56539000  0.23952000  1.0 0.0801602785
C  C24  1  0.56539000  0.86279000  0.26048000  1.0 0.0801602785
C  C25  1  0.31347000  0.78257000  0.74974000  1.0 -0.0390935735
C  C26  1  0.78257000  0.31347000  0.75026000  1.0 -0.0390935735
C  C27  1  0.68653000  0.21743000  0.25026000  1.0 -0.0390935735
C  C28  1  0.21743000  0.68653000  0.24974000  1.0 -0.0390935735
C  C29  1  0.23418000  0.71170000  0.76913000  1.0 0.051659537
C  C30  1  0.71170000  0.23418000  0.73087000  1.0 0.051659537
C  C31  1  0.76582000  0.28830000  0.23087000  1.0 0.051659537
C  C32  1  0.28830000  0.76582000  0.26913000  1.0 0.051659537
C  C33  1  0.89920000  0.04800000  0.34122000  1.0 0.0870252094
C  C34  1  0.04800000  0.89920000  0.15878000  1.0 0.0870252094
C  C35  1  0.10080000  0.95200000  0.65878000  1.0 0.0870252094
C  C36  1  0.95200000  0.10080000  0.84122000  1.0 0.0870252094
C  C37  1  0.15490000  0.52430000  0.66076000  1.0 0.0801602785
C  C38  1  0.52430000  0.15490000  0.83924000  1.0 0.0801602785
C  C39  1  0.84510000  0.47570000  0.33924000  1.0 0.0801602785
C  C40  1  0.47570000  0.84510000  0.16076000  1.0 0.0801602785
C  C41  1  0.01367000  0.17049000  0.48233000  1.0 0.1075470134
C  C42  1  0.17049000  0.01367000  0.01767000  1.0 0.1075470134
C  C43  1  0.98633000  0.82951000  0.51767000  1.0 0.1075470134
C  C44  1  0.82951000  0.98633000  0.98233000  1.0 0.1075470134
C  C45  1  0.90585000  0.09415000  0.39149000  1.0 -0.1587420268
C  C46  1  0.09415000  0.90585000  0.10851000  1.0 -0.1587420268
C  C47  1  0.09415000  0.90585000  0.60851000  1.0 -0.1587420268
C  C48  1  0.90585000  0.09415000  0.89149000  1.0 -0.1587420268
C  C49  1  0.19400000  0.61300000  0.68265000  1.0 -0.1685225656
C  C50  1  0.61300000  0.19400000  0.81735000  1.0 -0.1685225656
C  C51  1  0.80600000  0.38700000  0.31735000  1.0 -0.1685225656
C  C52  1  0.38700000  0.80600000  0.18265000  1.0 -0.1685225656
C  C53  1  0.11350000  0.21450000  0.57950000  1.0 0.1025609682
C  C54  1  0.21450000  0.11350000  0.92050000  1.0 0.1025609682
C  C55  1  0.88650000  0.78550000  0.42050000  1.0 0.1025609682
C  C56  1  0.78550000  0.88650000  0.07950000  1.0 0.1025609682
C  C57  1  0.07630000  0.05530000  0.35770000  1.0 0.0870252094
C  C58  1  0.05530000  0.07630000  0.14230000  1.0 0.0870252094
C  C59  1  0.92370000  0.94470000  0.64230000  1.0 0.0870252094
C  C60  1  0.94470000  0.92370000  0.85770000  1.0 0.0870252094
C  C61  1  0.10598000  0.16762000  0.52910000  1.0 -0.1587420268
C  C62  1  0.16762000  0.10598000  0.97090000  1.0 -0.1587420268
C  C63  1  0.89402000  0.83238000  0.47090000  1.0 -0.1587420268
C  C64  1  0.83238000  0.89402000  0.02910000  1.0 -0.1587420268
C  C65  1  0.94557000  0.26703000  0.53986000  1.0 0.0801602785
C  C66  1  0.26703000  0.94557000  0.96014000  1.0 0.0801602785
C  C67  1  0.05443000  0.73297000  0.46014000  1.0 0.0801602785
C  C68  1  0.73297000  0.05443000  0.03986000  1.0 0.0801602785
C  C69  1  0.08970000  0.09890000  0.40975000  1.0 -0.1587420268
C  C70  1  0.09890000  0.08970000  0.09025000  1.0 -0.1587420268
C  C71  1  0.91030000  0.90110000  0.59025000  1.0 -0.1587420268
C  C72  1  0.90110000  0.91030000  0.90975000  1.0 -0.1587420268
C  C73  1  0.93247000  0.22113000  0.48884000  1.0 -0.1587420268
C  C74  1  0.22113000  0.93247000  0.01116000  1.0 -0.1587420268
C  C75  1  0.06753000  0.77887000  0.51116000  1.0 -0.1587420268
C  C76  1  0.77887000  0.06753000  0.98884000  1.0 -0.1587420268
C  C77  1  0.20880000  0.83080000  0.82861000  1.0 0.0344847637
C  C78  1  0.83080000  0.20880000  0.67139000  1.0 0.0344847637
C  C79  1  0.79120000  0.16920000  0.17139000  1.0 0.0344847637
C  C80  1  0.16920000  0.79120000  0.32861000  1.0 0.0344847637
N  N1  1  0.12450000  0.43464000  0.69851000  1.0 -0.1982813878
N  N2  1  0.43464000  0.12450000  0.80149000  1.0 -0.1982813878
N  N3  1  0.87550000  0.56536000  0.30149000  1.0 -0.1982813878
N  N4  1  0.56536000  0.87550000  0.19851000  1.0 -0.1982813878
N  N5  1  0.98376000  0.02880000  0.32347000  1.0 -0.1875330796
N  N6  1  0.02880000  0.98376000  0.17653000  1.0 -0.1875330796
N  N7  1  0.01624000  0.97120000  0.67653000  1.0 -0.1875330796
N  N8  1  0.97120000  0.01624000  0.82347000  1.0 -0.1875330796
N  N9  1  0.28446000  0.90006000  0.81022000  1.0 -0.1982813878
N  N10  1  0.90006000  0.28446000  0.68978000  1.0 -0.1982813878
N  N11  1  0.71554000  0.09994000  0.18978000  1.0 -0.1982813878
N  N12  1  0.09994000  0.71554000  0.31022000  1.0 -0.1982813878
N  N13  1  0.03527000  0.26353000  0.58610000  1.0 -0.1982813878
N  N14  1  0.26353000  0.03527000  0.91390000  1.0 -0.1982813878
N  N15  1  0.96473000  0.73647000  0.41390000  1.0 -0.1982813878
N  N16  1  0.73647000  0.96473000  0.08610000  1.0 -0.1982813878
Cl  Cl1  1  0.83411000  0.83411000  0.25000000  1.0 -0.532063811
Cl  Cl2  1  0.16589000  0.16589000  0.75000000  1.0 -0.532063811
O  O1  1  0.09542000  0.49858000  0.92830000  1.0 -0.8969091465
O  O2  1  0.90458000  0.50142000  0.07170000  1.0 -0.8969091465
O  O3  1  0.91070000  0.49400000  0.95192000  1.0 -1.1491396715
O  O4  1  0.08930000  0.50600000  0.04808000  1.0 -1.1491396715
O  O5  1  0.71909000  0.48263000  0.97344000  1.0 -0.7802307149
O  O6  1  0.28091000  0.51737000  0.02656000  1.0 -0.7802307149
O  O7  1  0.15942000  0.68038000  0.97113000  1.0 -0.6966933698
O  O8  1  0.84058000  0.31962000  0.02887000  1.0 -0.6947271516
O  O9  1  0.96040000  0.66536000  0.99468000  1.0 -0.8841016581
O  O10  1  0.03960000  0.33464000  0.00532000  1.0 -0.8841016581
O  O11  1  0.85110000  0.31908000  0.91063000  1.0 -0.8170535852
O  O12  1  0.14890000  0.68092000  0.08937000  1.0 -0.8170535852
O  O13  1  0.98826000  0.68366000  0.87118000  1.0 -0.589880838
O  O14  1  0.01174000  0.31634000  0.12882000  1.0 -0.589880838
O  O15  1  0.04284000  0.31192000  0.88155000  1.0 -0.6306420183
O  O16  1  0.95716000  0.68808000  0.11845000  1.0 -0.6306420183
O  O17  1  0.93107000  0.48201000  0.82405000  1.0 -0.6064731
O  O18  1  0.06893000  0.51799000  0.17595000  1.0 -0.6002850344
O  O19  1  0.22144000  0.32472000  0.10088000  1.0 -0.5725385637
O  O20  1  0.77856000  0.67528000  0.89912000  1.0 -0.5754627278
O  O21  1  0.70228000  0.46060000  0.85043000  1.0 -0.6064731
O  O22  1  0.29772000  0.53940000  0.14957000  1.0 -0.6064731
O  O23  1  0.64941000  0.29171000  0.93810000  1.0 -0.6306420183
O  O24  1  0.35059000  0.70829000  0.06190000  1.0 -0.6306420183
O  O25  1  0.24197000  0.33639000  0.98115000  1.0 -0.6002850344
O  O26  1  0.75803000  0.66361000  0.01885000  1.0 -0.6002850344
O  O27  1  0.49858000  0.09542000  0.57170000  1.0 -0.8969091465
O  O28  1  0.50142000  0.90458000  0.42830000  1.0 -0.8969091465
O  O29  1  0.49400000  0.91070000  0.54808000  1.0 -1.1491396715
O  O30  1  0.50600000  0.08930000  0.45192000  1.0 -1.1491396715
O  O31  1  0.48263000  0.71909000  0.52656000  1.0 -0.7802307149
O  O32  1  0.51737000  0.28091000  0.47344000  1.0 -0.7802307149
O  O33  1  0.68038000  0.15942000  0.52887000  1.0 -0.6966933698
O  O34  1  0.31962000  0.84058000  0.47113000  1.0 -0.6966933698
O  O35  1  0.66536000  0.96040000  0.50532000  1.0 -0.8863829663
O  O36  1  0.33464000  0.03960000  0.49468000  1.0 -0.8841016581
O  O37  1  0.31908000  0.85110000  0.58937000  1.0 -0.8170535852
O  O38  1  0.68092000  0.14890000  0.41063000  1.0 -0.8170535852
O  O39  1  0.68366000  0.98826000  0.62882000  1.0 -0.589880838
O  O40  1  0.31634000  0.01174000  0.37118000  1.0 -0.589880838
O  O41  1  0.31192000  0.04284000  0.61845000  1.0 -0.6306420183
O  O42  1  0.68808000  0.95716000  0.38155000  1.0 -0.6306420183
O  O43  1  0.48201000  0.93107000  0.67595000  1.0 -0.6064731
O  O44  1  0.51799000  0.06893000  0.32405000  1.0 -0.6064731
O  O45  1  0.32472000  0.22144000  0.39912000  1.0 -0.5725385637
O  O46  1  0.67528000  0.77856000  0.60088000  1.0 -0.5725385637
O  O47  1  0.46060000  0.70228000  0.64957000  1.0 -0.6064731
O  O48  1  0.53940000  0.29772000  0.35043000  1.0 -0.6064731
O  O49  1  0.29171000  0.64941000  0.56190000  1.0 -0.6306420183
O  O50  1  0.70829000  0.35059000  0.43810000  1.0 -0.6306420183
O  O51  1  0.33639000  0.24197000  0.51885000  1.0 -0.6002850344
O  O52  1  0.66361000  0.75803000  0.48115000  1.0 -0.6002850344
