# DDEC6 charges by PACMAN v1.1 (https://github.com/mtap-research/PACMAN-charge/)
data_NEVDUQ_ASR_pacman
_symmetry_space_group_name_H-M   'P 1'
_cell_length_a   19.50410000
_cell_length_b   19.50410000
_cell_length_c   32.07200000
_cell_angle_alpha   90.00000000
_cell_angle_beta   90.00000000
_cell_angle_gamma   90.00000000
_symmetry_Int_Tables_number   1
_chemical_formula_structural   Hf3(C23O6)2
_chemical_formula_sum   'Hf12 C184 O48'
_cell_volume   12200.50685193
_cell_formula_units_Z   4
loop_
 _symmetry_equiv_pos_site_id
 _symmetry_equiv_pos_as_xyz
  1  'x, y, z'
loop_
 _atom_site_type_symbol
 _atom_site_label
 _atom_site_symmetry_multiplicity
 _atom_site_fract_x
 _atom_site_fract_y
 _atom_site_fract_z
 _atom_site_occupancy
 _atom_site_charge
Hf  Hf1  1  0.95890000  0.12079000  0.00000000  1.0 1.509899116
Hf  Hf2  1  0.04110000  0.87921000  0.00000000  1.0 1.509899116
Hf  Hf3  1  0.87921000  0.95890000  0.00000000  1.0 1.509899116
Hf  Hf4  1  0.12079000  0.04110000  0.00000000  1.0 1.5200320645
Hf  Hf5  1  0.54110000  0.62079000  0.50000000  1.0 1.4949200714
Hf  Hf6  1  0.45890000  0.37921000  0.50000000  1.0 1.495651778
Hf  Hf7  1  0.62079000  0.45890000  0.50000000  1.0 1.4949200714
Hf  Hf8  1  0.37921000  0.54110000  0.50000000  1.0 1.495651778
Hf  Hf9  1  0.00000000  0.00000000  0.07658000  1.0 1.5259166324
Hf  Hf10  1  0.50000000  0.50000000  0.42342000  1.0 1.5200320645
Hf  Hf11  1  0.00000000  0.00000000  0.92342000  1.0 1.5259166324
Hf  Hf12  1  0.50000000  0.50000000  0.57658000  1.0 1.5200320645
C  C1  1  0.93420000  0.31070000  0.19330000  1.0 0.0708148187
C  C2  1  0.91920000  0.32820000  0.14890000  1.0 0.0096449558
C  C3  1  0.92450000  0.27400000  0.12070000  1.0 0.0096449558
C  C4  1  0.94150000  0.20910000  0.12990000  1.0 -0.1120668388
C  C5  1  0.95640000  0.19150000  0.17430000  1.0 0.1123741825
C  C6  1  0.95120000  0.24500000  0.20250000  1.0 -0.05331161
C  C7  1  0.92850000  0.36640000  0.22120000  1.0 0.0937184656
C  C8  1  0.97960000  0.41610000  0.22010000  1.0 0.0358095711
C  C9  1  0.94710000  0.15370000  0.10190000  1.0 0.606358003
C  C10  1  0.03300000  0.41810000  0.19700000  1.0 -0.1337776658
C  C11  1  0.06580000  0.68930000  0.19330000  1.0 0.0708148187
C  C12  1  0.08080000  0.67180000  0.14890000  1.0 0.0096449558
C  C13  1  0.07550000  0.72600000  0.12070000  1.0 0.0096449558
C  C14  1  0.05850000  0.79090000  0.12990000  1.0 -0.1120668388
C  C15  1  0.04360000  0.80850000  0.17430000  1.0 0.1123741825
C  C16  1  0.04880000  0.75500000  0.20250000  1.0 -0.05331161
C  C17  1  0.07150000  0.63360000  0.22120000  1.0 0.0937184656
C  C18  1  0.02040000  0.58390000  0.22010000  1.0 0.0344109385
C  C19  1  0.05290000  0.84630000  0.10190000  1.0 0.606358003
C  C20  1  0.96700000  0.58190000  0.19700000  1.0 -0.1337776658
C  C21  1  0.68930000  0.93420000  0.19330000  1.0 0.0708148187
C  C22  1  0.67180000  0.91920000  0.14890000  1.0 0.0096449558
C  C23  1  0.72600000  0.92450000  0.12070000  1.0 0.0096449558
C  C24  1  0.79090000  0.94150000  0.12990000  1.0 -0.1120668388
C  C25  1  0.80850000  0.95640000  0.17430000  1.0 0.1123741825
C  C26  1  0.75500000  0.95120000  0.20250000  1.0 -0.05331161
C  C27  1  0.63360000  0.92850000  0.22120000  1.0 0.0937184656
C  C28  1  0.58390000  0.97960000  0.22010000  1.0 0.0358095711
C  C29  1  0.84630000  0.94710000  0.10190000  1.0 0.606358003
C  C30  1  0.58190000  0.03300000  0.19700000  1.0 -0.1337776658
C  C31  1  0.31070000  0.06580000  0.19330000  1.0 0.0708148187
C  C32  1  0.32820000  0.08080000  0.14890000  1.0 0.0096449558
C  C33  1  0.27400000  0.07550000  0.12070000  1.0 0.0096449558
C  C34  1  0.20910000  0.05850000  0.12990000  1.0 -0.1120668388
C  C35  1  0.19150000  0.04360000  0.17430000  1.0 0.1123741825
C  C36  1  0.24500000  0.04880000  0.20250000  1.0 -0.05331161
C  C37  1  0.36640000  0.07150000  0.22120000  1.0 0.0937184656
C  C38  1  0.41610000  0.02040000  0.22010000  1.0 0.0344109385
C  C39  1  0.15370000  0.05290000  0.10190000  1.0 0.606358003
C  C40  1  0.41810000  0.96700000  0.19700000  1.0 -0.1337776658
C  C41  1  0.56580000  0.81070000  0.30670000  1.0 0.0708148187
C  C42  1  0.58080000  0.82820000  0.35110000  1.0 0.0096449558
C  C43  1  0.57550000  0.77400000  0.37930000  1.0 0.0096449558
C  C44  1  0.55850000  0.70910000  0.37010000  1.0 -0.1120668388
C  C45  1  0.54360000  0.69150000  0.32570000  1.0 0.1123741825
C  C46  1  0.54880000  0.74500000  0.29750000  1.0 -0.05331161
C  C47  1  0.57150000  0.86640000  0.27880000  1.0 0.0937184656
C  C48  1  0.52040000  0.91610000  0.27990000  1.0 0.0358095711
C  C49  1  0.55290000  0.65370000  0.39810000  1.0 0.606358003
C  C50  1  0.46700000  0.91810000  0.30300000  1.0 -0.1337776658
C  C51  1  0.43420000  0.18930000  0.30670000  1.0 0.0708148187
C  C52  1  0.41920000  0.17180000  0.35110000  1.0 0.0096449558
C  C53  1  0.42450000  0.22600000  0.37930000  1.0 0.0096449558
C  C54  1  0.44150000  0.29090000  0.37010000  1.0 -0.1120668388
C  C55  1  0.45640000  0.30850000  0.32570000  1.0 0.1123741825
C  C56  1  0.45120000  0.25500000  0.29750000  1.0 -0.05331161
C  C57  1  0.42850000  0.13360000  0.27880000  1.0 0.0937184656
C  C58  1  0.47960000  0.08390000  0.27990000  1.0 0.0344109385
C  C59  1  0.44710000  0.34630000  0.39810000  1.0 0.606358003
C  C60  1  0.53300000  0.08190000  0.30300000  1.0 -0.1337776658
C  C61  1  0.81070000  0.43420000  0.30670000  1.0 0.0708148187
C  C62  1  0.82820000  0.41920000  0.35110000  1.0 0.0096449558
C  C63  1  0.77400000  0.42450000  0.37930000  1.0 0.0096449558
C  C64  1  0.70910000  0.44150000  0.37010000  1.0 -0.1120668388
C  C65  1  0.69150000  0.45640000  0.32570000  1.0 0.1123741825
C  C66  1  0.74500000  0.45120000  0.29750000  1.0 -0.05331161
C  C67  1  0.86640000  0.42850000  0.27880000  1.0 0.0937184656
C  C68  1  0.91610000  0.47960000  0.27990000  1.0 0.0358095711
C  C69  1  0.65370000  0.44710000  0.39810000  1.0 0.606358003
C  C70  1  0.91810000  0.53300000  0.30300000  1.0 -0.1337776658
C  C71  1  0.18930000  0.56580000  0.30670000  1.0 0.0708148187
C  C72  1  0.17180000  0.58080000  0.35110000  1.0 0.0096449558
C  C73  1  0.22600000  0.57550000  0.37930000  1.0 0.0096449558
C  C74  1  0.29090000  0.55850000  0.37010000  1.0 -0.1120668388
C  C75  1  0.30850000  0.54360000  0.32570000  1.0 0.1123741825
C  C76  1  0.25500000  0.54880000  0.29750000  1.0 -0.05331161
C  C77  1  0.13360000  0.57150000  0.27880000  1.0 0.0937184656
C  C78  1  0.08390000  0.52040000  0.27990000  1.0 0.0344109385
C  C79  1  0.34630000  0.55290000  0.39810000  1.0 0.606358003
C  C80  1  0.08190000  0.46700000  0.30300000  1.0 -0.1337776658
C  C81  1  0.06580000  0.68930000  0.80670000  1.0 0.0708148187
C  C82  1  0.08080000  0.67180000  0.85110000  1.0 0.0096449558
C  C83  1  0.07550000  0.72600000  0.87930000  1.0 0.0096449558
C  C84  1  0.05850000  0.79090000  0.87010000  1.0 -0.1120668388
C  C85  1  0.04360000  0.80850000  0.82570000  1.0 0.1123741825
C  C86  1  0.04880000  0.75500000  0.79750000  1.0 -0.05331161
C  C87  1  0.07150000  0.63360000  0.77880000  1.0 0.0937184656
C  C88  1  0.02040000  0.58390000  0.77990000  1.0 0.0344109385
C  C89  1  0.05290000  0.84630000  0.89810000  1.0 0.606358003
C  C90  1  0.96700000  0.58190000  0.80300000  1.0 -0.1337776658
C  C91  1  0.93420000  0.31070000  0.80670000  1.0 0.0708148187
C  C92  1  0.91920000  0.32820000  0.85110000  1.0 0.0096449558
C  C93  1  0.92450000  0.27400000  0.87930000  1.0 0.0096449558
C  C94  1  0.94150000  0.20910000  0.87010000  1.0 -0.1120668388
C  C95  1  0.95640000  0.19150000  0.82570000  1.0 0.1123741825
C  C96  1  0.95120000  0.24500000  0.79750000  1.0 -0.05331161
C  C97  1  0.92850000  0.36640000  0.77880000  1.0 0.0937184656
C  C98  1  0.97960000  0.41610000  0.77990000  1.0 0.0358095711
C  C99  1  0.94710000  0.15370000  0.89810000  1.0 0.606358003
C  C100  1  0.03300000  0.41810000  0.80300000  1.0 -0.1337776658
C  C101  1  0.31070000  0.06580000  0.80670000  1.0 0.0708148187
C  C102  1  0.32820000  0.08080000  0.85110000  1.0 0.0096449558
C  C103  1  0.27400000  0.07550000  0.87930000  1.0 0.0096449558
C  C104  1  0.20910000  0.05850000  0.87010000  1.0 -0.1120668388
C  C105  1  0.19150000  0.04360000  0.82570000  1.0 0.1123741825
C  C106  1  0.24500000  0.04880000  0.79750000  1.0 -0.05331161
C  C107  1  0.36640000  0.07150000  0.77880000  1.0 0.0937184656
C  C108  1  0.41610000  0.02040000  0.77990000  1.0 0.0344109385
C  C109  1  0.15370000  0.05290000  0.89810000  1.0 0.606358003
C  C110  1  0.41810000  0.96700000  0.80300000  1.0 -0.1337776658
C  C111  1  0.68930000  0.93420000  0.80670000  1.0 0.0708148187
C  C112  1  0.67180000  0.91920000  0.85110000  1.0 0.0096449558
C  C113  1  0.72600000  0.92450000  0.87930000  1.0 0.0096449558
C  C114  1  0.79090000  0.94150000  0.87010000  1.0 -0.1120668388
C  C115  1  0.80850000  0.95640000  0.82570000  1.0 0.1123741825
C  C116  1  0.75500000  0.95120000  0.79750000  1.0 -0.05331161
C  C117  1  0.63360000  0.92850000  0.77880000  1.0 0.0937184656
C  C118  1  0.58390000  0.97960000  0.77990000  1.0 0.0358095711
C  C119  1  0.84630000  0.94710000  0.89810000  1.0 0.606358003
C  C120  1  0.58190000  0.03300000  0.80300000  1.0 -0.1337776658
C  C121  1  0.43420000  0.18930000  0.69330000  1.0 0.0708148187
C  C122  1  0.41920000  0.17180000  0.64890000  1.0 0.0096449558
C  C123  1  0.42450000  0.22600000  0.62070000  1.0 0.0096449558
C  C124  1  0.44150000  0.29090000  0.62990000  1.0 -0.1120668388
C  C125  1  0.45640000  0.30850000  0.67430000  1.0 0.1123741825
C  C126  1  0.45120000  0.25500000  0.70250000  1.0 -0.05331161
C  C127  1  0.42850000  0.13360000  0.72120000  1.0 0.0937184656
C  C128  1  0.47960000  0.08390000  0.72010000  1.0 0.0344109385
C  C129  1  0.44710000  0.34630000  0.60190000  1.0 0.606358003
C  C130  1  0.53300000  0.08190000  0.69700000  1.0 -0.1337776658
C  C131  1  0.56580000  0.81070000  0.69330000  1.0 0.0708148187
C  C132  1  0.58080000  0.82820000  0.64890000  1.0 0.0096449558
C  C133  1  0.57550000  0.77400000  0.62070000  1.0 0.0096449558
C  C134  1  0.55850000  0.70910000  0.62990000  1.0 -0.1120668388
C  C135  1  0.54360000  0.69150000  0.67430000  1.0 0.1123741825
C  C136  1  0.54880000  0.74500000  0.70250000  1.0 -0.05331161
C  C137  1  0.57150000  0.86640000  0.72120000  1.0 0.0937184656
C  C138  1  0.52040000  0.91610000  0.72010000  1.0 0.0358095711
C  C139  1  0.55290000  0.65370000  0.60190000  1.0 0.606358003
C  C140  1  0.46700000  0.91810000  0.69700000  1.0 -0.1337776658
C  C141  1  0.18930000  0.56580000  0.69330000  1.0 0.0708148187
C  C142  1  0.17180000  0.58080000  0.64890000  1.0 0.0096449558
C  C143  1  0.22600000  0.57550000  0.62070000  1.0 0.0096449558
C  C144  1  0.29090000  0.55850000  0.62990000  1.0 -0.1120668388
C  C145  1  0.30850000  0.54360000  0.67430000  1.0 0.1123741825
C  C146  1  0.25500000  0.54880000  0.70250000  1.0 -0.05331161
C  C147  1  0.13360000  0.57150000  0.72120000  1.0 0.0937184656
C  C148  1  0.08390000  0.52040000  0.72010000  1.0 0.0344109385
C  C149  1  0.34630000  0.55290000  0.60190000  1.0 0.606358003
C  C150  1  0.08190000  0.46700000  0.69700000  1.0 -0.1337776658
C  C151  1  0.81070000  0.43420000  0.69330000  1.0 0.0708148187
C  C152  1  0.82820000  0.41920000  0.64890000  1.0 0.0096449558
C  C153  1  0.77400000  0.42450000  0.62070000  1.0 0.0096449558
C  C154  1  0.70910000  0.44150000  0.62990000  1.0 -0.1120668388
C  C155  1  0.69150000  0.45640000  0.67430000  1.0 0.1123741825
C  C156  1  0.74500000  0.45120000  0.70250000  1.0 -0.05331161
C  C157  1  0.86640000  0.42850000  0.72120000  1.0 0.0937184656
C  C158  1  0.91610000  0.47960000  0.72010000  1.0 0.0358095711
C  C159  1  0.65370000  0.44710000  0.60190000  1.0 0.606358003
C  C160  1  0.91810000  0.53300000  0.69700000  1.0 -0.1337776658
C  C161  1  0.97500000  0.47500000  0.25000000  1.0 0.0984039047
C  C162  1  0.87360000  0.37360000  0.25000000  1.0 0.0040612444
C  C163  1  0.82390000  0.32390000  0.25000000  1.0 -0.1899971179
C  C164  1  0.02500000  0.52500000  0.25000000  1.0 0.0984039047
C  C165  1  0.12640000  0.62640000  0.25000000  1.0 0.0040612444
C  C166  1  0.17610000  0.67610000  0.25000000  1.0 -0.1899971179
C  C167  1  0.52500000  0.97500000  0.25000000  1.0 0.0984039047
C  C168  1  0.62640000  0.87360000  0.25000000  1.0 0.0040612444
C  C169  1  0.67610000  0.82390000  0.25000000  1.0 -0.1899971179
C  C170  1  0.47500000  0.02500000  0.25000000  1.0 0.0984039047
C  C171  1  0.37360000  0.12640000  0.25000000  1.0 0.0040612444
C  C172  1  0.32390000  0.17610000  0.25000000  1.0 -0.1899971179
C  C173  1  0.02500000  0.52500000  0.75000000  1.0 0.0984039047
C  C174  1  0.12640000  0.62640000  0.75000000  1.0 0.0040612444
C  C175  1  0.17610000  0.67610000  0.75000000  1.0 -0.1899971179
C  C176  1  0.97500000  0.47500000  0.75000000  1.0 0.0984039047
C  C177  1  0.87360000  0.37360000  0.75000000  1.0 0.0040612444
C  C178  1  0.82390000  0.32390000  0.75000000  1.0 -0.1899971179
C  C179  1  0.47500000  0.02500000  0.75000000  1.0 0.0984039047
C  C180  1  0.37360000  0.12640000  0.75000000  1.0 0.0040612444
C  C181  1  0.32390000  0.17610000  0.75000000  1.0 -0.1899971179
C  C182  1  0.52500000  0.97500000  0.75000000  1.0 0.0984039047
C  C183  1  0.62640000  0.87360000  0.75000000  1.0 0.0040612444
C  C184  1  0.67610000  0.82390000  0.75000000  1.0 -0.1899971179
O  O1  1  0.97310000  0.08840000  0.11110000  1.0 -0.5070779583
O  O2  1  0.92220000  0.04170000  0.03580000  1.0 -0.6889532207
O  O3  1  0.94050000  0.16840000  0.05920000  1.0 -0.5313855147
O  O4  1  0.02690000  0.91160000  0.11110000  1.0 -0.5070779583
O  O5  1  0.07780000  0.95830000  0.03580000  1.0 -0.6889532207
O  O6  1  0.05950000  0.83160000  0.05920000  1.0 -0.5313855147
O  O7  1  0.91160000  0.97310000  0.11110000  1.0 -0.5070779583
O  O8  1  0.95830000  0.92220000  0.03580000  1.0 -0.6889532207
O  O9  1  0.83160000  0.94050000  0.05920000  1.0 -0.5313855147
O  O10  1  0.08840000  0.02690000  0.11110000  1.0 -0.5070779583
O  O11  1  0.04170000  0.07780000  0.03580000  1.0 -0.6889532207
O  O12  1  0.16840000  0.05950000  0.05920000  1.0 -0.5313855147
O  O13  1  0.52690000  0.58840000  0.38890000  1.0 -0.5070779583
O  O14  1  0.57780000  0.54170000  0.46420000  1.0 -0.6889532207
O  O15  1  0.55950000  0.66840000  0.44080000  1.0 -0.5313855147
O  O16  1  0.47310000  0.41160000  0.38890000  1.0 -0.5070779583
O  O17  1  0.42220000  0.45830000  0.46420000  1.0 -0.6889532207
O  O18  1  0.44050000  0.33160000  0.44080000  1.0 -0.5313855147
O  O19  1  0.58840000  0.47310000  0.38890000  1.0 -0.5070779583
O  O20  1  0.54170000  0.42220000  0.46420000  1.0 -0.6889532207
O  O21  1  0.66840000  0.44050000  0.44080000  1.0 -0.5313855147
O  O22  1  0.41160000  0.52690000  0.38890000  1.0 -0.5070779583
O  O23  1  0.45830000  0.57780000  0.46420000  1.0 -0.6889532207
O  O24  1  0.33160000  0.55950000  0.44080000  1.0 -0.5313855147
O  O25  1  0.02690000  0.91160000  0.88890000  1.0 -0.5070779583
O  O26  1  0.07780000  0.95830000  0.96420000  1.0 -0.6889532207
O  O27  1  0.05950000  0.83160000  0.94080000  1.0 -0.5313855147
O  O28  1  0.97310000  0.08840000  0.88890000  1.0 -0.5070779583
O  O29  1  0.92220000  0.04170000  0.96420000  1.0 -0.6889532207
O  O30  1  0.94050000  0.16840000  0.94080000  1.0 -0.5313855147
O  O31  1  0.08840000  0.02690000  0.88890000  1.0 -0.5070779583
O  O32  1  0.04170000  0.07780000  0.96420000  1.0 -0.6889532207
O  O33  1  0.16840000  0.05950000  0.94080000  1.0 -0.5313855147
O  O34  1  0.91160000  0.97310000  0.88890000  1.0 -0.5070779583
O  O35  1  0.95830000  0.92220000  0.96420000  1.0 -0.6889532207
O  O36  1  0.83160000  0.94050000  0.94080000  1.0 -0.5313855147
O  O37  1  0.47310000  0.41160000  0.61110000  1.0 -0.5070779583
O  O38  1  0.42220000  0.45830000  0.53580000  1.0 -0.6889532207
O  O39  1  0.44050000  0.33160000  0.55920000  1.0 -0.5313855147
O  O40  1  0.52690000  0.58840000  0.61110000  1.0 -0.5070779583
O  O41  1  0.57780000  0.54170000  0.53580000  1.0 -0.6889532207
O  O42  1  0.55950000  0.66840000  0.55920000  1.0 -0.5313855147
O  O43  1  0.41160000  0.52690000  0.61110000  1.0 -0.5070779583
O  O44  1  0.45830000  0.57780000  0.53580000  1.0 -0.6889532207
O  O45  1  0.33160000  0.55950000  0.55920000  1.0 -0.5313855147
O  O46  1  0.58840000  0.47310000  0.61110000  1.0 -0.5070779583
O  O47  1  0.54170000  0.42220000  0.53580000  1.0 -0.6889532207
O  O48  1  0.66840000  0.44050000  0.55920000  1.0 -0.5313855147
