# DDEC6 charges by PACMAN v1.1 (https://github.com/mtap-research/PACMAN-charge/)
data_NEVDEA_ASR_pacman
_symmetry_space_group_name_H-M   'P 1'
_cell_length_a   19.00420000
_cell_length_b   19.00420000
_cell_length_c   33.15200000
_cell_angle_alpha   90.00000000
_cell_angle_beta   90.00000000
_cell_angle_gamma   90.00000000
_symmetry_Int_Tables_number   1
_chemical_formula_structural   Zr3H40(C23O6)2
_chemical_formula_sum   'Zr12 H160 C184 O48'
_cell_volume   11973.16364400
_cell_formula_units_Z   4
loop_
 _symmetry_equiv_pos_site_id
 _symmetry_equiv_pos_as_xyz
  1  'x, y, z'
loop_
 _atom_site_type_symbol
 _atom_site_label
 _atom_site_symmetry_multiplicity
 _atom_site_fract_x
 _atom_site_fract_y
 _atom_site_fract_z
 _atom_site_occupancy
 _atom_site_charge
Zr  Zr1  1  0.12426000  0.04460000  0.00000000  1.0 2.5008590741
Zr  Zr2  1  0.87574000  0.95540000  0.00000000  1.0 2.5008590741
Zr  Zr3  1  0.95540000  0.12426000  0.00000000  1.0 2.5008590741
Zr  Zr4  1  0.04460000  0.87574000  0.00000000  1.0 2.5008590741
Zr  Zr5  1  0.37574000  0.54460000  0.50000000  1.0 2.4908444209
Zr  Zr6  1  0.62426000  0.45540000  0.50000000  1.0 2.4908444209
Zr  Zr7  1  0.54460000  0.62426000  0.50000000  1.0 2.4908444209
Zr  Zr8  1  0.45540000  0.37574000  0.50000000  1.0 2.4908444209
Zr  Zr9  1  0.00000000  0.00000000  0.07354000  1.0 2.3851395173
Zr  Zr10  1  0.50000000  0.50000000  0.42646000  1.0 2.3835151715
Zr  Zr11  1  0.00000000  0.00000000  0.92646000  1.0 2.3851395173
Zr  Zr12  1  0.50000000  0.50000000  0.57354000  1.0 2.3835151715
H  H1  1  0.96590000  0.15030000  0.17520000  1.0 0.1196622929
H  H2  1  0.95370000  0.22540000  0.23100000  1.0 0.1314319624
H  H3  1  0.04250000  0.45830000  0.18200000  1.0 0.1196622929
H  H4  1  0.02280000  0.38020000  0.17180000  1.0 0.1196622929
H  H5  1  0.07590000  0.39650000  0.20670000  1.0 0.1314319624
H  H6  1  0.90450000  0.29190000  0.09160000  1.0 0.1115833444
H  H7  1  0.89160000  0.36740000  0.14690000  1.0 0.1196622929
H  H8  1  0.82050000  0.27940000  0.22840000  1.0 0.0206075727
H  H9  1  0.81280000  0.28710000  0.27520000  1.0 0.025882226
H  H10  1  0.76660000  0.33340000  0.24640000  1.0 0.0206075727
H  H11  1  0.03410000  0.84970000  0.17520000  1.0 0.1196622929
H  H12  1  0.04630000  0.77460000  0.23100000  1.0 0.1314319624
H  H13  1  0.95750000  0.54170000  0.18200000  1.0 0.1196622929
H  H14  1  0.97720000  0.61980000  0.17180000  1.0 0.1196622929
H  H15  1  0.92410000  0.60350000  0.20670000  1.0 0.1314319624
H  H16  1  0.09550000  0.70810000  0.09160000  1.0 0.1115833444
H  H17  1  0.10840000  0.63260000  0.14690000  1.0 0.1314319624
H  H18  1  0.17950000  0.72060000  0.22840000  1.0 0.0206075727
H  H19  1  0.18720000  0.71290000  0.27520000  1.0 0.0206075727
H  H20  1  0.23340000  0.66666667  0.24640000  1.0 0.0206075727
H  H21  1  0.84970000  0.96590000  0.17520000  1.0 0.1196622929
H  H22  1  0.77460000  0.95370000  0.23100000  1.0 0.1314319624
H  H23  1  0.54170000  0.04250000  0.18200000  1.0 0.1196622929
H  H24  1  0.61980000  0.02280000  0.17180000  1.0 0.1196622929
H  H25  1  0.60350000  0.07590000  0.20670000  1.0 0.1314319624
H  H26  1  0.70810000  0.90450000  0.09160000  1.0 0.1115833444
H  H27  1  0.63260000  0.89160000  0.14690000  1.0 0.1314319624
H  H28  1  0.72060000  0.82050000  0.22840000  1.0 0.0206075727
H  H29  1  0.71290000  0.81280000  0.27520000  1.0 0.025882226
H  H30  1  0.66666667  0.76660000  0.24640000  1.0 0.0206075727
H  H31  1  0.15030000  0.03410000  0.17520000  1.0 0.1196622929
H  H32  1  0.22540000  0.04630000  0.23100000  1.0 0.1314319624
H  H33  1  0.45830000  0.95750000  0.18200000  1.0 0.1196622929
H  H34  1  0.38020000  0.97720000  0.17180000  1.0 0.1196622929
H  H35  1  0.39650000  0.92410000  0.20670000  1.0 0.1314319624
H  H36  1  0.29190000  0.09550000  0.09160000  1.0 0.1115833444
H  H37  1  0.36740000  0.10840000  0.14690000  1.0 0.1314319624
H  H38  1  0.27940000  0.17950000  0.22840000  1.0 0.0206075727
H  H39  1  0.28710000  0.18720000  0.27520000  1.0 0.0206075727
H  H40  1  0.33340000  0.23340000  0.24640000  1.0 0.0206075727
H  H41  1  0.53410000  0.65030000  0.32480000  1.0 0.1196622929
H  H42  1  0.54630000  0.72540000  0.26900000  1.0 0.1314319624
H  H43  1  0.45750000  0.95830000  0.31800000  1.0 0.1196622929
H  H44  1  0.47720000  0.88020000  0.32820000  1.0 0.1196622929
H  H45  1  0.42410000  0.89650000  0.29330000  1.0 0.1314319624
H  H46  1  0.59550000  0.79190000  0.40840000  1.0 0.1115833444
H  H47  1  0.60840000  0.86740000  0.35310000  1.0 0.1196622929
H  H48  1  0.67950000  0.77940000  0.27160000  1.0 0.0206075727
H  H49  1  0.68720000  0.78710000  0.22480000  1.0 0.025882226
H  H50  1  0.73340000  0.83340000  0.25360000  1.0 0.0206075727
H  H51  1  0.46590000  0.34970000  0.32480000  1.0 0.1196622929
H  H52  1  0.45370000  0.27460000  0.26900000  1.0 0.1314319624
H  H53  1  0.54250000  0.04170000  0.31800000  1.0 0.1196622929
H  H54  1  0.52280000  0.11980000  0.32820000  1.0 0.1196622929
H  H55  1  0.57590000  0.10350000  0.29330000  1.0 0.1314319624
H  H56  1  0.40450000  0.20810000  0.40840000  1.0 0.1115833444
H  H57  1  0.39160000  0.13260000  0.35310000  1.0 0.1196622929
H  H58  1  0.32050000  0.22060000  0.27160000  1.0 0.0206075727
H  H59  1  0.31280000  0.21290000  0.22480000  1.0 0.0206075727
H  H60  1  0.26660000  0.16660000  0.25360000  1.0 0.0206075727
H  H61  1  0.65030000  0.46590000  0.32480000  1.0 0.1196622929
H  H62  1  0.72540000  0.45370000  0.26900000  1.0 0.1314319624
H  H63  1  0.95830000  0.54250000  0.31800000  1.0 0.1196622929
H  H64  1  0.88020000  0.52280000  0.32820000  1.0 0.1196622929
H  H65  1  0.89650000  0.57590000  0.29330000  1.0 0.1314319624
H  H66  1  0.79190000  0.40450000  0.40840000  1.0 0.1115833444
H  H67  1  0.86740000  0.39160000  0.35310000  1.0 0.1196622929
H  H68  1  0.77940000  0.32050000  0.27160000  1.0 0.0206075727
H  H69  1  0.78710000  0.31280000  0.22480000  1.0 0.025882226
H  H70  1  0.83340000  0.26660000  0.25360000  1.0 0.0206075727
H  H71  1  0.34970000  0.53410000  0.32480000  1.0 0.1196622929
H  H72  1  0.27460000  0.54630000  0.26900000  1.0 0.1314319624
H  H73  1  0.04170000  0.45750000  0.31800000  1.0 0.1196622929
H  H74  1  0.11980000  0.47720000  0.32820000  1.0 0.1196622929
H  H75  1  0.10350000  0.42410000  0.29330000  1.0 0.1314319624
H  H76  1  0.20810000  0.59550000  0.40840000  1.0 0.1115833444
H  H77  1  0.13260000  0.60840000  0.35310000  1.0 0.1314319624
H  H78  1  0.22060000  0.67950000  0.27160000  1.0 0.0206075727
H  H79  1  0.21290000  0.68720000  0.22480000  1.0 0.0206075727
H  H80  1  0.16660000  0.73340000  0.25360000  1.0 0.0206075727
H  H81  1  0.03410000  0.84970000  0.82480000  1.0 0.1196622929
H  H82  1  0.04630000  0.77460000  0.76900000  1.0 0.1314319624
H  H83  1  0.95750000  0.54170000  0.81800000  1.0 0.1196622929
H  H84  1  0.97720000  0.61980000  0.82820000  1.0 0.1196622929
H  H85  1  0.92410000  0.60350000  0.79330000  1.0 0.1314319624
H  H86  1  0.09550000  0.70810000  0.90840000  1.0 0.1115833444
H  H87  1  0.10840000  0.63260000  0.85310000  1.0 0.1314319624
H  H88  1  0.17950000  0.72060000  0.77160000  1.0 0.0139121556
H  H89  1  0.18720000  0.71290000  0.72480000  1.0 0.0206075727
H  H90  1  0.23340000  0.66666667  0.75360000  1.0 0.0206075727
H  H91  1  0.96590000  0.15030000  0.82480000  1.0 0.1196622929
H  H92  1  0.95370000  0.22540000  0.76900000  1.0 0.1314319624
H  H93  1  0.04250000  0.45830000  0.81800000  1.0 0.1196622929
H  H94  1  0.02280000  0.38020000  0.82820000  1.0 0.1196622929
H  H95  1  0.07590000  0.39650000  0.79330000  1.0 0.1314319624
H  H96  1  0.90450000  0.29190000  0.90840000  1.0 0.1115833444
H  H97  1  0.89160000  0.36740000  0.85310000  1.0 0.1196622929
H  H98  1  0.82050000  0.27940000  0.77160000  1.0 0.0139121556
H  H99  1  0.81280000  0.28710000  0.72480000  1.0 0.025882226
H  H100  1  0.76660000  0.33340000  0.75360000  1.0 0.0206075727
H  H101  1  0.15030000  0.03410000  0.82480000  1.0 0.1196622929
H  H102  1  0.22540000  0.04630000  0.76900000  1.0 0.1314319624
H  H103  1  0.45830000  0.95750000  0.81800000  1.0 0.1196622929
H  H104  1  0.38020000  0.97720000  0.82820000  1.0 0.1196622929
H  H105  1  0.39650000  0.92410000  0.79330000  1.0 0.1314319624
H  H106  1  0.29190000  0.09550000  0.90840000  1.0 0.1115833444
H  H107  1  0.36740000  0.10840000  0.85310000  1.0 0.1314319624
H  H108  1  0.27940000  0.17950000  0.77160000  1.0 0.0139121556
H  H109  1  0.28710000  0.18720000  0.72480000  1.0 0.025882226
H  H110  1  0.33340000  0.23340000  0.75360000  1.0 0.0206075727
H  H111  1  0.84970000  0.96590000  0.82480000  1.0 0.1196622929
H  H112  1  0.77460000  0.95370000  0.76900000  1.0 0.1314319624
H  H113  1  0.54170000  0.04250000  0.81800000  1.0 0.1196622929
H  H114  1  0.61980000  0.02280000  0.82820000  1.0 0.1196622929
H  H115  1  0.60350000  0.07590000  0.79330000  1.0 0.1314319624
H  H116  1  0.70810000  0.90450000  0.90840000  1.0 0.1115833444
H  H117  1  0.63260000  0.89160000  0.85310000  1.0 0.1314319624
H  H118  1  0.72060000  0.82050000  0.77160000  1.0 0.0139121556
H  H119  1  0.71290000  0.81280000  0.72480000  1.0 0.025882226
H  H120  1  0.66666667  0.76660000  0.75360000  1.0 0.0206075727
H  H121  1  0.46590000  0.34970000  0.67520000  1.0 0.1196622929
H  H122  1  0.45370000  0.27460000  0.73100000  1.0 0.1314319624
H  H123  1  0.54250000  0.04170000  0.68200000  1.0 0.1196622929
H  H124  1  0.52280000  0.11980000  0.67180000  1.0 0.1196622929
H  H125  1  0.57590000  0.10350000  0.70670000  1.0 0.1314319624
H  H126  1  0.40450000  0.20810000  0.59160000  1.0 0.1115833444
H  H127  1  0.39160000  0.13260000  0.64690000  1.0 0.1196622929
H  H128  1  0.32050000  0.22060000  0.72840000  1.0 0.0206075727
H  H129  1  0.31280000  0.21290000  0.77520000  1.0 0.025882226
H  H130  1  0.26660000  0.16660000  0.74640000  1.0 0.0206075727
H  H131  1  0.53410000  0.65030000  0.67520000  1.0 0.1196622929
H  H132  1  0.54630000  0.72540000  0.73100000  1.0 0.1314319624
H  H133  1  0.45750000  0.95830000  0.68200000  1.0 0.1196622929
H  H134  1  0.47720000  0.88020000  0.67180000  1.0 0.1196622929
H  H135  1  0.42410000  0.89650000  0.70670000  1.0 0.1314319624
H  H136  1  0.59550000  0.79190000  0.59160000  1.0 0.1115833444
H  H137  1  0.60840000  0.86740000  0.64690000  1.0 0.1196622929
H  H138  1  0.67950000  0.77940000  0.72840000  1.0 0.0206075727
H  H139  1  0.68720000  0.78710000  0.77520000  1.0 0.025882226
H  H140  1  0.73340000  0.83340000  0.74640000  1.0 0.0206075727
H  H141  1  0.34970000  0.53410000  0.67520000  1.0 0.1196622929
H  H142  1  0.27460000  0.54630000  0.73100000  1.0 0.1314319624
H  H143  1  0.04170000  0.45750000  0.68200000  1.0 0.1196622929
H  H144  1  0.11980000  0.47720000  0.67180000  1.0 0.1196622929
H  H145  1  0.10350000  0.42410000  0.70670000  1.0 0.1314319624
H  H146  1  0.20810000  0.59550000  0.59160000  1.0 0.1115833444
H  H147  1  0.13260000  0.60840000  0.64690000  1.0 0.1314319624
H  H148  1  0.22060000  0.67950000  0.72840000  1.0 0.0206075727
H  H149  1  0.21290000  0.68720000  0.77520000  1.0 0.0206075727
H  H150  1  0.16660000  0.73340000  0.74640000  1.0 0.0206075727
H  H151  1  0.65030000  0.46590000  0.67520000  1.0 0.1196622929
H  H152  1  0.72540000  0.45370000  0.73100000  1.0 0.1314319624
H  H153  1  0.95830000  0.54250000  0.68200000  1.0 0.1196622929
H  H154  1  0.88020000  0.52280000  0.67180000  1.0 0.1196622929
H  H155  1  0.89650000  0.57590000  0.70670000  1.0 0.1314319624
H  H156  1  0.79190000  0.40450000  0.59160000  1.0 0.1115833444
H  H157  1  0.86740000  0.39160000  0.64690000  1.0 0.1196622929
H  H158  1  0.77940000  0.32050000  0.72840000  1.0 0.0206075727
H  H159  1  0.78710000  0.31280000  0.77520000  1.0 0.025882226
H  H160  1  0.83340000  0.26660000  0.74640000  1.0 0.0206075727
C  C1  1  0.97380000  0.41580000  0.22280000  1.0 0.0528196956
C  C2  1  0.94990000  0.19580000  0.17040000  1.0 -0.0878145231
C  C3  1  0.94020000  0.15180000  0.10020000  1.0 0.6384471057
C  C4  1  0.94470000  0.23880000  0.20450000  1.0 -0.1188852969
C  C5  1  0.92050000  0.36570000  0.22110000  1.0 -0.0383341239
C  C6  1  0.03430000  0.41240000  0.19310000  1.0 -0.416165162
C  C7  1  0.93440000  0.21130000  0.13020000  1.0 -0.0383341239
C  C8  1  0.92370000  0.30570000  0.19170000  1.0 0.0598450716
C  C9  1  0.91340000  0.27840000  0.11810000  1.0 -0.1012109557
C  C10  1  0.90780000  0.32200000  0.15170000  1.0 -0.1146087052
C  C11  1  0.02620000  0.58420000  0.22280000  1.0 0.0528196956
C  C12  1  0.05010000  0.80420000  0.17040000  1.0 -0.0878145231
C  C13  1  0.05980000  0.84820000  0.10020000  1.0 0.6384471057
C  C14  1  0.05530000  0.76120000  0.20450000  1.0 -0.1188852969
C  C15  1  0.07950000  0.63430000  0.22110000  1.0 -0.0383341239
C  C16  1  0.96570000  0.58760000  0.19310000  1.0 -0.416165162
C  C17  1  0.06560000  0.78870000  0.13020000  1.0 -0.0383341239
C  C18  1  0.07630000  0.69430000  0.19170000  1.0 0.0598450716
C  C19  1  0.08660000  0.72160000  0.11810000  1.0 -0.1012109557
C  C20  1  0.09220000  0.67800000  0.15170000  1.0 -0.1188852969
C  C21  1  0.58420000  0.97380000  0.22280000  1.0 0.0528196956
C  C22  1  0.80420000  0.94990000  0.17040000  1.0 -0.0878145231
C  C23  1  0.84820000  0.94020000  0.10020000  1.0 0.6384471057
C  C24  1  0.76120000  0.94470000  0.20450000  1.0 -0.1188852969
C  C25  1  0.63430000  0.92050000  0.22110000  1.0 -0.0383341239
C  C26  1  0.58760000  0.03430000  0.19310000  1.0 -0.416165162
C  C27  1  0.78870000  0.93440000  0.13020000  1.0 -0.0383341239
C  C28  1  0.69430000  0.92370000  0.19170000  1.0 0.0598450716
C  C29  1  0.72160000  0.91340000  0.11810000  1.0 -0.1012109557
C  C30  1  0.67800000  0.90780000  0.15170000  1.0 -0.1146087052
C  C31  1  0.41580000  0.02620000  0.22280000  1.0 0.0528196956
C  C32  1  0.19580000  0.05010000  0.17040000  1.0 -0.0878145231
C  C33  1  0.15180000  0.05980000  0.10020000  1.0 0.6384471057
C  C34  1  0.23880000  0.05530000  0.20450000  1.0 -0.1188852969
C  C35  1  0.36570000  0.07950000  0.22110000  1.0 -0.0383341239
C  C36  1  0.41240000  0.96570000  0.19310000  1.0 -0.416165162
C  C37  1  0.21130000  0.06560000  0.13020000  1.0 -0.0383341239
C  C38  1  0.30570000  0.07630000  0.19170000  1.0 0.0598450716
C  C39  1  0.27840000  0.08660000  0.11810000  1.0 -0.1012109557
C  C40  1  0.32200000  0.09220000  0.15170000  1.0 -0.1188852969
C  C41  1  0.52620000  0.91580000  0.27720000  1.0 0.0528196956
C  C42  1  0.55010000  0.69580000  0.32960000  1.0 -0.0878145231
C  C43  1  0.55980000  0.65180000  0.39980000  1.0 0.6384471057
C  C44  1  0.55530000  0.73880000  0.29550000  1.0 -0.1188852969
C  C45  1  0.57950000  0.86570000  0.27890000  1.0 -0.0343855286
C  C46  1  0.46570000  0.91240000  0.30690000  1.0 -0.416165162
C  C47  1  0.56560000  0.71130000  0.36980000  1.0 -0.0383341239
C  C48  1  0.57630000  0.80570000  0.30830000  1.0 0.0598450716
C  C49  1  0.58660000  0.77840000  0.38190000  1.0 -0.1012109557
C  C50  1  0.59220000  0.82200000  0.34830000  1.0 -0.1146087052
C  C51  1  0.47380000  0.08420000  0.27720000  1.0 0.0528196956
C  C52  1  0.44990000  0.30420000  0.32960000  1.0 -0.0878145231
C  C53  1  0.44020000  0.34820000  0.39980000  1.0 0.6384471057
C  C54  1  0.44470000  0.26120000  0.29550000  1.0 -0.1188852969
C  C55  1  0.42050000  0.13430000  0.27890000  1.0 -0.0383341239
C  C56  1  0.53430000  0.08760000  0.30690000  1.0 -0.416165162
C  C57  1  0.43440000  0.28870000  0.36980000  1.0 -0.0383341239
C  C58  1  0.42370000  0.19430000  0.30830000  1.0 0.0598450716
C  C59  1  0.41340000  0.22160000  0.38190000  1.0 -0.1012109557
C  C60  1  0.40780000  0.17800000  0.34830000  1.0 -0.1146087052
C  C61  1  0.91580000  0.47380000  0.27720000  1.0 0.0528196956
C  C62  1  0.69580000  0.44990000  0.32960000  1.0 -0.0878145231
C  C63  1  0.65180000  0.44020000  0.39980000  1.0 0.6384471057
C  C64  1  0.73880000  0.44470000  0.29550000  1.0 -0.1188852969
C  C65  1  0.86570000  0.42050000  0.27890000  1.0 -0.0343855286
C  C66  1  0.91240000  0.53430000  0.30690000  1.0 -0.416165162
C  C67  1  0.71130000  0.43440000  0.36980000  1.0 -0.0383341239
C  C68  1  0.80570000  0.42370000  0.30830000  1.0 0.0598450716
C  C69  1  0.77840000  0.41340000  0.38190000  1.0 -0.1012109557
C  C70  1  0.82200000  0.40780000  0.34830000  1.0 -0.1146087052
C  C71  1  0.08420000  0.52620000  0.27720000  1.0 0.0528196956
C  C72  1  0.30420000  0.55010000  0.32960000  1.0 -0.0878145231
C  C73  1  0.34820000  0.55980000  0.39980000  1.0 0.6384471057
C  C74  1  0.26120000  0.55530000  0.29550000  1.0 -0.1188852969
C  C75  1  0.13430000  0.57950000  0.27890000  1.0 -0.0383341239
C  C76  1  0.08760000  0.46570000  0.30690000  1.0 -0.416165162
C  C77  1  0.28870000  0.56560000  0.36980000  1.0 -0.0383341239
C  C78  1  0.19430000  0.57630000  0.30830000  1.0 0.0598450716
C  C79  1  0.22160000  0.58660000  0.38190000  1.0 -0.1012109557
C  C80  1  0.17800000  0.59220000  0.34830000  1.0 -0.1146087052
C  C81  1  0.02620000  0.58420000  0.77720000  1.0 0.0528196956
C  C82  1  0.05010000  0.80420000  0.82960000  1.0 -0.0878145231
C  C83  1  0.05980000  0.84820000  0.89980000  1.0 0.6384471057
C  C84  1  0.05530000  0.76120000  0.79550000  1.0 -0.1188852969
C  C85  1  0.07950000  0.63430000  0.77890000  1.0 -0.0383341239
C  C86  1  0.96570000  0.58760000  0.80690000  1.0 -0.416165162
C  C87  1  0.06560000  0.78870000  0.86980000  1.0 -0.0383341239
C  C88  1  0.07630000  0.69430000  0.80830000  1.0 0.0598450716
C  C89  1  0.08660000  0.72160000  0.88190000  1.0 -0.1012109557
C  C90  1  0.09220000  0.67800000  0.84830000  1.0 -0.1188852969
C  C91  1  0.97380000  0.41580000  0.77720000  1.0 0.0528196956
C  C92  1  0.94990000  0.19580000  0.82960000  1.0 -0.0878145231
C  C93  1  0.94020000  0.15180000  0.89980000  1.0 0.6384471057
C  C94  1  0.94470000  0.23880000  0.79550000  1.0 -0.1188852969
C  C95  1  0.92050000  0.36570000  0.77890000  1.0 -0.0383341239
C  C96  1  0.03430000  0.41240000  0.80690000  1.0 -0.416165162
C  C97  1  0.93440000  0.21130000  0.86980000  1.0 -0.0383341239
C  C98  1  0.92370000  0.30570000  0.80830000  1.0 0.0598450716
C  C99  1  0.91340000  0.27840000  0.88190000  1.0 -0.1012109557
C  C100  1  0.90780000  0.32200000  0.84830000  1.0 -0.1188852969
C  C101  1  0.41580000  0.02620000  0.77720000  1.0 0.0528196956
C  C102  1  0.19580000  0.05010000  0.82960000  1.0 -0.0878145231
C  C103  1  0.15180000  0.05980000  0.89980000  1.0 0.6384471057
C  C104  1  0.23880000  0.05530000  0.79550000  1.0 -0.1188852969
C  C105  1  0.36570000  0.07950000  0.77890000  1.0 -0.0383341239
C  C106  1  0.41240000  0.96570000  0.80690000  1.0 -0.416165162
C  C107  1  0.21130000  0.06560000  0.86980000  1.0 -0.0383341239
C  C108  1  0.30570000  0.07630000  0.80830000  1.0 0.0598450716
C  C109  1  0.27840000  0.08660000  0.88190000  1.0 -0.1012109557
C  C110  1  0.32200000  0.09220000  0.84830000  1.0 -0.1188852969
C  C111  1  0.58420000  0.97380000  0.77720000  1.0 0.0528196956
C  C112  1  0.80420000  0.94990000  0.82960000  1.0 -0.0878145231
C  C113  1  0.84820000  0.94020000  0.89980000  1.0 0.6384471057
C  C114  1  0.76120000  0.94470000  0.79550000  1.0 -0.1188852969
C  C115  1  0.63430000  0.92050000  0.77890000  1.0 -0.0383341239
C  C116  1  0.58760000  0.03430000  0.80690000  1.0 -0.416165162
C  C117  1  0.78870000  0.93440000  0.86980000  1.0 -0.0383341239
C  C118  1  0.69430000  0.92370000  0.80830000  1.0 0.0598450716
C  C119  1  0.72160000  0.91340000  0.88190000  1.0 -0.1012109557
C  C120  1  0.67800000  0.90780000  0.84830000  1.0 -0.1188852969
C  C121  1  0.47380000  0.08420000  0.72280000  1.0 0.0528196956
C  C122  1  0.44990000  0.30420000  0.67040000  1.0 -0.0878145231
C  C123  1  0.44020000  0.34820000  0.60020000  1.0 0.6384471057
C  C124  1  0.44470000  0.26120000  0.70450000  1.0 -0.1251115279
C  C125  1  0.42050000  0.13430000  0.72110000  1.0 -0.0383341239
C  C126  1  0.53430000  0.08760000  0.69310000  1.0 -0.416165162
C  C127  1  0.43440000  0.28870000  0.63020000  1.0 -0.0383341239
C  C128  1  0.42370000  0.19430000  0.69170000  1.0 0.0598450716
C  C129  1  0.41340000  0.22160000  0.61810000  1.0 -0.1012109557
C  C130  1  0.40780000  0.17800000  0.65170000  1.0 -0.1188852969
C  C131  1  0.52620000  0.91580000  0.72280000  1.0 0.0528196956
C  C132  1  0.55010000  0.69580000  0.67040000  1.0 -0.0878145231
C  C133  1  0.55980000  0.65180000  0.60020000  1.0 0.6384471057
C  C134  1  0.55530000  0.73880000  0.70450000  1.0 -0.1251115279
C  C135  1  0.57950000  0.86570000  0.72110000  1.0 -0.0383341239
C  C136  1  0.46570000  0.91240000  0.69310000  1.0 -0.416165162
C  C137  1  0.56560000  0.71130000  0.63020000  1.0 -0.0383341239
C  C138  1  0.57630000  0.80570000  0.69170000  1.0 0.0598450716
C  C139  1  0.58660000  0.77840000  0.61810000  1.0 -0.1012109557
C  C140  1  0.59220000  0.82200000  0.65170000  1.0 -0.1188852969
C  C141  1  0.08420000  0.52620000  0.72280000  1.0 0.0528196956
C  C142  1  0.30420000  0.55010000  0.67040000  1.0 -0.0878145231
C  C143  1  0.34820000  0.55980000  0.60020000  1.0 0.6384471057
C  C144  1  0.26120000  0.55530000  0.70450000  1.0 -0.1251115279
C  C145  1  0.13430000  0.57950000  0.72110000  1.0 -0.0383341239
C  C146  1  0.08760000  0.46570000  0.69310000  1.0 -0.416165162
C  C147  1  0.28870000  0.56560000  0.63020000  1.0 -0.0383341239
C  C148  1  0.19430000  0.57630000  0.69170000  1.0 0.0598450716
C  C149  1  0.22160000  0.58660000  0.61810000  1.0 -0.1012109557
C  C150  1  0.17800000  0.59220000  0.65170000  1.0 -0.1188852969
C  C151  1  0.91580000  0.47380000  0.72280000  1.0 0.0528196956
C  C152  1  0.69580000  0.44990000  0.67040000  1.0 -0.0878145231
C  C153  1  0.65180000  0.44020000  0.60020000  1.0 0.6384471057
C  C154  1  0.73880000  0.44470000  0.70450000  1.0 -0.1251115279
C  C155  1  0.86570000  0.42050000  0.72110000  1.0 -0.0383341239
C  C156  1  0.91240000  0.53430000  0.69310000  1.0 -0.416165162
C  C157  1  0.71130000  0.43440000  0.63020000  1.0 -0.0383341239
C  C158  1  0.80570000  0.42370000  0.69170000  1.0 0.0598450716
C  C159  1  0.77840000  0.41340000  0.61810000  1.0 -0.1012109557
C  C160  1  0.82200000  0.40780000  0.65170000  1.0 -0.1188852969
C  C161  1  0.97197000  0.47197000  0.25000000  1.0 -0.0087484454
C  C162  1  0.86780000  0.36780000  0.25000000  1.0 -0.0343855286
C  C163  1  0.81190000  0.31190000  0.25000000  1.0 -0.1680386925
C  C164  1  0.02803000  0.52803000  0.25000000  1.0 -0.0087484454
C  C165  1  0.13220000  0.63220000  0.25000000  1.0 -0.0383341239
C  C166  1  0.18810000  0.68810000  0.25000000  1.0 -0.1680386925
C  C167  1  0.52803000  0.97197000  0.25000000  1.0 -0.0087484454
C  C168  1  0.63220000  0.86780000  0.25000000  1.0 -0.0343855286
C  C169  1  0.68810000  0.81190000  0.25000000  1.0 -0.1680386925
C  C170  1  0.47197000  0.02803000  0.25000000  1.0 -0.0087484454
C  C171  1  0.36780000  0.13220000  0.25000000  1.0 -0.0343855286
C  C172  1  0.31190000  0.18810000  0.25000000  1.0 -0.1680386925
C  C173  1  0.02803000  0.52803000  0.75000000  1.0 -0.0087484454
C  C174  1  0.13220000  0.63220000  0.75000000  1.0 -0.0383341239
C  C175  1  0.18810000  0.68810000  0.75000000  1.0 -0.1680386925
C  C176  1  0.97197000  0.47197000  0.75000000  1.0 -0.0087484454
C  C177  1  0.86780000  0.36780000  0.75000000  1.0 -0.0343855286
C  C178  1  0.81190000  0.31190000  0.75000000  1.0 -0.1680386925
C  C179  1  0.47197000  0.02803000  0.75000000  1.0 -0.0087484454
C  C180  1  0.36780000  0.13220000  0.75000000  1.0 -0.0343855286
C  C181  1  0.31190000  0.18810000  0.75000000  1.0 -0.1680386925
C  C182  1  0.52803000  0.97197000  0.75000000  1.0 -0.0087484454
C  C183  1  0.63220000  0.86780000  0.75000000  1.0 -0.0343855286
C  C184  1  0.68810000  0.81190000  0.75000000  1.0 -0.1680386925
O  O1  1  0.97180000  0.09140000  0.10810000  1.0 -0.5976233633
O  O2  1  0.93810000  0.17410000  0.05970000  1.0 -0.7282296694
O  O3  1  0.04040000  0.08390000  0.03660000  1.0 -1.1688585159
O  O4  1  0.02820000  0.90860000  0.10810000  1.0 -0.5976233633
O  O5  1  0.06190000  0.82590000  0.05970000  1.0 -0.7282296694
O  O6  1  0.95960000  0.91610000  0.03660000  1.0 -1.1688585159
O  O7  1  0.90860000  0.97180000  0.10810000  1.0 -0.5976233633
O  O8  1  0.82590000  0.93810000  0.05970000  1.0 -0.7282296694
O  O9  1  0.91610000  0.04040000  0.03660000  1.0 -1.1688585159
O  O10  1  0.09140000  0.02820000  0.10810000  1.0 -0.5976233633
O  O11  1  0.17410000  0.06190000  0.05970000  1.0 -0.7282296694
O  O12  1  0.08390000  0.95960000  0.03660000  1.0 -1.1688585159
O  O13  1  0.52820000  0.59140000  0.39190000  1.0 -0.5976233633
O  O14  1  0.56190000  0.67410000  0.44030000  1.0 -0.7282296694
O  O15  1  0.45960000  0.58390000  0.46340000  1.0 -1.1643195825
O  O16  1  0.47180000  0.40860000  0.39190000  1.0 -0.5976233633
O  O17  1  0.43810000  0.32590000  0.44030000  1.0 -0.7282296694
O  O18  1  0.54040000  0.41610000  0.46340000  1.0 -1.1643195825
O  O19  1  0.59140000  0.47180000  0.39190000  1.0 -0.5976233633
O  O20  1  0.67410000  0.43810000  0.44030000  1.0 -0.7282296694
O  O21  1  0.58390000  0.54040000  0.46340000  1.0 -1.1643195825
O  O22  1  0.40860000  0.52820000  0.39190000  1.0 -0.5976233633
O  O23  1  0.32590000  0.56190000  0.44030000  1.0 -0.7282296694
O  O24  1  0.41610000  0.45960000  0.46340000  1.0 -1.1643195825
O  O25  1  0.02820000  0.90860000  0.89190000  1.0 -0.5976233633
O  O26  1  0.06190000  0.82590000  0.94030000  1.0 -0.7282296694
O  O27  1  0.95960000  0.91610000  0.96340000  1.0 -1.1688585159
O  O28  1  0.97180000  0.09140000  0.89190000  1.0 -0.5976233633
O  O29  1  0.93810000  0.17410000  0.94030000  1.0 -0.7282296694
O  O30  1  0.04040000  0.08390000  0.96340000  1.0 -1.1688585159
O  O31  1  0.09140000  0.02820000  0.89190000  1.0 -0.5976233633
O  O32  1  0.17410000  0.06190000  0.94030000  1.0 -0.7282296694
O  O33  1  0.08390000  0.95960000  0.96340000  1.0 -1.1688585159
O  O34  1  0.90860000  0.97180000  0.89190000  1.0 -0.5976233633
O  O35  1  0.82590000  0.93810000  0.94030000  1.0 -0.7282296694
O  O36  1  0.91610000  0.04040000  0.96340000  1.0 -1.1688585159
O  O37  1  0.47180000  0.40860000  0.60810000  1.0 -0.5976233633
O  O38  1  0.43810000  0.32590000  0.55970000  1.0 -0.7234333234
O  O39  1  0.54040000  0.41610000  0.53660000  1.0 -1.1688585159
O  O40  1  0.52820000  0.59140000  0.60810000  1.0 -0.5976233633
O  O41  1  0.56190000  0.67410000  0.55970000  1.0 -0.7234333234
O  O42  1  0.45960000  0.58390000  0.53660000  1.0 -1.1688585159
O  O43  1  0.40860000  0.52820000  0.60810000  1.0 -0.5976233633
O  O44  1  0.32590000  0.56190000  0.55970000  1.0 -0.7234333234
O  O45  1  0.41610000  0.45960000  0.53660000  1.0 -1.1688585159
O  O46  1  0.59140000  0.47180000  0.60810000  1.0 -0.5976233633
O  O47  1  0.67410000  0.43810000  0.55970000  1.0 -0.7234333234
O  O48  1  0.58390000  0.54040000  0.53660000  1.0 -1.1688585159
