# DDEC6 charges by PACMAN v1.1 (https://github.com/mtap-research/PACMAN-charge/)
data_NEVDIE_ASR_pacman
_symmetry_space_group_name_H-M   'P 1'
_cell_length_a   18.77900000
_cell_length_b   18.77900000
_cell_length_c   33.08700000
_cell_angle_alpha   90.00000000
_cell_angle_beta   90.00000000
_cell_angle_gamma   90.00000000
_symmetry_Int_Tables_number   1
_chemical_formula_structural   Zr3H40(C23O6)2
_chemical_formula_sum   'Zr12 H160 C184 O48'
_cell_volume   11668.15837617
_cell_formula_units_Z   4
loop_
 _symmetry_equiv_pos_site_id
 _symmetry_equiv_pos_as_xyz
  1  'x, y, z'
loop_
 _atom_site_type_symbol
 _atom_site_label
 _atom_site_symmetry_multiplicity
 _atom_site_fract_x
 _atom_site_fract_y
 _atom_site_fract_z
 _atom_site_occupancy
 _atom_site_charge
Zr  Zr1  1  0.50000000  0.50000000  0.42653000  1.0 2.3112512135
Zr  Zr2  1  0.00000000  0.00000000  0.07347000  1.0 2.3112512135
Zr  Zr3  1  0.50000000  0.50000000  0.57347000  1.0 2.3112512135
Zr  Zr4  1  0.00000000  0.00000000  0.92653000  1.0 2.3049792155
Zr  Zr5  1  0.62315000  0.54802000  0.50000000  1.0 2.4722464784
Zr  Zr6  1  0.37685000  0.45198000  0.50000000  1.0 2.4722464784
Zr  Zr7  1  0.45198000  0.62315000  0.50000000  1.0 2.4722464784
Zr  Zr8  1  0.54802000  0.37685000  0.50000000  1.0 2.4722464784
Zr  Zr9  1  0.87685000  0.04802000  0.00000000  1.0 2.4722464784
Zr  Zr10  1  0.12315000  0.95198000  0.00000000  1.0 2.4722464784
Zr  Zr11  1  0.04802000  0.12315000  0.00000000  1.0 2.4722464784
Zr  Zr12  1  0.95198000  0.87685000  0.00000000  1.0 2.4722464784
H  H1  1  0.04870000  0.53920000  0.32260000  1.0 0.1142272266
H  H2  1  0.10290000  0.57900000  0.29450000  1.0 0.1300316976
H  H3  1  0.13060000  0.52490000  0.32700000  1.0 0.1179853259
H  H4  1  0.35740000  0.46170000  0.32590000  1.0 0.1179853259
H  H5  1  0.27270000  0.45630000  0.27500000  1.0 0.1300316976
H  H6  1  0.12500000  0.39670000  0.35610000  1.0 0.1179853259
H  H7  1  0.20960000  0.40210000  0.40700000  1.0 0.1033670019
H  H8  1  0.17680000  0.28070000  0.22860000  1.0 0.019916757
H  H9  1  0.23170000  0.33570000  0.24590000  1.0 0.019916757
H  H10  1  0.18560000  0.28950000  0.27550000  1.0 0.019916757
H  H11  1  0.95130000  0.46080000  0.32260000  1.0 0.1142272266
H  H12  1  0.89710000  0.42100000  0.29450000  1.0 0.1300316976
H  H13  1  0.86940000  0.47510000  0.32700000  1.0 0.1179853259
H  H14  1  0.64260000  0.53830000  0.32590000  1.0 0.1179853259
H  H15  1  0.72730000  0.54370000  0.27500000  1.0 0.1300316976
H  H16  1  0.87500000  0.60330000  0.35610000  1.0 0.1179853259
H  H17  1  0.79040000  0.59790000  0.40700000  1.0 0.1033670019
H  H18  1  0.82320000  0.71930000  0.22860000  1.0 0.019916757
H  H19  1  0.76830000  0.66430000  0.24590000  1.0 0.019916757
H  H20  1  0.81440000  0.71050000  0.27550000  1.0 0.019916757
H  H21  1  0.46080000  0.04870000  0.32260000  1.0 0.1142272266
H  H22  1  0.42100000  0.10290000  0.29450000  1.0 0.1300316976
H  H23  1  0.47510000  0.13060000  0.32700000  1.0 0.1179853259
H  H24  1  0.53830000  0.35740000  0.32590000  1.0 0.1179853259
H  H25  1  0.54370000  0.27270000  0.27500000  1.0 0.1300316976
H  H26  1  0.60330000  0.12500000  0.35610000  1.0 0.1179853259
H  H27  1  0.59790000  0.20960000  0.40700000  1.0 0.1033670019
H  H28  1  0.71930000  0.17680000  0.22860000  1.0 0.019916757
H  H29  1  0.66430000  0.23170000  0.24590000  1.0 0.019916757
H  H30  1  0.71050000  0.18560000  0.27550000  1.0 0.019916757
H  H31  1  0.53920000  0.95130000  0.32260000  1.0 0.1142272266
H  H32  1  0.57900000  0.89710000  0.29450000  1.0 0.1300316976
H  H33  1  0.52490000  0.86940000  0.32700000  1.0 0.1179853259
H  H34  1  0.46170000  0.64260000  0.32590000  1.0 0.1179853259
H  H35  1  0.45630000  0.72730000  0.27500000  1.0 0.1300316976
H  H36  1  0.39670000  0.87500000  0.35610000  1.0 0.1179853259
H  H37  1  0.40210000  0.79040000  0.40700000  1.0 0.1033670019
H  H38  1  0.28070000  0.82320000  0.22860000  1.0 0.0143519578
H  H39  1  0.33570000  0.76830000  0.24590000  1.0 0.019916757
H  H40  1  0.28950000  0.81440000  0.27550000  1.0 0.019916757
H  H41  1  0.45130000  0.03920000  0.17740000  1.0 0.1142272266
H  H42  1  0.39710000  0.07900000  0.20550000  1.0 0.1351054712
H  H43  1  0.36940000  0.02490000  0.17300000  1.0 0.1179853259
H  H44  1  0.14260000  0.96170000  0.17410000  1.0 0.1142272266
H  H45  1  0.22730000  0.95630000  0.22500000  1.0 0.1300316976
H  H46  1  0.37500000  0.89670000  0.14390000  1.0 0.1179853259
H  H47  1  0.29040000  0.90210000  0.09300000  1.0 0.1033670019
H  H48  1  0.32320000  0.78070000  0.27140000  1.0 0.019916757
H  H49  1  0.26830000  0.83570000  0.25410000  1.0 0.019916757
H  H50  1  0.31440000  0.78950000  0.22450000  1.0 0.019916757
H  H51  1  0.54870000  0.96080000  0.17740000  1.0 0.1142272266
H  H52  1  0.60290000  0.92100000  0.20550000  1.0 0.1351054712
H  H53  1  0.63060000  0.97510000  0.17300000  1.0 0.1179853259
H  H54  1  0.85740000  0.03830000  0.17410000  1.0 0.1179853259
H  H55  1  0.77270000  0.04370000  0.22500000  1.0 0.1300316976
H  H56  1  0.62500000  0.10330000  0.14390000  1.0 0.1179853259
H  H57  1  0.70960000  0.09790000  0.09300000  1.0 0.1033670019
H  H58  1  0.67680000  0.21930000  0.27140000  1.0 0.019916757
H  H59  1  0.73170000  0.16430000  0.25410000  1.0 0.0280797487
H  H60  1  0.68560000  0.21050000  0.22450000  1.0 0.019916757
H  H61  1  0.03920000  0.54870000  0.17740000  1.0 0.1142272266
H  H62  1  0.07900000  0.60290000  0.20550000  1.0 0.1351054712
H  H63  1  0.02490000  0.63060000  0.17300000  1.0 0.1179853259
H  H64  1  0.96170000  0.85740000  0.17410000  1.0 0.1142272266
H  H65  1  0.95630000  0.77270000  0.22500000  1.0 0.1300316976
H  H66  1  0.89670000  0.62500000  0.14390000  1.0 0.1179853259
H  H67  1  0.90210000  0.70960000  0.09300000  1.0 0.1033670019
H  H68  1  0.78070000  0.67680000  0.27140000  1.0 0.019916757
H  H69  1  0.83570000  0.73170000  0.25410000  1.0 0.0280797487
H  H70  1  0.78950000  0.68560000  0.22450000  1.0 0.019916757
H  H71  1  0.96080000  0.45130000  0.17740000  1.0 0.1142272266
H  H72  1  0.92100000  0.39710000  0.20550000  1.0 0.1351054712
H  H73  1  0.97510000  0.36940000  0.17300000  1.0 0.1179853259
H  H74  1  0.03830000  0.14260000  0.17410000  1.0 0.1179853259
H  H75  1  0.04370000  0.22730000  0.22500000  1.0 0.1300316976
H  H76  1  0.10330000  0.37500000  0.14390000  1.0 0.1179853259
H  H77  1  0.09790000  0.29040000  0.09300000  1.0 0.1033670019
H  H78  1  0.21930000  0.32320000  0.27140000  1.0 0.019916757
H  H79  1  0.16430000  0.26830000  0.25410000  1.0 0.019916757
H  H80  1  0.21050000  0.31440000  0.22450000  1.0 0.019916757
H  H81  1  0.95130000  0.46080000  0.67740000  1.0 0.1142272266
H  H82  1  0.89710000  0.42100000  0.70550000  1.0 0.1351054712
H  H83  1  0.86940000  0.47510000  0.67300000  1.0 0.1179853259
H  H84  1  0.64260000  0.53830000  0.67410000  1.0 0.1179853259
H  H85  1  0.72730000  0.54370000  0.72500000  1.0 0.1300316976
H  H86  1  0.87500000  0.60330000  0.64390000  1.0 0.1179853259
H  H87  1  0.79040000  0.59790000  0.59300000  1.0 0.1033670019
H  H88  1  0.82320000  0.71930000  0.77140000  1.0 0.0143519578
H  H89  1  0.76830000  0.66430000  0.75410000  1.0 0.019916757
H  H90  1  0.81440000  0.71050000  0.72450000  1.0 0.019916757
H  H91  1  0.04870000  0.53920000  0.67740000  1.0 0.1142272266
H  H92  1  0.10290000  0.57900000  0.70550000  1.0 0.1351054712
H  H93  1  0.13060000  0.52490000  0.67300000  1.0 0.1179853259
H  H94  1  0.35740000  0.46170000  0.67410000  1.0 0.1179853259
H  H95  1  0.27270000  0.45630000  0.72500000  1.0 0.1300316976
H  H96  1  0.12500000  0.39670000  0.64390000  1.0 0.1179853259
H  H97  1  0.20960000  0.40210000  0.59300000  1.0 0.1033670019
H  H98  1  0.17680000  0.28070000  0.77140000  1.0 0.0143519578
H  H99  1  0.23170000  0.33570000  0.75410000  1.0 0.019916757
H  H100  1  0.18560000  0.28950000  0.72450000  1.0 0.019916757
H  H101  1  0.53920000  0.95130000  0.67740000  1.0 0.1142272266
H  H102  1  0.57900000  0.89710000  0.70550000  1.0 0.1351054712
H  H103  1  0.52490000  0.86940000  0.67300000  1.0 0.1179853259
H  H104  1  0.46170000  0.64260000  0.67410000  1.0 0.1179853259
H  H105  1  0.45630000  0.72730000  0.72500000  1.0 0.1300316976
H  H106  1  0.39670000  0.87500000  0.64390000  1.0 0.1179853259
H  H107  1  0.40210000  0.79040000  0.59300000  1.0 0.1033670019
H  H108  1  0.28070000  0.82320000  0.77140000  1.0 0.0143519578
H  H109  1  0.33570000  0.76830000  0.75410000  1.0 0.019916757
H  H110  1  0.28950000  0.81440000  0.72450000  1.0 0.019916757
H  H111  1  0.46080000  0.04870000  0.67740000  1.0 0.1142272266
H  H112  1  0.42100000  0.10290000  0.70550000  1.0 0.1351054712
H  H113  1  0.47510000  0.13060000  0.67300000  1.0 0.1179853259
H  H114  1  0.53830000  0.35740000  0.67410000  1.0 0.1179853259
H  H115  1  0.54370000  0.27270000  0.72500000  1.0 0.1300316976
H  H116  1  0.60330000  0.12500000  0.64390000  1.0 0.1179853259
H  H117  1  0.59790000  0.20960000  0.59300000  1.0 0.1033670019
H  H118  1  0.71930000  0.17680000  0.77140000  1.0 0.019916757
H  H119  1  0.66430000  0.23170000  0.75410000  1.0 0.019916757
H  H120  1  0.71050000  0.18560000  0.72450000  1.0 0.019916757
H  H121  1  0.54870000  0.96080000  0.82260000  1.0 0.1142272266
H  H122  1  0.60290000  0.92100000  0.79450000  1.0 0.1300316976
H  H123  1  0.63060000  0.97510000  0.82700000  1.0 0.1179853259
H  H124  1  0.85740000  0.03830000  0.82590000  1.0 0.1179853259
H  H125  1  0.77270000  0.04370000  0.77500000  1.0 0.1300316976
H  H126  1  0.62500000  0.10330000  0.85610000  1.0 0.1179853259
H  H127  1  0.70960000  0.09790000  0.90700000  1.0 0.1033670019
H  H128  1  0.67680000  0.21930000  0.72860000  1.0 0.0143519578
H  H129  1  0.73170000  0.16430000  0.74590000  1.0 0.019916757
H  H130  1  0.68560000  0.21050000  0.77550000  1.0 0.019916757
H  H131  1  0.45130000  0.03920000  0.82260000  1.0 0.1142272266
H  H132  1  0.39710000  0.07900000  0.79450000  1.0 0.1351054712
H  H133  1  0.36940000  0.02490000  0.82700000  1.0 0.1179853259
H  H134  1  0.14260000  0.96170000  0.82590000  1.0 0.1179853259
H  H135  1  0.22730000  0.95630000  0.77500000  1.0 0.1300316976
H  H136  1  0.37500000  0.89670000  0.85610000  1.0 0.1179853259
H  H137  1  0.29040000  0.90210000  0.90700000  1.0 0.1033670019
H  H138  1  0.32320000  0.78070000  0.72860000  1.0 0.0143519578
H  H139  1  0.26830000  0.83570000  0.74590000  1.0 0.019916757
H  H140  1  0.31440000  0.78950000  0.77550000  1.0 0.019916757
H  H141  1  0.96080000  0.45130000  0.82260000  1.0 0.1142272266
H  H142  1  0.92100000  0.39710000  0.79450000  1.0 0.1300316976
H  H143  1  0.97510000  0.36940000  0.82700000  1.0 0.1179853259
H  H144  1  0.03830000  0.14260000  0.82590000  1.0 0.1179853259
H  H145  1  0.04370000  0.22730000  0.77500000  1.0 0.1300316976
H  H146  1  0.10330000  0.37500000  0.85610000  1.0 0.1179853259
H  H147  1  0.09790000  0.29040000  0.90700000  1.0 0.1033670019
H  H148  1  0.21930000  0.32320000  0.72860000  1.0 0.0143519578
H  H149  1  0.16430000  0.26830000  0.74590000  1.0 0.019916757
H  H150  1  0.21050000  0.31440000  0.77550000  1.0 0.019916757
H  H151  1  0.03920000  0.54870000  0.82260000  1.0 0.1142272266
H  H152  1  0.07900000  0.60290000  0.79450000  1.0 0.1351054712
H  H153  1  0.02490000  0.63060000  0.82700000  1.0 0.1179853259
H  H154  1  0.96170000  0.85740000  0.82590000  1.0 0.1179853259
H  H155  1  0.95630000  0.77270000  0.77500000  1.0 0.1300316976
H  H156  1  0.89670000  0.62500000  0.85610000  1.0 0.1179853259
H  H157  1  0.90210000  0.70960000  0.90700000  1.0 0.1033670019
H  H158  1  0.78070000  0.67680000  0.72860000  1.0 0.0143519578
H  H159  1  0.83570000  0.73170000  0.74590000  1.0 0.019916757
H  H160  1  0.78950000  0.68560000  0.77550000  1.0 0.019916757
C  C1  1  0.35180000  0.43790000  0.40190000  1.0 0.6168000727
C  C2  1  0.08760000  0.47520000  0.27760000  1.0 0.0280797487
C  C3  1  0.13490000  0.42200000  0.27870000  1.0 -0.0418147777
C  C4  1  0.09290000  0.53510000  0.30830000  1.0 -0.4268659846
C  C5  1  0.31080000  0.44866000  0.33197000  1.0 -0.1001307526
C  C6  1  0.26010000  0.44541000  0.30143000  1.0 -0.125356716
C  C7  1  0.19050000  0.42596000  0.31045000  1.0 0.0617307556
C  C8  1  0.17160000  0.40975000  0.35002000  1.0 -0.1210723981
C  C9  1  0.22230000  0.41299000  0.38056000  1.0 -0.1084713255
C  C10  1  0.29190000  0.43245000  0.37153000  1.0 -0.0219266112
C  C11  1  0.64820000  0.56210000  0.40190000  1.0 0.6168000727
C  C12  1  0.91240000  0.52480000  0.27760000  1.0 0.0280797487
C  C13  1  0.86510000  0.57800000  0.27870000  1.0 -0.0418147777
C  C14  1  0.90710000  0.46490000  0.30830000  1.0 -0.4268659846
C  C15  1  0.68920000  0.55134000  0.33197000  1.0 -0.1001307526
C  C16  1  0.73990000  0.55459000  0.30143000  1.0 -0.125356716
C  C17  1  0.80950000  0.57404000  0.31045000  1.0 0.0617307556
C  C18  1  0.82840000  0.59025000  0.35002000  1.0 -0.1210723981
C  C19  1  0.77770000  0.58701000  0.38056000  1.0 -0.1084713255
C  C20  1  0.70810000  0.56755000  0.37153000  1.0 -0.0219266112
C  C21  1  0.56210000  0.35180000  0.40190000  1.0 0.6168000727
C  C22  1  0.52480000  0.08760000  0.27760000  1.0 0.0280797487
C  C23  1  0.57800000  0.13490000  0.27870000  1.0 -0.0418147777
C  C24  1  0.46490000  0.09290000  0.30830000  1.0 -0.4268659846
C  C25  1  0.55134000  0.31080000  0.33197000  1.0 -0.1001307526
C  C26  1  0.55459000  0.26010000  0.30143000  1.0 -0.125356716
C  C27  1  0.57404000  0.19050000  0.31045000  1.0 0.0617307556
C  C28  1  0.59025000  0.17160000  0.35002000  1.0 -0.1210723981
C  C29  1  0.58701000  0.22230000  0.38056000  1.0 -0.1084713255
C  C30  1  0.56755000  0.29190000  0.37153000  1.0 -0.0219266112
C  C31  1  0.43790000  0.64820000  0.40190000  1.0 0.6168000727
C  C32  1  0.47520000  0.91240000  0.27760000  1.0 0.0280797487
C  C33  1  0.42200000  0.86510000  0.27870000  1.0 -0.0418147777
C  C34  1  0.53510000  0.90710000  0.30830000  1.0 -0.4268659846
C  C35  1  0.44866000  0.68920000  0.33197000  1.0 -0.1001307526
C  C36  1  0.44541000  0.73990000  0.30143000  1.0 -0.1210723981
C  C37  1  0.42596000  0.80950000  0.31045000  1.0 0.0617307556
C  C38  1  0.40975000  0.82840000  0.35002000  1.0 -0.1210723981
C  C39  1  0.41299000  0.77770000  0.38056000  1.0 -0.1084713255
C  C40  1  0.43245000  0.70810000  0.37153000  1.0 -0.0219266112
C  C41  1  0.14820000  0.93790000  0.09810000  1.0 0.6168000727
C  C42  1  0.41240000  0.97520000  0.22240000  1.0 0.0280797487
C  C43  1  0.36510000  0.92200000  0.22130000  1.0 -0.0418147777
C  C44  1  0.40710000  0.03510000  0.19170000  1.0 -0.4268659846
C  C45  1  0.18920000  0.94866000  0.16803000  1.0 -0.1001307526
C  C46  1  0.23990000  0.94541000  0.19857000  1.0 -0.125356716
C  C47  1  0.30950000  0.92596000  0.18955000  1.0 0.0617307556
C  C48  1  0.32840000  0.90975000  0.14998000  1.0 -0.1210723981
C  C49  1  0.27770000  0.91299000  0.11944000  1.0 -0.1084713255
C  C50  1  0.20810000  0.93245000  0.12847000  1.0 -0.0219266112
C  C51  1  0.85180000  0.06210000  0.09810000  1.0 0.6168000727
C  C52  1  0.58760000  0.02480000  0.22240000  1.0 0.0280797487
C  C53  1  0.63490000  0.07800000  0.22130000  1.0 -0.0418147777
C  C54  1  0.59290000  0.96490000  0.19170000  1.0 -0.4268659846
C  C55  1  0.81080000  0.05134000  0.16803000  1.0 -0.1001307526
C  C56  1  0.76010000  0.05459000  0.19857000  1.0 -0.125356716
C  C57  1  0.69050000  0.07404000  0.18955000  1.0 0.0617307556
C  C58  1  0.67160000  0.09025000  0.14998000  1.0 -0.1210723981
C  C59  1  0.72230000  0.08701000  0.11944000  1.0 -0.1084713255
C  C60  1  0.79190000  0.06755000  0.12847000  1.0 -0.0219266112
C  C61  1  0.93790000  0.85180000  0.09810000  1.0 0.6168000727
C  C62  1  0.97520000  0.58760000  0.22240000  1.0 0.0280797487
C  C63  1  0.92200000  0.63490000  0.22130000  1.0 -0.0418147777
C  C64  1  0.03510000  0.59290000  0.19170000  1.0 -0.4268659846
C  C65  1  0.94866000  0.81080000  0.16803000  1.0 -0.1001307526
C  C66  1  0.94541000  0.76010000  0.19857000  1.0 -0.125356716
C  C67  1  0.92596000  0.69050000  0.18955000  1.0 0.0617307556
C  C68  1  0.90975000  0.67160000  0.14998000  1.0 -0.1210723981
C  C69  1  0.91299000  0.72230000  0.11944000  1.0 -0.1084713255
C  C70  1  0.93245000  0.79190000  0.12847000  1.0 -0.0219266112
C  C71  1  0.06210000  0.14820000  0.09810000  1.0 0.6168000727
C  C72  1  0.02480000  0.41240000  0.22240000  1.0 0.0280797487
C  C73  1  0.07800000  0.36510000  0.22130000  1.0 -0.0418147777
C  C74  1  0.96490000  0.40710000  0.19170000  1.0 -0.4268659846
C  C75  1  0.05134000  0.18920000  0.16803000  1.0 -0.1001307526
C  C76  1  0.05459000  0.23990000  0.19857000  1.0 -0.125356716
C  C77  1  0.07404000  0.30950000  0.18955000  1.0 0.0617307556
C  C78  1  0.09025000  0.32840000  0.14998000  1.0 -0.1210723981
C  C79  1  0.08701000  0.27770000  0.11944000  1.0 -0.1084713255
C  C80  1  0.06755000  0.20810000  0.12847000  1.0 -0.0219266112
C  C81  1  0.64820000  0.56210000  0.59810000  1.0 0.6168000727
C  C82  1  0.91240000  0.52480000  0.72240000  1.0 0.0280797487
C  C83  1  0.86510000  0.57800000  0.72130000  1.0 -0.0418147777
C  C84  1  0.90710000  0.46490000  0.69170000  1.0 -0.4268659846
C  C85  1  0.68920000  0.55134000  0.66803000  1.0 -0.1001307526
C  C86  1  0.73990000  0.55459000  0.69857000  1.0 -0.1210723981
C  C87  1  0.80950000  0.57404000  0.68955000  1.0 0.0617307556
C  C88  1  0.82840000  0.59025000  0.64998000  1.0 -0.1210723981
C  C89  1  0.77770000  0.58701000  0.61944000  1.0 -0.1084713255
C  C90  1  0.70810000  0.56755000  0.62847000  1.0 -0.0219266112
C  C91  1  0.35180000  0.43790000  0.59810000  1.0 0.6168000727
C  C92  1  0.08760000  0.47520000  0.72240000  1.0 0.0280797487
C  C93  1  0.13490000  0.42200000  0.72130000  1.0 -0.0418147777
C  C94  1  0.09290000  0.53510000  0.69170000  1.0 -0.4268659846
C  C95  1  0.31080000  0.44866000  0.66803000  1.0 -0.1001307526
C  C96  1  0.26010000  0.44541000  0.69857000  1.0 -0.1210723981
C  C97  1  0.19050000  0.42596000  0.68955000  1.0 0.0617307556
C  C98  1  0.17160000  0.40975000  0.64998000  1.0 -0.1210723981
C  C99  1  0.22230000  0.41299000  0.61944000  1.0 -0.1084713255
C  C100  1  0.29190000  0.43245000  0.62847000  1.0 -0.0219266112
C  C101  1  0.43790000  0.64820000  0.59810000  1.0 0.6168000727
C  C102  1  0.47520000  0.91240000  0.72240000  1.0 0.0280797487
C  C103  1  0.42200000  0.86510000  0.72130000  1.0 -0.0418147777
C  C104  1  0.53510000  0.90710000  0.69170000  1.0 -0.4268659846
C  C105  1  0.44866000  0.68920000  0.66803000  1.0 -0.1001307526
C  C106  1  0.44541000  0.73990000  0.69857000  1.0 -0.1210723981
C  C107  1  0.42596000  0.80950000  0.68955000  1.0 0.0617307556
C  C108  1  0.40975000  0.82840000  0.64998000  1.0 -0.1210723981
C  C109  1  0.41299000  0.77770000  0.61944000  1.0 -0.1084713255
C  C110  1  0.43245000  0.70810000  0.62847000  1.0 -0.0219266112
C  C111  1  0.56210000  0.35180000  0.59810000  1.0 0.6168000727
C  C112  1  0.52480000  0.08760000  0.72240000  1.0 0.0280797487
C  C113  1  0.57800000  0.13490000  0.72130000  1.0 -0.0418147777
C  C114  1  0.46490000  0.09290000  0.69170000  1.0 -0.4268659846
C  C115  1  0.55134000  0.31080000  0.66803000  1.0 -0.1001307526
C  C116  1  0.55459000  0.26010000  0.69857000  1.0 -0.1210723981
C  C117  1  0.57404000  0.19050000  0.68955000  1.0 0.0617307556
C  C118  1  0.59025000  0.17160000  0.64998000  1.0 -0.1210723981
C  C119  1  0.58701000  0.22230000  0.61944000  1.0 -0.1084713255
C  C120  1  0.56755000  0.29190000  0.62847000  1.0 -0.0219266112
C  C121  1  0.85180000  0.06210000  0.90190000  1.0 0.6168000727
C  C122  1  0.58760000  0.02480000  0.77760000  1.0 0.0280797487
C  C123  1  0.63490000  0.07800000  0.77870000  1.0 -0.0418147777
C  C124  1  0.59290000  0.96490000  0.80830000  1.0 -0.4268659846
C  C125  1  0.81080000  0.05134000  0.83197000  1.0 -0.1001307526
C  C126  1  0.76010000  0.05459000  0.80143000  1.0 -0.1210723981
C  C127  1  0.69050000  0.07404000  0.81045000  1.0 0.0617307556
C  C128  1  0.67160000  0.09025000  0.85002000  1.0 -0.1210723981
C  C129  1  0.72230000  0.08701000  0.88056000  1.0 -0.1084713255
C  C130  1  0.79190000  0.06755000  0.87153000  1.0 -0.0219266112
C  C131  1  0.14820000  0.93790000  0.90190000  1.0 0.6168000727
C  C132  1  0.41240000  0.97520000  0.77760000  1.0 0.0280797487
C  C133  1  0.36510000  0.92200000  0.77870000  1.0 -0.0418147777
C  C134  1  0.40710000  0.03510000  0.80830000  1.0 -0.4268659846
C  C135  1  0.18920000  0.94866000  0.83197000  1.0 -0.1001307526
C  C136  1  0.23990000  0.94541000  0.80143000  1.0 -0.1210723981
C  C137  1  0.30950000  0.92596000  0.81045000  1.0 0.0617307556
C  C138  1  0.32840000  0.90975000  0.85002000  1.0 -0.1210723981
C  C139  1  0.27770000  0.91299000  0.88056000  1.0 -0.1084713255
C  C140  1  0.20810000  0.93245000  0.87153000  1.0 -0.0219266112
C  C141  1  0.06210000  0.14820000  0.90190000  1.0 0.6168000727
C  C142  1  0.02480000  0.41240000  0.77760000  1.0 0.0280797487
C  C143  1  0.07800000  0.36510000  0.77870000  1.0 -0.0418147777
C  C144  1  0.96490000  0.40710000  0.80830000  1.0 -0.4268659846
C  C145  1  0.05134000  0.18920000  0.83197000  1.0 -0.1001307526
C  C146  1  0.05459000  0.23990000  0.80143000  1.0 -0.125356716
C  C147  1  0.07404000  0.30950000  0.81045000  1.0 0.0617307556
C  C148  1  0.09025000  0.32840000  0.85002000  1.0 -0.1210723981
C  C149  1  0.08701000  0.27770000  0.88056000  1.0 -0.1084713255
C  C150  1  0.06755000  0.20810000  0.87153000  1.0 -0.0219266112
C  C151  1  0.93790000  0.85180000  0.90190000  1.0 0.6168000727
C  C152  1  0.97520000  0.58760000  0.77760000  1.0 0.0280797487
C  C153  1  0.92200000  0.63490000  0.77870000  1.0 -0.0418147777
C  C154  1  0.03510000  0.59290000  0.80830000  1.0 -0.4268659846
C  C155  1  0.94866000  0.81080000  0.83197000  1.0 -0.1001307526
C  C156  1  0.94541000  0.76010000  0.80143000  1.0 -0.1210723981
C  C157  1  0.92596000  0.69050000  0.81045000  1.0 0.0617307556
C  C158  1  0.90975000  0.67160000  0.85002000  1.0 -0.1210723981
C  C159  1  0.91299000  0.72230000  0.88056000  1.0 -0.1084713255
C  C160  1  0.93245000  0.79190000  0.87153000  1.0 -0.0219266112
C  C161  1  0.02886000  0.47114000  0.25000000  1.0 0.0023657862
C  C162  1  0.13030000  0.36970000  0.25000000  1.0 -0.0723673756
C  C163  1  0.18600000  0.31400000  0.25000000  1.0 -0.161713994
C  C164  1  0.97114000  0.52886000  0.25000000  1.0 0.0023657862
C  C165  1  0.86970000  0.63030000  0.25000000  1.0 -0.0723673756
C  C166  1  0.81400000  0.68600000  0.25000000  1.0 -0.161713994
C  C167  1  0.52886000  0.02886000  0.25000000  1.0 0.0023657862
C  C168  1  0.63030000  0.13030000  0.25000000  1.0 -0.0723673756
C  C169  1  0.68600000  0.18600000  0.25000000  1.0 -0.161713994
C  C170  1  0.47114000  0.97114000  0.25000000  1.0 0.0023657862
C  C171  1  0.36970000  0.86970000  0.25000000  1.0 -0.0723673756
C  C172  1  0.31400000  0.81400000  0.25000000  1.0 -0.161713994
C  C173  1  0.97114000  0.52886000  0.75000000  1.0 0.0023657862
C  C174  1  0.86970000  0.63030000  0.75000000  1.0 -0.0723673756
C  C175  1  0.81400000  0.68600000  0.75000000  1.0 -0.161713994
C  C176  1  0.02886000  0.47114000  0.75000000  1.0 0.0023657862
C  C177  1  0.13030000  0.36970000  0.75000000  1.0 -0.0723673756
C  C178  1  0.18600000  0.31400000  0.75000000  1.0 -0.161713994
C  C179  1  0.47114000  0.97114000  0.75000000  1.0 0.0023657862
C  C180  1  0.36970000  0.86970000  0.75000000  1.0 -0.0723673756
C  C181  1  0.31400000  0.81400000  0.75000000  1.0 -0.161713994
C  C182  1  0.52886000  0.02886000  0.75000000  1.0 0.0023657862
C  C183  1  0.63030000  0.13030000  0.75000000  1.0 -0.0723673756
C  C184  1  0.68600000  0.18600000  0.75000000  1.0 -0.161713994
O  O1  1  0.40720000  0.46500000  0.39270000  1.0 -0.5395019994
O  O2  1  0.53970000  0.58640000  0.46440000  1.0 -1.1711530682
O  O3  1  0.32760000  0.43250000  0.43940000  1.0 -0.6413140864
O  O4  1  0.59280000  0.53500000  0.39270000  1.0 -0.5395019994
O  O5  1  0.46030000  0.41360000  0.46440000  1.0 -1.1711530682
O  O6  1  0.67240000  0.56750000  0.43940000  1.0 -0.6413140864
O  O7  1  0.53500000  0.40720000  0.39270000  1.0 -0.5395019994
O  O8  1  0.41360000  0.53970000  0.46440000  1.0 -1.1711530682
O  O9  1  0.56750000  0.32760000  0.43940000  1.0 -0.6413140864
O  O10  1  0.46500000  0.59280000  0.39270000  1.0 -0.5395019994
O  O11  1  0.58640000  0.46030000  0.46440000  1.0 -1.1711530682
O  O12  1  0.43250000  0.67240000  0.43940000  1.0 -0.6413140864
O  O13  1  0.09280000  0.96500000  0.10730000  1.0 -0.5395019994
O  O14  1  0.96030000  0.08640000  0.03560000  1.0 -1.1756909088
O  O15  1  0.17240000  0.93250000  0.06060000  1.0 -0.6413140864
O  O16  1  0.90720000  0.03500000  0.10730000  1.0 -0.5395019994
O  O17  1  0.03970000  0.91360000  0.03560000  1.0 -1.1756909088
O  O18  1  0.82760000  0.06750000  0.06060000  1.0 -0.6413140864
O  O19  1  0.96500000  0.90720000  0.10730000  1.0 -0.5395019994
O  O20  1  0.08640000  0.03970000  0.03560000  1.0 -1.1756909088
O  O21  1  0.93250000  0.82760000  0.06060000  1.0 -0.6413140864
O  O22  1  0.03500000  0.09280000  0.10730000  1.0 -0.5395019994
O  O23  1  0.91360000  0.96030000  0.03560000  1.0 -1.1756909088
O  O24  1  0.06750000  0.17240000  0.06060000  1.0 -0.6413140864
O  O25  1  0.59280000  0.53500000  0.60730000  1.0 -0.5395019994
O  O26  1  0.46030000  0.41360000  0.53560000  1.0 -1.1711530682
O  O27  1  0.67240000  0.56750000  0.56060000  1.0 -0.6413140864
O  O28  1  0.40720000  0.46500000  0.60730000  1.0 -0.5395019994
O  O29  1  0.53970000  0.58640000  0.53560000  1.0 -1.1711530682
O  O30  1  0.32760000  0.43250000  0.56060000  1.0 -0.6413140864
O  O31  1  0.46500000  0.59280000  0.60730000  1.0 -0.5395019994
O  O32  1  0.58640000  0.46030000  0.53560000  1.0 -1.1711530682
O  O33  1  0.43250000  0.67240000  0.56060000  1.0 -0.6413140864
O  O34  1  0.53500000  0.40720000  0.60730000  1.0 -0.5395019994
O  O35  1  0.41360000  0.53970000  0.53560000  1.0 -1.1711530682
O  O36  1  0.56750000  0.32760000  0.56060000  1.0 -0.6413140864
O  O37  1  0.90720000  0.03500000  0.89270000  1.0 -0.5395019994
O  O38  1  0.03970000  0.91360000  0.96440000  1.0 -1.1711530682
O  O39  1  0.82760000  0.06750000  0.93940000  1.0 -0.6413140864
O  O40  1  0.09280000  0.96500000  0.89270000  1.0 -0.5395019994
O  O41  1  0.96030000  0.08640000  0.96440000  1.0 -1.1711530682
O  O42  1  0.17240000  0.93250000  0.93940000  1.0 -0.6413140864
O  O43  1  0.03500000  0.09280000  0.89270000  1.0 -0.5395019994
O  O44  1  0.91360000  0.96030000  0.96440000  1.0 -1.1711530682
O  O45  1  0.06750000  0.17240000  0.93940000  1.0 -0.6413140864
O  O46  1  0.96500000  0.90720000  0.89270000  1.0 -0.5395019994
O  O47  1  0.08640000  0.03970000  0.96440000  1.0 -1.1711530682
O  O48  1  0.93250000  0.82760000  0.93940000  1.0 -0.6413140864
