# DDEC6 charges by PACMAN v1.1 (https://github.com/mtap-research/PACMAN-charge/)
data_NEVKUX_ASR_pacman
_symmetry_space_group_name_H-M   'P 1'
_cell_length_a   19.02430000
_cell_length_b   19.02430000
_cell_length_c   33.17400000
_cell_angle_alpha   90.00000000
_cell_angle_beta   90.00000000
_cell_angle_gamma   90.00000000
_symmetry_Int_Tables_number   1
_chemical_formula_structural   Zr3H40(C23O6)2
_chemical_formula_sum   'Zr12 H160 C184 O48'
_cell_volume   12006.46646052
_cell_formula_units_Z   4
loop_
 _symmetry_equiv_pos_site_id
 _symmetry_equiv_pos_as_xyz
  1  'x, y, z'
loop_
 _atom_site_type_symbol
 _atom_site_label
 _atom_site_symmetry_multiplicity
 _atom_site_fract_x
 _atom_site_fract_y
 _atom_site_fract_z
 _atom_site_occupancy
 _atom_site_charge
Zr  Zr1  1  0.12385000  0.04496000  0.00000000  1.0 2.4986603104
Zr  Zr2  1  0.87615000  0.95504000  0.00000000  1.0 2.4986603104
Zr  Zr3  1  0.95504000  0.12385000  0.00000000  1.0 2.4986603104
Zr  Zr4  1  0.04496000  0.87615000  0.00000000  1.0 2.4986603104
Zr  Zr5  1  0.37615000  0.54496000  0.50000000  1.0 2.4899555289
Zr  Zr6  1  0.62385000  0.45504000  0.50000000  1.0 2.4899555289
Zr  Zr7  1  0.54496000  0.62385000  0.50000000  1.0 2.4899555289
Zr  Zr8  1  0.45504000  0.37615000  0.50000000  1.0 2.4899555289
Zr  Zr9  1  0.00000000  0.00000000  0.07351000  1.0 2.3915249549
Zr  Zr10  1  0.50000000  0.50000000  0.42649000  1.0 2.3915249549
Zr  Zr11  1  0.00000000  0.00000000  0.92649000  1.0 2.3915249549
Zr  Zr12  1  0.50000000  0.50000000  0.57351000  1.0 2.3915249549
H  H1  1  0.96940000  0.14830000  0.17450000  1.0 0.1107765606
H  H2  1  0.96140000  0.22750000  0.22980000  1.0 0.1300111735
H  H3  1  0.06410000  0.44930000  0.19520000  1.0 0.1300111735
H  H4  1  0.05480000  0.36750000  0.19320000  1.0 0.1300111735
H  H5  1  0.01060000  0.41620000  0.16470000  1.0 0.1212290458
H  H6  1  0.89880000  0.28890000  0.08980000  1.0 0.1107765606
H  H7  1  0.88760000  0.36530000  0.14610000  1.0 0.1212290458
H  H8  1  0.82410000  0.28290000  0.22850000  1.0 0.0210743421
H  H9  1  0.81620000  0.29080000  0.27530000  1.0 0.0210743421
H  H10  1  0.77020000  0.33680000  0.24630000  1.0 0.0210743421
H  H11  1  0.03060000  0.85170000  0.17450000  1.0 0.1107765606
H  H12  1  0.03860000  0.77250000  0.22980000  1.0 0.1300111735
H  H13  1  0.93590000  0.55070000  0.19520000  1.0 0.1300111735
H  H14  1  0.94520000  0.63250000  0.19320000  1.0 0.1300111735
H  H15  1  0.98940000  0.58380000  0.16470000  1.0 0.1212290458
H  H16  1  0.10120000  0.71110000  0.08980000  1.0 0.1107765606
H  H17  1  0.11240000  0.63470000  0.14610000  1.0 0.1212290458
H  H18  1  0.17590000  0.71710000  0.22850000  1.0 0.0210743421
H  H19  1  0.18380000  0.70920000  0.27530000  1.0 0.0210743421
H  H20  1  0.22980000  0.66320000  0.24630000  1.0 0.0210743421
H  H21  1  0.85170000  0.96940000  0.17450000  1.0 0.1107765606
H  H22  1  0.77250000  0.96140000  0.22980000  1.0 0.1300111735
H  H23  1  0.55070000  0.06410000  0.19520000  1.0 0.1300111735
H  H24  1  0.63250000  0.05480000  0.19320000  1.0 0.1300111735
H  H25  1  0.58380000  0.01060000  0.16470000  1.0 0.1212290458
H  H26  1  0.71110000  0.89880000  0.08980000  1.0 0.1107765606
H  H27  1  0.63470000  0.88760000  0.14610000  1.0 0.1212290458
H  H28  1  0.71710000  0.82410000  0.22850000  1.0 0.0210743421
H  H29  1  0.70920000  0.81620000  0.27530000  1.0 0.0210743421
H  H30  1  0.66320000  0.77020000  0.24630000  1.0 0.0210743421
H  H31  1  0.14830000  0.03060000  0.17450000  1.0 0.1107765606
H  H32  1  0.22750000  0.03860000  0.22980000  1.0 0.1300111735
H  H33  1  0.44930000  0.93590000  0.19520000  1.0 0.1300111735
H  H34  1  0.36750000  0.94520000  0.19320000  1.0 0.1300111735
H  H35  1  0.41620000  0.98940000  0.16470000  1.0 0.1212290458
H  H36  1  0.28890000  0.10120000  0.08980000  1.0 0.1107765606
H  H37  1  0.36530000  0.11240000  0.14610000  1.0 0.1212290458
H  H38  1  0.28290000  0.17590000  0.22850000  1.0 0.0210743421
H  H39  1  0.29080000  0.18380000  0.27530000  1.0 0.0210743421
H  H40  1  0.33680000  0.22980000  0.24630000  1.0 0.0210743421
H  H41  1  0.53060000  0.64830000  0.32550000  1.0 0.1107765606
H  H42  1  0.53860000  0.72750000  0.27020000  1.0 0.1300111735
H  H43  1  0.43590000  0.94930000  0.30480000  1.0 0.1300111735
H  H44  1  0.44520000  0.86750000  0.30680000  1.0 0.1300111735
H  H45  1  0.48940000  0.91620000  0.33530000  1.0 0.1212290458
H  H46  1  0.60120000  0.78890000  0.41020000  1.0 0.1107765606
H  H47  1  0.61240000  0.86530000  0.35390000  1.0 0.1212290458
H  H48  1  0.67590000  0.78290000  0.27150000  1.0 0.0210743421
H  H49  1  0.68380000  0.79080000  0.22470000  1.0 0.0210743421
H  H50  1  0.72980000  0.83680000  0.25370000  1.0 0.0210743421
H  H51  1  0.46940000  0.35170000  0.32550000  1.0 0.1107765606
H  H52  1  0.46140000  0.27250000  0.27020000  1.0 0.1300111735
H  H53  1  0.56410000  0.05070000  0.30480000  1.0 0.1300111735
H  H54  1  0.55480000  0.13250000  0.30680000  1.0 0.1300111735
H  H55  1  0.51060000  0.08380000  0.33530000  1.0 0.1212290458
H  H56  1  0.39880000  0.21110000  0.41020000  1.0 0.1107765606
H  H57  1  0.38760000  0.13470000  0.35390000  1.0 0.1212290458
H  H58  1  0.32410000  0.21710000  0.27150000  1.0 0.0210743421
H  H59  1  0.31620000  0.20920000  0.22470000  1.0 0.0210743421
H  H60  1  0.27020000  0.16320000  0.25370000  1.0 0.0210743421
H  H61  1  0.64830000  0.46940000  0.32550000  1.0 0.1107765606
H  H62  1  0.72750000  0.46140000  0.27020000  1.0 0.1300111735
H  H63  1  0.94930000  0.56410000  0.30480000  1.0 0.1300111735
H  H64  1  0.86750000  0.55480000  0.30680000  1.0 0.1300111735
H  H65  1  0.91620000  0.51060000  0.33530000  1.0 0.1212290458
H  H66  1  0.78890000  0.39880000  0.41020000  1.0 0.1107765606
H  H67  1  0.86530000  0.38760000  0.35390000  1.0 0.1212290458
H  H68  1  0.78290000  0.32410000  0.27150000  1.0 0.0210743421
H  H69  1  0.79080000  0.31620000  0.22470000  1.0 0.0210743421
H  H70  1  0.83680000  0.27020000  0.25370000  1.0 0.0210743421
H  H71  1  0.35170000  0.53060000  0.32550000  1.0 0.1107765606
H  H72  1  0.27250000  0.53860000  0.27020000  1.0 0.1300111735
H  H73  1  0.05070000  0.43590000  0.30480000  1.0 0.1300111735
H  H74  1  0.13250000  0.44520000  0.30680000  1.0 0.1300111735
H  H75  1  0.08380000  0.48940000  0.33530000  1.0 0.1212290458
H  H76  1  0.21110000  0.60120000  0.41020000  1.0 0.1107765606
H  H77  1  0.13470000  0.61240000  0.35390000  1.0 0.1212290458
H  H78  1  0.21710000  0.67590000  0.27150000  1.0 0.0210743421
H  H79  1  0.20920000  0.68380000  0.22470000  1.0 0.0210743421
H  H80  1  0.16320000  0.72980000  0.25370000  1.0 0.0210743421
H  H81  1  0.03060000  0.85170000  0.82550000  1.0 0.1107765606
H  H82  1  0.03860000  0.77250000  0.77020000  1.0 0.1300111735
H  H83  1  0.93590000  0.55070000  0.80480000  1.0 0.1300111735
H  H84  1  0.94520000  0.63250000  0.80680000  1.0 0.1300111735
H  H85  1  0.98940000  0.58380000  0.83530000  1.0 0.1212290458
H  H86  1  0.10120000  0.71110000  0.91020000  1.0 0.1107765606
H  H87  1  0.11240000  0.63470000  0.85390000  1.0 0.1212290458
H  H88  1  0.17590000  0.71710000  0.77150000  1.0 0.0210743421
H  H89  1  0.18380000  0.70920000  0.72470000  1.0 0.0210743421
H  H90  1  0.22980000  0.66320000  0.75370000  1.0 0.0210743421
H  H91  1  0.96940000  0.14830000  0.82550000  1.0 0.1107765606
H  H92  1  0.96140000  0.22750000  0.77020000  1.0 0.1300111735
H  H93  1  0.06410000  0.44930000  0.80480000  1.0 0.1300111735
H  H94  1  0.05480000  0.36750000  0.80680000  1.0 0.1300111735
H  H95  1  0.01060000  0.41620000  0.83530000  1.0 0.1212290458
H  H96  1  0.89880000  0.28890000  0.91020000  1.0 0.1107765606
H  H97  1  0.88760000  0.36530000  0.85390000  1.0 0.1212290458
H  H98  1  0.82410000  0.28290000  0.77150000  1.0 0.0210743421
H  H99  1  0.81620000  0.29080000  0.72470000  1.0 0.0210743421
H  H100  1  0.77020000  0.33680000  0.75370000  1.0 0.0210743421
H  H101  1  0.14830000  0.03060000  0.82550000  1.0 0.1107765606
H  H102  1  0.22750000  0.03860000  0.77020000  1.0 0.1300111735
H  H103  1  0.44930000  0.93590000  0.80480000  1.0 0.1300111735
H  H104  1  0.36750000  0.94520000  0.80680000  1.0 0.1300111735
H  H105  1  0.41620000  0.98940000  0.83530000  1.0 0.1212290458
H  H106  1  0.28890000  0.10120000  0.91020000  1.0 0.1107765606
H  H107  1  0.36530000  0.11240000  0.85390000  1.0 0.1212290458
H  H108  1  0.28290000  0.17590000  0.77150000  1.0 0.0210743421
H  H109  1  0.29080000  0.18380000  0.72470000  1.0 0.0210743421
H  H110  1  0.33680000  0.22980000  0.75370000  1.0 0.0210743421
H  H111  1  0.85170000  0.96940000  0.82550000  1.0 0.1107765606
H  H112  1  0.77250000  0.96140000  0.77020000  1.0 0.1300111735
H  H113  1  0.55070000  0.06410000  0.80480000  1.0 0.1300111735
H  H114  1  0.63250000  0.05480000  0.80680000  1.0 0.1300111735
H  H115  1  0.58380000  0.01060000  0.83530000  1.0 0.1212290458
H  H116  1  0.71110000  0.89880000  0.91020000  1.0 0.1107765606
H  H117  1  0.63470000  0.88760000  0.85390000  1.0 0.1212290458
H  H118  1  0.71710000  0.82410000  0.77150000  1.0 0.0210743421
H  H119  1  0.70920000  0.81620000  0.72470000  1.0 0.0210743421
H  H120  1  0.66320000  0.77020000  0.75370000  1.0 0.0210743421
H  H121  1  0.46940000  0.35170000  0.67450000  1.0 0.1107765606
H  H122  1  0.46140000  0.27250000  0.72980000  1.0 0.1300111735
H  H123  1  0.56410000  0.05070000  0.69520000  1.0 0.1300111735
H  H124  1  0.55480000  0.13250000  0.69320000  1.0 0.1300111735
H  H125  1  0.51060000  0.08380000  0.66470000  1.0 0.1212290458
H  H126  1  0.39880000  0.21110000  0.58980000  1.0 0.1107765606
H  H127  1  0.38760000  0.13470000  0.64610000  1.0 0.1212290458
H  H128  1  0.32410000  0.21710000  0.72850000  1.0 0.0210743421
H  H129  1  0.31620000  0.20920000  0.77530000  1.0 0.0210743421
H  H130  1  0.27020000  0.16320000  0.74630000  1.0 0.0210743421
H  H131  1  0.53060000  0.64830000  0.67450000  1.0 0.1107765606
H  H132  1  0.53860000  0.72750000  0.72980000  1.0 0.1300111735
H  H133  1  0.43590000  0.94930000  0.69520000  1.0 0.1300111735
H  H134  1  0.44520000  0.86750000  0.69320000  1.0 0.1300111735
H  H135  1  0.48940000  0.91620000  0.66470000  1.0 0.1212290458
H  H136  1  0.60120000  0.78890000  0.58980000  1.0 0.1107765606
H  H137  1  0.61240000  0.86530000  0.64610000  1.0 0.1212290458
H  H138  1  0.67590000  0.78290000  0.72850000  1.0 0.0210743421
H  H139  1  0.68380000  0.79080000  0.77530000  1.0 0.0210743421
H  H140  1  0.72980000  0.83680000  0.74630000  1.0 0.0210743421
H  H141  1  0.35170000  0.53060000  0.67450000  1.0 0.1107765606
H  H142  1  0.27250000  0.53860000  0.72980000  1.0 0.1300111735
H  H143  1  0.05070000  0.43590000  0.69520000  1.0 0.1300111735
H  H144  1  0.13250000  0.44520000  0.69320000  1.0 0.1300111735
H  H145  1  0.08380000  0.48940000  0.66470000  1.0 0.1212290458
H  H146  1  0.21110000  0.60120000  0.58980000  1.0 0.1107765606
H  H147  1  0.13470000  0.61240000  0.64610000  1.0 0.1212290458
H  H148  1  0.21710000  0.67590000  0.72850000  1.0 0.0210743421
H  H149  1  0.20920000  0.68380000  0.77530000  1.0 0.0210743421
H  H150  1  0.16320000  0.72980000  0.74630000  1.0 0.0210743421
H  H151  1  0.64830000  0.46940000  0.67450000  1.0 0.1107765606
H  H152  1  0.72750000  0.46140000  0.72980000  1.0 0.1300111735
H  H153  1  0.94930000  0.56410000  0.69520000  1.0 0.1300111735
H  H154  1  0.86750000  0.55480000  0.69320000  1.0 0.1300111735
H  H155  1  0.91620000  0.51060000  0.66470000  1.0 0.1212290458
H  H156  1  0.78890000  0.39880000  0.58980000  1.0 0.1107765606
H  H157  1  0.86530000  0.38760000  0.64610000  1.0 0.1212290458
H  H158  1  0.78290000  0.32410000  0.72850000  1.0 0.0210743421
H  H159  1  0.79080000  0.31620000  0.77530000  1.0 0.0210743421
H  H160  1  0.83680000  0.27020000  0.74630000  1.0 0.0210743421
C  C1  1  0.97370000  0.41610000  0.22260000  1.0 0.043642991
C  C2  1  0.95340000  0.19390000  0.17020000  1.0 -0.0909799996
C  C3  1  0.93970000  0.15360000  0.10070000  1.0 0.6318796755
C  C4  1  0.95020000  0.23920000  0.20330000  1.0 -0.1235001765
C  C5  1  0.92200000  0.36450000  0.22000000  1.0 -0.0094151346
C  C6  1  0.03100000  0.41190000  0.19100000  1.0 -0.417412088
C  C7  1  0.93400000  0.21280000  0.13100000  1.0 -0.0419615076
C  C8  1  0.92750000  0.30510000  0.18990000  1.0 0.0599160113
C  C9  1  0.90990000  0.27740000  0.11630000  1.0 -0.1017494534
C  C10  1  0.90630000  0.32070000  0.15020000  1.0 -0.1265229976
C  C11  1  0.02630000  0.58390000  0.22260000  1.0 0.043642991
C  C12  1  0.04660000  0.80610000  0.17020000  1.0 -0.0909799996
C  C13  1  0.06030000  0.84640000  0.10070000  1.0 0.6318796755
C  C14  1  0.04980000  0.76080000  0.20330000  1.0 -0.1235001765
C  C15  1  0.07800000  0.63550000  0.22000000  1.0 -0.0094151346
C  C16  1  0.96900000  0.58810000  0.19100000  1.0 -0.417412088
C  C17  1  0.06600000  0.78720000  0.13100000  1.0 -0.0419615076
C  C18  1  0.07250000  0.69490000  0.18990000  1.0 0.0599160113
C  C19  1  0.09010000  0.72260000  0.11630000  1.0 -0.1017494534
C  C20  1  0.09370000  0.67930000  0.15020000  1.0 -0.1265229976
C  C21  1  0.58390000  0.97370000  0.22260000  1.0 0.043642991
C  C22  1  0.80610000  0.95340000  0.17020000  1.0 -0.0909799996
C  C23  1  0.84640000  0.93970000  0.10070000  1.0 0.6318796755
C  C24  1  0.76080000  0.95020000  0.20330000  1.0 -0.1235001765
C  C25  1  0.63550000  0.92200000  0.22000000  1.0 -0.0094151346
C  C26  1  0.58810000  0.03100000  0.19100000  1.0 -0.417412088
C  C27  1  0.78720000  0.93400000  0.13100000  1.0 -0.0419615076
C  C28  1  0.69490000  0.92750000  0.18990000  1.0 0.0599160113
C  C29  1  0.72260000  0.90990000  0.11630000  1.0 -0.1017494534
C  C30  1  0.67930000  0.90630000  0.15020000  1.0 -0.1265229976
C  C31  1  0.41610000  0.02630000  0.22260000  1.0 0.043642991
C  C32  1  0.19390000  0.04660000  0.17020000  1.0 -0.0909799996
C  C33  1  0.15360000  0.06030000  0.10070000  1.0 0.6318796755
C  C34  1  0.23920000  0.04980000  0.20330000  1.0 -0.1235001765
C  C35  1  0.36450000  0.07800000  0.22000000  1.0 -0.0094151346
C  C36  1  0.41190000  0.96900000  0.19100000  1.0 -0.417412088
C  C37  1  0.21280000  0.06600000  0.13100000  1.0 -0.0419615076
C  C38  1  0.30510000  0.07250000  0.18990000  1.0 0.0599160113
C  C39  1  0.27740000  0.09010000  0.11630000  1.0 -0.1017494534
C  C40  1  0.32070000  0.09370000  0.15020000  1.0 -0.1265229976
C  C41  1  0.52630000  0.91610000  0.27740000  1.0 0.043642991
C  C42  1  0.54660000  0.69390000  0.32980000  1.0 -0.0909799996
C  C43  1  0.56030000  0.65360000  0.39930000  1.0 0.6318796755
C  C44  1  0.54980000  0.73920000  0.29670000  1.0 -0.1235001765
C  C45  1  0.57800000  0.86450000  0.28000000  1.0 -0.0094151346
C  C46  1  0.46900000  0.91190000  0.30900000  1.0 -0.417412088
C  C47  1  0.56600000  0.71280000  0.36900000  1.0 -0.0419615076
C  C48  1  0.57250000  0.80510000  0.31010000  1.0 0.0599160113
C  C49  1  0.59010000  0.77740000  0.38370000  1.0 -0.1017494534
C  C50  1  0.59370000  0.82070000  0.34980000  1.0 -0.1265229976
C  C51  1  0.47370000  0.08390000  0.27740000  1.0 0.043642991
C  C52  1  0.45340000  0.30610000  0.32980000  1.0 -0.0909799996
C  C53  1  0.43970000  0.34640000  0.39930000  1.0 0.6318796755
C  C54  1  0.45020000  0.26080000  0.29670000  1.0 -0.1235001765
C  C55  1  0.42200000  0.13550000  0.28000000  1.0 -0.0094151346
C  C56  1  0.53100000  0.08810000  0.30900000  1.0 -0.417412088
C  C57  1  0.43400000  0.28720000  0.36900000  1.0 -0.0419615076
C  C58  1  0.42750000  0.19490000  0.31010000  1.0 0.0599160113
C  C59  1  0.40990000  0.22260000  0.38370000  1.0 -0.1017494534
C  C60  1  0.40630000  0.17930000  0.34980000  1.0 -0.1265229976
C  C61  1  0.91610000  0.47370000  0.27740000  1.0 0.043642991
C  C62  1  0.69390000  0.45340000  0.32980000  1.0 -0.0909799996
C  C63  1  0.65360000  0.43970000  0.39930000  1.0 0.6318796755
C  C64  1  0.73920000  0.45020000  0.29670000  1.0 -0.1235001765
C  C65  1  0.86450000  0.42200000  0.28000000  1.0 -0.0094151346
C  C66  1  0.91190000  0.53100000  0.30900000  1.0 -0.417412088
C  C67  1  0.71280000  0.43400000  0.36900000  1.0 -0.0419615076
C  C68  1  0.80510000  0.42750000  0.31010000  1.0 0.0599160113
C  C69  1  0.77740000  0.40990000  0.38370000  1.0 -0.1017494534
C  C70  1  0.82070000  0.40630000  0.34980000  1.0 -0.1265229976
C  C71  1  0.08390000  0.52630000  0.27740000  1.0 0.043642991
C  C72  1  0.30610000  0.54660000  0.32980000  1.0 -0.0909799996
C  C73  1  0.34640000  0.56030000  0.39930000  1.0 0.6318796755
C  C74  1  0.26080000  0.54980000  0.29670000  1.0 -0.1235001765
C  C75  1  0.13550000  0.57800000  0.28000000  1.0 -0.0094151346
C  C76  1  0.08810000  0.46900000  0.30900000  1.0 -0.417412088
C  C77  1  0.28720000  0.56600000  0.36900000  1.0 -0.0419615076
C  C78  1  0.19490000  0.57250000  0.31010000  1.0 0.0599160113
C  C79  1  0.22260000  0.59010000  0.38370000  1.0 -0.1017494534
C  C80  1  0.17930000  0.59370000  0.34980000  1.0 -0.1265229976
C  C81  1  0.02630000  0.58390000  0.77740000  1.0 0.043642991
C  C82  1  0.04660000  0.80610000  0.82980000  1.0 -0.0909799996
C  C83  1  0.06030000  0.84640000  0.89930000  1.0 0.6318796755
C  C84  1  0.04980000  0.76080000  0.79670000  1.0 -0.1235001765
C  C85  1  0.07800000  0.63550000  0.78000000  1.0 -0.0094151346
C  C86  1  0.96900000  0.58810000  0.80900000  1.0 -0.417412088
C  C87  1  0.06600000  0.78720000  0.86900000  1.0 -0.0419615076
C  C88  1  0.07250000  0.69490000  0.81010000  1.0 0.0599160113
C  C89  1  0.09010000  0.72260000  0.88370000  1.0 -0.1017494534
C  C90  1  0.09370000  0.67930000  0.84980000  1.0 -0.1265229976
C  C91  1  0.97370000  0.41610000  0.77740000  1.0 0.043642991
C  C92  1  0.95340000  0.19390000  0.82980000  1.0 -0.0909799996
C  C93  1  0.93970000  0.15360000  0.89930000  1.0 0.6318796755
C  C94  1  0.95020000  0.23920000  0.79670000  1.0 -0.1235001765
C  C95  1  0.92200000  0.36450000  0.78000000  1.0 -0.0094151346
C  C96  1  0.03100000  0.41190000  0.80900000  1.0 -0.417412088
C  C97  1  0.93400000  0.21280000  0.86900000  1.0 -0.0419615076
C  C98  1  0.92750000  0.30510000  0.81010000  1.0 0.0599160113
C  C99  1  0.90990000  0.27740000  0.88370000  1.0 -0.1017494534
C  C100  1  0.90630000  0.32070000  0.84980000  1.0 -0.1265229976
C  C101  1  0.41610000  0.02630000  0.77740000  1.0 0.043642991
C  C102  1  0.19390000  0.04660000  0.82980000  1.0 -0.0909799996
C  C103  1  0.15360000  0.06030000  0.89930000  1.0 0.6318796755
C  C104  1  0.23920000  0.04980000  0.79670000  1.0 -0.1235001765
C  C105  1  0.36450000  0.07800000  0.78000000  1.0 -0.0094151346
C  C106  1  0.41190000  0.96900000  0.80900000  1.0 -0.417412088
C  C107  1  0.21280000  0.06600000  0.86900000  1.0 -0.0419615076
C  C108  1  0.30510000  0.07250000  0.81010000  1.0 0.0599160113
C  C109  1  0.27740000  0.09010000  0.88370000  1.0 -0.1017494534
C  C110  1  0.32070000  0.09370000  0.84980000  1.0 -0.1265229976
C  C111  1  0.58390000  0.97370000  0.77740000  1.0 0.043642991
C  C112  1  0.80610000  0.95340000  0.82980000  1.0 -0.0909799996
C  C113  1  0.84640000  0.93970000  0.89930000  1.0 0.6318796755
C  C114  1  0.76080000  0.95020000  0.79670000  1.0 -0.1235001765
C  C115  1  0.63550000  0.92200000  0.78000000  1.0 -0.0094151346
C  C116  1  0.58810000  0.03100000  0.80900000  1.0 -0.417412088
C  C117  1  0.78720000  0.93400000  0.86900000  1.0 -0.0419615076
C  C118  1  0.69490000  0.92750000  0.81010000  1.0 0.0599160113
C  C119  1  0.72260000  0.90990000  0.88370000  1.0 -0.1017494534
C  C120  1  0.67930000  0.90630000  0.84980000  1.0 -0.1265229976
C  C121  1  0.47370000  0.08390000  0.72260000  1.0 0.043642991
C  C122  1  0.45340000  0.30610000  0.67020000  1.0 -0.0909799996
C  C123  1  0.43970000  0.34640000  0.60070000  1.0 0.6318796755
C  C124  1  0.45020000  0.26080000  0.70330000  1.0 -0.1235001765
C  C125  1  0.42200000  0.13550000  0.72000000  1.0 -0.0094151346
C  C126  1  0.53100000  0.08810000  0.69100000  1.0 -0.417412088
C  C127  1  0.43400000  0.28720000  0.63100000  1.0 -0.0419615076
C  C128  1  0.42750000  0.19490000  0.68990000  1.0 0.0599160113
C  C129  1  0.40990000  0.22260000  0.61630000  1.0 -0.1017494534
C  C130  1  0.40630000  0.17930000  0.65020000  1.0 -0.1265229976
C  C131  1  0.52630000  0.91610000  0.72260000  1.0 0.043642991
C  C132  1  0.54660000  0.69390000  0.67020000  1.0 -0.0909799996
C  C133  1  0.56030000  0.65360000  0.60070000  1.0 0.6318796755
C  C134  1  0.54980000  0.73920000  0.70330000  1.0 -0.1235001765
C  C135  1  0.57800000  0.86450000  0.72000000  1.0 -0.0094151346
C  C136  1  0.46900000  0.91190000  0.69100000  1.0 -0.417412088
C  C137  1  0.56600000  0.71280000  0.63100000  1.0 -0.0419615076
C  C138  1  0.57250000  0.80510000  0.68990000  1.0 0.0599160113
C  C139  1  0.59010000  0.77740000  0.61630000  1.0 -0.1017494534
C  C140  1  0.59370000  0.82070000  0.65020000  1.0 -0.1265229976
C  C141  1  0.08390000  0.52630000  0.72260000  1.0 0.043642991
C  C142  1  0.30610000  0.54660000  0.67020000  1.0 -0.0909799996
C  C143  1  0.34640000  0.56030000  0.60070000  1.0 0.6318796755
C  C144  1  0.26080000  0.54980000  0.70330000  1.0 -0.1235001765
C  C145  1  0.13550000  0.57800000  0.72000000  1.0 -0.0094151346
C  C146  1  0.08810000  0.46900000  0.69100000  1.0 -0.417412088
C  C147  1  0.28720000  0.56600000  0.63100000  1.0 -0.0419615076
C  C148  1  0.19490000  0.57250000  0.68990000  1.0 0.0599160113
C  C149  1  0.22260000  0.59010000  0.61630000  1.0 -0.1017494534
C  C150  1  0.17930000  0.59370000  0.65020000  1.0 -0.1265229976
C  C151  1  0.91610000  0.47370000  0.72260000  1.0 0.043642991
C  C152  1  0.69390000  0.45340000  0.67020000  1.0 -0.0909799996
C  C153  1  0.65360000  0.43970000  0.60070000  1.0 0.6318796755
C  C154  1  0.73920000  0.45020000  0.70330000  1.0 -0.1235001765
C  C155  1  0.86450000  0.42200000  0.72000000  1.0 -0.0094151346
C  C156  1  0.91190000  0.53100000  0.69100000  1.0 -0.417412088
C  C157  1  0.71280000  0.43400000  0.63100000  1.0 -0.0419615076
C  C158  1  0.80510000  0.42750000  0.68990000  1.0 0.0599160113
C  C159  1  0.77740000  0.40990000  0.61630000  1.0 -0.1017494534
C  C160  1  0.82070000  0.40630000  0.65020000  1.0 -0.1265229976
C  C161  1  0.97190000  0.47190000  0.25000000  1.0 -0.0094151346
C  C162  1  0.87130000  0.37130000  0.25000000  1.0 -0.047334228
C  C163  1  0.81540000  0.31540000  0.25000000  1.0 -0.1738065935
C  C164  1  0.02810000  0.52810000  0.25000000  1.0 -0.0094151346
C  C165  1  0.12870000  0.62870000  0.25000000  1.0 -0.047334228
C  C166  1  0.18460000  0.68460000  0.25000000  1.0 -0.1738065935
C  C167  1  0.52810000  0.97190000  0.25000000  1.0 -0.0094151346
C  C168  1  0.62870000  0.87130000  0.25000000  1.0 -0.047334228
C  C169  1  0.68460000  0.81540000  0.25000000  1.0 -0.1759402908
C  C170  1  0.47190000  0.02810000  0.25000000  1.0 -0.0094151346
C  C171  1  0.37130000  0.12870000  0.25000000  1.0 -0.047334228
C  C172  1  0.31540000  0.18460000  0.25000000  1.0 -0.1738065935
C  C173  1  0.02810000  0.52810000  0.75000000  1.0 -0.0094151346
C  C174  1  0.12870000  0.62870000  0.75000000  1.0 -0.047334228
C  C175  1  0.18460000  0.68460000  0.75000000  1.0 -0.1738065935
C  C176  1  0.97190000  0.47190000  0.75000000  1.0 -0.0094151346
C  C177  1  0.87130000  0.37130000  0.75000000  1.0 -0.047334228
C  C178  1  0.81540000  0.31540000  0.75000000  1.0 -0.1738065935
C  C179  1  0.47190000  0.02810000  0.75000000  1.0 -0.0094151346
C  C180  1  0.37130000  0.12870000  0.75000000  1.0 -0.047334228
C  C181  1  0.31540000  0.18460000  0.75000000  1.0 -0.1738065935
C  C182  1  0.52810000  0.97190000  0.75000000  1.0 -0.0094151346
C  C183  1  0.62870000  0.87130000  0.75000000  1.0 -0.047334228
C  C184  1  0.68460000  0.81540000  0.75000000  1.0 -0.1759402908
O  O1  1  0.97170000  0.09290000  0.10850000  1.0 -0.6014990068
O  O2  1  0.93960000  0.17360000  0.06030000  1.0 -0.713087255
O  O3  1  0.03810000  0.08370000  0.03580000  1.0 -1.1567452407
O  O4  1  0.02830000  0.90710000  0.10850000  1.0 -0.6014990068
O  O5  1  0.06040000  0.82640000  0.06030000  1.0 -0.713087255
O  O6  1  0.96190000  0.91630000  0.03580000  1.0 -1.1567452407
O  O7  1  0.90710000  0.97170000  0.10850000  1.0 -0.6014990068
O  O8  1  0.82640000  0.93960000  0.06030000  1.0 -0.713087255
O  O9  1  0.91630000  0.03810000  0.03580000  1.0 -1.1567452407
O  O10  1  0.09290000  0.02830000  0.10850000  1.0 -0.6014990068
O  O11  1  0.17360000  0.06040000  0.06030000  1.0 -0.713087255
O  O12  1  0.08370000  0.96190000  0.03580000  1.0 -1.1567452407
O  O13  1  0.52830000  0.59290000  0.39150000  1.0 -0.6014990068
O  O14  1  0.56040000  0.67360000  0.43970000  1.0 -0.713087255
O  O15  1  0.46190000  0.58370000  0.46420000  1.0 -1.1527297653
O  O16  1  0.47170000  0.40710000  0.39150000  1.0 -0.6014990068
O  O17  1  0.43960000  0.32640000  0.43970000  1.0 -0.713087255
O  O18  1  0.53810000  0.41630000  0.46420000  1.0 -1.1527297653
O  O19  1  0.59290000  0.47170000  0.39150000  1.0 -0.6014990068
O  O20  1  0.67360000  0.43960000  0.43970000  1.0 -0.713087255
O  O21  1  0.58370000  0.53810000  0.46420000  1.0 -1.1527297653
O  O22  1  0.40710000  0.52830000  0.39150000  1.0 -0.6014990068
O  O23  1  0.32640000  0.56040000  0.43970000  1.0 -0.713087255
O  O24  1  0.41630000  0.46190000  0.46420000  1.0 -1.1527297653
O  O25  1  0.02830000  0.90710000  0.89150000  1.0 -0.6014990068
O  O26  1  0.06040000  0.82640000  0.93970000  1.0 -0.7157108939
O  O27  1  0.96190000  0.91630000  0.96420000  1.0 -1.1567452407
O  O28  1  0.97170000  0.09290000  0.89150000  1.0 -0.6014990068
O  O29  1  0.93960000  0.17360000  0.93970000  1.0 -0.713087255
O  O30  1  0.03810000  0.08370000  0.96420000  1.0 -1.1567452407
O  O31  1  0.09290000  0.02830000  0.89150000  1.0 -0.6014990068
O  O32  1  0.17360000  0.06040000  0.93970000  1.0 -0.7157108939
O  O33  1  0.08370000  0.96190000  0.96420000  1.0 -1.1567452407
O  O34  1  0.90710000  0.97170000  0.89150000  1.0 -0.6014990068
O  O35  1  0.82640000  0.93960000  0.93970000  1.0 -0.713087255
O  O36  1  0.91630000  0.03810000  0.96420000  1.0 -1.1567452407
O  O37  1  0.47170000  0.40710000  0.60850000  1.0 -0.6014990068
O  O38  1  0.43960000  0.32640000  0.56030000  1.0 -0.713087255
O  O39  1  0.53810000  0.41630000  0.53580000  1.0 -1.1567452407
O  O40  1  0.52830000  0.59290000  0.60850000  1.0 -0.6014990068
O  O41  1  0.56040000  0.67360000  0.56030000  1.0 -0.713087255
O  O42  1  0.46190000  0.58370000  0.53580000  1.0 -1.1567452407
O  O43  1  0.40710000  0.52830000  0.60850000  1.0 -0.6014990068
O  O44  1  0.32640000  0.56040000  0.56030000  1.0 -0.713087255
O  O45  1  0.41630000  0.46190000  0.53580000  1.0 -1.1567452407
O  O46  1  0.59290000  0.47170000  0.60850000  1.0 -0.6014990068
O  O47  1  0.67360000  0.43960000  0.56030000  1.0 -0.713087255
O  O48  1  0.58370000  0.53810000  0.53580000  1.0 -1.1567452407
