# DDEC6 charges by PACMAN v1.1 (https://github.com/mtap-research/PACMAN-charge/)
data_NEVLAE_ASR_pacman
_symmetry_space_group_name_H-M   'P 1'
_cell_length_a   19.04100000
_cell_length_b   19.04100000
_cell_length_c   33.13400000
_cell_angle_alpha   90.00000000
_cell_angle_beta   90.00000000
_cell_angle_gamma   90.00000000
_symmetry_Int_Tables_number   1
_chemical_formula_structural   Zr3H40(C23O6)2
_chemical_formula_sum   'Zr12 H160 C184 O48'
_cell_volume   12013.05247025
_cell_formula_units_Z   4
loop_
 _symmetry_equiv_pos_site_id
 _symmetry_equiv_pos_as_xyz
  1  'x, y, z'
loop_
 _atom_site_type_symbol
 _atom_site_label
 _atom_site_symmetry_multiplicity
 _atom_site_fract_x
 _atom_site_fract_y
 _atom_site_fract_z
 _atom_site_occupancy
 _atom_site_charge
Zr  Zr1  1  0.12371000  0.04481000  0.00000000  1.0 2.4979045282
Zr  Zr2  1  0.87629000  0.95519000  0.00000000  1.0 2.4979045282
Zr  Zr3  1  0.95519000  0.12371000  0.00000000  1.0 2.4979045282
Zr  Zr4  1  0.04481000  0.87629000  0.00000000  1.0 2.4979045282
Zr  Zr5  1  0.37629000  0.54481000  0.50000000  1.0 2.4979045282
Zr  Zr6  1  0.62371000  0.45519000  0.50000000  1.0 2.4979045282
Zr  Zr7  1  0.54481000  0.62371000  0.50000000  1.0 2.4979045282
Zr  Zr8  1  0.45519000  0.37629000  0.50000000  1.0 2.4979045282
Zr  Zr9  1  0.00000000  0.00000000  0.07352000  1.0 2.3582237551
Zr  Zr10  1  0.50000000  0.50000000  0.42648000  1.0 2.3582237551
Zr  Zr11  1  0.00000000  0.00000000  0.92648000  1.0 2.3582237551
Zr  Zr12  1  0.50000000  0.50000000  0.57352000  1.0 2.3582237551
H  H1  1  0.97120000  0.14550000  0.17540000  1.0 0.1100485686
H  H2  1  0.96320000  0.22760000  0.22870000  1.0 0.1293850651
H  H3  1  0.01440000  0.43200000  0.16670000  1.0 0.1100485686
H  H4  1  0.04470000  0.36400000  0.18690000  1.0 0.1293850651
H  H5  1  0.07170000  0.43810000  0.20050000  1.0 0.1217573474
H  H6  1  0.89820000  0.28660000  0.09280000  1.0 0.1100485686
H  H7  1  0.88580000  0.36690000  0.14670000  1.0 0.1217573474
H  H8  1  0.82310000  0.28300000  0.22810000  1.0 0.0258986049
H  H9  1  0.81640000  0.28970000  0.27510000  1.0 0.0193858533
H  H10  1  0.76960000  0.33640000  0.24690000  1.0 0.0193858533
H  H11  1  0.02880000  0.85450000  0.17540000  1.0 0.1100485686
H  H12  1  0.03680000  0.77240000  0.22870000  1.0 0.1293850651
H  H13  1  0.98560000  0.56800000  0.16670000  1.0 0.1100485686
H  H14  1  0.95530000  0.63600000  0.18690000  1.0 0.1293850651
H  H15  1  0.92830000  0.56190000  0.20050000  1.0 0.1217573474
H  H16  1  0.10180000  0.71340000  0.09280000  1.0 0.1100485686
H  H17  1  0.11420000  0.63310000  0.14670000  1.0 0.1217573474
H  H18  1  0.17690000  0.71700000  0.22810000  1.0 0.0258986049
H  H19  1  0.18360000  0.71030000  0.27510000  1.0 0.0193858533
H  H20  1  0.23040000  0.66360000  0.24690000  1.0 0.0193858533
H  H21  1  0.85450000  0.97120000  0.17540000  1.0 0.1100485686
H  H22  1  0.77240000  0.96320000  0.22870000  1.0 0.1293850651
H  H23  1  0.56800000  0.01440000  0.16670000  1.0 0.1100485686
H  H24  1  0.63600000  0.04470000  0.18690000  1.0 0.1293850651
H  H25  1  0.56190000  0.07170000  0.20050000  1.0 0.1217573474
H  H26  1  0.71340000  0.89820000  0.09280000  1.0 0.1100485686
H  H27  1  0.63310000  0.88580000  0.14670000  1.0 0.1217573474
H  H28  1  0.71700000  0.82310000  0.22810000  1.0 0.0258986049
H  H29  1  0.71030000  0.81640000  0.27510000  1.0 0.0193858533
H  H30  1  0.66360000  0.76960000  0.24690000  1.0 0.0193858533
H  H31  1  0.14550000  0.02880000  0.17540000  1.0 0.1100485686
H  H32  1  0.22760000  0.03680000  0.22870000  1.0 0.1293850651
H  H33  1  0.43200000  0.98560000  0.16670000  1.0 0.1100485686
H  H34  1  0.36400000  0.95530000  0.18690000  1.0 0.1293850651
H  H35  1  0.43810000  0.92830000  0.20050000  1.0 0.1217573474
H  H36  1  0.28660000  0.10180000  0.09280000  1.0 0.1100485686
H  H37  1  0.36690000  0.11420000  0.14670000  1.0 0.1217573474
H  H38  1  0.28300000  0.17690000  0.22810000  1.0 0.0258986049
H  H39  1  0.28970000  0.18360000  0.27510000  1.0 0.0193858533
H  H40  1  0.33640000  0.23040000  0.24690000  1.0 0.0193858533
H  H41  1  0.52880000  0.64550000  0.32460000  1.0 0.1100485686
H  H42  1  0.53680000  0.72760000  0.27130000  1.0 0.1293850651
H  H43  1  0.48560000  0.93200000  0.33333333  1.0 0.1100485686
H  H44  1  0.45530000  0.86400000  0.31310000  1.0 0.1293850651
H  H45  1  0.42830000  0.93810000  0.29950000  1.0 0.1217573474
H  H46  1  0.60180000  0.78660000  0.40720000  1.0 0.1100485686
H  H47  1  0.61420000  0.86690000  0.35330000  1.0 0.1217573474
H  H48  1  0.67690000  0.78300000  0.27190000  1.0 0.0258986049
H  H49  1  0.68360000  0.78970000  0.22490000  1.0 0.0193858533
H  H50  1  0.73040000  0.83640000  0.25310000  1.0 0.0193858533
H  H51  1  0.47120000  0.35450000  0.32460000  1.0 0.1100485686
H  H52  1  0.46320000  0.27240000  0.27130000  1.0 0.1293850651
H  H53  1  0.51440000  0.06800000  0.33333333  1.0 0.1100485686
H  H54  1  0.54470000  0.13600000  0.31310000  1.0 0.1293850651
H  H55  1  0.57170000  0.06190000  0.29950000  1.0 0.1217573474
H  H56  1  0.39820000  0.21340000  0.40720000  1.0 0.1100485686
H  H57  1  0.38580000  0.13310000  0.35330000  1.0 0.1217573474
H  H58  1  0.32310000  0.21700000  0.27190000  1.0 0.0258986049
H  H59  1  0.31640000  0.21030000  0.22490000  1.0 0.0193858533
H  H60  1  0.26960000  0.16360000  0.25310000  1.0 0.0193858533
H  H61  1  0.64550000  0.47120000  0.32460000  1.0 0.1100485686
H  H62  1  0.72760000  0.46320000  0.27130000  1.0 0.1293850651
H  H63  1  0.93200000  0.51440000  0.33333333  1.0 0.1100485686
H  H64  1  0.86400000  0.54470000  0.31310000  1.0 0.1293850651
H  H65  1  0.93810000  0.57170000  0.29950000  1.0 0.1217573474
H  H66  1  0.78660000  0.39820000  0.40720000  1.0 0.1100485686
H  H67  1  0.86690000  0.38580000  0.35330000  1.0 0.1217573474
H  H68  1  0.78300000  0.32310000  0.27190000  1.0 0.0258986049
H  H69  1  0.78970000  0.31640000  0.22490000  1.0 0.0193858533
H  H70  1  0.83640000  0.26960000  0.25310000  1.0 0.0193858533
H  H71  1  0.35450000  0.52880000  0.32460000  1.0 0.1100485686
H  H72  1  0.27240000  0.53680000  0.27130000  1.0 0.1293850651
H  H73  1  0.06800000  0.48560000  0.33333333  1.0 0.1100485686
H  H74  1  0.13600000  0.45530000  0.31310000  1.0 0.1293850651
H  H75  1  0.06190000  0.42830000  0.29950000  1.0 0.1217573474
H  H76  1  0.21340000  0.60180000  0.40720000  1.0 0.1100485686
H  H77  1  0.13310000  0.61420000  0.35330000  1.0 0.1217573474
H  H78  1  0.21700000  0.67690000  0.27190000  1.0 0.0258986049
H  H79  1  0.21030000  0.68360000  0.22490000  1.0 0.0193858533
H  H80  1  0.16360000  0.73040000  0.25310000  1.0 0.0193858533
H  H81  1  0.02880000  0.85450000  0.82460000  1.0 0.1100485686
H  H82  1  0.03680000  0.77240000  0.77130000  1.0 0.1293850651
H  H83  1  0.98560000  0.56800000  0.83330000  1.0 0.1100485686
H  H84  1  0.95530000  0.63600000  0.81310000  1.0 0.1293850651
H  H85  1  0.92830000  0.56190000  0.79950000  1.0 0.1217573474
H  H86  1  0.10180000  0.71340000  0.90720000  1.0 0.1100485686
H  H87  1  0.11420000  0.63310000  0.85330000  1.0 0.1217573474
H  H88  1  0.17690000  0.71700000  0.77190000  1.0 0.0258986049
H  H89  1  0.18360000  0.71030000  0.72490000  1.0 0.0193858533
H  H90  1  0.23040000  0.66360000  0.75310000  1.0 0.0193858533
H  H91  1  0.97120000  0.14550000  0.82460000  1.0 0.1100485686
H  H92  1  0.96320000  0.22760000  0.77130000  1.0 0.1293850651
H  H93  1  0.01440000  0.43200000  0.83330000  1.0 0.1100485686
H  H94  1  0.04470000  0.36400000  0.81310000  1.0 0.1293850651
H  H95  1  0.07170000  0.43810000  0.79950000  1.0 0.1217573474
H  H96  1  0.89820000  0.28660000  0.90720000  1.0 0.1100485686
H  H97  1  0.88580000  0.36690000  0.85330000  1.0 0.1217573474
H  H98  1  0.82310000  0.28300000  0.77190000  1.0 0.0258986049
H  H99  1  0.81640000  0.28970000  0.72490000  1.0 0.0193858533
H  H100  1  0.76960000  0.33640000  0.75310000  1.0 0.0193858533
H  H101  1  0.14550000  0.02880000  0.82460000  1.0 0.1100485686
H  H102  1  0.22760000  0.03680000  0.77130000  1.0 0.1293850651
H  H103  1  0.43200000  0.98560000  0.83330000  1.0 0.1100485686
H  H104  1  0.36400000  0.95530000  0.81310000  1.0 0.1293850651
H  H105  1  0.43810000  0.92830000  0.79950000  1.0 0.1217573474
H  H106  1  0.28660000  0.10180000  0.90720000  1.0 0.1100485686
H  H107  1  0.36690000  0.11420000  0.85330000  1.0 0.1217573474
H  H108  1  0.28300000  0.17690000  0.77190000  1.0 0.0258986049
H  H109  1  0.28970000  0.18360000  0.72490000  1.0 0.0193858533
H  H110  1  0.33640000  0.23040000  0.75310000  1.0 0.0193858533
H  H111  1  0.85450000  0.97120000  0.82460000  1.0 0.1100485686
H  H112  1  0.77240000  0.96320000  0.77130000  1.0 0.1293850651
H  H113  1  0.56800000  0.01440000  0.83330000  1.0 0.1100485686
H  H114  1  0.63600000  0.04470000  0.81310000  1.0 0.1293850651
H  H115  1  0.56190000  0.07170000  0.79950000  1.0 0.1217573474
H  H116  1  0.71340000  0.89820000  0.90720000  1.0 0.1100485686
H  H117  1  0.63310000  0.88580000  0.85330000  1.0 0.1217573474
H  H118  1  0.71700000  0.82310000  0.77190000  1.0 0.0258986049
H  H119  1  0.71030000  0.81640000  0.72490000  1.0 0.0193858533
H  H120  1  0.66360000  0.76960000  0.75310000  1.0 0.0193858533
H  H121  1  0.47120000  0.35450000  0.67540000  1.0 0.1100485686
H  H122  1  0.46320000  0.27240000  0.72870000  1.0 0.1293850651
H  H123  1  0.51440000  0.06800000  0.66666667  1.0 0.1100485686
H  H124  1  0.54470000  0.13600000  0.68690000  1.0 0.1293850651
H  H125  1  0.57170000  0.06190000  0.70050000  1.0 0.1217573474
H  H126  1  0.39820000  0.21340000  0.59280000  1.0 0.1100485686
H  H127  1  0.38580000  0.13310000  0.64670000  1.0 0.1217573474
H  H128  1  0.32310000  0.21700000  0.72810000  1.0 0.0258986049
H  H129  1  0.31640000  0.21030000  0.77510000  1.0 0.0193858533
H  H130  1  0.26960000  0.16360000  0.74690000  1.0 0.0193858533
H  H131  1  0.52880000  0.64550000  0.67540000  1.0 0.1100485686
H  H132  1  0.53680000  0.72760000  0.72870000  1.0 0.1293850651
H  H133  1  0.48560000  0.93200000  0.66666667  1.0 0.1100485686
H  H134  1  0.45530000  0.86400000  0.68690000  1.0 0.1293850651
H  H135  1  0.42830000  0.93810000  0.70050000  1.0 0.1217573474
H  H136  1  0.60180000  0.78660000  0.59280000  1.0 0.1100485686
H  H137  1  0.61420000  0.86690000  0.64670000  1.0 0.1217573474
H  H138  1  0.67690000  0.78300000  0.72810000  1.0 0.0258986049
H  H139  1  0.68360000  0.78970000  0.77510000  1.0 0.0193858533
H  H140  1  0.73040000  0.83640000  0.74690000  1.0 0.0193858533
H  H141  1  0.35450000  0.52880000  0.67540000  1.0 0.1100485686
H  H142  1  0.27240000  0.53680000  0.72870000  1.0 0.1293850651
H  H143  1  0.06800000  0.48560000  0.66666667  1.0 0.1100485686
H  H144  1  0.13600000  0.45530000  0.68690000  1.0 0.1293850651
H  H145  1  0.06190000  0.42830000  0.70050000  1.0 0.1217573474
H  H146  1  0.21340000  0.60180000  0.59280000  1.0 0.1100485686
H  H147  1  0.13310000  0.61420000  0.64670000  1.0 0.1217573474
H  H148  1  0.21700000  0.67690000  0.72810000  1.0 0.0258986049
H  H149  1  0.21030000  0.68360000  0.77510000  1.0 0.0193858533
H  H150  1  0.16360000  0.73040000  0.74690000  1.0 0.0193858533
H  H151  1  0.64550000  0.47120000  0.67540000  1.0 0.1100485686
H  H152  1  0.72760000  0.46320000  0.72870000  1.0 0.1293850651
H  H153  1  0.93200000  0.51440000  0.66666667  1.0 0.1100485686
H  H154  1  0.86400000  0.54470000  0.68690000  1.0 0.1293850651
H  H155  1  0.93810000  0.57170000  0.70050000  1.0 0.1217573474
H  H156  1  0.78660000  0.39820000  0.59280000  1.0 0.1100485686
H  H157  1  0.86690000  0.38580000  0.64670000  1.0 0.1217573474
H  H158  1  0.78300000  0.32310000  0.72810000  1.0 0.0258986049
H  H159  1  0.78970000  0.31640000  0.77510000  1.0 0.0193858533
H  H160  1  0.83640000  0.26960000  0.74690000  1.0 0.0193858533
C  C1  1  0.97460000  0.41510000  0.22320000  1.0 0.0389670139
C  C2  1  0.95460000  0.19070000  0.17050000  1.0 -0.0821902815
C  C3  1  0.93970000  0.14910000  0.10160000  1.0 0.6171962398
C  C4  1  0.95110000  0.23860000  0.20230000  1.0 -0.1345239968
C  C5  1  0.92140000  0.36560000  0.21950000  1.0 -0.0219611379
C  C6  1  0.03160000  0.41200000  0.19150000  1.0 -0.4165326913
C  C7  1  0.93380000  0.20940000  0.13140000  1.0 -0.0219611379
C  C8  1  0.92740000  0.30520000  0.19020000  1.0 0.0661253261
C  C9  1  0.90970000  0.27540000  0.11930000  1.0 -0.1106329937
C  C10  1  0.90470000  0.32260000  0.15130000  1.0 -0.1106329937
C  C11  1  0.02540000  0.58490000  0.22320000  1.0 0.0389670139
C  C12  1  0.04540000  0.80930000  0.17050000  1.0 -0.0821902815
C  C13  1  0.06030000  0.85090000  0.10160000  1.0 0.6171962398
C  C14  1  0.04890000  0.76140000  0.20230000  1.0 -0.1345239968
C  C15  1  0.07860000  0.63440000  0.21950000  1.0 -0.0219611379
C  C16  1  0.96840000  0.58800000  0.19150000  1.0 -0.4165326913
C  C17  1  0.06620000  0.79060000  0.13140000  1.0 -0.0219611379
C  C18  1  0.07260000  0.69480000  0.19020000  1.0 0.0661253261
C  C19  1  0.09030000  0.72460000  0.11930000  1.0 -0.1106329937
C  C20  1  0.09530000  0.67740000  0.15130000  1.0 -0.1106329937
C  C21  1  0.58490000  0.97460000  0.22320000  1.0 0.0389670139
C  C22  1  0.80930000  0.95460000  0.17050000  1.0 -0.0821902815
C  C23  1  0.85090000  0.93970000  0.10160000  1.0 0.6171962398
C  C24  1  0.76140000  0.95110000  0.20230000  1.0 -0.1345239968
C  C25  1  0.63440000  0.92140000  0.21950000  1.0 -0.0219611379
C  C26  1  0.58800000  0.03160000  0.19150000  1.0 -0.4165326913
C  C27  1  0.79060000  0.93380000  0.13140000  1.0 -0.0219611379
C  C28  1  0.69480000  0.92740000  0.19020000  1.0 0.0661253261
C  C29  1  0.72460000  0.90970000  0.11930000  1.0 -0.1106329937
C  C30  1  0.67740000  0.90470000  0.15130000  1.0 -0.1106329937
C  C31  1  0.41510000  0.02540000  0.22320000  1.0 0.0389670139
C  C32  1  0.19070000  0.04540000  0.17050000  1.0 -0.0821902815
C  C33  1  0.14910000  0.06030000  0.10160000  1.0 0.6171962398
C  C34  1  0.23860000  0.04890000  0.20230000  1.0 -0.1345239968
C  C35  1  0.36560000  0.07860000  0.21950000  1.0 -0.0219611379
C  C36  1  0.41200000  0.96840000  0.19150000  1.0 -0.4165326913
C  C37  1  0.20940000  0.06620000  0.13140000  1.0 -0.0219611379
C  C38  1  0.30520000  0.07260000  0.19020000  1.0 0.0661253261
C  C39  1  0.27540000  0.09030000  0.11930000  1.0 -0.1106329937
C  C40  1  0.32260000  0.09530000  0.15130000  1.0 -0.1106329937
C  C41  1  0.52540000  0.91510000  0.27680000  1.0 0.0389670139
C  C42  1  0.54540000  0.69070000  0.32950000  1.0 -0.0821902815
C  C43  1  0.56030000  0.64910000  0.39840000  1.0 0.6171962398
C  C44  1  0.54890000  0.73860000  0.29770000  1.0 -0.1345239968
C  C45  1  0.57860000  0.86560000  0.28050000  1.0 -0.0219611379
C  C46  1  0.46840000  0.91200000  0.30850000  1.0 -0.4165326913
C  C47  1  0.56620000  0.70940000  0.36860000  1.0 -0.0219611379
C  C48  1  0.57260000  0.80520000  0.30980000  1.0 0.0661253261
C  C49  1  0.59030000  0.77540000  0.38070000  1.0 -0.1106329937
C  C50  1  0.59530000  0.82260000  0.34870000  1.0 -0.1106329937
C  C51  1  0.47460000  0.08490000  0.27680000  1.0 0.0389670139
C  C52  1  0.45460000  0.30930000  0.32950000  1.0 -0.0821902815
C  C53  1  0.43970000  0.35090000  0.39840000  1.0 0.6171962398
C  C54  1  0.45110000  0.26140000  0.29770000  1.0 -0.1345239968
C  C55  1  0.42140000  0.13440000  0.28050000  1.0 -0.0219611379
C  C56  1  0.53160000  0.08800000  0.30850000  1.0 -0.4165326913
C  C57  1  0.43380000  0.29060000  0.36860000  1.0 -0.0219611379
C  C58  1  0.42740000  0.19480000  0.30980000  1.0 0.0661253261
C  C59  1  0.40970000  0.22460000  0.38070000  1.0 -0.1106329937
C  C60  1  0.40470000  0.17740000  0.34870000  1.0 -0.1106329937
C  C61  1  0.91510000  0.47460000  0.27680000  1.0 0.0389670139
C  C62  1  0.69070000  0.45460000  0.32950000  1.0 -0.0821902815
C  C63  1  0.64910000  0.43970000  0.39840000  1.0 0.6171962398
C  C64  1  0.73860000  0.45110000  0.29770000  1.0 -0.1345239968
C  C65  1  0.86560000  0.42140000  0.28050000  1.0 -0.0219611379
C  C66  1  0.91200000  0.53160000  0.30850000  1.0 -0.4165326913
C  C67  1  0.70940000  0.43380000  0.36860000  1.0 -0.0219611379
C  C68  1  0.80520000  0.42740000  0.30980000  1.0 0.0661253261
C  C69  1  0.77540000  0.40970000  0.38070000  1.0 -0.1106329937
C  C70  1  0.82260000  0.40470000  0.34870000  1.0 -0.1106329937
C  C71  1  0.08490000  0.52540000  0.27680000  1.0 0.0389670139
C  C72  1  0.30930000  0.54540000  0.32950000  1.0 -0.0821902815
C  C73  1  0.35090000  0.56030000  0.39840000  1.0 0.6171962398
C  C74  1  0.26140000  0.54890000  0.29770000  1.0 -0.1345239968
C  C75  1  0.13440000  0.57860000  0.28050000  1.0 -0.0219611379
C  C76  1  0.08800000  0.46840000  0.30850000  1.0 -0.4165326913
C  C77  1  0.29060000  0.56620000  0.36860000  1.0 -0.0219611379
C  C78  1  0.19480000  0.57260000  0.30980000  1.0 0.0661253261
C  C79  1  0.22460000  0.59030000  0.38070000  1.0 -0.1106329937
C  C80  1  0.17740000  0.59530000  0.34870000  1.0 -0.1106329937
C  C81  1  0.02540000  0.58490000  0.77680000  1.0 0.0389670139
C  C82  1  0.04540000  0.80930000  0.82950000  1.0 -0.0821902815
C  C83  1  0.06030000  0.85090000  0.89840000  1.0 0.6171962398
C  C84  1  0.04890000  0.76140000  0.79770000  1.0 -0.1345239968
C  C85  1  0.07860000  0.63440000  0.78050000  1.0 -0.0219611379
C  C86  1  0.96840000  0.58800000  0.80850000  1.0 -0.4165326913
C  C87  1  0.06620000  0.79060000  0.86860000  1.0 -0.0219611379
C  C88  1  0.07260000  0.69480000  0.80980000  1.0 0.0661253261
C  C89  1  0.09030000  0.72460000  0.88070000  1.0 -0.1106329937
C  C90  1  0.09530000  0.67740000  0.84870000  1.0 -0.1106329937
C  C91  1  0.97460000  0.41510000  0.77680000  1.0 0.0389670139
C  C92  1  0.95460000  0.19070000  0.82950000  1.0 -0.0821902815
C  C93  1  0.93970000  0.14910000  0.89840000  1.0 0.6171962398
C  C94  1  0.95110000  0.23860000  0.79770000  1.0 -0.1345239968
C  C95  1  0.92140000  0.36560000  0.78050000  1.0 -0.0219611379
C  C96  1  0.03160000  0.41200000  0.80850000  1.0 -0.4165326913
C  C97  1  0.93380000  0.20940000  0.86860000  1.0 -0.0219611379
C  C98  1  0.92740000  0.30520000  0.80980000  1.0 0.0661253261
C  C99  1  0.90970000  0.27540000  0.88070000  1.0 -0.1106329937
C  C100  1  0.90470000  0.32260000  0.84870000  1.0 -0.1106329937
C  C101  1  0.41510000  0.02540000  0.77680000  1.0 0.0389670139
C  C102  1  0.19070000  0.04540000  0.82950000  1.0 -0.0821902815
C  C103  1  0.14910000  0.06030000  0.89840000  1.0 0.6171962398
C  C104  1  0.23860000  0.04890000  0.79770000  1.0 -0.1345239968
C  C105  1  0.36560000  0.07860000  0.78050000  1.0 -0.0219611379
C  C106  1  0.41200000  0.96840000  0.80850000  1.0 -0.4165326913
C  C107  1  0.20940000  0.06620000  0.86860000  1.0 -0.0219611379
C  C108  1  0.30520000  0.07260000  0.80980000  1.0 0.0661253261
C  C109  1  0.27540000  0.09030000  0.88070000  1.0 -0.1106329937
C  C110  1  0.32260000  0.09530000  0.84870000  1.0 -0.1106329937
C  C111  1  0.58490000  0.97460000  0.77680000  1.0 0.0389670139
C  C112  1  0.80930000  0.95460000  0.82950000  1.0 -0.0821902815
C  C113  1  0.85090000  0.93970000  0.89840000  1.0 0.6171962398
C  C114  1  0.76140000  0.95110000  0.79770000  1.0 -0.1345239968
C  C115  1  0.63440000  0.92140000  0.78050000  1.0 -0.0219611379
C  C116  1  0.58800000  0.03160000  0.80850000  1.0 -0.4165326913
C  C117  1  0.79060000  0.93380000  0.86860000  1.0 -0.0219611379
C  C118  1  0.69480000  0.92740000  0.80980000  1.0 0.0661253261
C  C119  1  0.72460000  0.90970000  0.88070000  1.0 -0.1106329937
C  C120  1  0.67740000  0.90470000  0.84870000  1.0 -0.1106329937
C  C121  1  0.47460000  0.08490000  0.72320000  1.0 0.0389670139
C  C122  1  0.45460000  0.30930000  0.67050000  1.0 -0.0821902815
C  C123  1  0.43970000  0.35090000  0.60160000  1.0 0.6171962398
C  C124  1  0.45110000  0.26140000  0.70230000  1.0 -0.1345239968
C  C125  1  0.42140000  0.13440000  0.71950000  1.0 -0.0219611379
C  C126  1  0.53160000  0.08800000  0.69150000  1.0 -0.4165326913
C  C127  1  0.43380000  0.29060000  0.63140000  1.0 -0.0219611379
C  C128  1  0.42740000  0.19480000  0.69020000  1.0 0.0661253261
C  C129  1  0.40970000  0.22460000  0.61930000  1.0 -0.1106329937
C  C130  1  0.40470000  0.17740000  0.65130000  1.0 -0.1106329937
C  C131  1  0.52540000  0.91510000  0.72320000  1.0 0.0389670139
C  C132  1  0.54540000  0.69070000  0.67050000  1.0 -0.0821902815
C  C133  1  0.56030000  0.64910000  0.60160000  1.0 0.6171962398
C  C134  1  0.54890000  0.73860000  0.70230000  1.0 -0.1345239968
C  C135  1  0.57860000  0.86560000  0.71950000  1.0 -0.0219611379
C  C136  1  0.46840000  0.91200000  0.69150000  1.0 -0.4165326913
C  C137  1  0.56620000  0.70940000  0.63140000  1.0 -0.0219611379
C  C138  1  0.57260000  0.80520000  0.69020000  1.0 0.0661253261
C  C139  1  0.59030000  0.77540000  0.61930000  1.0 -0.1106329937
C  C140  1  0.59530000  0.82260000  0.65130000  1.0 -0.1106329937
C  C141  1  0.08490000  0.52540000  0.72320000  1.0 0.0389670139
C  C142  1  0.30930000  0.54540000  0.67050000  1.0 -0.0821902815
C  C143  1  0.35090000  0.56030000  0.60160000  1.0 0.6171962398
C  C144  1  0.26140000  0.54890000  0.70230000  1.0 -0.1345239968
C  C145  1  0.13440000  0.57860000  0.71950000  1.0 -0.0219611379
C  C146  1  0.08800000  0.46840000  0.69150000  1.0 -0.4165326913
C  C147  1  0.29060000  0.56620000  0.63140000  1.0 -0.0219611379
C  C148  1  0.19480000  0.57260000  0.69020000  1.0 0.0661253261
C  C149  1  0.22460000  0.59030000  0.61930000  1.0 -0.1106329937
C  C150  1  0.17740000  0.59530000  0.65130000  1.0 -0.1106329937
C  C151  1  0.91510000  0.47460000  0.72320000  1.0 0.0389670139
C  C152  1  0.69070000  0.45460000  0.67050000  1.0 -0.0821902815
C  C153  1  0.64910000  0.43970000  0.60160000  1.0 0.6171962398
C  C154  1  0.73860000  0.45110000  0.70230000  1.0 -0.1345239968
C  C155  1  0.86560000  0.42140000  0.71950000  1.0 -0.0219611379
C  C156  1  0.91200000  0.53160000  0.69150000  1.0 -0.4165326913
C  C157  1  0.70940000  0.43380000  0.63140000  1.0 -0.0219611379
C  C158  1  0.80520000  0.42740000  0.69020000  1.0 0.0661253261
C  C159  1  0.77540000  0.40970000  0.61930000  1.0 -0.1106329937
C  C160  1  0.82260000  0.40470000  0.65130000  1.0 -0.1106329937
C  C161  1  0.97207000  0.47207000  0.25000000  1.0 -0.0042959542
C  C162  1  0.87070000  0.37070000  0.25000000  1.0 -0.0435823004
C  C163  1  0.81490000  0.31490000  0.25000000  1.0 -0.1757802079
C  C164  1  0.02793000  0.52793000  0.25000000  1.0 -0.0042959542
C  C165  1  0.12930000  0.62930000  0.25000000  1.0 -0.0435823004
C  C166  1  0.18510000  0.68510000  0.25000000  1.0 -0.1757802079
C  C167  1  0.52793000  0.97207000  0.25000000  1.0 -0.0042959542
C  C168  1  0.62930000  0.87070000  0.25000000  1.0 -0.0435823004
C  C169  1  0.68510000  0.81490000  0.25000000  1.0 -0.1757802079
C  C170  1  0.47207000  0.02793000  0.25000000  1.0 -0.0042959542
C  C171  1  0.37070000  0.12930000  0.25000000  1.0 -0.0435823004
C  C172  1  0.31490000  0.18510000  0.25000000  1.0 -0.1734547575
C  C173  1  0.02793000  0.52793000  0.75000000  1.0 -0.0042959542
C  C174  1  0.12930000  0.62930000  0.75000000  1.0 -0.0435823004
C  C175  1  0.18510000  0.68510000  0.75000000  1.0 -0.1757802079
C  C176  1  0.97207000  0.47207000  0.75000000  1.0 -0.0042959542
C  C177  1  0.87070000  0.37070000  0.75000000  1.0 -0.0435823004
C  C178  1  0.81490000  0.31490000  0.75000000  1.0 -0.1757802079
C  C179  1  0.47207000  0.02793000  0.75000000  1.0 -0.0042959542
C  C180  1  0.37070000  0.12930000  0.75000000  1.0 -0.0435823004
C  C181  1  0.31490000  0.18510000  0.75000000  1.0 -0.1734547575
C  C182  1  0.52793000  0.97207000  0.75000000  1.0 -0.0042959542
C  C183  1  0.62930000  0.87070000  0.75000000  1.0 -0.0435823004
C  C184  1  0.68510000  0.81490000  0.75000000  1.0 -0.1757802079
O  O1  1  0.97160000  0.09180000  0.10890000  1.0 -0.5693959554
O  O2  1  0.93900000  0.17290000  0.06060000  1.0 -0.7217487504
O  O3  1  0.03700000  0.08360000  0.03570000  1.0 -1.1567791362
O  O4  1  0.02840000  0.90820000  0.10890000  1.0 -0.5693959554
O  O5  1  0.06100000  0.82710000  0.06060000  1.0 -0.7217487504
O  O6  1  0.96300000  0.91640000  0.03570000  1.0 -1.1567791362
O  O7  1  0.90820000  0.97160000  0.10890000  1.0 -0.5693959554
O  O8  1  0.82710000  0.93900000  0.06060000  1.0 -0.7217487504
O  O9  1  0.91640000  0.03700000  0.03570000  1.0 -1.1567791362
O  O10  1  0.09180000  0.02840000  0.10890000  1.0 -0.5693959554
O  O11  1  0.17290000  0.06100000  0.06060000  1.0 -0.7217487504
O  O12  1  0.08360000  0.96300000  0.03570000  1.0 -1.1567791362
O  O13  1  0.52840000  0.59180000  0.39110000  1.0 -0.5693959554
O  O14  1  0.56100000  0.67290000  0.43940000  1.0 -0.7217487504
O  O15  1  0.46300000  0.58360000  0.46430000  1.0 -1.1567791362
O  O16  1  0.47160000  0.40820000  0.39110000  1.0 -0.5693959554
O  O17  1  0.43900000  0.32710000  0.43940000  1.0 -0.7217487504
O  O18  1  0.53700000  0.41640000  0.46430000  1.0 -1.1567791362
O  O19  1  0.59180000  0.47160000  0.39110000  1.0 -0.5693959554
O  O20  1  0.67290000  0.43900000  0.43940000  1.0 -0.7217487504
O  O21  1  0.58360000  0.53700000  0.46430000  1.0 -1.1567791362
O  O22  1  0.40820000  0.52840000  0.39110000  1.0 -0.5693959554
O  O23  1  0.32710000  0.56100000  0.43940000  1.0 -0.7217487504
O  O24  1  0.41640000  0.46300000  0.46430000  1.0 -1.1567791362
O  O25  1  0.02840000  0.90820000  0.89110000  1.0 -0.5693959554
O  O26  1  0.06100000  0.82710000  0.93940000  1.0 -0.7217487504
O  O27  1  0.96300000  0.91640000  0.96430000  1.0 -1.1567791362
O  O28  1  0.97160000  0.09180000  0.89110000  1.0 -0.5693959554
O  O29  1  0.93900000  0.17290000  0.93940000  1.0 -0.7217487504
O  O30  1  0.03700000  0.08360000  0.96430000  1.0 -1.1567791362
O  O31  1  0.09180000  0.02840000  0.89110000  1.0 -0.5693959554
O  O32  1  0.17290000  0.06100000  0.93940000  1.0 -0.7217487504
O  O33  1  0.08360000  0.96300000  0.96430000  1.0 -1.1567791362
O  O34  1  0.90820000  0.97160000  0.89110000  1.0 -0.5693959554
O  O35  1  0.82710000  0.93900000  0.93940000  1.0 -0.7217487504
O  O36  1  0.91640000  0.03700000  0.96430000  1.0 -1.1567791362
O  O37  1  0.47160000  0.40820000  0.60890000  1.0 -0.5693959554
O  O38  1  0.43900000  0.32710000  0.56060000  1.0 -0.7217487504
O  O39  1  0.53700000  0.41640000  0.53570000  1.0 -1.1567791362
O  O40  1  0.52840000  0.59180000  0.60890000  1.0 -0.5693959554
O  O41  1  0.56100000  0.67290000  0.56060000  1.0 -0.7217487504
O  O42  1  0.46300000  0.58360000  0.53570000  1.0 -1.1567791362
O  O43  1  0.40820000  0.52840000  0.60890000  1.0 -0.5693959554
O  O44  1  0.32710000  0.56100000  0.56060000  1.0 -0.7217487504
O  O45  1  0.41640000  0.46300000  0.53570000  1.0 -1.1567791362
O  O46  1  0.59180000  0.47160000  0.60890000  1.0 -0.5693959554
O  O47  1  0.67290000  0.43900000  0.56060000  1.0 -0.7217487504
O  O48  1  0.58360000  0.53700000  0.53570000  1.0 -1.1567791362
