# DDEC6 charges by PACMAN v1.1 (https://github.com/mtap-research/PACMAN-charge/)
data_NEVQAH_ASR_pacman
_symmetry_space_group_name_H-M   'P 1'
_cell_length_a   18.08080000
_cell_length_b   18.08080000
_cell_length_c   13.23420000
_cell_angle_alpha   90.00000000
_cell_angle_beta   90.00000000
_cell_angle_gamma   90.00000000
_symmetry_Int_Tables_number   1
_chemical_formula_structural   Cu3H16C16(N12Cl)2
_chemical_formula_sum   'Cu12 H64 C64 N96 Cl8'
_cell_volume   4326.46284229
_cell_formula_units_Z   4
loop_
 _symmetry_equiv_pos_site_id
 _symmetry_equiv_pos_as_xyz
  1  'x, y, z'
loop_
 _atom_site_type_symbol
 _atom_site_label
 _atom_site_symmetry_multiplicity
 _atom_site_fract_x
 _atom_site_fract_y
 _atom_site_fract_z
 _atom_site_occupancy
 _atom_site_charge
Cu  Cu1  1  0.23844000  0.26156000  0.98499000  1.0 0.4875530609
Cu  Cu2  1  0.76156000  0.26156000  0.48499000  1.0 0.4768676319
Cu  Cu3  1  0.23844000  0.73844000  0.48499000  1.0 0.4875530609
Cu  Cu4  1  0.26156000  0.23844000  0.51501000  1.0 0.4875530609
Cu  Cu5  1  0.76156000  0.73844000  0.98499000  1.0 0.4768676319
Cu  Cu6  1  0.73844000  0.23844000  0.01501000  1.0 0.4875530609
Cu  Cu7  1  0.26156000  0.76156000  0.01501000  1.0 0.4768676319
Cu  Cu8  1  0.73844000  0.76156000  0.51501000  1.0 0.4768676319
Cu  Cu9  1  0.25000000  0.25000000  0.25000000  1.0 0.607867346
Cu  Cu10  1  0.75000000  0.25000000  0.75000000  1.0 0.607867346
Cu  Cu11  1  0.25000000  0.75000000  0.75000000  1.0 0.607867346
Cu  Cu12  1  0.75000000  0.75000000  0.25000000  1.0 0.607867346
H  H1  1  0.42490000  0.26990000  0.26160000  1.0 0.1282822796
H  H2  1  0.76990000  0.07510000  0.76160000  1.0 0.1282822796
H  H3  1  0.23010000  0.92490000  0.76160000  1.0 0.1282822796
H  H4  1  0.26990000  0.42490000  0.23840000  1.0 0.1282822796
H  H5  1  0.57510000  0.73010000  0.26160000  1.0 0.1282822796
H  H6  1  0.92490000  0.23010000  0.73840000  1.0 0.1282822796
H  H7  1  0.07510000  0.76990000  0.73840000  1.0 0.1282822796
H  H8  1  0.73010000  0.57510000  0.23840000  1.0 0.1282822796
H  H9  1  0.07510000  0.23010000  0.23840000  1.0 0.1282822796
H  H10  1  0.73010000  0.42490000  0.73840000  1.0 0.1282822796
H  H11  1  0.26990000  0.57510000  0.73840000  1.0 0.1282822796
H  H12  1  0.23010000  0.07510000  0.26160000  1.0 0.1282822796
H  H13  1  0.92490000  0.76990000  0.23840000  1.0 0.1282822796
H  H14  1  0.57510000  0.26990000  0.76160000  1.0 0.1282822796
H  H15  1  0.42490000  0.73010000  0.76160000  1.0 0.1282822796
H  H16  1  0.76990000  0.92490000  0.26160000  1.0 0.1282822796
H  H17  1  0.42010000  0.28380000  0.95910000  1.0 0.1282822796
H  H18  1  0.78380000  0.07990000  0.45910000  1.0 0.1282822796
H  H19  1  0.21620000  0.92010000  0.45910000  1.0 0.1282822796
H  H20  1  0.28380000  0.42010000  0.54090000  1.0 0.1282822796
H  H21  1  0.57990000  0.71620000  0.95910000  1.0 0.1282822796
H  H22  1  0.92010000  0.21620000  0.04090000  1.0 0.1282822796
H  H23  1  0.07990000  0.78380000  0.04090000  1.0 0.1282822796
H  H24  1  0.71620000  0.57990000  0.54090000  1.0 0.1282822796
H  H25  1  0.07990000  0.21620000  0.54090000  1.0 0.1282822796
H  H26  1  0.71620000  0.42010000  0.04090000  1.0 0.1282822796
H  H27  1  0.28380000  0.57990000  0.04090000  1.0 0.1282822796
H  H28  1  0.21620000  0.07990000  0.95910000  1.0 0.1282822796
H  H29  1  0.92010000  0.78380000  0.54090000  1.0 0.1282822796
H  H30  1  0.57990000  0.28380000  0.45910000  1.0 0.1282822796
H  H31  1  0.42010000  0.71620000  0.45910000  1.0 0.1282822796
H  H32  1  0.78380000  0.92010000  0.95910000  1.0 0.1282822796
H  H33  1  0.54610000  0.37930000  0.18910000  1.0 0.1082097943
H  H34  1  0.87930000  0.95390000  0.68910000  1.0 0.1082097943
H  H35  1  0.12070000  0.04610000  0.68910000  1.0 0.1082097943
H  H36  1  0.37930000  0.54610000  0.31090000  1.0 0.1082097943
H  H37  1  0.45390000  0.62070000  0.18910000  1.0 0.1082097943
H  H38  1  0.04610000  0.12070000  0.81090000  1.0 0.1082097943
H  H39  1  0.95390000  0.87930000  0.81090000  1.0 0.1082097943
H  H40  1  0.62070000  0.45390000  0.31090000  1.0 0.1082097943
H  H41  1  0.95390000  0.12070000  0.31090000  1.0 0.1082097943
H  H42  1  0.62070000  0.54610000  0.81090000  1.0 0.1082097943
H  H43  1  0.37930000  0.45390000  0.81090000  1.0 0.1082097943
H  H44  1  0.12070000  0.95390000  0.18910000  1.0 0.1082097943
H  H45  1  0.04610000  0.87930000  0.31090000  1.0 0.1082097943
H  H46  1  0.45390000  0.37930000  0.68910000  1.0 0.1082097943
H  H47  1  0.54610000  0.62070000  0.68910000  1.0 0.1082097943
H  H48  1  0.87930000  0.04610000  0.18910000  1.0 0.1082097943
H  H49  1  0.56270000  0.19340000  0.02870000  1.0 0.1245912173
H  H50  1  0.69340000  0.93730000  0.52870000  1.0 0.1245912173
H  H51  1  0.30660000  0.06270000  0.52870000  1.0 0.1245912173
H  H52  1  0.19340000  0.56270000  0.47130000  1.0 0.1245912173
H  H53  1  0.43730000  0.80660000  0.02870000  1.0 0.1245912173
H  H54  1  0.06270000  0.30660000  0.97130000  1.0 0.1245912173
H  H55  1  0.93730000  0.69340000  0.97130000  1.0 0.1245912173
H  H56  1  0.80660000  0.43730000  0.47130000  1.0 0.1245912173
H  H57  1  0.93730000  0.30660000  0.47130000  1.0 0.1245912173
H  H58  1  0.80660000  0.56270000  0.97130000  1.0 0.1245912173
H  H59  1  0.19340000  0.43730000  0.97130000  1.0 0.1245912173
H  H60  1  0.30660000  0.93730000  0.02870000  1.0 0.1245912173
H  H61  1  0.06270000  0.69340000  0.47130000  1.0 0.1245912173
H  H62  1  0.43730000  0.19340000  0.52870000  1.0 0.1245912173
H  H63  1  0.56270000  0.80660000  0.52870000  1.0 0.1245912173
H  H64  1  0.69340000  0.06270000  0.02870000  1.0 0.1245912173
C  C1  1  0.40770000  0.27160000  0.19310000  1.0 0.0193423898
C  C2  1  0.77160000  0.09230000  0.69310000  1.0 0.0193423898
C  C3  1  0.22840000  0.90770000  0.69310000  1.0 0.0193423898
C  C4  1  0.27160000  0.40770000  0.30690000  1.0 0.0193423898
C  C5  1  0.59230000  0.72840000  0.19310000  1.0 0.0193423898
C  C6  1  0.90770000  0.22840000  0.80690000  1.0 0.0193423898
C  C7  1  0.09230000  0.77160000  0.80690000  1.0 0.0193423898
C  C8  1  0.72840000  0.59230000  0.30690000  1.0 0.0193423898
C  C9  1  0.09230000  0.22840000  0.30690000  1.0 0.0193423898
C  C10  1  0.72840000  0.40770000  0.80690000  1.0 0.0193423898
C  C11  1  0.27160000  0.59230000  0.80690000  1.0 0.0193423898
C  C12  1  0.22840000  0.09230000  0.19310000  1.0 0.0193423898
C  C13  1  0.90770000  0.77160000  0.30690000  1.0 0.0193423898
C  C14  1  0.59230000  0.27160000  0.69310000  1.0 0.0193423898
C  C15  1  0.40770000  0.72840000  0.69310000  1.0 0.0193423898
C  C16  1  0.77160000  0.90770000  0.19310000  1.0 0.0193423898
C  C17  1  0.40500000  0.27900000  0.02820000  1.0 0.0315976091
C  C18  1  0.77900000  0.09500000  0.52820000  1.0 0.0352166601
C  C19  1  0.22100000  0.90500000  0.52820000  1.0 0.0315976091
C  C20  1  0.27900000  0.40500000  0.47180000  1.0 0.0315976091
C  C21  1  0.59500000  0.72100000  0.02820000  1.0 0.0315976091
C  C22  1  0.90500000  0.22100000  0.97180000  1.0 0.0315976091
C  C23  1  0.09500000  0.77900000  0.97180000  1.0 0.0315976091
C  C24  1  0.72100000  0.59500000  0.47180000  1.0 0.0315976091
C  C25  1  0.09500000  0.22100000  0.47180000  1.0 0.0315976091
C  C26  1  0.72100000  0.40500000  0.97180000  1.0 0.0315976091
C  C27  1  0.27900000  0.59500000  0.97180000  1.0 0.0315976091
C  C28  1  0.22100000  0.09500000  0.02820000  1.0 0.0315976091
C  C29  1  0.90500000  0.77900000  0.47180000  1.0 0.0352166601
C  C30  1  0.59500000  0.27900000  0.52820000  1.0 0.0315976091
C  C31  1  0.40500000  0.72100000  0.52820000  1.0 0.0315976091
C  C32  1  0.77900000  0.90500000  0.02820000  1.0 0.0352166601
C  C33  1  0.56650000  0.33850000  0.15260000  1.0 -0.0112721396
C  C34  1  0.83850000  0.93350000  0.65260000  1.0 -0.0112721396
C  C35  1  0.16150000  0.06650000  0.65260000  1.0 -0.0112721396
C  C36  1  0.33850000  0.56650000  0.34740000  1.0 -0.0112721396
C  C37  1  0.43350000  0.66150000  0.15260000  1.0 -0.0112721396
C  C38  1  0.06650000  0.16150000  0.84740000  1.0 -0.0112721396
C  C39  1  0.93350000  0.83850000  0.84740000  1.0 -0.0112721396
C  C40  1  0.66150000  0.43350000  0.34740000  1.0 -0.0112721396
C  C41  1  0.93350000  0.16150000  0.34740000  1.0 -0.0112721396
C  C42  1  0.66150000  0.56650000  0.84740000  1.0 -0.0112721396
C  C43  1  0.33850000  0.43350000  0.84740000  1.0 -0.0112721396
C  C44  1  0.16150000  0.93350000  0.15260000  1.0 -0.0112721396
C  C45  1  0.06650000  0.83850000  0.34740000  1.0 -0.0112721396
C  C46  1  0.43350000  0.33850000  0.65260000  1.0 -0.0112721396
C  C47  1  0.56650000  0.66150000  0.65260000  1.0 -0.0112721396
C  C48  1  0.83850000  0.06650000  0.15260000  1.0 -0.0112721396
C  C49  1  0.57490000  0.23700000  0.06580000  1.0 0.0315976091
C  C50  1  0.73700000  0.92510000  0.56580000  1.0 0.0315976091
C  C51  1  0.26300000  0.07490000  0.56580000  1.0 0.0315976091
C  C52  1  0.23700000  0.57490000  0.43420000  1.0 0.0315976091
C  C53  1  0.42510000  0.76300000  0.06580000  1.0 0.0315976091
C  C54  1  0.07490000  0.26300000  0.93420000  1.0 0.0315976091
C  C55  1  0.92510000  0.73700000  0.93420000  1.0 0.0315976091
C  C56  1  0.76300000  0.42510000  0.43420000  1.0 0.0315976091
C  C57  1  0.92510000  0.26300000  0.43420000  1.0 0.0315976091
C  C58  1  0.76300000  0.57490000  0.93420000  1.0 0.0315976091
C  C59  1  0.23700000  0.42510000  0.93420000  1.0 0.0315976091
C  C60  1  0.26300000  0.92510000  0.06580000  1.0 0.0315976091
C  C61  1  0.07490000  0.73700000  0.43420000  1.0 0.0315976091
C  C62  1  0.42510000  0.23700000  0.56580000  1.0 0.0315976091
C  C63  1  0.57490000  0.76300000  0.56580000  1.0 0.0315976091
C  C64  1  0.73700000  0.07490000  0.06580000  1.0 0.0315976091
N  N1  1  0.33960000  0.26940000  0.16450000  1.0 -0.1679864943
N  N2  1  0.76940000  0.16040000  0.66450000  1.0 -0.1679864943
N  N3  1  0.23060000  0.83960000  0.66450000  1.0 -0.1679864943
N  N4  1  0.26940000  0.33960000  0.33550000  1.0 -0.1679864943
N  N5  1  0.66040000  0.73060000  0.16450000  1.0 -0.1679864943
N  N6  1  0.83960000  0.23060000  0.83550000  1.0 -0.1679864943
N  N7  1  0.16040000  0.76940000  0.83550000  1.0 -0.1679864943
N  N8  1  0.73060000  0.66040000  0.33550000  1.0 -0.1679864943
N  N9  1  0.16040000  0.23060000  0.33550000  1.0 -0.1679864943
N  N10  1  0.73060000  0.33960000  0.83550000  1.0 -0.1679864943
N  N11  1  0.26940000  0.66040000  0.83550000  1.0 -0.1679864943
N  N12  1  0.23060000  0.16040000  0.16450000  1.0 -0.1679864943
N  N13  1  0.83960000  0.76940000  0.33550000  1.0 -0.1679864943
N  N14  1  0.66040000  0.26940000  0.66450000  1.0 -0.1679864943
N  N15  1  0.33960000  0.73060000  0.66450000  1.0 -0.1679864943
N  N16  1  0.76940000  0.83960000  0.16450000  1.0 -0.1679864943
N  N17  1  0.33720000  0.27270000  0.06010000  1.0 -0.1679864943
N  N18  1  0.77270000  0.16280000  0.56010000  1.0 -0.1679864943
N  N19  1  0.22730000  0.83720000  0.56010000  1.0 -0.1679864943
N  N20  1  0.27270000  0.33720000  0.43990000  1.0 -0.1679864943
N  N21  1  0.66280000  0.72730000  0.06010000  1.0 -0.1679864943
N  N22  1  0.83720000  0.22730000  0.93990000  1.0 -0.1679864943
N  N23  1  0.16280000  0.77270000  0.93990000  1.0 -0.1679864943
N  N24  1  0.72730000  0.66280000  0.43990000  1.0 -0.1679864943
N  N25  1  0.16280000  0.22730000  0.43990000  1.0 -0.1679864943
N  N26  1  0.72730000  0.33720000  0.93990000  1.0 -0.1679864943
N  N27  1  0.27270000  0.66280000  0.93990000  1.0 -0.1679864943
N  N28  1  0.22730000  0.16280000  0.06010000  1.0 -0.1679864943
N  N29  1  0.83720000  0.77270000  0.43990000  1.0 -0.1679864943
N  N30  1  0.66280000  0.27270000  0.56010000  1.0 -0.1679864943
N  N31  1  0.33720000  0.72730000  0.56010000  1.0 -0.1679864943
N  N32  1  0.77270000  0.83720000  0.06010000  1.0 -0.1679864943
N  N33  1  0.45080000  0.27830000  0.11050000  1.0 0.0519844409
N  N34  1  0.77830000  0.04920000  0.61050000  1.0 0.0519844409
N  N35  1  0.22170000  0.95080000  0.61050000  1.0 0.0519844409
N  N36  1  0.27830000  0.45080000  0.38950000  1.0 0.0519844409
N  N37  1  0.54920000  0.72170000  0.11050000  1.0 0.0519844409
N  N38  1  0.95080000  0.22170000  0.88950000  1.0 0.0519844409
N  N39  1  0.04920000  0.77830000  0.88950000  1.0 0.0519844409
N  N40  1  0.72170000  0.54920000  0.38950000  1.0 0.0519844409
N  N41  1  0.04920000  0.22170000  0.38950000  1.0 0.0519844409
N  N42  1  0.72170000  0.45080000  0.88950000  1.0 0.0519844409
N  N43  1  0.27830000  0.54920000  0.88950000  1.0 0.0519844409
N  N44  1  0.22170000  0.04920000  0.11050000  1.0 0.0519844409
N  N45  1  0.95080000  0.77830000  0.38950000  1.0 0.0519844409
N  N46  1  0.54920000  0.27830000  0.61050000  1.0 0.0519844409
N  N47  1  0.45080000  0.72170000  0.61050000  1.0 0.0519844409
N  N48  1  0.77830000  0.95080000  0.11050000  1.0 0.0519844409
N  N49  1  0.63630000  0.32750000  0.13710000  1.0 -0.2155461154
N  N50  1  0.82750000  0.86370000  0.63710000  1.0 -0.2147294573
N  N51  1  0.17250000  0.13630000  0.63710000  1.0 -0.2155461154
N  N52  1  0.32750000  0.63630000  0.36290000  1.0 -0.2155461154
N  N53  1  0.36370000  0.67250000  0.13710000  1.0 -0.2155461154
N  N54  1  0.13630000  0.17250000  0.86290000  1.0 -0.2155461154
N  N55  1  0.86370000  0.82750000  0.86290000  1.0 -0.2147294573
N  N56  1  0.67250000  0.36370000  0.36290000  1.0 -0.2147294573
N  N57  1  0.86370000  0.17250000  0.36290000  1.0 -0.2147294573
N  N58  1  0.67250000  0.63630000  0.86290000  1.0 -0.2147294573
N  N59  1  0.32750000  0.36370000  0.86290000  1.0 -0.2155461154
N  N60  1  0.17250000  0.86370000  0.13710000  1.0 -0.2155461154
N  N61  1  0.13630000  0.82750000  0.36290000  1.0 -0.2155461154
N  N62  1  0.36370000  0.32750000  0.63710000  1.0 -0.2155461154
N  N63  1  0.63630000  0.67250000  0.63710000  1.0 -0.2147294573
N  N64  1  0.82750000  0.13630000  0.13710000  1.0 -0.2155461154
N  N65  1  0.64090000  0.26200000  0.08180000  1.0 -0.1679864943
N  N66  1  0.76200000  0.85910000  0.58180000  1.0 -0.1679864943
N  N67  1  0.23800000  0.14090000  0.58180000  1.0 -0.1679864943
N  N68  1  0.26200000  0.64090000  0.41820000  1.0 -0.1679864943
N  N69  1  0.35910000  0.73800000  0.08180000  1.0 -0.1679864943
N  N70  1  0.14090000  0.23800000  0.91820000  1.0 -0.1679864943
N  N71  1  0.85910000  0.76200000  0.91820000  1.0 -0.1679864943
N  N72  1  0.73800000  0.35910000  0.41820000  1.0 -0.1679864943
N  N73  1  0.85910000  0.23800000  0.41820000  1.0 -0.1679864943
N  N74  1  0.73800000  0.64090000  0.91820000  1.0 -0.1679864943
N  N75  1  0.26200000  0.35910000  0.91820000  1.0 -0.1679864943
N  N76  1  0.23800000  0.85910000  0.08180000  1.0 -0.1679864943
N  N77  1  0.14090000  0.76200000  0.41820000  1.0 -0.1679864943
N  N78  1  0.35910000  0.26200000  0.58180000  1.0 -0.1679864943
N  N79  1  0.64090000  0.73800000  0.58180000  1.0 -0.1679864943
N  N80  1  0.76200000  0.14090000  0.08180000  1.0 -0.1679864943
N  N81  1  0.52670000  0.28420000  0.11010000  1.0 0.0519844409
N  N82  1  0.78420000  0.97330000  0.61010000  1.0 0.0519844409
N  N83  1  0.21580000  0.02670000  0.61010000  1.0 0.0519844409
N  N84  1  0.28420000  0.52670000  0.38990000  1.0 0.0519844409
N  N85  1  0.47330000  0.71580000  0.11010000  1.0 0.0519844409
N  N86  1  0.02670000  0.21580000  0.88990000  1.0 0.0519844409
N  N87  1  0.97330000  0.78420000  0.88990000  1.0 0.0519844409
N  N88  1  0.71580000  0.47330000  0.38990000  1.0 0.0519844409
N  N89  1  0.97330000  0.21580000  0.38990000  1.0 0.0519844409
N  N90  1  0.71580000  0.52670000  0.88990000  1.0 0.0519844409
N  N91  1  0.28420000  0.47330000  0.88990000  1.0 0.0519844409
N  N92  1  0.21580000  0.97330000  0.11010000  1.0 0.0519844409
N  N93  1  0.02670000  0.78420000  0.38990000  1.0 0.0519844409
N  N94  1  0.47330000  0.28420000  0.61010000  1.0 0.0519844409
N  N95  1  0.52670000  0.71580000  0.61010000  1.0 0.0519844409
N  N96  1  0.78420000  0.02670000  0.11010000  1.0 0.0519844409
Cl  Cl1  1  0.17000000  0.33000000  0.12680000  1.0 -0.6783023021
Cl  Cl2  1  0.83000000  0.33000000  0.62680000  1.0 -0.6783023021
Cl  Cl3  1  0.17000000  0.67000000  0.62680000  1.0 -0.6783023021
Cl  Cl4  1  0.33000000  0.17000000  0.37320000  1.0 -0.6783023021
Cl  Cl5  1  0.83000000  0.67000000  0.12680000  1.0 -0.6783023021
Cl  Cl6  1  0.67000000  0.17000000  0.87320000  1.0 -0.6783023021
Cl  Cl7  1  0.33000000  0.83000000  0.87320000  1.0 -0.6783023021
Cl  Cl8  1  0.67000000  0.83000000  0.37320000  1.0 -0.6783023021
