# DDEC6 charges by PACMAN v1.1 (https://github.com/mtap-research/PACMAN-charge/)
data_NEVSUF06_ASR_pacman
_symmetry_space_group_name_H-M   'P 1'
_cell_length_a   19.17340000
_cell_length_b   19.17340000
_cell_length_c   33.03200000
_cell_angle_alpha   90.00000000
_cell_angle_beta   90.00000000
_cell_angle_gamma   90.00000000
_symmetry_Int_Tables_number   1
_chemical_formula_structural   Zr3H40(C23O6)2
_chemical_formula_sum   'Zr12 H160 C184 O48'
_cell_volume   12143.19964604
_cell_formula_units_Z   4
loop_
 _symmetry_equiv_pos_site_id
 _symmetry_equiv_pos_as_xyz
  1  'x, y, z'
loop_
 _atom_site_type_symbol
 _atom_site_label
 _atom_site_symmetry_multiplicity
 _atom_site_fract_x
 _atom_site_fract_y
 _atom_site_fract_z
 _atom_site_occupancy
 _atom_site_charge
Zr  Zr1  1  0.12316000  0.04336000  0.00000000  1.0 2.4989851274
Zr  Zr2  1  0.87684000  0.95664000  0.00000000  1.0 2.4989851274
Zr  Zr3  1  0.95664000  0.12316000  0.00000000  1.0 2.4989851274
Zr  Zr4  1  0.04336000  0.87684000  0.00000000  1.0 2.4989851274
Zr  Zr5  1  0.37684000  0.54336000  0.50000000  1.0 2.4989851274
Zr  Zr6  1  0.62316000  0.45664000  0.50000000  1.0 2.4989851274
Zr  Zr7  1  0.54336000  0.62316000  0.50000000  1.0 2.4989851274
Zr  Zr8  1  0.45664000  0.37684000  0.50000000  1.0 2.4989851274
Zr  Zr9  1  0.00000000  0.00000000  0.07382000  1.0 2.3957917549
Zr  Zr10  1  0.50000000  0.50000000  0.42618000  1.0 2.3942676244
Zr  Zr11  1  0.00000000  0.00000000  0.92618000  1.0 2.3942676244
Zr  Zr12  1  0.50000000  0.50000000  0.57382000  1.0 2.3942676244
H  H1  1  0.97530000  0.15320000  0.17490000  1.0 0.1076085922
H  H2  1  0.96940000  0.22640000  0.23190000  1.0 0.1291772144
H  H3  1  0.06040000  0.45500000  0.19310000  1.0 0.1203026388
H  H4  1  0.01890000  0.40150000  0.16650000  1.0 0.1203026388
H  H5  1  0.06720000  0.37480000  0.20150000  1.0 0.1352054783
H  H6  1  0.89570000  0.28710000  0.08960000  1.0 0.1076085922
H  H7  1  0.88830000  0.35610000  0.14860000  1.0 0.1203026388
H  H8  1  0.82230000  0.27870000  0.22920000  1.0 0.0195173773
H  H9  1  0.81150000  0.28950000  0.27590000  1.0 0.0195173773
H  H10  1  0.76770000  0.33333333  0.24490000  1.0 0.0285828736
H  H11  1  0.02470000  0.84680000  0.17490000  1.0 0.1076085922
H  H12  1  0.03060000  0.77360000  0.23190000  1.0 0.1291772144
H  H13  1  0.93960000  0.54500000  0.19310000  1.0 0.1203026388
H  H14  1  0.98110000  0.59850000  0.16650000  1.0 0.1203026388
H  H15  1  0.93280000  0.62520000  0.20150000  1.0 0.1352054783
H  H16  1  0.10430000  0.71290000  0.08960000  1.0 0.1076085922
H  H17  1  0.11170000  0.64390000  0.14860000  1.0 0.1203026388
H  H18  1  0.17770000  0.72130000  0.22920000  1.0 0.0195173773
H  H19  1  0.18850000  0.71050000  0.27590000  1.0 0.0195173773
H  H20  1  0.23230000  0.66666667  0.24490000  1.0 0.0285828736
H  H21  1  0.84680000  0.97530000  0.17490000  1.0 0.1076085922
H  H22  1  0.77360000  0.96940000  0.23190000  1.0 0.1291772144
H  H23  1  0.54500000  0.06040000  0.19310000  1.0 0.1203026388
H  H24  1  0.59850000  0.01890000  0.16650000  1.0 0.1203026388
H  H25  1  0.62520000  0.06720000  0.20150000  1.0 0.1352054783
H  H26  1  0.71290000  0.89570000  0.08960000  1.0 0.1076085922
H  H27  1  0.64390000  0.88830000  0.14860000  1.0 0.1203026388
H  H28  1  0.72130000  0.82230000  0.22920000  1.0 0.0195173773
H  H29  1  0.71050000  0.81150000  0.27590000  1.0 0.0195173773
H  H30  1  0.66666667  0.76770000  0.24490000  1.0 0.0285828736
H  H31  1  0.15320000  0.02470000  0.17490000  1.0 0.1076085922
H  H32  1  0.22640000  0.03060000  0.23190000  1.0 0.1291772144
H  H33  1  0.45500000  0.93960000  0.19310000  1.0 0.1203026388
H  H34  1  0.40150000  0.98110000  0.16650000  1.0 0.1203026388
H  H35  1  0.37480000  0.93280000  0.20150000  1.0 0.1352054783
H  H36  1  0.28710000  0.10430000  0.08960000  1.0 0.1076085922
H  H37  1  0.35610000  0.11170000  0.14860000  1.0 0.1203026388
H  H38  1  0.27870000  0.17770000  0.22920000  1.0 0.0195173773
H  H39  1  0.28950000  0.18850000  0.27590000  1.0 0.0195173773
H  H40  1  0.33333333  0.23230000  0.24490000  1.0 0.0285828736
H  H41  1  0.52470000  0.65320000  0.32510000  1.0 0.1076085922
H  H42  1  0.53060000  0.72640000  0.26810000  1.0 0.1291772144
H  H43  1  0.43960000  0.95500000  0.30690000  1.0 0.1203026388
H  H44  1  0.48110000  0.90150000  0.33350000  1.0 0.1203026388
H  H45  1  0.43280000  0.87480000  0.29850000  1.0 0.1352054783
H  H46  1  0.60430000  0.78710000  0.41040000  1.0 0.1076085922
H  H47  1  0.61170000  0.85610000  0.35140000  1.0 0.1203026388
H  H48  1  0.67770000  0.77870000  0.27080000  1.0 0.0195173773
H  H49  1  0.68850000  0.78950000  0.22410000  1.0 0.0195173773
H  H50  1  0.73230000  0.83333000  0.25510000  1.0 0.0285828736
H  H51  1  0.47530000  0.34680000  0.32510000  1.0 0.1076085922
H  H52  1  0.46940000  0.27360000  0.26810000  1.0 0.1291772144
H  H53  1  0.56040000  0.04500000  0.30690000  1.0 0.1203026388
H  H54  1  0.51890000  0.09850000  0.33350000  1.0 0.1203026388
H  H55  1  0.56720000  0.12520000  0.29850000  1.0 0.1352054783
H  H56  1  0.39570000  0.21290000  0.41040000  1.0 0.1076085922
H  H57  1  0.38830000  0.14390000  0.35140000  1.0 0.1203026388
H  H58  1  0.32230000  0.22130000  0.27080000  1.0 0.0195173773
H  H59  1  0.31150000  0.21050000  0.22410000  1.0 0.0195173773
H  H60  1  0.26770000  0.16667000  0.25510000  1.0 0.0285828736
H  H61  1  0.65320000  0.47530000  0.32510000  1.0 0.1076085922
H  H62  1  0.72640000  0.46940000  0.26810000  1.0 0.1291772144
H  H63  1  0.95500000  0.56040000  0.30690000  1.0 0.1203026388
H  H64  1  0.90150000  0.51890000  0.33350000  1.0 0.1203026388
H  H65  1  0.87480000  0.56720000  0.29850000  1.0 0.1352054783
H  H66  1  0.78710000  0.39570000  0.41040000  1.0 0.1076085922
H  H67  1  0.85610000  0.38830000  0.35140000  1.0 0.1203026388
H  H68  1  0.77870000  0.32230000  0.27080000  1.0 0.0195173773
H  H69  1  0.78950000  0.31150000  0.22410000  1.0 0.0195173773
H  H70  1  0.83333000  0.26770000  0.25510000  1.0 0.0285828736
H  H71  1  0.34680000  0.52470000  0.32510000  1.0 0.1076085922
H  H72  1  0.27360000  0.53060000  0.26810000  1.0 0.1291772144
H  H73  1  0.04500000  0.43960000  0.30690000  1.0 0.1203026388
H  H74  1  0.09850000  0.48110000  0.33350000  1.0 0.1203026388
H  H75  1  0.12520000  0.43280000  0.29850000  1.0 0.1352054783
H  H76  1  0.21290000  0.60430000  0.41040000  1.0 0.1076085922
H  H77  1  0.14390000  0.61170000  0.35140000  1.0 0.1203026388
H  H78  1  0.22130000  0.67770000  0.27080000  1.0 0.0195173773
H  H79  1  0.21050000  0.68850000  0.22410000  1.0 0.0195173773
H  H80  1  0.16667000  0.73230000  0.25510000  1.0 0.0285828736
H  H81  1  0.02470000  0.84680000  0.82510000  1.0 0.1076085922
H  H82  1  0.03060000  0.77360000  0.76810000  1.0 0.1291772144
H  H83  1  0.93960000  0.54500000  0.80690000  1.0 0.1203026388
H  H84  1  0.98110000  0.59850000  0.83350000  1.0 0.1203026388
H  H85  1  0.93280000  0.62520000  0.79850000  1.0 0.1352054783
H  H86  1  0.10430000  0.71290000  0.91040000  1.0 0.1076085922
H  H87  1  0.11170000  0.64390000  0.85140000  1.0 0.1203026388
H  H88  1  0.17770000  0.72130000  0.77080000  1.0 0.0195173773
H  H89  1  0.18850000  0.71050000  0.72410000  1.0 0.0195173773
H  H90  1  0.23230000  0.66666667  0.75510000  1.0 0.0285828736
H  H91  1  0.97530000  0.15320000  0.82510000  1.0 0.1076085922
H  H92  1  0.96940000  0.22640000  0.76810000  1.0 0.1291772144
H  H93  1  0.06040000  0.45500000  0.80690000  1.0 0.1203026388
H  H94  1  0.01890000  0.40150000  0.83350000  1.0 0.1203026388
H  H95  1  0.06720000  0.37480000  0.79850000  1.0 0.1352054783
H  H96  1  0.89570000  0.28710000  0.91040000  1.0 0.1076085922
H  H97  1  0.88830000  0.35610000  0.85140000  1.0 0.1203026388
H  H98  1  0.82230000  0.27870000  0.77080000  1.0 0.0195173773
H  H99  1  0.81150000  0.28950000  0.72410000  1.0 0.0195173773
H  H100  1  0.76770000  0.33333333  0.75510000  1.0 0.0285828736
H  H101  1  0.15320000  0.02470000  0.82510000  1.0 0.1076085922
H  H102  1  0.22640000  0.03060000  0.76810000  1.0 0.1291772144
H  H103  1  0.45500000  0.93960000  0.80690000  1.0 0.1203026388
H  H104  1  0.40150000  0.98110000  0.83350000  1.0 0.1203026388
H  H105  1  0.37480000  0.93280000  0.79850000  1.0 0.1352054783
H  H106  1  0.28710000  0.10430000  0.91040000  1.0 0.1076085922
H  H107  1  0.35610000  0.11170000  0.85140000  1.0 0.1203026388
H  H108  1  0.27870000  0.17770000  0.77080000  1.0 0.0195173773
H  H109  1  0.28950000  0.18850000  0.72410000  1.0 0.0195173773
H  H110  1  0.33333333  0.23230000  0.75510000  1.0 0.0285828736
H  H111  1  0.84680000  0.97530000  0.82510000  1.0 0.1076085922
H  H112  1  0.77360000  0.96940000  0.76810000  1.0 0.1291772144
H  H113  1  0.54500000  0.06040000  0.80690000  1.0 0.1203026388
H  H114  1  0.59850000  0.01890000  0.83350000  1.0 0.1203026388
H  H115  1  0.62520000  0.06720000  0.79850000  1.0 0.1352054783
H  H116  1  0.71290000  0.89570000  0.91040000  1.0 0.1076085922
H  H117  1  0.64390000  0.88830000  0.85140000  1.0 0.1203026388
H  H118  1  0.72130000  0.82230000  0.77080000  1.0 0.0195173773
H  H119  1  0.71050000  0.81150000  0.72410000  1.0 0.0195173773
H  H120  1  0.66666667  0.76770000  0.75510000  1.0 0.0285828736
H  H121  1  0.47530000  0.34680000  0.67490000  1.0 0.1076085922
H  H122  1  0.46940000  0.27360000  0.73190000  1.0 0.1291772144
H  H123  1  0.56040000  0.04500000  0.69310000  1.0 0.1203026388
H  H124  1  0.51890000  0.09850000  0.66650000  1.0 0.1203026388
H  H125  1  0.56720000  0.12520000  0.70150000  1.0 0.1352054783
H  H126  1  0.39570000  0.21290000  0.58960000  1.0 0.1076085922
H  H127  1  0.38830000  0.14390000  0.64860000  1.0 0.1203026388
H  H128  1  0.32230000  0.22130000  0.72920000  1.0 0.0195173773
H  H129  1  0.31150000  0.21050000  0.77590000  1.0 0.0195173773
H  H130  1  0.26770000  0.16667000  0.74490000  1.0 0.0285828736
H  H131  1  0.52470000  0.65320000  0.67490000  1.0 0.1076085922
H  H132  1  0.53060000  0.72640000  0.73190000  1.0 0.1291772144
H  H133  1  0.43960000  0.95500000  0.69310000  1.0 0.1203026388
H  H134  1  0.48110000  0.90150000  0.66650000  1.0 0.1203026388
H  H135  1  0.43280000  0.87480000  0.70150000  1.0 0.1352054783
H  H136  1  0.60430000  0.78710000  0.58960000  1.0 0.1076085922
H  H137  1  0.61170000  0.85610000  0.64860000  1.0 0.1203026388
H  H138  1  0.67770000  0.77870000  0.72920000  1.0 0.0195173773
H  H139  1  0.68850000  0.78950000  0.77590000  1.0 0.0195173773
H  H140  1  0.73230000  0.83333000  0.74490000  1.0 0.0285828736
H  H141  1  0.34680000  0.52470000  0.67490000  1.0 0.1076085922
H  H142  1  0.27360000  0.53060000  0.73190000  1.0 0.1291772144
H  H143  1  0.04500000  0.43960000  0.69310000  1.0 0.1203026388
H  H144  1  0.09850000  0.48110000  0.66650000  1.0 0.1203026388
H  H145  1  0.12520000  0.43280000  0.70150000  1.0 0.1352054783
H  H146  1  0.21290000  0.60430000  0.58960000  1.0 0.1076085922
H  H147  1  0.14390000  0.61170000  0.64860000  1.0 0.1203026388
H  H148  1  0.22130000  0.67770000  0.72920000  1.0 0.0195173773
H  H149  1  0.21050000  0.68850000  0.77590000  1.0 0.0195173773
H  H150  1  0.16667000  0.73230000  0.74490000  1.0 0.0285828736
H  H151  1  0.65320000  0.47530000  0.67490000  1.0 0.1076085922
H  H152  1  0.72640000  0.46940000  0.73190000  1.0 0.1291772144
H  H153  1  0.95500000  0.56040000  0.69310000  1.0 0.1203026388
H  H154  1  0.90150000  0.51890000  0.66650000  1.0 0.1203026388
H  H155  1  0.87480000  0.56720000  0.70150000  1.0 0.1352054783
H  H156  1  0.78710000  0.39570000  0.58960000  1.0 0.1076085922
H  H157  1  0.85610000  0.38830000  0.64860000  1.0 0.1203026388
H  H158  1  0.77870000  0.32230000  0.72920000  1.0 0.0195173773
H  H159  1  0.78950000  0.31150000  0.77590000  1.0 0.0195173773
H  H160  1  0.83333000  0.26770000  0.74490000  1.0 0.0285828736
C  C1  1  0.97530000  0.41520000  0.22260000  1.0 0.0578670063
C  C2  1  0.95720000  0.19780000  0.17110000  1.0 -0.0760326452
C  C3  1  0.94260000  0.15220000  0.10130000  1.0 0.6498478957
C  C4  1  0.95580000  0.23880000  0.20590000  1.0 -0.1395155798
C  C5  1  0.92300000  0.36400000  0.22190000  1.0 -0.0319126365
C  C6  1  0.03600000  0.41130000  0.19330000  1.0 -0.4207238696
C  C7  1  0.93600000  0.21200000  0.13100000  1.0 -0.0635644972
C  C8  1  0.92920000  0.30340000  0.19270000  1.0 0.0578670063
C  C9  1  0.90900000  0.27450000  0.11570000  1.0 -0.0955114953
C  C10  1  0.90840000  0.31240000  0.15230000  1.0 -0.1395155798
C  C11  1  0.02470000  0.58480000  0.22260000  1.0 0.0578670063
C  C12  1  0.04280000  0.80220000  0.17110000  1.0 -0.0760326452
C  C13  1  0.05740000  0.84780000  0.10130000  1.0 0.6498478957
C  C14  1  0.04420000  0.76120000  0.20590000  1.0 -0.1395155798
C  C15  1  0.07700000  0.63600000  0.22190000  1.0 -0.0319126365
C  C16  1  0.96400000  0.58870000  0.19330000  1.0 -0.4207238696
C  C17  1  0.06400000  0.78800000  0.13100000  1.0 -0.0635644972
C  C18  1  0.07080000  0.69660000  0.19270000  1.0 0.0578670063
C  C19  1  0.09100000  0.72550000  0.11570000  1.0 -0.0946399487
C  C20  1  0.09160000  0.68760000  0.15230000  1.0 -0.1395155798
C  C21  1  0.58480000  0.97530000  0.22260000  1.0 0.0578670063
C  C22  1  0.80220000  0.95720000  0.17110000  1.0 -0.0760326452
C  C23  1  0.84780000  0.94260000  0.10130000  1.0 0.6498478957
C  C24  1  0.76120000  0.95580000  0.20590000  1.0 -0.1395155798
C  C25  1  0.63600000  0.92300000  0.22190000  1.0 -0.0319126365
C  C26  1  0.58870000  0.03600000  0.19330000  1.0 -0.4207238696
C  C27  1  0.78800000  0.93600000  0.13100000  1.0 -0.0635644972
C  C28  1  0.69660000  0.92920000  0.19270000  1.0 0.0578670063
C  C29  1  0.72550000  0.90900000  0.11570000  1.0 -0.0946399487
C  C30  1  0.68760000  0.90840000  0.15230000  1.0 -0.1395155798
C  C31  1  0.41520000  0.02470000  0.22260000  1.0 0.0578670063
C  C32  1  0.19780000  0.04280000  0.17110000  1.0 -0.0760326452
C  C33  1  0.15220000  0.05740000  0.10130000  1.0 0.6498478957
C  C34  1  0.23880000  0.04420000  0.20590000  1.0 -0.1395155798
C  C35  1  0.36400000  0.07700000  0.22190000  1.0 -0.0319126365
C  C36  1  0.41130000  0.96400000  0.19330000  1.0 -0.4207238696
C  C37  1  0.21200000  0.06400000  0.13100000  1.0 -0.0635644972
C  C38  1  0.30340000  0.07080000  0.19270000  1.0 0.0578670063
C  C39  1  0.27450000  0.09100000  0.11570000  1.0 -0.0946399487
C  C40  1  0.31240000  0.09160000  0.15230000  1.0 -0.1395155798
C  C41  1  0.52470000  0.91520000  0.27740000  1.0 0.0578670063
C  C42  1  0.54280000  0.69780000  0.32890000  1.0 -0.0760326452
C  C43  1  0.55740000  0.65220000  0.39870000  1.0 0.6498478957
C  C44  1  0.54420000  0.73880000  0.29410000  1.0 -0.1395155798
C  C45  1  0.57700000  0.86400000  0.27810000  1.0 -0.0319126365
C  C46  1  0.46400000  0.91130000  0.30670000  1.0 -0.4207238696
C  C47  1  0.56400000  0.71200000  0.36900000  1.0 -0.0635644972
C  C48  1  0.57080000  0.80340000  0.30730000  1.0 0.0578670063
C  C49  1  0.59100000  0.77450000  0.38430000  1.0 -0.0946399487
C  C50  1  0.59160000  0.81240000  0.34770000  1.0 -0.1395155798
C  C51  1  0.47530000  0.08480000  0.27740000  1.0 0.0578670063
C  C52  1  0.45720000  0.30220000  0.32890000  1.0 -0.0760326452
C  C53  1  0.44260000  0.34780000  0.39870000  1.0 0.6498478957
C  C54  1  0.45580000  0.26120000  0.29410000  1.0 -0.1395155798
C  C55  1  0.42300000  0.13600000  0.27810000  1.0 -0.0319126365
C  C56  1  0.53600000  0.08870000  0.30670000  1.0 -0.4207238696
C  C57  1  0.43600000  0.28800000  0.36900000  1.0 -0.0635644972
C  C58  1  0.42920000  0.19660000  0.30730000  1.0 0.0578670063
C  C59  1  0.40900000  0.22550000  0.38430000  1.0 -0.0946399487
C  C60  1  0.40840000  0.18760000  0.34770000  1.0 -0.1395155798
C  C61  1  0.91520000  0.47530000  0.27740000  1.0 0.0578670063
C  C62  1  0.69780000  0.45720000  0.32890000  1.0 -0.0760326452
C  C63  1  0.65220000  0.44260000  0.39870000  1.0 0.6498478957
C  C64  1  0.73880000  0.45580000  0.29410000  1.0 -0.1395155798
C  C65  1  0.86400000  0.42300000  0.27810000  1.0 -0.0319126365
C  C66  1  0.91130000  0.53600000  0.30670000  1.0 -0.4207238696
C  C67  1  0.71200000  0.43600000  0.36900000  1.0 -0.0635644972
C  C68  1  0.80340000  0.42920000  0.30730000  1.0 0.0578670063
C  C69  1  0.77450000  0.40900000  0.38430000  1.0 -0.0946399487
C  C70  1  0.81240000  0.40840000  0.34770000  1.0 -0.1395155798
C  C71  1  0.08480000  0.52470000  0.27740000  1.0 0.0578670063
C  C72  1  0.30220000  0.54280000  0.32890000  1.0 -0.0760326452
C  C73  1  0.34780000  0.55740000  0.39870000  1.0 0.6498478957
C  C74  1  0.26120000  0.54420000  0.29410000  1.0 -0.1395155798
C  C75  1  0.13600000  0.57700000  0.27810000  1.0 -0.0319126365
C  C76  1  0.08870000  0.46400000  0.30670000  1.0 -0.4207238696
C  C77  1  0.28800000  0.56400000  0.36900000  1.0 -0.0635644972
C  C78  1  0.19660000  0.57080000  0.30730000  1.0 0.0578670063
C  C79  1  0.22550000  0.59100000  0.38430000  1.0 -0.0946399487
C  C80  1  0.18760000  0.59160000  0.34770000  1.0 -0.1395155798
C  C81  1  0.02470000  0.58480000  0.77740000  1.0 0.0578670063
C  C82  1  0.04280000  0.80220000  0.82890000  1.0 -0.0760326452
C  C83  1  0.05740000  0.84780000  0.89870000  1.0 0.6498478957
C  C84  1  0.04420000  0.76120000  0.79410000  1.0 -0.1395155798
C  C85  1  0.07700000  0.63600000  0.77810000  1.0 -0.0319126365
C  C86  1  0.96400000  0.58870000  0.80670000  1.0 -0.4207238696
C  C87  1  0.06400000  0.78800000  0.86900000  1.0 -0.0635644972
C  C88  1  0.07080000  0.69660000  0.80730000  1.0 0.0578670063
C  C89  1  0.09100000  0.72550000  0.88430000  1.0 -0.0955114953
C  C90  1  0.09160000  0.68760000  0.84770000  1.0 -0.1395155798
C  C91  1  0.97530000  0.41520000  0.77740000  1.0 0.0578670063
C  C92  1  0.95720000  0.19780000  0.82890000  1.0 -0.0760326452
C  C93  1  0.94260000  0.15220000  0.89870000  1.0 0.6498478957
C  C94  1  0.95580000  0.23880000  0.79410000  1.0 -0.1395155798
C  C95  1  0.92300000  0.36400000  0.77810000  1.0 -0.0319126365
C  C96  1  0.03600000  0.41130000  0.80670000  1.0 -0.4207238696
C  C97  1  0.93600000  0.21200000  0.86900000  1.0 -0.0635644972
C  C98  1  0.92920000  0.30340000  0.80730000  1.0 0.0578670063
C  C99  1  0.90900000  0.27450000  0.88430000  1.0 -0.0955114953
C  C100  1  0.90840000  0.31240000  0.84770000  1.0 -0.1395155798
C  C101  1  0.41520000  0.02470000  0.77740000  1.0 0.0578670063
C  C102  1  0.19780000  0.04280000  0.82890000  1.0 -0.0760326452
C  C103  1  0.15220000  0.05740000  0.89870000  1.0 0.6498478957
C  C104  1  0.23880000  0.04420000  0.79410000  1.0 -0.1395155798
C  C105  1  0.36400000  0.07700000  0.77810000  1.0 -0.0319126365
C  C106  1  0.41130000  0.96400000  0.80670000  1.0 -0.4207238696
C  C107  1  0.21200000  0.06400000  0.86900000  1.0 -0.0635644972
C  C108  1  0.30340000  0.07080000  0.80730000  1.0 0.0578670063
C  C109  1  0.27450000  0.09100000  0.88430000  1.0 -0.0955114953
C  C110  1  0.31240000  0.09160000  0.84770000  1.0 -0.1395155798
C  C111  1  0.58480000  0.97530000  0.77740000  1.0 0.0578670063
C  C112  1  0.80220000  0.95720000  0.82890000  1.0 -0.0760326452
C  C113  1  0.84780000  0.94260000  0.89870000  1.0 0.6498478957
C  C114  1  0.76120000  0.95580000  0.79410000  1.0 -0.1395155798
C  C115  1  0.63600000  0.92300000  0.77810000  1.0 -0.0319126365
C  C116  1  0.58870000  0.03600000  0.80670000  1.0 -0.4207238696
C  C117  1  0.78800000  0.93600000  0.86900000  1.0 -0.0635644972
C  C118  1  0.69660000  0.92920000  0.80730000  1.0 0.0578670063
C  C119  1  0.72550000  0.90900000  0.88430000  1.0 -0.0955114953
C  C120  1  0.68760000  0.90840000  0.84770000  1.0 -0.1395155798
C  C121  1  0.47530000  0.08480000  0.72260000  1.0 0.0578670063
C  C122  1  0.45720000  0.30220000  0.67110000  1.0 -0.0760326452
C  C123  1  0.44260000  0.34780000  0.60130000  1.0 0.6498478957
C  C124  1  0.45580000  0.26120000  0.70590000  1.0 -0.1395155798
C  C125  1  0.42300000  0.13600000  0.72190000  1.0 -0.0319126365
C  C126  1  0.53600000  0.08870000  0.69330000  1.0 -0.4207238696
C  C127  1  0.43600000  0.28800000  0.63100000  1.0 -0.0635644972
C  C128  1  0.42920000  0.19660000  0.69270000  1.0 0.0578670063
C  C129  1  0.40900000  0.22550000  0.61570000  1.0 -0.0955114953
C  C130  1  0.40840000  0.18760000  0.65230000  1.0 -0.1395155798
C  C131  1  0.52470000  0.91520000  0.72260000  1.0 0.0578670063
C  C132  1  0.54280000  0.69780000  0.67110000  1.0 -0.0760326452
C  C133  1  0.55740000  0.65220000  0.60130000  1.0 0.6498478957
C  C134  1  0.54420000  0.73880000  0.70590000  1.0 -0.1395155798
C  C135  1  0.57700000  0.86400000  0.72190000  1.0 -0.0319126365
C  C136  1  0.46400000  0.91130000  0.69330000  1.0 -0.4207238696
C  C137  1  0.56400000  0.71200000  0.63100000  1.0 -0.0635644972
C  C138  1  0.57080000  0.80340000  0.69270000  1.0 0.0578670063
C  C139  1  0.59100000  0.77450000  0.61570000  1.0 -0.0946399487
C  C140  1  0.59160000  0.81240000  0.65230000  1.0 -0.1395155798
C  C141  1  0.08480000  0.52470000  0.72260000  1.0 0.0578670063
C  C142  1  0.30220000  0.54280000  0.67110000  1.0 -0.0760326452
C  C143  1  0.34780000  0.55740000  0.60130000  1.0 0.6498478957
C  C144  1  0.26120000  0.54420000  0.70590000  1.0 -0.1395155798
C  C145  1  0.13600000  0.57700000  0.72190000  1.0 -0.0319126365
C  C146  1  0.08870000  0.46400000  0.69330000  1.0 -0.4207238696
C  C147  1  0.28800000  0.56400000  0.63100000  1.0 -0.0635644972
C  C148  1  0.19660000  0.57080000  0.69270000  1.0 0.0578670063
C  C149  1  0.22550000  0.59100000  0.61570000  1.0 -0.0946399487
C  C150  1  0.18760000  0.59160000  0.65230000  1.0 -0.1395155798
C  C151  1  0.91520000  0.47530000  0.72260000  1.0 0.0578670063
C  C152  1  0.69780000  0.45720000  0.67110000  1.0 -0.0760326452
C  C153  1  0.65220000  0.44260000  0.60130000  1.0 0.6498478957
C  C154  1  0.73880000  0.45580000  0.70590000  1.0 -0.1395155798
C  C155  1  0.86400000  0.42300000  0.72190000  1.0 -0.0319126365
C  C156  1  0.91130000  0.53600000  0.69330000  1.0 -0.4207238696
C  C157  1  0.71200000  0.43600000  0.63100000  1.0 -0.0635644972
C  C158  1  0.80340000  0.42920000  0.69270000  1.0 0.0578670063
C  C159  1  0.77450000  0.40900000  0.61570000  1.0 -0.0955114953
C  C160  1  0.81240000  0.40840000  0.65230000  1.0 -0.1395155798
C  C161  1  0.97150000  0.47150000  0.25000000  1.0 -0.0127020359
C  C162  1  0.86760000  0.36760000  0.25000000  1.0 0.0002056722
C  C163  1  0.81230000  0.31230000  0.25000000  1.0 -0.1765861131
C  C164  1  0.02850000  0.52850000  0.25000000  1.0 -0.0127020359
C  C165  1  0.13240000  0.63240000  0.25000000  1.0 -0.0006430115
C  C166  1  0.18770000  0.68770000  0.25000000  1.0 -0.1765861131
C  C167  1  0.52850000  0.97150000  0.25000000  1.0 -0.0127020359
C  C168  1  0.63240000  0.86760000  0.25000000  1.0 0.0002056722
C  C169  1  0.68770000  0.81230000  0.25000000  1.0 -0.1765861131
C  C170  1  0.47150000  0.02850000  0.25000000  1.0 -0.0127020359
C  C171  1  0.36760000  0.13240000  0.25000000  1.0 0.0002056722
C  C172  1  0.31230000  0.18770000  0.25000000  1.0 -0.1740427307
C  C173  1  0.02850000  0.52850000  0.75000000  1.0 -0.0127020359
C  C174  1  0.13240000  0.63240000  0.75000000  1.0 -0.0006430115
C  C175  1  0.18770000  0.68770000  0.75000000  1.0 -0.1765861131
C  C176  1  0.97150000  0.47150000  0.75000000  1.0 -0.0127020359
C  C177  1  0.86760000  0.36760000  0.75000000  1.0 -0.0006430115
C  C178  1  0.81230000  0.31230000  0.75000000  1.0 -0.1765861131
C  C179  1  0.47150000  0.02850000  0.75000000  1.0 -0.0127020359
C  C180  1  0.36760000  0.13240000  0.75000000  1.0 -0.0006430115
C  C181  1  0.31230000  0.18770000  0.75000000  1.0 -0.1740427307
C  C182  1  0.52850000  0.97150000  0.75000000  1.0 -0.0127020359
C  C183  1  0.63240000  0.86760000  0.75000000  1.0 -0.0006430115
C  C184  1  0.68770000  0.81230000  0.75000000  1.0 -0.1765861131
O  O1  1  0.97140000  0.09250000  0.10960000  1.0 -0.5846074365
O  O2  1  0.93800000  0.17230000  0.06080000  1.0 -0.7145309788
O  O3  1  0.04000000  0.08250000  0.03610000  1.0 -1.1610299639
O  O4  1  0.02860000  0.90750000  0.10960000  1.0 -0.5857891582
O  O5  1  0.06200000  0.82770000  0.06080000  1.0 -0.7145309788
O  O6  1  0.96000000  0.91750000  0.03610000  1.0 -1.1610299639
O  O7  1  0.90750000  0.97140000  0.10960000  1.0 -0.5857891582
O  O8  1  0.82770000  0.93800000  0.06080000  1.0 -0.7145309788
O  O9  1  0.91750000  0.04000000  0.03610000  1.0 -1.1610299639
O  O10  1  0.09250000  0.02860000  0.10960000  1.0 -0.5846074365
O  O11  1  0.17230000  0.06200000  0.06080000  1.0 -0.7145309788
O  O12  1  0.08250000  0.96000000  0.03610000  1.0 -1.1610299639
O  O13  1  0.52860000  0.59250000  0.39040000  1.0 -0.5846074365
O  O14  1  0.56200000  0.67230000  0.43920000  1.0 -0.715528836
O  O15  1  0.46000000  0.58250000  0.46390000  1.0 -1.1610299639
O  O16  1  0.47140000  0.40750000  0.39040000  1.0 -0.5846074365
O  O17  1  0.43800000  0.32770000  0.43920000  1.0 -0.7145309788
O  O18  1  0.54000000  0.41750000  0.46390000  1.0 -1.1610299639
O  O19  1  0.59250000  0.47140000  0.39040000  1.0 -0.5846074365
O  O20  1  0.67230000  0.43800000  0.43920000  1.0 -0.7145309788
O  O21  1  0.58250000  0.54000000  0.46390000  1.0 -1.1610299639
O  O22  1  0.40750000  0.52860000  0.39040000  1.0 -0.5846074365
O  O23  1  0.32770000  0.56200000  0.43920000  1.0 -0.715528836
O  O24  1  0.41750000  0.46000000  0.46390000  1.0 -1.1610299639
O  O25  1  0.02860000  0.90750000  0.89040000  1.0 -0.5857891582
O  O26  1  0.06200000  0.82770000  0.93920000  1.0 -0.715528836
O  O27  1  0.96000000  0.91750000  0.96390000  1.0 -1.1610299639
O  O28  1  0.97140000  0.09250000  0.89040000  1.0 -0.5846074365
O  O29  1  0.93800000  0.17230000  0.93920000  1.0 -0.715528836
O  O30  1  0.04000000  0.08250000  0.96390000  1.0 -1.1610299639
O  O31  1  0.09250000  0.02860000  0.89040000  1.0 -0.5846074365
O  O32  1  0.17230000  0.06200000  0.93920000  1.0 -0.715528836
O  O33  1  0.08250000  0.96000000  0.96390000  1.0 -1.1610299639
O  O34  1  0.90750000  0.97140000  0.89040000  1.0 -0.5857891582
O  O35  1  0.82770000  0.93800000  0.93920000  1.0 -0.715528836
O  O36  1  0.91750000  0.04000000  0.96390000  1.0 -1.1610299639
O  O37  1  0.47140000  0.40750000  0.60960000  1.0 -0.5846074365
O  O38  1  0.43800000  0.32770000  0.56080000  1.0 -0.715528836
O  O39  1  0.54000000  0.41750000  0.53610000  1.0 -1.1610299639
O  O40  1  0.52860000  0.59250000  0.60960000  1.0 -0.5846074365
O  O41  1  0.56200000  0.67230000  0.56080000  1.0 -0.715528836
O  O42  1  0.46000000  0.58250000  0.53610000  1.0 -1.1610299639
O  O43  1  0.40750000  0.52860000  0.60960000  1.0 -0.5846074365
O  O44  1  0.32770000  0.56200000  0.56080000  1.0 -0.715528836
O  O45  1  0.41750000  0.46000000  0.53610000  1.0 -1.1610299639
O  O46  1  0.59250000  0.47140000  0.60960000  1.0 -0.5846074365
O  O47  1  0.67230000  0.43800000  0.56080000  1.0 -0.715528836
O  O48  1  0.58250000  0.54000000  0.53610000  1.0 -1.1610299639
