# DDEC6 charges by PACMAN v1.1 (https://github.com/mtap-research/PACMAN-charge/)
data_NEVSUF12_ASR_pacman
_symmetry_space_group_name_H-M   'P 1'
_cell_length_a   19.01730000
_cell_length_b   19.01730000
_cell_length_c   32.87830000
_cell_angle_alpha   90.00000000
_cell_angle_beta   90.00000000
_cell_angle_gamma   90.00000000
_symmetry_Int_Tables_number   1
_chemical_formula_structural   Zr3H40(C23O6)2
_chemical_formula_sum   'Zr12 H160 C184 O48'
_cell_volume   11890.69033457
_cell_formula_units_Z   4
loop_
 _symmetry_equiv_pos_site_id
 _symmetry_equiv_pos_as_xyz
  1  'x, y, z'
loop_
 _atom_site_type_symbol
 _atom_site_label
 _atom_site_symmetry_multiplicity
 _atom_site_fract_x
 _atom_site_fract_y
 _atom_site_fract_z
 _atom_site_occupancy
 _atom_site_charge
Zr  Zr1  1  0.37726000  0.54694000  0.50000000  1.0 2.4590876794
Zr  Zr2  1  0.62274000  0.45306000  0.50000000  1.0 2.4590876794
Zr  Zr3  1  0.45306000  0.37726000  0.50000000  1.0 2.4590876794
Zr  Zr4  1  0.54694000  0.62274000  0.50000000  1.0 2.4590876794
Zr  Zr5  1  0.12274000  0.04694000  0.00000000  1.0 2.4590876794
Zr  Zr6  1  0.87726000  0.95306000  0.00000000  1.0 2.4590876794
Zr  Zr7  1  0.04694000  0.87726000  0.00000000  1.0 2.4590876794
Zr  Zr8  1  0.95306000  0.12274000  0.00000000  1.0 2.4590876794
Zr  Zr9  1  0.50000000  0.50000000  0.57466000  1.0 2.3680371141
Zr  Zr10  1  0.00000000  0.00000000  0.92534000  1.0 2.3680371141
Zr  Zr11  1  0.50000000  0.50000000  0.42534000  1.0 2.3680371141
Zr  Zr12  1  0.00000000  0.00000000  0.07466000  1.0 2.3680371141
H  H1  1  0.52630000  0.64690000  0.67610000  1.0 0.1184909886
H  H2  1  0.53950000  0.73210000  0.72650000  1.0 0.1271711997
H  H3  1  0.47230000  0.94330000  0.66890000  1.0 0.1104676105
H  H4  1  0.42000000  0.93030000  0.70630000  1.0 0.1271711997
H  H5  1  0.45570000  0.86490000  0.68380000  1.0 0.1271711997
H  H6  1  0.60320000  0.78150000  0.59390000  1.0 0.1047621464
H  H7  1  0.61340000  0.86870000  0.64390000  1.0 0.1271711997
H  H8  1  0.66666667  0.76630000  0.74410000  1.0 0.0187644363
H  H9  1  0.71070000  0.81040000  0.77680000  1.0 0.0187644363
H  H10  1  0.72320000  0.82290000  0.72920000  1.0 0.0121878234
H  H11  1  0.47370000  0.35310000  0.67610000  1.0 0.1184909886
H  H12  1  0.46050000  0.26790000  0.72650000  1.0 0.1271711997
H  H13  1  0.52770000  0.05670000  0.66890000  1.0 0.1104676105
H  H14  1  0.58000000  0.06970000  0.70630000  1.0 0.1271711997
H  H15  1  0.54430000  0.13510000  0.68380000  1.0 0.1271711997
H  H16  1  0.39680000  0.21850000  0.59390000  1.0 0.1047621464
H  H17  1  0.38660000  0.13130000  0.64390000  1.0 0.1271711997
H  H18  1  0.33333333  0.23370000  0.74410000  1.0 0.0187644363
H  H19  1  0.28930000  0.18960000  0.77680000  1.0 0.0187644363
H  H20  1  0.27680000  0.17710000  0.72920000  1.0 0.0187644363
H  H21  1  0.35310000  0.52630000  0.67610000  1.0 0.1184909886
H  H22  1  0.26790000  0.53950000  0.72650000  1.0 0.1271711997
H  H23  1  0.05670000  0.47230000  0.66890000  1.0 0.1104676105
H  H24  1  0.06970000  0.42000000  0.70630000  1.0 0.1271711997
H  H25  1  0.13510000  0.45570000  0.68380000  1.0 0.1271711997
H  H26  1  0.21850000  0.60320000  0.59390000  1.0 0.1047621464
H  H27  1  0.13130000  0.61340000  0.64390000  1.0 0.1271711997
H  H28  1  0.23370000  0.66666667  0.74410000  1.0 0.0187644363
H  H29  1  0.18960000  0.71070000  0.77680000  1.0 0.0187644363
H  H30  1  0.17710000  0.72320000  0.72920000  1.0 0.0121878234
H  H31  1  0.64690000  0.47370000  0.67610000  1.0 0.1184909886
H  H32  1  0.73210000  0.46050000  0.72650000  1.0 0.1271711997
H  H33  1  0.94330000  0.52770000  0.66890000  1.0 0.1104676105
H  H34  1  0.93030000  0.58000000  0.70630000  1.0 0.1271711997
H  H35  1  0.86490000  0.54430000  0.68380000  1.0 0.1271711997
H  H36  1  0.78150000  0.39680000  0.59390000  1.0 0.1047621464
H  H37  1  0.86870000  0.38660000  0.64390000  1.0 0.1271711997
H  H38  1  0.76630000  0.33333333  0.74410000  1.0 0.0187644363
H  H39  1  0.81040000  0.28930000  0.77680000  1.0 0.0187644363
H  H40  1  0.82290000  0.27680000  0.72920000  1.0 0.0187644363
H  H41  1  0.97370000  0.14690000  0.82390000  1.0 0.1184909886
H  H42  1  0.96050000  0.23210000  0.77350000  1.0 0.1271711997
H  H43  1  0.02770000  0.44330000  0.83110000  1.0 0.1104676105
H  H44  1  0.08000000  0.43030000  0.79370000  1.0 0.1271711997
H  H45  1  0.04430000  0.36490000  0.81620000  1.0 0.1271711997
H  H46  1  0.89680000  0.28150000  0.90610000  1.0 0.1104676105
H  H47  1  0.88660000  0.36870000  0.85610000  1.0 0.1271711997
H  H48  1  0.83333000  0.26630000  0.75590000  1.0 0.0187644363
H  H49  1  0.78930000  0.31040000  0.72320000  1.0 0.0187644363
H  H50  1  0.77680000  0.32290000  0.77080000  1.0 0.0187644363
H  H51  1  0.02630000  0.85310000  0.82390000  1.0 0.1184909886
H  H52  1  0.03950000  0.76790000  0.77350000  1.0 0.1271711997
H  H53  1  0.97230000  0.55670000  0.83110000  1.0 0.1104676105
H  H54  1  0.92000000  0.56970000  0.79370000  1.0 0.1271711997
H  H55  1  0.95570000  0.63510000  0.81620000  1.0 0.1271711997
H  H56  1  0.10320000  0.71850000  0.90610000  1.0 0.1104676105
H  H57  1  0.11340000  0.63130000  0.85610000  1.0 0.1271711997
H  H58  1  0.16667000  0.73370000  0.75590000  1.0 0.0187644363
H  H59  1  0.21070000  0.68960000  0.72320000  1.0 0.0187644363
H  H60  1  0.22320000  0.67710000  0.77080000  1.0 0.0121878234
H  H61  1  0.14690000  0.02630000  0.82390000  1.0 0.1184909886
H  H62  1  0.23210000  0.03950000  0.77350000  1.0 0.1271711997
H  H63  1  0.44330000  0.97230000  0.83110000  1.0 0.1104676105
H  H64  1  0.43030000  0.92000000  0.79370000  1.0 0.1271711997
H  H65  1  0.36490000  0.95570000  0.81620000  1.0 0.1271711997
H  H66  1  0.28150000  0.10320000  0.90610000  1.0 0.1104676105
H  H67  1  0.36870000  0.11340000  0.85610000  1.0 0.1271711997
H  H68  1  0.26630000  0.16667000  0.75590000  1.0 0.0187644363
H  H69  1  0.31040000  0.21070000  0.72320000  1.0 0.0187644363
H  H70  1  0.32290000  0.22320000  0.77080000  1.0 0.0187644363
H  H71  1  0.85310000  0.97370000  0.82390000  1.0 0.1184909886
H  H72  1  0.76790000  0.96050000  0.77350000  1.0 0.1271711997
H  H73  1  0.55670000  0.02770000  0.83110000  1.0 0.1104676105
H  H74  1  0.56970000  0.08000000  0.79370000  1.0 0.1271711997
H  H75  1  0.63510000  0.04430000  0.81620000  1.0 0.1271711997
H  H76  1  0.71850000  0.89680000  0.90610000  1.0 0.1104676105
H  H77  1  0.63130000  0.88660000  0.85610000  1.0 0.1271711997
H  H78  1  0.73370000  0.83333000  0.75590000  1.0 0.0187644363
H  H79  1  0.68960000  0.78930000  0.72320000  1.0 0.0187644363
H  H80  1  0.67710000  0.77680000  0.77080000  1.0 0.0121878234
H  H81  1  0.47370000  0.35310000  0.32390000  1.0 0.1184909886
H  H82  1  0.46050000  0.26790000  0.27350000  1.0 0.1271711997
H  H83  1  0.52770000  0.05670000  0.33110000  1.0 0.1104676105
H  H84  1  0.58000000  0.06970000  0.29370000  1.0 0.1271711997
H  H85  1  0.54430000  0.13510000  0.31620000  1.0 0.1271711997
H  H86  1  0.39680000  0.21850000  0.40610000  1.0 0.1104676105
H  H87  1  0.38660000  0.13130000  0.35610000  1.0 0.1271711997
H  H88  1  0.33333333  0.23370000  0.25590000  1.0 0.0121878234
H  H89  1  0.28930000  0.18960000  0.22320000  1.0 0.0187644363
H  H90  1  0.27680000  0.17710000  0.27080000  1.0 0.0121878234
H  H91  1  0.52630000  0.64690000  0.32390000  1.0 0.1184909886
H  H92  1  0.53950000  0.73210000  0.27350000  1.0 0.1271711997
H  H93  1  0.47230000  0.94330000  0.33110000  1.0 0.1104676105
H  H94  1  0.42000000  0.93030000  0.29370000  1.0 0.1271711997
H  H95  1  0.45570000  0.86490000  0.31620000  1.0 0.1271711997
H  H96  1  0.60320000  0.78150000  0.40610000  1.0 0.1104676105
H  H97  1  0.61340000  0.86870000  0.35610000  1.0 0.1271711997
H  H98  1  0.66666667  0.76630000  0.25590000  1.0 0.0121878234
H  H99  1  0.71070000  0.81040000  0.22320000  1.0 0.0187644363
H  H100  1  0.72320000  0.82290000  0.27080000  1.0 0.0121878234
H  H101  1  0.64690000  0.47370000  0.32390000  1.0 0.1184909886
H  H102  1  0.73210000  0.46050000  0.27350000  1.0 0.1271711997
H  H103  1  0.94330000  0.52770000  0.33110000  1.0 0.1104676105
H  H104  1  0.93030000  0.58000000  0.29370000  1.0 0.1271711997
H  H105  1  0.86490000  0.54430000  0.31620000  1.0 0.1271711997
H  H106  1  0.78150000  0.39680000  0.40610000  1.0 0.1104676105
H  H107  1  0.86870000  0.38660000  0.35610000  1.0 0.1271711997
H  H108  1  0.76630000  0.33333333  0.25590000  1.0 0.0121878234
H  H109  1  0.81040000  0.28930000  0.22320000  1.0 0.0187644363
H  H110  1  0.82290000  0.27680000  0.27080000  1.0 0.0121878234
H  H111  1  0.35310000  0.52630000  0.32390000  1.0 0.1184909886
H  H112  1  0.26790000  0.53950000  0.27350000  1.0 0.1271711997
H  H113  1  0.05670000  0.47230000  0.33110000  1.0 0.1104676105
H  H114  1  0.06970000  0.42000000  0.29370000  1.0 0.1271711997
H  H115  1  0.13510000  0.45570000  0.31620000  1.0 0.1271711997
H  H116  1  0.21850000  0.60320000  0.40610000  1.0 0.1104676105
H  H117  1  0.13130000  0.61340000  0.35610000  1.0 0.1271711997
H  H118  1  0.23370000  0.66666667  0.25590000  1.0 0.0121878234
H  H119  1  0.18960000  0.71070000  0.22320000  1.0 0.0187644363
H  H120  1  0.17710000  0.72320000  0.27080000  1.0 0.0121878234
H  H121  1  0.02630000  0.85310000  0.17610000  1.0 0.1184909886
H  H122  1  0.03950000  0.76790000  0.22650000  1.0 0.1271711997
H  H123  1  0.97230000  0.55670000  0.16890000  1.0 0.1104676105
H  H124  1  0.92000000  0.56970000  0.20630000  1.0 0.1271711997
H  H125  1  0.95570000  0.63510000  0.18380000  1.0 0.1271711997
H  H126  1  0.10320000  0.71850000  0.09390000  1.0 0.1104676105
H  H127  1  0.11340000  0.63130000  0.14390000  1.0 0.1271711997
H  H128  1  0.16667000  0.73370000  0.24410000  1.0 0.0187644363
H  H129  1  0.21070000  0.68960000  0.27680000  1.0 0.0187644363
H  H130  1  0.22320000  0.67710000  0.22920000  1.0 0.0187644363
H  H131  1  0.97370000  0.14690000  0.17610000  1.0 0.1184909886
H  H132  1  0.96050000  0.23210000  0.22650000  1.0 0.1271711997
H  H133  1  0.02770000  0.44330000  0.16890000  1.0 0.1104676105
H  H134  1  0.08000000  0.43030000  0.20630000  1.0 0.1271711997
H  H135  1  0.04430000  0.36490000  0.18380000  1.0 0.1271711997
H  H136  1  0.89680000  0.28150000  0.09390000  1.0 0.1104676105
H  H137  1  0.88660000  0.36870000  0.14390000  1.0 0.1271711997
H  H138  1  0.83333000  0.26630000  0.24410000  1.0 0.0187644363
H  H139  1  0.78930000  0.31040000  0.27680000  1.0 0.0187644363
H  H140  1  0.77680000  0.32290000  0.22920000  1.0 0.0187644363
H  H141  1  0.85310000  0.97370000  0.17610000  1.0 0.1184909886
H  H142  1  0.76790000  0.96050000  0.22650000  1.0 0.1271711997
H  H143  1  0.55670000  0.02770000  0.16890000  1.0 0.1104676105
H  H144  1  0.56970000  0.08000000  0.20630000  1.0 0.1271711997
H  H145  1  0.63510000  0.04430000  0.18380000  1.0 0.1271711997
H  H146  1  0.71850000  0.89680000  0.09390000  1.0 0.1104676105
H  H147  1  0.63130000  0.88660000  0.14390000  1.0 0.1271711997
H  H148  1  0.73370000  0.83333000  0.24410000  1.0 0.0187644363
H  H149  1  0.68960000  0.78930000  0.27680000  1.0 0.0187644363
H  H150  1  0.67710000  0.77680000  0.22920000  1.0 0.0187644363
H  H151  1  0.14690000  0.02630000  0.17610000  1.0 0.1184909886
H  H152  1  0.23210000  0.03950000  0.22650000  1.0 0.1271711997
H  H153  1  0.44330000  0.97230000  0.16890000  1.0 0.1104676105
H  H154  1  0.43030000  0.92000000  0.20630000  1.0 0.1271711997
H  H155  1  0.36490000  0.95570000  0.18380000  1.0 0.1271711997
H  H156  1  0.28150000  0.10320000  0.09390000  1.0 0.1104676105
H  H157  1  0.36870000  0.11340000  0.14390000  1.0 0.1271711997
H  H158  1  0.26630000  0.16667000  0.24410000  1.0 0.0187644363
H  H159  1  0.31040000  0.21070000  0.27680000  1.0 0.0187644363
H  H160  1  0.32290000  0.22320000  0.22920000  1.0 0.0187644363
C  C1  1  0.52440000  0.91720000  0.72201000  1.0 0.0522909001
C  C2  1  0.54400000  0.69210000  0.66932000  1.0 -0.0888708518
C  C3  1  0.55260000  0.65390000  0.59750000  1.0 0.6365062093
C  C4  1  0.55130000  0.74330000  0.69922000  1.0 -0.1305617607
C  C5  1  0.57740000  0.86610000  0.72184000  1.0 -0.0507590426
C  C6  1  0.46260000  0.91360000  0.69266000  1.0 -0.4291456992
C  C7  1  0.56240000  0.70720000  0.62999000  1.0 -0.0507590426
C  C8  1  0.57500000  0.80980000  0.69018000  1.0 0.0522909001
C  C9  1  0.58880000  0.77160000  0.62095000  1.0 -0.0888708518
C  C10  1  0.59520000  0.82380000  0.65079000  1.0 -0.1240579781
C  C11  1  0.47560000  0.08280000  0.72201000  1.0 0.0522909001
C  C12  1  0.45600000  0.30790000  0.66932000  1.0 -0.0888708518
C  C13  1  0.44740000  0.34610000  0.59750000  1.0 0.6365062093
C  C14  1  0.44870000  0.25670000  0.69922000  1.0 -0.1305617607
C  C15  1  0.42260000  0.13390000  0.72184000  1.0 -0.0507590426
C  C16  1  0.53740000  0.08640000  0.69266000  1.0 -0.4291456992
C  C17  1  0.43760000  0.29280000  0.62999000  1.0 -0.0507590426
C  C18  1  0.42500000  0.19020000  0.69018000  1.0 0.0522909001
C  C19  1  0.41120000  0.22840000  0.62095000  1.0 -0.0888708518
C  C20  1  0.40480000  0.17620000  0.65079000  1.0 -0.1305617607
C  C21  1  0.08280000  0.52440000  0.72201000  1.0 0.0522909001
C  C22  1  0.30790000  0.54400000  0.66932000  1.0 -0.0888708518
C  C23  1  0.34610000  0.55260000  0.59750000  1.0 0.6365062093
C  C24  1  0.25670000  0.55130000  0.69922000  1.0 -0.1305617607
C  C25  1  0.13390000  0.57740000  0.72184000  1.0 -0.0507590426
C  C26  1  0.08640000  0.46260000  0.69266000  1.0 -0.4291456992
C  C27  1  0.29280000  0.56240000  0.62999000  1.0 -0.0507590426
C  C28  1  0.19020000  0.57500000  0.69018000  1.0 0.0522909001
C  C29  1  0.22840000  0.58880000  0.62095000  1.0 -0.0888708518
C  C30  1  0.17620000  0.59520000  0.65079000  1.0 -0.1240579781
C  C31  1  0.91720000  0.47560000  0.72201000  1.0 0.0522909001
C  C32  1  0.69210000  0.45600000  0.66932000  1.0 -0.0888708518
C  C33  1  0.65390000  0.44740000  0.59750000  1.0 0.6365062093
C  C34  1  0.74330000  0.44870000  0.69922000  1.0 -0.1305617607
C  C35  1  0.86610000  0.42260000  0.72184000  1.0 -0.0507590426
C  C36  1  0.91360000  0.53740000  0.69266000  1.0 -0.4291456992
C  C37  1  0.70720000  0.43760000  0.62999000  1.0 -0.0507590426
C  C38  1  0.80980000  0.42500000  0.69018000  1.0 0.0522909001
C  C39  1  0.77160000  0.41120000  0.62095000  1.0 -0.0888708518
C  C40  1  0.82380000  0.40480000  0.65079000  1.0 -0.1240579781
C  C41  1  0.97560000  0.41720000  0.77799000  1.0 0.0522909001
C  C42  1  0.95600000  0.19210000  0.83068000  1.0 -0.0888708518
C  C43  1  0.94740000  0.15390000  0.90250000  1.0 0.6343604869
C  C44  1  0.94870000  0.24330000  0.80078000  1.0 -0.1305617607
C  C45  1  0.92260000  0.36610000  0.77816000  1.0 -0.0507590426
C  C46  1  0.03740000  0.41360000  0.80734000  1.0 -0.4291456992
C  C47  1  0.93760000  0.20720000  0.87001000  1.0 -0.0507590426
C  C48  1  0.92500000  0.30980000  0.80982000  1.0 0.0522909001
C  C49  1  0.91120000  0.27160000  0.87905000  1.0 -0.0888708518
C  C50  1  0.90480000  0.32380000  0.84921000  1.0 -0.1240579781
C  C51  1  0.02440000  0.58280000  0.77799000  1.0 0.0522909001
C  C52  1  0.04400000  0.80790000  0.83068000  1.0 -0.0888708518
C  C53  1  0.05260000  0.84610000  0.90250000  1.0 0.6343604869
C  C54  1  0.05130000  0.75670000  0.80078000  1.0 -0.1305617607
C  C55  1  0.07740000  0.63390000  0.77816000  1.0 -0.0507590426
C  C56  1  0.96260000  0.58640000  0.80734000  1.0 -0.4291456992
C  C57  1  0.06240000  0.79280000  0.87001000  1.0 -0.0507590426
C  C58  1  0.07500000  0.69020000  0.80982000  1.0 0.0522909001
C  C59  1  0.08880000  0.72840000  0.87905000  1.0 -0.0888708518
C  C60  1  0.09520000  0.67620000  0.84921000  1.0 -0.1305617607
C  C61  1  0.41720000  0.02440000  0.77799000  1.0 0.0522909001
C  C62  1  0.19210000  0.04400000  0.83068000  1.0 -0.0888708518
C  C63  1  0.15390000  0.05260000  0.90250000  1.0 0.6343604869
C  C64  1  0.24330000  0.05130000  0.80078000  1.0 -0.1305617607
C  C65  1  0.36610000  0.07740000  0.77816000  1.0 -0.0507590426
C  C66  1  0.41360000  0.96260000  0.80734000  1.0 -0.4291456992
C  C67  1  0.20720000  0.06240000  0.87001000  1.0 -0.0507590426
C  C68  1  0.30980000  0.07500000  0.80982000  1.0 0.0522909001
C  C69  1  0.27160000  0.08880000  0.87905000  1.0 -0.0888708518
C  C70  1  0.32380000  0.09520000  0.84921000  1.0 -0.1305617607
C  C71  1  0.58280000  0.97560000  0.77799000  1.0 0.0522909001
C  C72  1  0.80790000  0.95600000  0.83068000  1.0 -0.0888708518
C  C73  1  0.84610000  0.94740000  0.90250000  1.0 0.6343604869
C  C74  1  0.75670000  0.94870000  0.80078000  1.0 -0.1305617607
C  C75  1  0.63390000  0.92260000  0.77816000  1.0 -0.0507590426
C  C76  1  0.58640000  0.03740000  0.80734000  1.0 -0.4291456992
C  C77  1  0.79280000  0.93760000  0.87001000  1.0 -0.0507590426
C  C78  1  0.69020000  0.92500000  0.80982000  1.0 0.0522909001
C  C79  1  0.72840000  0.91120000  0.87905000  1.0 -0.0888708518
C  C80  1  0.67620000  0.90480000  0.84921000  1.0 -0.1240579781
C  C81  1  0.47560000  0.08280000  0.27799000  1.0 0.0522909001
C  C82  1  0.45600000  0.30790000  0.33068000  1.0 -0.0888708518
C  C83  1  0.44740000  0.34610000  0.40250000  1.0 0.6343604869
C  C84  1  0.44870000  0.25670000  0.30078000  1.0 -0.1305617607
C  C85  1  0.42260000  0.13390000  0.27816000  1.0 -0.0507590426
C  C86  1  0.53740000  0.08640000  0.30734000  1.0 -0.4291456992
C  C87  1  0.43760000  0.29280000  0.37001000  1.0 -0.0507590426
C  C88  1  0.42500000  0.19020000  0.30982000  1.0 0.0522909001
C  C89  1  0.41120000  0.22840000  0.37905000  1.0 -0.0888708518
C  C90  1  0.40480000  0.17620000  0.34921000  1.0 -0.1240579781
C  C91  1  0.52440000  0.91720000  0.27799000  1.0 0.0522909001
C  C92  1  0.54400000  0.69210000  0.33068000  1.0 -0.0888708518
C  C93  1  0.55260000  0.65390000  0.40250000  1.0 0.6343604869
C  C94  1  0.55130000  0.74330000  0.30078000  1.0 -0.1305617607
C  C95  1  0.57740000  0.86610000  0.27816000  1.0 -0.0507590426
C  C96  1  0.46260000  0.91360000  0.30734000  1.0 -0.4291456992
C  C97  1  0.56240000  0.70720000  0.37001000  1.0 -0.0507590426
C  C98  1  0.57500000  0.80980000  0.30982000  1.0 0.0522909001
C  C99  1  0.58880000  0.77160000  0.37905000  1.0 -0.0888708518
C  C100  1  0.59520000  0.82380000  0.34921000  1.0 -0.1240579781
C  C101  1  0.91720000  0.47560000  0.27799000  1.0 0.0522909001
C  C102  1  0.69210000  0.45600000  0.33068000  1.0 -0.0888708518
C  C103  1  0.65390000  0.44740000  0.40250000  1.0 0.6343604869
C  C104  1  0.74330000  0.44870000  0.30078000  1.0 -0.1305617607
C  C105  1  0.86610000  0.42260000  0.27816000  1.0 -0.0507590426
C  C106  1  0.91360000  0.53740000  0.30734000  1.0 -0.4291456992
C  C107  1  0.70720000  0.43760000  0.37001000  1.0 -0.0507590426
C  C108  1  0.80980000  0.42500000  0.30982000  1.0 0.0522909001
C  C109  1  0.77160000  0.41120000  0.37905000  1.0 -0.0888708518
C  C110  1  0.82380000  0.40480000  0.34921000  1.0 -0.1240579781
C  C111  1  0.08280000  0.52440000  0.27799000  1.0 0.0522909001
C  C112  1  0.30790000  0.54400000  0.33068000  1.0 -0.0888708518
C  C113  1  0.34610000  0.55260000  0.40250000  1.0 0.6343604869
C  C114  1  0.25670000  0.55130000  0.30078000  1.0 -0.1305617607
C  C115  1  0.13390000  0.57740000  0.27816000  1.0 -0.0507590426
C  C116  1  0.08640000  0.46260000  0.30734000  1.0 -0.4291456992
C  C117  1  0.29280000  0.56240000  0.37001000  1.0 -0.0507590426
C  C118  1  0.19020000  0.57500000  0.30982000  1.0 0.0522909001
C  C119  1  0.22840000  0.58880000  0.37905000  1.0 -0.0888708518
C  C120  1  0.17620000  0.59520000  0.34921000  1.0 -0.1240579781
C  C121  1  0.02440000  0.58280000  0.22201000  1.0 0.0522909001
C  C122  1  0.04400000  0.80790000  0.16932000  1.0 -0.0888708518
C  C123  1  0.05260000  0.84610000  0.09750000  1.0 0.6343604869
C  C124  1  0.05130000  0.75670000  0.19922000  1.0 -0.1305617607
C  C125  1  0.07740000  0.63390000  0.22184000  1.0 -0.0507590426
C  C126  1  0.96260000  0.58640000  0.19266000  1.0 -0.4291456992
C  C127  1  0.06240000  0.79280000  0.12999000  1.0 -0.0507590426
C  C128  1  0.07500000  0.69020000  0.19018000  1.0 0.0522909001
C  C129  1  0.08880000  0.72840000  0.12095000  1.0 -0.0888708518
C  C130  1  0.09520000  0.67620000  0.15079000  1.0 -0.1240579781
C  C131  1  0.97560000  0.41720000  0.22201000  1.0 0.0522909001
C  C132  1  0.95600000  0.19210000  0.16932000  1.0 -0.0888708518
C  C133  1  0.94740000  0.15390000  0.09750000  1.0 0.6343604869
C  C134  1  0.94870000  0.24330000  0.19922000  1.0 -0.1305617607
C  C135  1  0.92260000  0.36610000  0.22184000  1.0 -0.0507590426
C  C136  1  0.03740000  0.41360000  0.19266000  1.0 -0.4291456992
C  C137  1  0.93760000  0.20720000  0.12999000  1.0 -0.0507590426
C  C138  1  0.92500000  0.30980000  0.19018000  1.0 0.0522909001
C  C139  1  0.91120000  0.27160000  0.12095000  1.0 -0.0888708518
C  C140  1  0.90480000  0.32380000  0.15079000  1.0 -0.1240579781
C  C141  1  0.58280000  0.97560000  0.22201000  1.0 0.0522909001
C  C142  1  0.80790000  0.95600000  0.16932000  1.0 -0.0888708518
C  C143  1  0.84610000  0.94740000  0.09750000  1.0 0.6343604869
C  C144  1  0.75670000  0.94870000  0.19922000  1.0 -0.1305617607
C  C145  1  0.63390000  0.92260000  0.22184000  1.0 -0.0507590426
C  C146  1  0.58640000  0.03740000  0.19266000  1.0 -0.4291456992
C  C147  1  0.79280000  0.93760000  0.12999000  1.0 -0.0507590426
C  C148  1  0.69020000  0.92500000  0.19018000  1.0 0.0522909001
C  C149  1  0.72840000  0.91120000  0.12095000  1.0 -0.0888708518
C  C150  1  0.67620000  0.90480000  0.15079000  1.0 -0.1240579781
C  C151  1  0.41720000  0.02440000  0.22201000  1.0 0.0522909001
C  C152  1  0.19210000  0.04400000  0.16932000  1.0 -0.0888708518
C  C153  1  0.15390000  0.05260000  0.09750000  1.0 0.6343604869
C  C154  1  0.24330000  0.05130000  0.19922000  1.0 -0.1305617607
C  C155  1  0.36610000  0.07740000  0.22184000  1.0 -0.0507590426
C  C156  1  0.41360000  0.96260000  0.19266000  1.0 -0.4291456992
C  C157  1  0.20720000  0.06240000  0.12999000  1.0 -0.0507590426
C  C158  1  0.30980000  0.07500000  0.19018000  1.0 0.0522909001
C  C159  1  0.27160000  0.08880000  0.12095000  1.0 -0.0888708518
C  C160  1  0.32380000  0.09520000  0.15079000  1.0 -0.1240579781
C  C161  1  0.52800000  0.97200000  0.75000000  1.0 -0.0177590319
C  C162  1  0.63170000  0.86830000  0.75000000  1.0 -0.027898811
C  C163  1  0.68800000  0.81200000  0.75000000  1.0 -0.166989181
C  C164  1  0.47200000  0.02800000  0.75000000  1.0 -0.0177590319
C  C165  1  0.36830000  0.13170000  0.75000000  1.0 -0.027898811
C  C166  1  0.31200000  0.18800000  0.75000000  1.0 -0.166989181
C  C167  1  0.02800000  0.52800000  0.75000000  1.0 -0.0177590319
C  C168  1  0.13170000  0.63170000  0.75000000  1.0 -0.027898811
C  C169  1  0.18800000  0.68800000  0.75000000  1.0 -0.166989181
C  C170  1  0.97200000  0.47200000  0.75000000  1.0 -0.0177590319
C  C171  1  0.86830000  0.36830000  0.75000000  1.0 -0.027898811
C  C172  1  0.81200000  0.31200000  0.75000000  1.0 -0.166989181
C  C173  1  0.47200000  0.02800000  0.25000000  1.0 -0.0177590319
C  C174  1  0.36830000  0.13170000  0.25000000  1.0 -0.027898811
C  C175  1  0.31200000  0.18800000  0.25000000  1.0 -0.166989181
C  C176  1  0.52800000  0.97200000  0.25000000  1.0 -0.0177590319
C  C177  1  0.63170000  0.86830000  0.25000000  1.0 -0.027898811
C  C178  1  0.68800000  0.81200000  0.25000000  1.0 -0.166989181
C  C179  1  0.97200000  0.47200000  0.25000000  1.0 -0.0177590319
C  C180  1  0.86830000  0.36830000  0.25000000  1.0 -0.027898811
C  C181  1  0.81200000  0.31200000  0.25000000  1.0 -0.166989181
C  C182  1  0.02800000  0.52800000  0.25000000  1.0 -0.0177590319
C  C183  1  0.13170000  0.63170000  0.25000000  1.0 -0.027898811
C  C184  1  0.18800000  0.68800000  0.25000000  1.0 -0.166989181
O  O1  1  0.53300000  0.59338000  0.60900000  1.0 -0.5860435718
O  O2  1  0.56483000  0.67238000  0.56152000  1.0 -0.6151340359
O  O3  1  0.46209000  0.58591000  0.53663000  1.0 -1.189896589
O  O4  1  0.46700000  0.40662000  0.60900000  1.0 -0.5860435718
O  O5  1  0.43517000  0.32762000  0.56152000  1.0 -0.6151340359
O  O6  1  0.53791000  0.41409000  0.53663000  1.0 -1.189896589
O  O7  1  0.40662000  0.53300000  0.60900000  1.0 -0.5860435718
O  O8  1  0.32762000  0.56483000  0.56152000  1.0 -0.6151340359
O  O9  1  0.41409000  0.46209000  0.53663000  1.0 -1.189896589
O  O10  1  0.59338000  0.46700000  0.60900000  1.0 -0.5860435718
O  O11  1  0.67238000  0.43517000  0.56152000  1.0 -0.6151340359
O  O12  1  0.58591000  0.53791000  0.53663000  1.0 -1.189896589
O  O13  1  0.96700000  0.09338000  0.89100000  1.0 -0.5860435718
O  O14  1  0.93517000  0.17238000  0.93848000  1.0 -0.6117139463
O  O15  1  0.03791000  0.08591000  0.96337000  1.0 -1.189896589
O  O16  1  0.03300000  0.90662000  0.89100000  1.0 -0.5860435718
O  O17  1  0.06483000  0.82762000  0.93848000  1.0 -0.6117139463
O  O18  1  0.96209000  0.91409000  0.96337000  1.0 -1.189896589
O  O19  1  0.09338000  0.03300000  0.89100000  1.0 -0.5860435718
O  O20  1  0.17238000  0.06483000  0.93848000  1.0 -0.6117139463
O  O21  1  0.08591000  0.96209000  0.96337000  1.0 -1.189896589
O  O22  1  0.90662000  0.96700000  0.89100000  1.0 -0.5860435718
O  O23  1  0.82762000  0.93517000  0.93848000  1.0 -0.6117139463
O  O24  1  0.91409000  0.03791000  0.96337000  1.0 -1.189896589
O  O25  1  0.46700000  0.40662000  0.39100000  1.0 -0.5860435718
O  O26  1  0.43517000  0.32762000  0.43848000  1.0 -0.6117139463
O  O27  1  0.53791000  0.41409000  0.46337000  1.0 -1.189896589
O  O28  1  0.53300000  0.59338000  0.39100000  1.0 -0.5860435718
O  O29  1  0.56483000  0.67238000  0.43848000  1.0 -0.6117139463
O  O30  1  0.46209000  0.58591000  0.46337000  1.0 -1.189896589
O  O31  1  0.59338000  0.46700000  0.39100000  1.0 -0.5860435718
O  O32  1  0.67238000  0.43517000  0.43848000  1.0 -0.6117139463
O  O33  1  0.58591000  0.53791000  0.46337000  1.0 -1.189896589
O  O34  1  0.40662000  0.53300000  0.39100000  1.0 -0.5860435718
O  O35  1  0.32762000  0.56483000  0.43848000  1.0 -0.6117139463
O  O36  1  0.41409000  0.46209000  0.46337000  1.0 -1.189896589
O  O37  1  0.03300000  0.90662000  0.10900000  1.0 -0.5860435718
O  O38  1  0.06483000  0.82762000  0.06152000  1.0 -0.6117139463
O  O39  1  0.96209000  0.91409000  0.03663000  1.0 -1.189896589
O  O40  1  0.96700000  0.09338000  0.10900000  1.0 -0.5860435718
O  O41  1  0.93517000  0.17238000  0.06152000  1.0 -0.6117139463
O  O42  1  0.03791000  0.08591000  0.03663000  1.0 -1.189896589
O  O43  1  0.90662000  0.96700000  0.10900000  1.0 -0.5860435718
O  O44  1  0.82762000  0.93517000  0.06152000  1.0 -0.6117139463
O  O45  1  0.91409000  0.03791000  0.03663000  1.0 -1.189896589
O  O46  1  0.09338000  0.03300000  0.10900000  1.0 -0.5860435718
O  O47  1  0.17238000  0.06483000  0.06152000  1.0 -0.6117139463
O  O48  1  0.08591000  0.96209000  0.03663000  1.0 -1.189896589
