# DDEC6 charges by PACMAN v1.1 (https://github.com/mtap-research/PACMAN-charge/)
data_NEVSUF03_ASR_pacman
_symmetry_space_group_name_H-M   'P 1'
_cell_length_a   19.13260000
_cell_length_b   19.13260000
_cell_length_c   33.03900000
_cell_angle_alpha   90.00000000
_cell_angle_beta   90.00000000
_cell_angle_gamma   90.00000000
_symmetry_Int_Tables_number   1
_chemical_formula_structural   Zr3H40(C23O6)2
_chemical_formula_sum   'Zr12 H160 C184 O48'
_cell_volume   12094.13683001
_cell_formula_units_Z   4
loop_
 _symmetry_equiv_pos_site_id
 _symmetry_equiv_pos_as_xyz
  1  'x, y, z'
loop_
 _atom_site_type_symbol
 _atom_site_label
 _atom_site_symmetry_multiplicity
 _atom_site_fract_x
 _atom_site_fract_y
 _atom_site_fract_z
 _atom_site_occupancy
 _atom_site_charge
Zr  Zr1  1  0.45410000  0.37730000  0.50000000  1.0 2.480223152
Zr  Zr2  1  0.54590000  0.62270000  0.50000000  1.0 2.480223152
Zr  Zr3  1  0.62270000  0.45410000  0.50000000  1.0 2.480223152
Zr  Zr4  1  0.37730000  0.54590000  0.50000000  1.0 2.480223152
Zr  Zr5  1  0.04590000  0.87730000  0.00000000  1.0 2.480223152
Zr  Zr6  1  0.95410000  0.12270000  0.00000000  1.0 2.480223152
Zr  Zr7  1  0.87730000  0.95410000  0.00000000  1.0 2.480223152
Zr  Zr8  1  0.12270000  0.04590000  0.00000000  1.0 2.480223152
Zr  Zr9  1  0.50000000  0.50000000  0.42610000  1.0 2.379549536
Zr  Zr10  1  0.00000000  0.00000000  0.07390000  1.0 2.3860944837
Zr  Zr11  1  0.50000000  0.50000000  0.57390000  1.0 2.379549536
Zr  Zr12  1  0.00000000  0.00000000  0.92610000  1.0 2.3860944837
H  H1  1  0.34740000  0.52480000  0.32690000  1.0 0.1093485478
H  H2  1  0.27310000  0.53350000  0.27130000  1.0 0.1288282667
H  H3  1  0.07280000  0.48530000  0.33380000  1.0 0.1201083012
H  H4  1  0.13500000  0.45080000  0.31030000  1.0 0.1288282667
H  H5  1  0.05780000  0.42970000  0.30010000  1.0 0.1201083012
H  H6  1  0.21190000  0.60320000  0.40820000  1.0 0.1093485478
H  H7  1  0.13680000  0.61390000  0.35310000  1.0 0.1201083012
H  H8  1  0.21930000  0.67860000  0.27170000  1.0 0.0131071947
H  H9  1  0.16580000  0.73210000  0.25350000  1.0 0.0201768785
H  H10  1  0.21180000  0.68610000  0.22470000  1.0 0.0131071947
H  H11  1  0.65260000  0.47520000  0.32690000  1.0 0.1093485478
H  H12  1  0.72690000  0.46650000  0.27130000  1.0 0.1288282667
H  H13  1  0.92720000  0.51470000  0.33380000  1.0 0.1201083012
H  H14  1  0.86500000  0.54920000  0.31030000  1.0 0.1288282667
H  H15  1  0.94220000  0.57030000  0.30010000  1.0 0.1201083012
H  H16  1  0.78810000  0.39680000  0.40820000  1.0 0.1093485478
H  H17  1  0.86320000  0.38610000  0.35310000  1.0 0.1201083012
H  H18  1  0.78070000  0.32140000  0.27170000  1.0 0.0201768785
H  H19  1  0.83420000  0.26790000  0.25350000  1.0 0.0201768785
H  H20  1  0.78820000  0.31390000  0.22470000  1.0 0.0201768785
H  H21  1  0.47520000  0.34740000  0.32690000  1.0 0.1093485478
H  H22  1  0.46650000  0.27310000  0.27130000  1.0 0.1288282667
H  H23  1  0.51470000  0.07280000  0.33380000  1.0 0.1201083012
H  H24  1  0.54920000  0.13500000  0.31030000  1.0 0.1288282667
H  H25  1  0.57030000  0.05780000  0.30010000  1.0 0.1201083012
H  H26  1  0.39680000  0.21190000  0.40820000  1.0 0.1093485478
H  H27  1  0.38610000  0.13680000  0.35310000  1.0 0.1201083012
H  H28  1  0.32140000  0.21930000  0.27170000  1.0 0.0131071947
H  H29  1  0.26790000  0.16580000  0.25350000  1.0 0.0201768785
H  H30  1  0.31390000  0.21180000  0.22470000  1.0 0.0131071947
H  H31  1  0.52480000  0.65260000  0.32690000  1.0 0.1093485478
H  H32  1  0.53350000  0.72690000  0.27130000  1.0 0.1288282667
H  H33  1  0.48530000  0.92720000  0.33380000  1.0 0.1201083012
H  H34  1  0.45080000  0.86500000  0.31030000  1.0 0.1288282667
H  H35  1  0.42970000  0.94220000  0.30010000  1.0 0.1201083012
H  H36  1  0.60320000  0.78810000  0.40820000  1.0 0.1093485478
H  H37  1  0.61390000  0.86320000  0.35310000  1.0 0.1201083012
H  H38  1  0.67860000  0.78070000  0.27170000  1.0 0.0201768785
H  H39  1  0.73210000  0.83420000  0.25350000  1.0 0.0201768785
H  H40  1  0.68610000  0.78820000  0.22470000  1.0 0.0201768785
H  H41  1  0.15260000  0.02480000  0.17310000  1.0 0.1093485478
H  H42  1  0.22690000  0.03350000  0.22870000  1.0 0.1288282667
H  H43  1  0.42720000  0.98530000  0.16620000  1.0 0.1201083012
H  H44  1  0.36500000  0.95080000  0.18970000  1.0 0.1288282667
H  H45  1  0.44220000  0.92970000  0.19990000  1.0 0.1201083012
H  H46  1  0.28810000  0.10320000  0.09180000  1.0 0.1093485478
H  H47  1  0.36320000  0.11390000  0.14690000  1.0 0.1201083012
H  H48  1  0.28070000  0.17860000  0.22830000  1.0 0.0201768785
H  H49  1  0.33420000  0.23210000  0.24650000  1.0 0.0201768785
H  H50  1  0.28820000  0.18610000  0.27530000  1.0 0.0201768785
H  H51  1  0.84740000  0.97520000  0.17310000  1.0 0.1093485478
H  H52  1  0.77310000  0.96650000  0.22870000  1.0 0.1288282667
H  H53  1  0.57280000  0.01470000  0.16620000  1.0 0.1201083012
H  H54  1  0.63500000  0.04920000  0.18970000  1.0 0.1288282667
H  H55  1  0.55780000  0.07030000  0.19990000  1.0 0.1201083012
H  H56  1  0.71190000  0.89680000  0.09180000  1.0 0.1093485478
H  H57  1  0.63680000  0.88610000  0.14690000  1.0 0.1201083012
H  H58  1  0.71930000  0.82140000  0.22830000  1.0 0.0201768785
H  H59  1  0.66580000  0.76790000  0.24650000  1.0 0.0201768785
H  H60  1  0.71180000  0.81390000  0.27530000  1.0 0.0201768785
H  H61  1  0.02480000  0.84740000  0.17310000  1.0 0.1093485478
H  H62  1  0.03350000  0.77310000  0.22870000  1.0 0.1288282667
H  H63  1  0.98530000  0.57280000  0.16620000  1.0 0.1201083012
H  H64  1  0.95080000  0.63500000  0.18970000  1.0 0.1288282667
H  H65  1  0.92970000  0.55780000  0.19990000  1.0 0.1201083012
H  H66  1  0.10320000  0.71190000  0.09180000  1.0 0.1093485478
H  H67  1  0.11390000  0.63680000  0.14690000  1.0 0.1201083012
H  H68  1  0.17860000  0.71930000  0.22830000  1.0 0.0201768785
H  H69  1  0.23210000  0.66580000  0.24650000  1.0 0.0201768785
H  H70  1  0.18610000  0.71180000  0.27530000  1.0 0.0201768785
H  H71  1  0.97520000  0.15260000  0.17310000  1.0 0.1093485478
H  H72  1  0.96650000  0.22690000  0.22870000  1.0 0.1288282667
H  H73  1  0.01470000  0.42720000  0.16620000  1.0 0.1201083012
H  H74  1  0.04920000  0.36500000  0.18970000  1.0 0.1288282667
H  H75  1  0.07030000  0.44220000  0.19990000  1.0 0.1201083012
H  H76  1  0.89680000  0.28810000  0.09180000  1.0 0.1093485478
H  H77  1  0.88610000  0.36320000  0.14690000  1.0 0.1201083012
H  H78  1  0.82140000  0.28070000  0.22830000  1.0 0.0201768785
H  H79  1  0.76790000  0.33420000  0.24650000  1.0 0.0201768785
H  H80  1  0.81390000  0.28820000  0.27530000  1.0 0.0201768785
H  H81  1  0.65260000  0.47520000  0.67310000  1.0 0.1093485478
H  H82  1  0.72690000  0.46650000  0.72870000  1.0 0.1288282667
H  H83  1  0.92720000  0.51470000  0.66620000  1.0 0.1201083012
H  H84  1  0.86500000  0.54920000  0.68970000  1.0 0.1288282667
H  H85  1  0.94220000  0.57030000  0.69990000  1.0 0.1201083012
H  H86  1  0.78810000  0.39680000  0.59180000  1.0 0.1093485478
H  H87  1  0.86320000  0.38610000  0.64690000  1.0 0.1201083012
H  H88  1  0.78070000  0.32140000  0.72830000  1.0 0.0201768785
H  H89  1  0.83420000  0.26790000  0.74650000  1.0 0.0201768785
H  H90  1  0.78820000  0.31390000  0.77530000  1.0 0.0201768785
H  H91  1  0.34740000  0.52480000  0.67310000  1.0 0.1093485478
H  H92  1  0.27310000  0.53350000  0.72870000  1.0 0.1288282667
H  H93  1  0.07280000  0.48530000  0.66620000  1.0 0.1201083012
H  H94  1  0.13500000  0.45080000  0.68970000  1.0 0.1288282667
H  H95  1  0.05780000  0.42970000  0.69990000  1.0 0.1201083012
H  H96  1  0.21190000  0.60320000  0.59180000  1.0 0.1093485478
H  H97  1  0.13680000  0.61390000  0.64690000  1.0 0.1201083012
H  H98  1  0.21930000  0.67860000  0.72830000  1.0 0.0131071947
H  H99  1  0.16580000  0.73210000  0.74650000  1.0 0.0201768785
H  H100  1  0.21180000  0.68610000  0.77530000  1.0 0.0131071947
H  H101  1  0.52480000  0.65260000  0.67310000  1.0 0.1093485478
H  H102  1  0.53350000  0.72690000  0.72870000  1.0 0.1288282667
H  H103  1  0.48530000  0.92720000  0.66620000  1.0 0.1201083012
H  H104  1  0.45080000  0.86500000  0.68970000  1.0 0.1288282667
H  H105  1  0.42970000  0.94220000  0.69990000  1.0 0.1201083012
H  H106  1  0.60320000  0.78810000  0.59180000  1.0 0.1093485478
H  H107  1  0.61390000  0.86320000  0.64690000  1.0 0.1201083012
H  H108  1  0.67860000  0.78070000  0.72830000  1.0 0.0201768785
H  H109  1  0.73210000  0.83420000  0.74650000  1.0 0.0201768785
H  H110  1  0.68610000  0.78820000  0.77530000  1.0 0.0201768785
H  H111  1  0.47520000  0.34740000  0.67310000  1.0 0.1093485478
H  H112  1  0.46650000  0.27310000  0.72870000  1.0 0.1288282667
H  H113  1  0.51470000  0.07280000  0.66620000  1.0 0.1201083012
H  H114  1  0.54920000  0.13500000  0.68970000  1.0 0.1288282667
H  H115  1  0.57030000  0.05780000  0.69990000  1.0 0.1201083012
H  H116  1  0.39680000  0.21190000  0.59180000  1.0 0.1093485478
H  H117  1  0.38610000  0.13680000  0.64690000  1.0 0.1201083012
H  H118  1  0.32140000  0.21930000  0.72830000  1.0 0.0131071947
H  H119  1  0.26790000  0.16580000  0.74650000  1.0 0.0201768785
H  H120  1  0.31390000  0.21180000  0.77530000  1.0 0.0131071947
H  H121  1  0.84740000  0.97520000  0.82690000  1.0 0.1093485478
H  H122  1  0.77310000  0.96650000  0.77130000  1.0 0.1288282667
H  H123  1  0.57280000  0.01470000  0.83380000  1.0 0.1201083012
H  H124  1  0.63500000  0.04920000  0.81030000  1.0 0.1288282667
H  H125  1  0.55780000  0.07030000  0.80010000  1.0 0.1201083012
H  H126  1  0.71190000  0.89680000  0.90820000  1.0 0.1093485478
H  H127  1  0.63680000  0.88610000  0.85310000  1.0 0.1201083012
H  H128  1  0.71930000  0.82140000  0.77170000  1.0 0.0201768785
H  H129  1  0.66580000  0.76790000  0.75350000  1.0 0.0201768785
H  H130  1  0.71180000  0.81390000  0.72470000  1.0 0.0201768785
H  H131  1  0.15260000  0.02480000  0.82690000  1.0 0.1093485478
H  H132  1  0.22690000  0.03350000  0.77130000  1.0 0.1288282667
H  H133  1  0.42720000  0.98530000  0.83380000  1.0 0.1201083012
H  H134  1  0.36500000  0.95080000  0.81030000  1.0 0.1288282667
H  H135  1  0.44220000  0.92970000  0.80010000  1.0 0.1201083012
H  H136  1  0.28810000  0.10320000  0.90820000  1.0 0.1093485478
H  H137  1  0.36320000  0.11390000  0.85310000  1.0 0.1201083012
H  H138  1  0.28070000  0.17860000  0.77170000  1.0 0.0201768785
H  H139  1  0.33420000  0.23210000  0.75350000  1.0 0.0201768785
H  H140  1  0.28820000  0.18610000  0.72470000  1.0 0.0201768785
H  H141  1  0.97520000  0.15260000  0.82690000  1.0 0.1093485478
H  H142  1  0.96650000  0.22690000  0.77130000  1.0 0.1288282667
H  H143  1  0.01470000  0.42720000  0.83380000  1.0 0.1201083012
H  H144  1  0.04920000  0.36500000  0.81030000  1.0 0.1288282667
H  H145  1  0.07030000  0.44220000  0.80010000  1.0 0.1201083012
H  H146  1  0.89680000  0.28810000  0.90820000  1.0 0.1093485478
H  H147  1  0.88610000  0.36320000  0.85310000  1.0 0.1201083012
H  H148  1  0.82140000  0.28070000  0.77170000  1.0 0.0201768785
H  H149  1  0.76790000  0.33420000  0.75350000  1.0 0.0201768785
H  H150  1  0.81390000  0.28820000  0.72470000  1.0 0.0201768785
H  H151  1  0.02480000  0.84740000  0.82690000  1.0 0.1093485478
H  H152  1  0.03350000  0.77310000  0.77130000  1.0 0.1288282667
H  H153  1  0.98530000  0.57280000  0.83380000  1.0 0.1201083012
H  H154  1  0.95080000  0.63500000  0.81030000  1.0 0.1288282667
H  H155  1  0.92970000  0.55780000  0.80010000  1.0 0.1201083012
H  H156  1  0.10320000  0.71190000  0.90820000  1.0 0.1093485478
H  H157  1  0.11390000  0.63680000  0.85310000  1.0 0.1201083012
H  H158  1  0.17860000  0.71930000  0.77170000  1.0 0.0201768785
H  H159  1  0.23210000  0.66580000  0.75350000  1.0 0.0201768785
H  H160  1  0.18610000  0.71180000  0.72470000  1.0 0.0201768785
C  C1  1  0.08440000  0.52520000  0.27670000  1.0 0.0504928253
C  C2  1  0.30320000  0.54350000  0.33130000  1.0 -0.0908405822
C  C3  1  0.34930000  0.55790000  0.40070000  1.0 0.6406416438
C  C4  1  0.26030000  0.54650000  0.29740000  1.0 -0.1430003465
C  C5  1  0.13400000  0.57880000  0.27950000  1.0 -0.0202871345
C  C6  1  0.08780000  0.46750000  0.30810000  1.0 -0.4194728554
C  C7  1  0.28970000  0.56450000  0.37110000  1.0 -0.0367775542
C  C8  1  0.19460000  0.57240000  0.30900000  1.0 0.0578807529
C  C9  1  0.22450000  0.59030000  0.38210000  1.0 -0.109752714
C  C10  1  0.18060000  0.59430000  0.34860000  1.0 -0.109752714
C  C11  1  0.91560000  0.47480000  0.27670000  1.0 0.0504928253
C  C12  1  0.69680000  0.45650000  0.33130000  1.0 -0.0908405822
C  C13  1  0.65070000  0.44210000  0.40070000  1.0 0.6406416438
C  C14  1  0.73970000  0.45350000  0.29740000  1.0 -0.1456636906
C  C15  1  0.86600000  0.42120000  0.27950000  1.0 -0.0202871345
C  C16  1  0.91220000  0.53250000  0.30810000  1.0 -0.4194728554
C  C17  1  0.71030000  0.43550000  0.37110000  1.0 -0.0367775542
C  C18  1  0.80540000  0.42760000  0.30900000  1.0 0.0578807529
C  C19  1  0.77550000  0.40970000  0.38210000  1.0 -0.109752714
C  C20  1  0.81940000  0.40570000  0.34860000  1.0 -0.109752714
C  C21  1  0.47480000  0.08440000  0.27670000  1.0 0.0504928253
C  C22  1  0.45650000  0.30320000  0.33130000  1.0 -0.0908405822
C  C23  1  0.44210000  0.34930000  0.40070000  1.0 0.6406416438
C  C24  1  0.45350000  0.26030000  0.29740000  1.0 -0.1430003465
C  C25  1  0.42120000  0.13400000  0.27950000  1.0 -0.0202871345
C  C26  1  0.53250000  0.08780000  0.30810000  1.0 -0.4194728554
C  C27  1  0.43550000  0.28970000  0.37110000  1.0 -0.0367775542
C  C28  1  0.42760000  0.19460000  0.30900000  1.0 0.0578807529
C  C29  1  0.40970000  0.22450000  0.38210000  1.0 -0.109752714
C  C30  1  0.40570000  0.18060000  0.34860000  1.0 -0.109752714
C  C31  1  0.52520000  0.91560000  0.27670000  1.0 0.0504928253
C  C32  1  0.54350000  0.69680000  0.33130000  1.0 -0.0908405822
C  C33  1  0.55790000  0.65070000  0.40070000  1.0 0.6406416438
C  C34  1  0.54650000  0.73970000  0.29740000  1.0 -0.1456636906
C  C35  1  0.57880000  0.86600000  0.27950000  1.0 -0.0202871345
C  C36  1  0.46750000  0.91220000  0.30810000  1.0 -0.4194728554
C  C37  1  0.56450000  0.71030000  0.37110000  1.0 -0.0367775542
C  C38  1  0.57240000  0.80540000  0.30900000  1.0 0.0578807529
C  C39  1  0.59030000  0.77550000  0.38210000  1.0 -0.109752714
C  C40  1  0.59430000  0.81940000  0.34860000  1.0 -0.109752714
C  C41  1  0.41560000  0.02520000  0.22330000  1.0 0.0504928253
C  C42  1  0.19680000  0.04350000  0.16870000  1.0 -0.0908405822
C  C43  1  0.15070000  0.05790000  0.09930000  1.0 0.6406416438
C  C44  1  0.23970000  0.04650000  0.20260000  1.0 -0.1456636906
C  C45  1  0.36600000  0.07880000  0.22050000  1.0 -0.0202871345
C  C46  1  0.41220000  0.96750000  0.19190000  1.0 -0.4194728554
C  C47  1  0.21030000  0.06450000  0.12890000  1.0 -0.0367775542
C  C48  1  0.30540000  0.07240000  0.19100000  1.0 0.0578807529
C  C49  1  0.27550000  0.09030000  0.11790000  1.0 -0.109752714
C  C50  1  0.31940000  0.09430000  0.15140000  1.0 -0.109752714
C  C51  1  0.58440000  0.97480000  0.22330000  1.0 0.0504928253
C  C52  1  0.80320000  0.95650000  0.16870000  1.0 -0.0908405822
C  C53  1  0.84930000  0.94210000  0.09930000  1.0 0.6406416438
C  C54  1  0.76030000  0.95350000  0.20260000  1.0 -0.1430003465
C  C55  1  0.63400000  0.92120000  0.22050000  1.0 -0.0202871345
C  C56  1  0.58780000  0.03250000  0.19190000  1.0 -0.4194728554
C  C57  1  0.78970000  0.93550000  0.12890000  1.0 -0.0367775542
C  C58  1  0.69460000  0.92760000  0.19100000  1.0 0.0578807529
C  C59  1  0.72450000  0.90970000  0.11790000  1.0 -0.109752714
C  C60  1  0.68060000  0.90570000  0.15140000  1.0 -0.109752714
C  C61  1  0.02520000  0.58440000  0.22330000  1.0 0.0504928253
C  C62  1  0.04350000  0.80320000  0.16870000  1.0 -0.0908405822
C  C63  1  0.05790000  0.84930000  0.09930000  1.0 0.6406416438
C  C64  1  0.04650000  0.76030000  0.20260000  1.0 -0.1456636906
C  C65  1  0.07880000  0.63400000  0.22050000  1.0 -0.0202871345
C  C66  1  0.96750000  0.58780000  0.19190000  1.0 -0.4194728554
C  C67  1  0.06450000  0.78970000  0.12890000  1.0 -0.0367775542
C  C68  1  0.07240000  0.69460000  0.19100000  1.0 0.0578807529
C  C69  1  0.09030000  0.72450000  0.11790000  1.0 -0.109752714
C  C70  1  0.09430000  0.68060000  0.15140000  1.0 -0.109752714
C  C71  1  0.97480000  0.41560000  0.22330000  1.0 0.0504928253
C  C72  1  0.95650000  0.19680000  0.16870000  1.0 -0.0908405822
C  C73  1  0.94210000  0.15070000  0.09930000  1.0 0.6406416438
C  C74  1  0.95350000  0.23970000  0.20260000  1.0 -0.1456636906
C  C75  1  0.92120000  0.36600000  0.22050000  1.0 -0.0202871345
C  C76  1  0.03250000  0.41220000  0.19190000  1.0 -0.4194728554
C  C77  1  0.93550000  0.21030000  0.12890000  1.0 -0.0367775542
C  C78  1  0.92760000  0.30540000  0.19100000  1.0 0.0578807529
C  C79  1  0.90970000  0.27550000  0.11790000  1.0 -0.109752714
C  C80  1  0.90570000  0.31940000  0.15140000  1.0 -0.109752714
C  C81  1  0.91560000  0.47480000  0.72330000  1.0 0.0504928253
C  C82  1  0.69680000  0.45650000  0.66870000  1.0 -0.0908405822
C  C83  1  0.65070000  0.44210000  0.59930000  1.0 0.6406416438
C  C84  1  0.73970000  0.45350000  0.70260000  1.0 -0.1456636906
C  C85  1  0.86600000  0.42120000  0.72050000  1.0 -0.0202871345
C  C86  1  0.91220000  0.53250000  0.69190000  1.0 -0.4194728554
C  C87  1  0.71030000  0.43550000  0.62890000  1.0 -0.0367775542
C  C88  1  0.80540000  0.42760000  0.69100000  1.0 0.0578807529
C  C89  1  0.77550000  0.40970000  0.61790000  1.0 -0.109752714
C  C90  1  0.81940000  0.40570000  0.65140000  1.0 -0.109752714
C  C91  1  0.08440000  0.52520000  0.72330000  1.0 0.0504928253
C  C92  1  0.30320000  0.54350000  0.66870000  1.0 -0.0908405822
C  C93  1  0.34930000  0.55790000  0.59930000  1.0 0.6406416438
C  C94  1  0.26030000  0.54650000  0.70260000  1.0 -0.1430003465
C  C95  1  0.13400000  0.57880000  0.72050000  1.0 -0.0202871345
C  C96  1  0.08780000  0.46750000  0.69190000  1.0 -0.4194728554
C  C97  1  0.28970000  0.56450000  0.62890000  1.0 -0.0367775542
C  C98  1  0.19460000  0.57240000  0.69100000  1.0 0.0578807529
C  C99  1  0.22450000  0.59030000  0.61790000  1.0 -0.109752714
C  C100  1  0.18060000  0.59430000  0.65140000  1.0 -0.109752714
C  C101  1  0.52520000  0.91560000  0.72330000  1.0 0.0504928253
C  C102  1  0.54350000  0.69680000  0.66870000  1.0 -0.0908405822
C  C103  1  0.55790000  0.65070000  0.59930000  1.0 0.6406416438
C  C104  1  0.54650000  0.73970000  0.70260000  1.0 -0.1456636906
C  C105  1  0.57880000  0.86600000  0.72050000  1.0 -0.0202871345
C  C106  1  0.46750000  0.91220000  0.69190000  1.0 -0.4194728554
C  C107  1  0.56450000  0.71030000  0.62890000  1.0 -0.0367775542
C  C108  1  0.57240000  0.80540000  0.69100000  1.0 0.0578807529
C  C109  1  0.59030000  0.77550000  0.61790000  1.0 -0.109752714
C  C110  1  0.59430000  0.81940000  0.65140000  1.0 -0.109752714
C  C111  1  0.47480000  0.08440000  0.72330000  1.0 0.0504928253
C  C112  1  0.45650000  0.30320000  0.66870000  1.0 -0.0908405822
C  C113  1  0.44210000  0.34930000  0.59930000  1.0 0.6406416438
C  C114  1  0.45350000  0.26030000  0.70260000  1.0 -0.1430003465
C  C115  1  0.42120000  0.13400000  0.72050000  1.0 -0.0202871345
C  C116  1  0.53250000  0.08780000  0.69190000  1.0 -0.4194728554
C  C117  1  0.43550000  0.28970000  0.62890000  1.0 -0.0367775542
C  C118  1  0.42760000  0.19460000  0.69100000  1.0 0.0578807529
C  C119  1  0.40970000  0.22450000  0.61790000  1.0 -0.109752714
C  C120  1  0.40570000  0.18060000  0.65140000  1.0 -0.109752714
C  C121  1  0.58440000  0.97480000  0.77670000  1.0 0.0504928253
C  C122  1  0.80320000  0.95650000  0.83130000  1.0 -0.0908405822
C  C123  1  0.84930000  0.94210000  0.90070000  1.0 0.6406416438
C  C124  1  0.76030000  0.95350000  0.79740000  1.0 -0.1430003465
C  C125  1  0.63400000  0.92120000  0.77950000  1.0 -0.0202871345
C  C126  1  0.58780000  0.03250000  0.80810000  1.0 -0.4194728554
C  C127  1  0.78970000  0.93550000  0.87110000  1.0 -0.0367775542
C  C128  1  0.69460000  0.92760000  0.80900000  1.0 0.0578807529
C  C129  1  0.72450000  0.90970000  0.88210000  1.0 -0.109752714
C  C130  1  0.68060000  0.90570000  0.84860000  1.0 -0.109752714
C  C131  1  0.41560000  0.02520000  0.77670000  1.0 0.0504928253
C  C132  1  0.19680000  0.04350000  0.83130000  1.0 -0.0908405822
C  C133  1  0.15070000  0.05790000  0.90070000  1.0 0.6406416438
C  C134  1  0.23970000  0.04650000  0.79740000  1.0 -0.1456636906
C  C135  1  0.36600000  0.07880000  0.77950000  1.0 -0.0202871345
C  C136  1  0.41220000  0.96750000  0.80810000  1.0 -0.4194728554
C  C137  1  0.21030000  0.06450000  0.87110000  1.0 -0.0367775542
C  C138  1  0.30540000  0.07240000  0.80900000  1.0 0.0578807529
C  C139  1  0.27550000  0.09030000  0.88210000  1.0 -0.109752714
C  C140  1  0.31940000  0.09430000  0.84860000  1.0 -0.109752714
C  C141  1  0.97480000  0.41560000  0.77670000  1.0 0.0504928253
C  C142  1  0.95650000  0.19680000  0.83130000  1.0 -0.0908405822
C  C143  1  0.94210000  0.15070000  0.90070000  1.0 0.6406416438
C  C144  1  0.95350000  0.23970000  0.79740000  1.0 -0.1456636906
C  C145  1  0.92120000  0.36600000  0.77950000  1.0 -0.0202871345
C  C146  1  0.03250000  0.41220000  0.80810000  1.0 -0.4194728554
C  C147  1  0.93550000  0.21030000  0.87110000  1.0 -0.0367775542
C  C148  1  0.92760000  0.30540000  0.80900000  1.0 0.0578807529
C  C149  1  0.90970000  0.27550000  0.88210000  1.0 -0.109752714
C  C150  1  0.90570000  0.31940000  0.84860000  1.0 -0.109752714
C  C151  1  0.02520000  0.58440000  0.77670000  1.0 0.0504928253
C  C152  1  0.04350000  0.80320000  0.83130000  1.0 -0.0908405822
C  C153  1  0.05790000  0.84930000  0.90070000  1.0 0.6406416438
C  C154  1  0.04650000  0.76030000  0.79740000  1.0 -0.1456636906
C  C155  1  0.07880000  0.63400000  0.77950000  1.0 -0.0202871345
C  C156  1  0.96750000  0.58780000  0.80810000  1.0 -0.4194728554
C  C157  1  0.06450000  0.78970000  0.87110000  1.0 -0.0367775542
C  C158  1  0.07240000  0.69460000  0.80900000  1.0 0.0578807529
C  C159  1  0.09030000  0.72450000  0.88210000  1.0 -0.109752714
C  C160  1  0.09430000  0.68060000  0.84860000  1.0 -0.109752714
C  C161  1  0.02780000  0.52780000  0.25000000  1.0 -0.0202871345
C  C162  1  0.13160000  0.63160000  0.25000000  1.0 -0.0202871345
C  C163  1  0.18710000  0.68710000  0.25000000  1.0 -0.170869396
C  C164  1  0.97220000  0.47220000  0.25000000  1.0 -0.0202871345
C  C165  1  0.86840000  0.36840000  0.25000000  1.0 -0.0140299936
C  C166  1  0.81290000  0.31290000  0.25000000  1.0 -0.170869396
C  C167  1  0.47220000  0.02780000  0.25000000  1.0 -0.0202871345
C  C168  1  0.36840000  0.13160000  0.25000000  1.0 -0.0202871345
C  C169  1  0.31290000  0.18710000  0.25000000  1.0 -0.170869396
C  C170  1  0.52780000  0.97220000  0.25000000  1.0 -0.0202871345
C  C171  1  0.63160000  0.86840000  0.25000000  1.0 -0.0202871345
C  C172  1  0.68710000  0.81290000  0.25000000  1.0 -0.170869396
C  C173  1  0.97220000  0.47220000  0.75000000  1.0 -0.0202871345
C  C174  1  0.86840000  0.36840000  0.75000000  1.0 -0.0202871345
C  C175  1  0.81290000  0.31290000  0.75000000  1.0 -0.170869396
C  C176  1  0.02780000  0.52780000  0.75000000  1.0 -0.0202871345
C  C177  1  0.13160000  0.63160000  0.75000000  1.0 -0.0202871345
C  C178  1  0.18710000  0.68710000  0.75000000  1.0 -0.170869396
C  C179  1  0.52780000  0.97220000  0.75000000  1.0 -0.0202871345
C  C180  1  0.63160000  0.86840000  0.75000000  1.0 -0.0202871345
C  C181  1  0.68710000  0.81290000  0.75000000  1.0 -0.170869396
C  C182  1  0.47220000  0.02780000  0.75000000  1.0 -0.0202871345
C  C183  1  0.36840000  0.13160000  0.75000000  1.0 -0.0202871345
C  C184  1  0.31290000  0.18710000  0.75000000  1.0 -0.170869396
O  O1  1  0.40780000  0.52880000  0.39000000  1.0 -0.5958237917
O  O2  1  0.32610000  0.56150000  0.43890000  1.0 -0.6728189186
O  O3  1  0.41540000  0.46300000  0.46380000  1.0 -1.1732951632
O  O4  1  0.59220000  0.47120000  0.39000000  1.0 -0.5949153722
O  O5  1  0.67390000  0.43850000  0.43890000  1.0 -0.6728189186
O  O6  1  0.58460000  0.53700000  0.46380000  1.0 -1.1732951632
O  O7  1  0.47120000  0.40780000  0.39000000  1.0 -0.5949153722
O  O8  1  0.43850000  0.32610000  0.43890000  1.0 -0.6728189186
O  O9  1  0.53700000  0.41540000  0.46380000  1.0 -1.1732951632
O  O10  1  0.52880000  0.59220000  0.39000000  1.0 -0.5958237917
O  O11  1  0.56150000  0.67390000  0.43890000  1.0 -0.6728189186
O  O12  1  0.46300000  0.58460000  0.46380000  1.0 -1.1732951632
O  O13  1  0.09220000  0.02880000  0.11000000  1.0 -0.5949153722
O  O14  1  0.17390000  0.06150000  0.06110000  1.0 -0.6728189186
O  O15  1  0.08460000  0.96300000  0.03620000  1.0 -1.1732951632
O  O16  1  0.90780000  0.97120000  0.11000000  1.0 -0.5958237917
O  O17  1  0.82610000  0.93850000  0.06110000  1.0 -0.6728189186
O  O18  1  0.91540000  0.03700000  0.03620000  1.0 -1.1732951632
O  O19  1  0.02880000  0.90780000  0.11000000  1.0 -0.5958237917
O  O20  1  0.06150000  0.82610000  0.06110000  1.0 -0.6728189186
O  O21  1  0.96300000  0.91540000  0.03620000  1.0 -1.1732951632
O  O22  1  0.97120000  0.09220000  0.11000000  1.0 -0.5949153722
O  O23  1  0.93850000  0.17390000  0.06110000  1.0 -0.6728189186
O  O24  1  0.03700000  0.08460000  0.03620000  1.0 -1.1732951632
O  O25  1  0.59220000  0.47120000  0.61000000  1.0 -0.5949153722
O  O26  1  0.67390000  0.43850000  0.56110000  1.0 -0.6728189186
O  O27  1  0.58460000  0.53700000  0.53620000  1.0 -1.1732951632
O  O28  1  0.40780000  0.52880000  0.61000000  1.0 -0.5958237917
O  O29  1  0.32610000  0.56150000  0.56110000  1.0 -0.6728189186
O  O30  1  0.41540000  0.46300000  0.53620000  1.0 -1.1732951632
O  O31  1  0.52880000  0.59220000  0.61000000  1.0 -0.5958237917
O  O32  1  0.56150000  0.67390000  0.56110000  1.0 -0.6728189186
O  O33  1  0.46300000  0.58460000  0.53620000  1.0 -1.1732951632
O  O34  1  0.47120000  0.40780000  0.61000000  1.0 -0.5949153722
O  O35  1  0.43850000  0.32610000  0.56110000  1.0 -0.6728189186
O  O36  1  0.53700000  0.41540000  0.53620000  1.0 -1.1732951632
O  O37  1  0.90780000  0.97120000  0.89000000  1.0 -0.5958237917
O  O38  1  0.82610000  0.93850000  0.93890000  1.0 -0.6728189186
O  O39  1  0.91540000  0.03700000  0.96380000  1.0 -1.1732951632
O  O40  1  0.09220000  0.02880000  0.89000000  1.0 -0.5949153722
O  O41  1  0.17390000  0.06150000  0.93890000  1.0 -0.6728189186
O  O42  1  0.08460000  0.96300000  0.96380000  1.0 -1.1755945355
O  O43  1  0.97120000  0.09220000  0.89000000  1.0 -0.5949153722
O  O44  1  0.93850000  0.17390000  0.93890000  1.0 -0.6728189186
O  O45  1  0.03700000  0.08460000  0.96380000  1.0 -1.1732951632
O  O46  1  0.02880000  0.90780000  0.89000000  1.0 -0.5958237917
O  O47  1  0.06150000  0.82610000  0.93890000  1.0 -0.6728189186
O  O48  1  0.96300000  0.91540000  0.96380000  1.0 -1.1732951632
