# DDEC6 charges by PACMAN v1.1 (https://github.com/mtap-research/PACMAN-charge/)
data_NEVSUF04_ASR_pacman
_symmetry_space_group_name_H-M   'P 1'
_cell_length_a   19.44810000
_cell_length_b   19.44810000
_cell_length_c   32.57500000
_cell_angle_alpha   90.00000000
_cell_angle_beta   90.00000000
_cell_angle_gamma   90.00000000
_symmetry_Int_Tables_number   1
_chemical_formula_structural   Zr3H40(C23O6)2
_chemical_formula_sum   'Zr12 H160 C184 O48'
_cell_volume   12320.79643685
_cell_formula_units_Z   4
loop_
 _symmetry_equiv_pos_site_id
 _symmetry_equiv_pos_as_xyz
  1  'x, y, z'
loop_
 _atom_site_type_symbol
 _atom_site_label
 _atom_site_symmetry_multiplicity
 _atom_site_fract_x
 _atom_site_fract_y
 _atom_site_fract_z
 _atom_site_occupancy
 _atom_site_charge
Zr  Zr1  1  0.45470000  0.37853000  0.50000000  1.0 2.4941627995
Zr  Zr2  1  0.54530000  0.62147000  0.50000000  1.0 2.4941627995
Zr  Zr3  1  0.62147000  0.45470000  0.50000000  1.0 2.4941627995
Zr  Zr4  1  0.37853000  0.54530000  0.50000000  1.0 2.4941627995
Zr  Zr5  1  0.04530000  0.87853000  0.00000000  1.0 2.4941627995
Zr  Zr6  1  0.95470000  0.12147000  0.00000000  1.0 2.4941627995
Zr  Zr7  1  0.87853000  0.95470000  0.00000000  1.0 2.4941627995
Zr  Zr8  1  0.12147000  0.04530000  0.00000000  1.0 2.4941627995
Zr  Zr9  1  0.50000000  0.50000000  0.42410000  1.0 2.383640738
Zr  Zr10  1  0.00000000  0.00000000  0.07590000  1.0 2.383640738
Zr  Zr11  1  0.50000000  0.50000000  0.57590000  1.0 2.383640738
Zr  Zr12  1  0.00000000  0.00000000  0.92410000  1.0 2.383640738
H  H1  1  0.34960000  0.52640000  0.31960000  1.0 0.1184475069
H  H2  1  0.26470000  0.53260000  0.26960000  1.0 0.1299353218
H  H3  1  0.08670000  0.47470000  0.33510000  1.0 0.1184475069
H  H4  1  0.13000000  0.43490000  0.30210000  1.0 0.1299353218
H  H5  1  0.04970000  0.42840000  0.30250000  1.0 0.1299353218
H  H6  1  0.21910000  0.59120000  0.40870000  1.0 0.1184475069
H  H7  1  0.13920000  0.60550000  0.35640000  1.0 0.1184475069
H  H8  1  0.21870000  0.67690000  0.27150000  1.0 0.0141438215
H  H9  1  0.20940000  0.68620000  0.22400000  1.0 0.0269146318
H  H10  1  0.16530000  0.73030000  0.25450000  1.0 0.0269146318
H  H11  1  0.65040000  0.47360000  0.31960000  1.0 0.1184475069
H  H12  1  0.73530000  0.46740000  0.26960000  1.0 0.1299353218
H  H13  1  0.91330000  0.52530000  0.33510000  1.0 0.1184475069
H  H14  1  0.87000000  0.56510000  0.30210000  1.0 0.1299353218
H  H15  1  0.95030000  0.57160000  0.30250000  1.0 0.1299353218
H  H16  1  0.78090000  0.40880000  0.40870000  1.0 0.1184475069
H  H17  1  0.86080000  0.39450000  0.35640000  1.0 0.1184475069
H  H18  1  0.78130000  0.32310000  0.27150000  1.0 0.0141438215
H  H19  1  0.79060000  0.31380000  0.22400000  1.0 0.0269146318
H  H20  1  0.83470000  0.26970000  0.25450000  1.0 0.0269146318
H  H21  1  0.47360000  0.34960000  0.31960000  1.0 0.1184475069
H  H22  1  0.46740000  0.26470000  0.26960000  1.0 0.1299353218
H  H23  1  0.52530000  0.08670000  0.33510000  1.0 0.1184475069
H  H24  1  0.56510000  0.13000000  0.30210000  1.0 0.1299353218
H  H25  1  0.57160000  0.04970000  0.30250000  1.0 0.1299353218
H  H26  1  0.40880000  0.21910000  0.40870000  1.0 0.1184475069
H  H27  1  0.39450000  0.13920000  0.35640000  1.0 0.1184475069
H  H28  1  0.32310000  0.21870000  0.27150000  1.0 0.0141438215
H  H29  1  0.31380000  0.20940000  0.22400000  1.0 0.0269146318
H  H30  1  0.26970000  0.16530000  0.25450000  1.0 0.0269146318
H  H31  1  0.52640000  0.65040000  0.31960000  1.0 0.1184475069
H  H32  1  0.53260000  0.73530000  0.26960000  1.0 0.1299353218
H  H33  1  0.47470000  0.91330000  0.33510000  1.0 0.1184475069
H  H34  1  0.43490000  0.87000000  0.30210000  1.0 0.1299353218
H  H35  1  0.42840000  0.95030000  0.30250000  1.0 0.1299353218
H  H36  1  0.59120000  0.78090000  0.40870000  1.0 0.1184475069
H  H37  1  0.60550000  0.86080000  0.35640000  1.0 0.1184475069
H  H38  1  0.67690000  0.78130000  0.27150000  1.0 0.0141438215
H  H39  1  0.68620000  0.79060000  0.22400000  1.0 0.0269146318
H  H40  1  0.73030000  0.83470000  0.25450000  1.0 0.0269146318
H  H41  1  0.15040000  0.02640000  0.18040000  1.0 0.1184475069
H  H42  1  0.23530000  0.03260000  0.23040000  1.0 0.1299353218
H  H43  1  0.41330000  0.97470000  0.16490000  1.0 0.1184475069
H  H44  1  0.37000000  0.93490000  0.19790000  1.0 0.1299353218
H  H45  1  0.45030000  0.92840000  0.19750000  1.0 0.1299353218
H  H46  1  0.28090000  0.09120000  0.09130000  1.0 0.1184475069
H  H47  1  0.36080000  0.10550000  0.14360000  1.0 0.1184475069
H  H48  1  0.28130000  0.17690000  0.22850000  1.0 0.0141438215
H  H49  1  0.29060000  0.18620000  0.27600000  1.0 0.0269146318
H  H50  1  0.33470000  0.23030000  0.24550000  1.0 0.0269146318
H  H51  1  0.84960000  0.97360000  0.18040000  1.0 0.1184475069
H  H52  1  0.76470000  0.96740000  0.23040000  1.0 0.1299353218
H  H53  1  0.58670000  0.02530000  0.16490000  1.0 0.1184475069
H  H54  1  0.63000000  0.06510000  0.19790000  1.0 0.1299353218
H  H55  1  0.54970000  0.07160000  0.19750000  1.0 0.1299353218
H  H56  1  0.71910000  0.90880000  0.09130000  1.0 0.1184475069
H  H57  1  0.63920000  0.89450000  0.14360000  1.0 0.1184475069
H  H58  1  0.71870000  0.82310000  0.22850000  1.0 0.0141438215
H  H59  1  0.70940000  0.81380000  0.27600000  1.0 0.0269146318
H  H60  1  0.66530000  0.76970000  0.24550000  1.0 0.0269146318
H  H61  1  0.02640000  0.84960000  0.18040000  1.0 0.1184475069
H  H62  1  0.03260000  0.76470000  0.23040000  1.0 0.1299353218
H  H63  1  0.97470000  0.58670000  0.16490000  1.0 0.1184475069
H  H64  1  0.93490000  0.63000000  0.19790000  1.0 0.1299353218
H  H65  1  0.92840000  0.54970000  0.19750000  1.0 0.1299353218
H  H66  1  0.09120000  0.71910000  0.09130000  1.0 0.1184475069
H  H67  1  0.10550000  0.63920000  0.14360000  1.0 0.1184475069
H  H68  1  0.17690000  0.71870000  0.22850000  1.0 0.0141438215
H  H69  1  0.18620000  0.70940000  0.27600000  1.0 0.0269146318
H  H70  1  0.23030000  0.66530000  0.24550000  1.0 0.0269146318
H  H71  1  0.97360000  0.15040000  0.18040000  1.0 0.1184475069
H  H72  1  0.96740000  0.23530000  0.23040000  1.0 0.1299353218
H  H73  1  0.02530000  0.41330000  0.16490000  1.0 0.1184475069
H  H74  1  0.06510000  0.37000000  0.19790000  1.0 0.1299353218
H  H75  1  0.07160000  0.45030000  0.19750000  1.0 0.1299353218
H  H76  1  0.90880000  0.28090000  0.09130000  1.0 0.1184475069
H  H77  1  0.89450000  0.36080000  0.14360000  1.0 0.1184475069
H  H78  1  0.82310000  0.28130000  0.22850000  1.0 0.0141438215
H  H79  1  0.81380000  0.29060000  0.27600000  1.0 0.0269146318
H  H80  1  0.76970000  0.33470000  0.24550000  1.0 0.0269146318
H  H81  1  0.65040000  0.47360000  0.68040000  1.0 0.1184475069
H  H82  1  0.73530000  0.46740000  0.73040000  1.0 0.1299353218
H  H83  1  0.91330000  0.52530000  0.66490000  1.0 0.1184475069
H  H84  1  0.87000000  0.56510000  0.69790000  1.0 0.1299353218
H  H85  1  0.95030000  0.57160000  0.69750000  1.0 0.1299353218
H  H86  1  0.78090000  0.40880000  0.59130000  1.0 0.1184475069
H  H87  1  0.86080000  0.39450000  0.64360000  1.0 0.1184475069
H  H88  1  0.78130000  0.32310000  0.72850000  1.0 0.0208836872
H  H89  1  0.79060000  0.31380000  0.77600000  1.0 0.0208836872
H  H90  1  0.83470000  0.26970000  0.74550000  1.0 0.0269146318
H  H91  1  0.34960000  0.52640000  0.68040000  1.0 0.1184475069
H  H92  1  0.26470000  0.53260000  0.73040000  1.0 0.1299353218
H  H93  1  0.08670000  0.47470000  0.66490000  1.0 0.1184475069
H  H94  1  0.13000000  0.43490000  0.69790000  1.0 0.1299353218
H  H95  1  0.04970000  0.42840000  0.69750000  1.0 0.1299353218
H  H96  1  0.21910000  0.59120000  0.59130000  1.0 0.1184475069
H  H97  1  0.13920000  0.60550000  0.64360000  1.0 0.1184475069
H  H98  1  0.21870000  0.67690000  0.72850000  1.0 0.0208836872
H  H99  1  0.20940000  0.68620000  0.77600000  1.0 0.0208836872
H  H100  1  0.16530000  0.73030000  0.74550000  1.0 0.0208836872
H  H101  1  0.52640000  0.65040000  0.68040000  1.0 0.1184475069
H  H102  1  0.53260000  0.73530000  0.73040000  1.0 0.1299353218
H  H103  1  0.47470000  0.91330000  0.66490000  1.0 0.1184475069
H  H104  1  0.43490000  0.87000000  0.69790000  1.0 0.1299353218
H  H105  1  0.42840000  0.95030000  0.69750000  1.0 0.1299353218
H  H106  1  0.59120000  0.78090000  0.59130000  1.0 0.1184475069
H  H107  1  0.60550000  0.86080000  0.64360000  1.0 0.1184475069
H  H108  1  0.67690000  0.78130000  0.72850000  1.0 0.0208836872
H  H109  1  0.68620000  0.79060000  0.77600000  1.0 0.0208836872
H  H110  1  0.73030000  0.83470000  0.74550000  1.0 0.0269146318
H  H111  1  0.47360000  0.34960000  0.68040000  1.0 0.1184475069
H  H112  1  0.46740000  0.26470000  0.73040000  1.0 0.1299353218
H  H113  1  0.52530000  0.08670000  0.66490000  1.0 0.1184475069
H  H114  1  0.56510000  0.13000000  0.69790000  1.0 0.1299353218
H  H115  1  0.57160000  0.04970000  0.69750000  1.0 0.1299353218
H  H116  1  0.40880000  0.21910000  0.59130000  1.0 0.1184475069
H  H117  1  0.39450000  0.13920000  0.64360000  1.0 0.1184475069
H  H118  1  0.32310000  0.21870000  0.72850000  1.0 0.0208836872
H  H119  1  0.31380000  0.20940000  0.77600000  1.0 0.0208836872
H  H120  1  0.26970000  0.16530000  0.74550000  1.0 0.0208836872
H  H121  1  0.84960000  0.97360000  0.81960000  1.0 0.1184475069
H  H122  1  0.76470000  0.96740000  0.76960000  1.0 0.1299353218
H  H123  1  0.58670000  0.02530000  0.83510000  1.0 0.1184475069
H  H124  1  0.63000000  0.06510000  0.80210000  1.0 0.1299353218
H  H125  1  0.54970000  0.07160000  0.80250000  1.0 0.1299353218
H  H126  1  0.71910000  0.90880000  0.90870000  1.0 0.1184475069
H  H127  1  0.63920000  0.89450000  0.85640000  1.0 0.1184475069
H  H128  1  0.71870000  0.82310000  0.77150000  1.0 0.0208836872
H  H129  1  0.70940000  0.81380000  0.72400000  1.0 0.0269146318
H  H130  1  0.66530000  0.76970000  0.75450000  1.0 0.0269146318
H  H131  1  0.15040000  0.02640000  0.81960000  1.0 0.1184475069
H  H132  1  0.23530000  0.03260000  0.76960000  1.0 0.1299353218
H  H133  1  0.41330000  0.97470000  0.83510000  1.0 0.1184475069
H  H134  1  0.37000000  0.93490000  0.80210000  1.0 0.1299353218
H  H135  1  0.45030000  0.92840000  0.80250000  1.0 0.1299353218
H  H136  1  0.28090000  0.09120000  0.90870000  1.0 0.1184475069
H  H137  1  0.36080000  0.10550000  0.85640000  1.0 0.1184475069
H  H138  1  0.28130000  0.17690000  0.77150000  1.0 0.0208836872
H  H139  1  0.29060000  0.18620000  0.72400000  1.0 0.0269146318
H  H140  1  0.33470000  0.23030000  0.75450000  1.0 0.0269146318
H  H141  1  0.97360000  0.15040000  0.81960000  1.0 0.1184475069
H  H142  1  0.96740000  0.23530000  0.76960000  1.0 0.1299353218
H  H143  1  0.02530000  0.41330000  0.83510000  1.0 0.1184475069
H  H144  1  0.06510000  0.37000000  0.80210000  1.0 0.1299353218
H  H145  1  0.07160000  0.45030000  0.80250000  1.0 0.1299353218
H  H146  1  0.90880000  0.28090000  0.90870000  1.0 0.1184475069
H  H147  1  0.89450000  0.36080000  0.85640000  1.0 0.1184475069
H  H148  1  0.82310000  0.28130000  0.77150000  1.0 0.0208836872
H  H149  1  0.81380000  0.29060000  0.72400000  1.0 0.0269146318
H  H150  1  0.76970000  0.33470000  0.75450000  1.0 0.0269146318
H  H151  1  0.02640000  0.84960000  0.81960000  1.0 0.1184475069
H  H152  1  0.03260000  0.76470000  0.76960000  1.0 0.1299353218
H  H153  1  0.97470000  0.58670000  0.83510000  1.0 0.1184475069
H  H154  1  0.93490000  0.63000000  0.80210000  1.0 0.1299353218
H  H155  1  0.92840000  0.54970000  0.80250000  1.0 0.1299353218
H  H156  1  0.09120000  0.71910000  0.90870000  1.0 0.1184475069
H  H157  1  0.10550000  0.63920000  0.85640000  1.0 0.1184475069
H  H158  1  0.17690000  0.71870000  0.77150000  1.0 0.0208836872
H  H159  1  0.18620000  0.70940000  0.72400000  1.0 0.0269146318
H  H160  1  0.23030000  0.66530000  0.75450000  1.0 0.0208836872
C  C1  1  0.08230000  0.52180000  0.27750000  1.0 0.070957733
C  C2  1  0.30590000  0.54130000  0.32710000  1.0 -0.0779275152
C  C3  1  0.35280000  0.55290000  0.39870000  1.0 0.6410404721
C  C4  1  0.25500000  0.54520000  0.29660000  1.0 -0.1262023693
C  C5  1  0.12940000  0.57600000  0.27750000  1.0 -0.0877624636
C  C6  1  0.08770000  0.45890000  0.30720000  1.0 -0.4208069074
C  C7  1  0.29420000  0.55860000  0.36840000  1.0 -0.0227718758
C  C8  1  0.18880000  0.56880000  0.30760000  1.0 0.0763761264
C  C9  1  0.22950000  0.58110000  0.38150000  1.0 -0.108747043
C  C10  1  0.18160000  0.58700000  0.34920000  1.0 -0.1044038462
C  C11  1  0.91770000  0.47820000  0.27750000  1.0 0.070957733
C  C12  1  0.69410000  0.45870000  0.32710000  1.0 -0.0779275152
C  C13  1  0.64720000  0.44710000  0.39870000  1.0 0.6410404721
C  C14  1  0.74500000  0.45480000  0.29660000  1.0 -0.1262023693
C  C15  1  0.87060000  0.42400000  0.27750000  1.0 -0.0877624636
C  C16  1  0.91230000  0.54110000  0.30720000  1.0 -0.4208069074
C  C17  1  0.70580000  0.44140000  0.36840000  1.0 -0.0227718758
C  C18  1  0.81120000  0.43120000  0.30760000  1.0 0.0763761264
C  C19  1  0.77050000  0.41890000  0.38150000  1.0 -0.108747043
C  C20  1  0.81840000  0.41300000  0.34920000  1.0 -0.1044038462
C  C21  1  0.47820000  0.08230000  0.27750000  1.0 0.070957733
C  C22  1  0.45870000  0.30590000  0.32710000  1.0 -0.0779275152
C  C23  1  0.44710000  0.35280000  0.39870000  1.0 0.6410404721
C  C24  1  0.45480000  0.25500000  0.29660000  1.0 -0.1262023693
C  C25  1  0.42400000  0.12940000  0.27750000  1.0 -0.0877624636
C  C26  1  0.54110000  0.08770000  0.30720000  1.0 -0.4208069074
C  C27  1  0.44140000  0.29420000  0.36840000  1.0 -0.0227718758
C  C28  1  0.43120000  0.18880000  0.30760000  1.0 0.0763761264
C  C29  1  0.41890000  0.22950000  0.38150000  1.0 -0.108747043
C  C30  1  0.41300000  0.18160000  0.34920000  1.0 -0.1044038462
C  C31  1  0.52180000  0.91770000  0.27750000  1.0 0.070957733
C  C32  1  0.54130000  0.69410000  0.32710000  1.0 -0.0779275152
C  C33  1  0.55290000  0.64720000  0.39870000  1.0 0.6410404721
C  C34  1  0.54520000  0.74500000  0.29660000  1.0 -0.1262023693
C  C35  1  0.57600000  0.87060000  0.27750000  1.0 -0.0877624636
C  C36  1  0.45890000  0.91230000  0.30720000  1.0 -0.4208069074
C  C37  1  0.55860000  0.70580000  0.36840000  1.0 -0.0227718758
C  C38  1  0.56880000  0.81120000  0.30760000  1.0 0.0763761264
C  C39  1  0.58110000  0.77050000  0.38150000  1.0 -0.108747043
C  C40  1  0.58700000  0.81840000  0.34920000  1.0 -0.1044038462
C  C41  1  0.41770000  0.02180000  0.22250000  1.0 0.070957733
C  C42  1  0.19410000  0.04130000  0.17290000  1.0 -0.0779275152
C  C43  1  0.14720000  0.05290000  0.10130000  1.0 0.6410404721
C  C44  1  0.24500000  0.04520000  0.20340000  1.0 -0.1262023693
C  C45  1  0.37060000  0.07600000  0.22250000  1.0 -0.0877624636
C  C46  1  0.41230000  0.95890000  0.19280000  1.0 -0.4208069074
C  C47  1  0.20580000  0.05860000  0.13160000  1.0 -0.0227718758
C  C48  1  0.31120000  0.06880000  0.19240000  1.0 0.0763761264
C  C49  1  0.27050000  0.08110000  0.11850000  1.0 -0.108747043
C  C50  1  0.31840000  0.08700000  0.15080000  1.0 -0.1044038462
C  C51  1  0.58230000  0.97820000  0.22250000  1.0 0.070957733
C  C52  1  0.80590000  0.95870000  0.17290000  1.0 -0.0779275152
C  C53  1  0.85280000  0.94710000  0.10130000  1.0 0.6410404721
C  C54  1  0.75500000  0.95480000  0.20340000  1.0 -0.1262023693
C  C55  1  0.62940000  0.92400000  0.22250000  1.0 -0.0877624636
C  C56  1  0.58770000  0.04110000  0.19280000  1.0 -0.4208069074
C  C57  1  0.79420000  0.94140000  0.13160000  1.0 -0.0227718758
C  C58  1  0.68880000  0.93120000  0.19240000  1.0 0.0763761264
C  C59  1  0.72950000  0.91890000  0.11850000  1.0 -0.108747043
C  C60  1  0.68160000  0.91300000  0.15080000  1.0 -0.1044038462
C  C61  1  0.02180000  0.58230000  0.22250000  1.0 0.070957733
C  C62  1  0.04130000  0.80590000  0.17290000  1.0 -0.0779275152
C  C63  1  0.05290000  0.85280000  0.10130000  1.0 0.6410404721
C  C64  1  0.04520000  0.75500000  0.20340000  1.0 -0.1262023693
C  C65  1  0.07600000  0.62940000  0.22250000  1.0 -0.0877624636
C  C66  1  0.95890000  0.58770000  0.19280000  1.0 -0.4208069074
C  C67  1  0.05860000  0.79420000  0.13160000  1.0 -0.0227718758
C  C68  1  0.06880000  0.68880000  0.19240000  1.0 0.0763761264
C  C69  1  0.08110000  0.72950000  0.11850000  1.0 -0.108747043
C  C70  1  0.08700000  0.68160000  0.15080000  1.0 -0.1044038462
C  C71  1  0.97820000  0.41770000  0.22250000  1.0 0.070957733
C  C72  1  0.95870000  0.19410000  0.17290000  1.0 -0.0779275152
C  C73  1  0.94710000  0.14720000  0.10130000  1.0 0.6410404721
C  C74  1  0.95480000  0.24500000  0.20340000  1.0 -0.1262023693
C  C75  1  0.92400000  0.37060000  0.22250000  1.0 -0.0877624636
C  C76  1  0.04110000  0.41230000  0.19280000  1.0 -0.4208069074
C  C77  1  0.94140000  0.20580000  0.13160000  1.0 -0.0227718758
C  C78  1  0.93120000  0.31120000  0.19240000  1.0 0.0763761264
C  C79  1  0.91890000  0.27050000  0.11850000  1.0 -0.108747043
C  C80  1  0.91300000  0.31840000  0.15080000  1.0 -0.1044038462
C  C81  1  0.91770000  0.47820000  0.72250000  1.0 0.070957733
C  C82  1  0.69410000  0.45870000  0.67290000  1.0 -0.0779275152
C  C83  1  0.64720000  0.44710000  0.60130000  1.0 0.6410404721
C  C84  1  0.74500000  0.45480000  0.70340000  1.0 -0.1262023693
C  C85  1  0.87060000  0.42400000  0.72250000  1.0 -0.0877624636
C  C86  1  0.91230000  0.54110000  0.69280000  1.0 -0.4208069074
C  C87  1  0.70580000  0.44140000  0.63160000  1.0 -0.0227718758
C  C88  1  0.81120000  0.43120000  0.69240000  1.0 0.0763761264
C  C89  1  0.77050000  0.41890000  0.61850000  1.0 -0.108747043
C  C90  1  0.81840000  0.41300000  0.65080000  1.0 -0.1044038462
C  C91  1  0.08230000  0.52180000  0.72250000  1.0 0.070957733
C  C92  1  0.30590000  0.54130000  0.67290000  1.0 -0.0779275152
C  C93  1  0.35280000  0.55290000  0.60130000  1.0 0.6410404721
C  C94  1  0.25500000  0.54520000  0.70340000  1.0 -0.1262023693
C  C95  1  0.12940000  0.57600000  0.72250000  1.0 -0.0877624636
C  C96  1  0.08770000  0.45890000  0.69280000  1.0 -0.4208069074
C  C97  1  0.29420000  0.55860000  0.63160000  1.0 -0.0227718758
C  C98  1  0.18880000  0.56880000  0.69240000  1.0 0.0763761264
C  C99  1  0.22950000  0.58110000  0.61850000  1.0 -0.108747043
C  C100  1  0.18160000  0.58700000  0.65080000  1.0 -0.1044038462
C  C101  1  0.52180000  0.91770000  0.72250000  1.0 0.070957733
C  C102  1  0.54130000  0.69410000  0.67290000  1.0 -0.0779275152
C  C103  1  0.55290000  0.64720000  0.60130000  1.0 0.6410404721
C  C104  1  0.54520000  0.74500000  0.70340000  1.0 -0.1262023693
C  C105  1  0.57600000  0.87060000  0.72250000  1.0 -0.0877624636
C  C106  1  0.45890000  0.91230000  0.69280000  1.0 -0.4208069074
C  C107  1  0.55860000  0.70580000  0.63160000  1.0 -0.0227718758
C  C108  1  0.56880000  0.81120000  0.69240000  1.0 0.0763761264
C  C109  1  0.58110000  0.77050000  0.61850000  1.0 -0.108747043
C  C110  1  0.58700000  0.81840000  0.65080000  1.0 -0.1044038462
C  C111  1  0.47820000  0.08230000  0.72250000  1.0 0.070957733
C  C112  1  0.45870000  0.30590000  0.67290000  1.0 -0.0779275152
C  C113  1  0.44710000  0.35280000  0.60130000  1.0 0.6410404721
C  C114  1  0.45480000  0.25500000  0.70340000  1.0 -0.1262023693
C  C115  1  0.42400000  0.12940000  0.72250000  1.0 -0.0877624636
C  C116  1  0.54110000  0.08770000  0.69280000  1.0 -0.4208069074
C  C117  1  0.44140000  0.29420000  0.63160000  1.0 -0.0227718758
C  C118  1  0.43120000  0.18880000  0.69240000  1.0 0.0763761264
C  C119  1  0.41890000  0.22950000  0.61850000  1.0 -0.108747043
C  C120  1  0.41300000  0.18160000  0.65080000  1.0 -0.1044038462
C  C121  1  0.58230000  0.97820000  0.77750000  1.0 0.070957733
C  C122  1  0.80590000  0.95870000  0.82710000  1.0 -0.0779275152
C  C123  1  0.85280000  0.94710000  0.89870000  1.0 0.6410404721
C  C124  1  0.75500000  0.95480000  0.79660000  1.0 -0.1262023693
C  C125  1  0.62940000  0.92400000  0.77750000  1.0 -0.0877624636
C  C126  1  0.58770000  0.04110000  0.80720000  1.0 -0.4208069074
C  C127  1  0.79420000  0.94140000  0.86840000  1.0 -0.0227718758
C  C128  1  0.68880000  0.93120000  0.80760000  1.0 0.0763761264
C  C129  1  0.72950000  0.91890000  0.88150000  1.0 -0.108747043
C  C130  1  0.68160000  0.91300000  0.84920000  1.0 -0.1044038462
C  C131  1  0.41770000  0.02180000  0.77750000  1.0 0.070957733
C  C132  1  0.19410000  0.04130000  0.82710000  1.0 -0.0779275152
C  C133  1  0.14720000  0.05290000  0.89870000  1.0 0.6410404721
C  C134  1  0.24500000  0.04520000  0.79660000  1.0 -0.1262023693
C  C135  1  0.37060000  0.07600000  0.77750000  1.0 -0.0877624636
C  C136  1  0.41230000  0.95890000  0.80720000  1.0 -0.4208069074
C  C137  1  0.20580000  0.05860000  0.86840000  1.0 -0.0227718758
C  C138  1  0.31120000  0.06880000  0.80760000  1.0 0.0763761264
C  C139  1  0.27050000  0.08110000  0.88150000  1.0 -0.108747043
C  C140  1  0.31840000  0.08700000  0.84920000  1.0 -0.1044038462
C  C141  1  0.97820000  0.41770000  0.77750000  1.0 0.070957733
C  C142  1  0.95870000  0.19410000  0.82710000  1.0 -0.0779275152
C  C143  1  0.94710000  0.14720000  0.89870000  1.0 0.6410404721
C  C144  1  0.95480000  0.24500000  0.79660000  1.0 -0.1262023693
C  C145  1  0.92400000  0.37060000  0.77750000  1.0 -0.0877624636
C  C146  1  0.04110000  0.41230000  0.80720000  1.0 -0.4208069074
C  C147  1  0.94140000  0.20580000  0.86840000  1.0 -0.0227718758
C  C148  1  0.93120000  0.31120000  0.80760000  1.0 0.0763761264
C  C149  1  0.91890000  0.27050000  0.88150000  1.0 -0.108747043
C  C150  1  0.91300000  0.31840000  0.84920000  1.0 -0.1044038462
C  C151  1  0.02180000  0.58230000  0.77750000  1.0 0.070957733
C  C152  1  0.04130000  0.80590000  0.82710000  1.0 -0.0779275152
C  C153  1  0.05290000  0.85280000  0.89870000  1.0 0.6410404721
C  C154  1  0.04520000  0.75500000  0.79660000  1.0 -0.1262023693
C  C155  1  0.07600000  0.62940000  0.77750000  1.0 -0.0877624636
C  C156  1  0.95890000  0.58770000  0.80720000  1.0 -0.4208069074
C  C157  1  0.05860000  0.79420000  0.86840000  1.0 -0.0227718758
C  C158  1  0.06880000  0.68880000  0.80760000  1.0 0.0763761264
C  C159  1  0.08110000  0.72950000  0.88150000  1.0 -0.108747043
C  C160  1  0.08700000  0.68160000  0.84920000  1.0 -0.1044038462
C  C161  1  0.02735000  0.52735000  0.25000000  1.0 -0.0227718758
C  C162  1  0.13130000  0.63130000  0.25000000  1.0 0.0026391607
C  C163  1  0.18620000  0.68620000  0.25000000  1.0 -0.1838412691
C  C164  1  0.97265000  0.47265000  0.25000000  1.0 -0.0227718758
C  C165  1  0.86870000  0.36870000  0.25000000  1.0 0.0026391607
C  C166  1  0.81380000  0.31380000  0.25000000  1.0 -0.1838412691
C  C167  1  0.47265000  0.02735000  0.25000000  1.0 -0.0227718758
C  C168  1  0.36870000  0.13130000  0.25000000  1.0 0.0026391607
C  C169  1  0.31380000  0.18620000  0.25000000  1.0 -0.1838412691
C  C170  1  0.52735000  0.97265000  0.25000000  1.0 -0.0227718758
C  C171  1  0.63130000  0.86870000  0.25000000  1.0 0.0026391607
C  C172  1  0.68620000  0.81380000  0.25000000  1.0 -0.1865472554
C  C173  1  0.97265000  0.47265000  0.75000000  1.0 -0.0227718758
C  C174  1  0.86870000  0.36870000  0.75000000  1.0 0.0026391607
C  C175  1  0.81380000  0.31380000  0.75000000  1.0 -0.1838412691
C  C176  1  0.02735000  0.52735000  0.75000000  1.0 -0.0227718758
C  C177  1  0.13130000  0.63130000  0.75000000  1.0 0.0026391607
C  C178  1  0.18620000  0.68620000  0.75000000  1.0 -0.1838412691
C  C179  1  0.52735000  0.97265000  0.75000000  1.0 -0.0227718758
C  C180  1  0.63130000  0.86870000  0.75000000  1.0 0.0026391607
C  C181  1  0.68620000  0.81380000  0.75000000  1.0 -0.1865472554
C  C182  1  0.47265000  0.02735000  0.75000000  1.0 -0.0227718758
C  C183  1  0.36870000  0.13130000  0.75000000  1.0 0.0026391607
C  C184  1  0.31380000  0.18620000  0.75000000  1.0 -0.1838412691
O  O1  1  0.40930000  0.52350000  0.38770000  1.0 -0.5867627321
O  O2  1  0.32780000  0.56270000  0.43830000  1.0 -0.7246426626
O  O3  1  0.41510000  0.46290000  0.46210000  1.0 -1.2013137325
O  O4  1  0.59070000  0.47650000  0.38770000  1.0 -0.5867627321
O  O5  1  0.67220000  0.43730000  0.43830000  1.0 -0.7246426626
O  O6  1  0.58490000  0.53710000  0.46210000  1.0 -1.2013137325
O  O7  1  0.47650000  0.40930000  0.38770000  1.0 -0.5867627321
O  O8  1  0.43730000  0.32780000  0.43830000  1.0 -0.7246426626
O  O9  1  0.53710000  0.41510000  0.46210000  1.0 -1.2013137325
O  O10  1  0.52350000  0.59070000  0.38770000  1.0 -0.5867627321
O  O11  1  0.56270000  0.67220000  0.43830000  1.0 -0.7246426626
O  O12  1  0.46290000  0.58490000  0.46210000  1.0 -1.2013137325
O  O13  1  0.09070000  0.02350000  0.11230000  1.0 -0.5867627321
O  O14  1  0.17220000  0.06270000  0.06170000  1.0 -0.7246426626
O  O15  1  0.08490000  0.96290000  0.03790000  1.0 -1.2013137325
O  O16  1  0.90930000  0.97650000  0.11230000  1.0 -0.5867627321
O  O17  1  0.82780000  0.93730000  0.06170000  1.0 -0.7246426626
O  O18  1  0.91510000  0.03710000  0.03790000  1.0 -1.2013137325
O  O19  1  0.02350000  0.90930000  0.11230000  1.0 -0.5867627321
O  O20  1  0.06270000  0.82780000  0.06170000  1.0 -0.7246426626
O  O21  1  0.96290000  0.91510000  0.03790000  1.0 -1.2013137325
O  O22  1  0.97650000  0.09070000  0.11230000  1.0 -0.5867627321
O  O23  1  0.93730000  0.17220000  0.06170000  1.0 -0.7246426626
O  O24  1  0.03710000  0.08490000  0.03790000  1.0 -1.2013137325
O  O25  1  0.59070000  0.47650000  0.61230000  1.0 -0.5867627321
O  O26  1  0.67220000  0.43730000  0.56170000  1.0 -0.7246426626
O  O27  1  0.58490000  0.53710000  0.53790000  1.0 -1.2013137325
O  O28  1  0.40930000  0.52350000  0.61230000  1.0 -0.5867627321
O  O29  1  0.32780000  0.56270000  0.56170000  1.0 -0.7246426626
O  O30  1  0.41510000  0.46290000  0.53790000  1.0 -1.2013137325
O  O31  1  0.52350000  0.59070000  0.61230000  1.0 -0.5867627321
O  O32  1  0.56270000  0.67220000  0.56170000  1.0 -0.7246426626
O  O33  1  0.46290000  0.58490000  0.53790000  1.0 -1.2013137325
O  O34  1  0.47650000  0.40930000  0.61230000  1.0 -0.5867627321
O  O35  1  0.43730000  0.32780000  0.56170000  1.0 -0.7246426626
O  O36  1  0.53710000  0.41510000  0.53790000  1.0 -1.2013137325
O  O37  1  0.90930000  0.97650000  0.88770000  1.0 -0.5867627321
O  O38  1  0.82780000  0.93730000  0.93830000  1.0 -0.7246426626
O  O39  1  0.91510000  0.03710000  0.96210000  1.0 -1.2013137325
O  O40  1  0.09070000  0.02350000  0.88770000  1.0 -0.5867627321
O  O41  1  0.17220000  0.06270000  0.93830000  1.0 -0.7246426626
O  O42  1  0.08490000  0.96290000  0.96210000  1.0 -1.2013137325
O  O43  1  0.97650000  0.09070000  0.88770000  1.0 -0.5867627321
O  O44  1  0.93730000  0.17220000  0.93830000  1.0 -0.7246426626
O  O45  1  0.03710000  0.08490000  0.96210000  1.0 -1.2013137325
O  O46  1  0.02350000  0.90930000  0.88770000  1.0 -0.5867627321
O  O47  1  0.06270000  0.82780000  0.93830000  1.0 -0.7246426626
O  O48  1  0.96290000  0.91510000  0.96210000  1.0 -1.2013137325
