# DDEC6 charges by PACMAN v1.1 (https://github.com/mtap-research/PACMAN-charge/)
data_NEVSUF01_ASR_pacman
_symmetry_space_group_name_H-M   'P 1'
_cell_length_a   19.18800000
_cell_length_b   19.18800000
_cell_length_c   32.96400000
_cell_angle_alpha   90.00000000
_cell_angle_beta   90.00000000
_cell_angle_gamma   90.00000000
_symmetry_Int_Tables_number   1
_chemical_formula_structural   Zr3H40(C23O6)2
_chemical_formula_sum   'Zr12 H160 C184 O48'
_cell_volume   12136.66389562
_cell_formula_units_Z   4
loop_
 _symmetry_equiv_pos_site_id
 _symmetry_equiv_pos_as_xyz
  1  'x, y, z'
loop_
 _atom_site_type_symbol
 _atom_site_label
 _atom_site_symmetry_multiplicity
 _atom_site_fract_x
 _atom_site_fract_y
 _atom_site_fract_z
 _atom_site_occupancy
 _atom_site_charge
Zr  Zr1  1  0.12260000  0.04598000  0.00000000  1.0 2.4792361206
Zr  Zr2  1  0.87740000  0.95402000  0.00000000  1.0 2.4792361206
Zr  Zr3  1  0.95402000  0.12260000  0.00000000  1.0 2.4792361206
Zr  Zr4  1  0.04598000  0.87740000  0.00000000  1.0 2.4792361206
Zr  Zr5  1  0.37740000  0.54598000  0.50000000  1.0 2.4792361206
Zr  Zr6  1  0.62260000  0.45402000  0.50000000  1.0 2.4792361206
Zr  Zr7  1  0.54598000  0.62260000  0.50000000  1.0 2.4792361206
Zr  Zr8  1  0.45402000  0.37740000  0.50000000  1.0 2.4792361206
Zr  Zr9  1  0.00000000  0.00000000  0.07426000  1.0 2.4076779133
Zr  Zr10  1  0.50000000  0.50000000  0.42574000  1.0 2.4076779133
Zr  Zr11  1  0.00000000  0.00000000  0.92574000  1.0 2.4076779133
Zr  Zr12  1  0.50000000  0.50000000  0.57426000  1.0 2.4076779133
H  H1  1  0.97580000  0.15410000  0.17560000  1.0 0.1203339428
H  H2  1  0.96230000  0.23130000  0.23000000  1.0 0.1273927585
H  H3  1  0.02000000  0.42700000  0.16620000  1.0 0.1203339428
H  H4  1  0.05090000  0.36360000  0.19020000  1.0 0.1273927585
H  H5  1  0.07350000  0.43970000  0.20140000  1.0 0.1203339428
H  H6  1  0.89940000  0.28620000  0.09030000  1.0 0.1072764227
H  H7  1  0.88470000  0.36160000  0.14520000  1.0 0.1203339428
H  H8  1  0.82120000  0.27810000  0.22910000  1.0 0.0189178856
H  H9  1  0.81090000  0.28840000  0.27590000  1.0 0.0189178856
H  H10  1  0.76680000  0.33250000  0.24510000  1.0 0.0270606151
H  H11  1  0.02420000  0.84590000  0.17560000  1.0 0.1203339428
H  H12  1  0.03770000  0.76870000  0.23000000  1.0 0.1273927585
H  H13  1  0.98000000  0.57300000  0.16620000  1.0 0.1203339428
H  H14  1  0.94910000  0.63640000  0.19020000  1.0 0.1273927585
H  H15  1  0.92650000  0.56030000  0.20140000  1.0 0.1203339428
H  H16  1  0.10060000  0.71380000  0.09030000  1.0 0.1072764227
H  H17  1  0.11530000  0.63840000  0.14520000  1.0 0.1273927585
H  H18  1  0.17880000  0.72190000  0.22910000  1.0 0.0189178856
H  H19  1  0.18910000  0.71160000  0.27590000  1.0 0.0189178856
H  H20  1  0.23320000  0.66750000  0.24510000  1.0 0.0189178856
H  H21  1  0.84590000  0.97580000  0.17560000  1.0 0.1203339428
H  H22  1  0.76870000  0.96230000  0.23000000  1.0 0.1273927585
H  H23  1  0.57300000  0.02000000  0.16620000  1.0 0.1203339428
H  H24  1  0.63640000  0.05090000  0.19020000  1.0 0.1273927585
H  H25  1  0.56030000  0.07350000  0.20140000  1.0 0.1203339428
H  H26  1  0.71380000  0.89940000  0.09030000  1.0 0.1072764227
H  H27  1  0.63840000  0.88470000  0.14520000  1.0 0.1273927585
H  H28  1  0.72190000  0.82120000  0.22910000  1.0 0.0189178856
H  H29  1  0.71160000  0.81090000  0.27590000  1.0 0.0189178856
H  H30  1  0.66750000  0.76680000  0.24510000  1.0 0.0270606151
H  H31  1  0.15410000  0.02420000  0.17560000  1.0 0.1203339428
H  H32  1  0.23130000  0.03770000  0.23000000  1.0 0.1273927585
H  H33  1  0.42700000  0.98000000  0.16620000  1.0 0.1203339428
H  H34  1  0.36360000  0.94910000  0.19020000  1.0 0.1273927585
H  H35  1  0.43970000  0.92650000  0.20140000  1.0 0.1203339428
H  H36  1  0.28620000  0.10060000  0.09030000  1.0 0.1072764227
H  H37  1  0.36160000  0.11530000  0.14520000  1.0 0.1203339428
H  H38  1  0.27810000  0.17880000  0.22910000  1.0 0.0189178856
H  H39  1  0.28840000  0.18910000  0.27590000  1.0 0.0189178856
H  H40  1  0.33250000  0.23320000  0.24510000  1.0 0.0189178856
H  H41  1  0.52420000  0.65410000  0.32440000  1.0 0.1203339428
H  H42  1  0.53770000  0.73130000  0.27000000  1.0 0.1273927585
H  H43  1  0.48000000  0.92700000  0.33380000  1.0 0.1203339428
H  H44  1  0.44910000  0.86360000  0.30980000  1.0 0.1273927585
H  H45  1  0.42650000  0.93970000  0.29860000  1.0 0.1203339428
H  H46  1  0.60060000  0.78620000  0.40970000  1.0 0.1072764227
H  H47  1  0.61530000  0.86160000  0.35480000  1.0 0.1273927585
H  H48  1  0.67880000  0.77810000  0.27090000  1.0 0.0189178856
H  H49  1  0.68910000  0.78840000  0.22410000  1.0 0.0189178856
H  H50  1  0.73320000  0.83250000  0.25490000  1.0 0.0270606151
H  H51  1  0.47580000  0.34590000  0.32440000  1.0 0.1203339428
H  H52  1  0.46230000  0.26870000  0.27000000  1.0 0.1273927585
H  H53  1  0.52000000  0.07300000  0.33380000  1.0 0.1203339428
H  H54  1  0.55090000  0.13640000  0.30980000  1.0 0.1273927585
H  H55  1  0.57350000  0.06030000  0.29860000  1.0 0.1203339428
H  H56  1  0.39940000  0.21380000  0.40970000  1.0 0.1072764227
H  H57  1  0.38470000  0.13840000  0.35480000  1.0 0.1203339428
H  H58  1  0.32120000  0.22190000  0.27090000  1.0 0.0189178856
H  H59  1  0.31090000  0.21160000  0.22410000  1.0 0.0189178856
H  H60  1  0.26680000  0.16750000  0.25490000  1.0 0.0270606151
H  H61  1  0.65410000  0.47580000  0.32440000  1.0 0.1203339428
H  H62  1  0.73130000  0.46230000  0.27000000  1.0 0.1273927585
H  H63  1  0.92700000  0.52000000  0.33380000  1.0 0.1203339428
H  H64  1  0.86360000  0.55090000  0.30980000  1.0 0.1273927585
H  H65  1  0.93970000  0.57350000  0.29860000  1.0 0.1203339428
H  H66  1  0.78620000  0.39940000  0.40970000  1.0 0.1072764227
H  H67  1  0.86160000  0.38470000  0.35480000  1.0 0.1203339428
H  H68  1  0.77810000  0.32120000  0.27090000  1.0 0.0189178856
H  H69  1  0.78840000  0.31090000  0.22410000  1.0 0.0189178856
H  H70  1  0.83250000  0.26680000  0.25490000  1.0 0.0270606151
H  H71  1  0.34590000  0.52420000  0.32440000  1.0 0.1203339428
H  H72  1  0.26870000  0.53770000  0.27000000  1.0 0.1273927585
H  H73  1  0.07300000  0.48000000  0.33380000  1.0 0.1203339428
H  H74  1  0.13640000  0.44910000  0.30980000  1.0 0.1273927585
H  H75  1  0.06030000  0.42650000  0.29860000  1.0 0.1203339428
H  H76  1  0.21380000  0.60060000  0.40970000  1.0 0.1072764227
H  H77  1  0.13840000  0.61530000  0.35480000  1.0 0.1203339428
H  H78  1  0.22190000  0.67880000  0.27090000  1.0 0.0189178856
H  H79  1  0.21160000  0.68910000  0.22410000  1.0 0.0189178856
H  H80  1  0.16750000  0.73320000  0.25490000  1.0 0.0189178856
H  H81  1  0.02420000  0.84590000  0.82440000  1.0 0.1203339428
H  H82  1  0.03770000  0.76870000  0.77000000  1.0 0.1273927585
H  H83  1  0.98000000  0.57300000  0.83380000  1.0 0.1203339428
H  H84  1  0.94910000  0.63640000  0.80980000  1.0 0.1273927585
H  H85  1  0.92650000  0.56030000  0.79860000  1.0 0.1203339428
H  H86  1  0.10060000  0.71380000  0.90970000  1.0 0.1072764227
H  H87  1  0.11530000  0.63840000  0.85480000  1.0 0.1203339428
H  H88  1  0.17880000  0.72190000  0.77090000  1.0 0.0189178856
H  H89  1  0.18910000  0.71160000  0.72410000  1.0 0.0189178856
H  H90  1  0.23320000  0.66750000  0.75490000  1.0 0.0189178856
H  H91  1  0.97580000  0.15410000  0.82440000  1.0 0.1203339428
H  H92  1  0.96230000  0.23130000  0.77000000  1.0 0.1273927585
H  H93  1  0.02000000  0.42700000  0.83380000  1.0 0.1203339428
H  H94  1  0.05090000  0.36360000  0.80980000  1.0 0.1273927585
H  H95  1  0.07350000  0.43970000  0.79860000  1.0 0.1203339428
H  H96  1  0.89940000  0.28620000  0.90970000  1.0 0.1072764227
H  H97  1  0.88470000  0.36160000  0.85480000  1.0 0.1203339428
H  H98  1  0.82120000  0.27810000  0.77090000  1.0 0.0189178856
H  H99  1  0.81090000  0.28840000  0.72410000  1.0 0.0189178856
H  H100  1  0.76680000  0.33250000  0.75490000  1.0 0.0270606151
H  H101  1  0.15410000  0.02420000  0.82440000  1.0 0.1203339428
H  H102  1  0.23130000  0.03770000  0.77000000  1.0 0.1273927585
H  H103  1  0.42700000  0.98000000  0.83380000  1.0 0.1203339428
H  H104  1  0.36360000  0.94910000  0.80980000  1.0 0.1273927585
H  H105  1  0.43970000  0.92650000  0.79860000  1.0 0.1203339428
H  H106  1  0.28620000  0.10060000  0.90970000  1.0 0.1072764227
H  H107  1  0.36160000  0.11530000  0.85480000  1.0 0.1203339428
H  H108  1  0.27810000  0.17880000  0.77090000  1.0 0.0189178856
H  H109  1  0.28840000  0.18910000  0.72410000  1.0 0.0189178856
H  H110  1  0.33250000  0.23320000  0.75490000  1.0 0.0189178856
H  H111  1  0.84590000  0.97580000  0.82440000  1.0 0.1203339428
H  H112  1  0.76870000  0.96230000  0.77000000  1.0 0.1273927585
H  H113  1  0.57300000  0.02000000  0.83380000  1.0 0.1203339428
H  H114  1  0.63640000  0.05090000  0.80980000  1.0 0.1273927585
H  H115  1  0.56030000  0.07350000  0.79860000  1.0 0.1203339428
H  H116  1  0.71380000  0.89940000  0.90970000  1.0 0.1072764227
H  H117  1  0.63840000  0.88470000  0.85480000  1.0 0.1203339428
H  H118  1  0.72190000  0.82120000  0.77090000  1.0 0.0189178856
H  H119  1  0.71160000  0.81090000  0.72410000  1.0 0.0189178856
H  H120  1  0.66750000  0.76680000  0.75490000  1.0 0.0270606151
H  H121  1  0.47580000  0.34590000  0.67560000  1.0 0.1203339428
H  H122  1  0.46230000  0.26870000  0.73000000  1.0 0.1273927585
H  H123  1  0.52000000  0.07300000  0.66620000  1.0 0.1203339428
H  H124  1  0.55090000  0.13640000  0.69020000  1.0 0.1273927585
H  H125  1  0.57350000  0.06030000  0.70140000  1.0 0.1203339428
H  H126  1  0.39940000  0.21380000  0.59030000  1.0 0.1072764227
H  H127  1  0.38470000  0.13840000  0.64520000  1.0 0.1203339428
H  H128  1  0.32120000  0.22190000  0.72910000  1.0 0.0189178856
H  H129  1  0.31090000  0.21160000  0.77590000  1.0 0.0189178856
H  H130  1  0.26680000  0.16750000  0.74510000  1.0 0.0270606151
H  H131  1  0.52420000  0.65410000  0.67560000  1.0 0.1203339428
H  H132  1  0.53770000  0.73130000  0.73000000  1.0 0.1273927585
H  H133  1  0.48000000  0.92700000  0.66620000  1.0 0.1203339428
H  H134  1  0.44910000  0.86360000  0.69020000  1.0 0.1273927585
H  H135  1  0.42650000  0.93970000  0.70140000  1.0 0.1203339428
H  H136  1  0.60060000  0.78620000  0.59030000  1.0 0.1072764227
H  H137  1  0.61530000  0.86160000  0.64520000  1.0 0.1273927585
H  H138  1  0.67880000  0.77810000  0.72910000  1.0 0.0189178856
H  H139  1  0.68910000  0.78840000  0.77590000  1.0 0.0189178856
H  H140  1  0.73320000  0.83250000  0.74510000  1.0 0.0270606151
H  H141  1  0.34590000  0.52420000  0.67560000  1.0 0.1203339428
H  H142  1  0.26870000  0.53770000  0.73000000  1.0 0.1273927585
H  H143  1  0.07300000  0.48000000  0.66620000  1.0 0.1203339428
H  H144  1  0.13640000  0.44910000  0.69020000  1.0 0.1273927585
H  H145  1  0.06030000  0.42650000  0.70140000  1.0 0.1203339428
H  H146  1  0.21380000  0.60060000  0.59030000  1.0 0.1072764227
H  H147  1  0.13840000  0.61530000  0.64520000  1.0 0.1203339428
H  H148  1  0.22190000  0.67880000  0.72910000  1.0 0.0189178856
H  H149  1  0.21160000  0.68910000  0.77590000  1.0 0.0189178856
H  H150  1  0.16750000  0.73320000  0.74510000  1.0 0.0270606151
H  H151  1  0.65410000  0.47580000  0.67560000  1.0 0.1203339428
H  H152  1  0.73130000  0.46230000  0.73000000  1.0 0.1273927585
H  H153  1  0.92700000  0.52000000  0.66620000  1.0 0.1203339428
H  H154  1  0.86360000  0.55090000  0.69020000  1.0 0.1273927585
H  H155  1  0.93970000  0.57350000  0.70140000  1.0 0.1203339428
H  H156  1  0.78620000  0.39940000  0.59030000  1.0 0.1072764227
H  H157  1  0.86160000  0.38470000  0.64520000  1.0 0.1203339428
H  H158  1  0.77810000  0.32120000  0.72910000  1.0 0.0189178856
H  H159  1  0.78840000  0.31090000  0.77590000  1.0 0.0189178856
H  H160  1  0.83250000  0.26680000  0.74510000  1.0 0.0270606151
C  C1  1  0.97560000  0.41560000  0.22260000  1.0 0.0624452426
C  C2  1  0.95660000  0.19770000  0.17040000  1.0 -0.0902854943
C  C3  1  0.94200000  0.15360000  0.09960000  1.0 0.6446457068
C  C4  1  0.95110000  0.24280000  0.20340000  1.0 -0.1324219292
C  C5  1  0.92250000  0.36550000  0.22240000  1.0 -0.0500103056
C  C6  1  0.03560000  0.41110000  0.19230000  1.0 -0.4212753566
C  C7  1  0.93640000  0.21110000  0.13050000  1.0 -0.0500103056
C  C8  1  0.92600000  0.30810000  0.19070000  1.0 0.069025987
C  C9  1  0.91080000  0.27490000  0.11690000  1.0 -0.0902854943
C  C10  1  0.90530000  0.31870000  0.15040000  1.0 -0.1395794151
C  C11  1  0.02440000  0.58440000  0.22260000  1.0 0.0624452426
C  C12  1  0.04340000  0.80230000  0.17040000  1.0 -0.0902854943
C  C13  1  0.05800000  0.84640000  0.09960000  1.0 0.6457785016
C  C14  1  0.04890000  0.75720000  0.20340000  1.0 -0.1324219292
C  C15  1  0.07750000  0.63450000  0.22240000  1.0 -0.0500103056
C  C16  1  0.96440000  0.58890000  0.19230000  1.0 -0.4212753566
C  C17  1  0.06360000  0.78890000  0.13050000  1.0 -0.0500103056
C  C18  1  0.07400000  0.69190000  0.19070000  1.0 0.069025987
C  C19  1  0.08920000  0.72510000  0.11690000  1.0 -0.0902854943
C  C20  1  0.09470000  0.68130000  0.15040000  1.0 -0.1395794151
C  C21  1  0.58440000  0.97560000  0.22260000  1.0 0.0624452426
C  C22  1  0.80230000  0.95660000  0.17040000  1.0 -0.0902854943
C  C23  1  0.84640000  0.94200000  0.09960000  1.0 0.6446457068
C  C24  1  0.75720000  0.95110000  0.20340000  1.0 -0.1324219292
C  C25  1  0.63450000  0.92250000  0.22240000  1.0 -0.0500103056
C  C26  1  0.58890000  0.03560000  0.19230000  1.0 -0.4212753566
C  C27  1  0.78890000  0.93640000  0.13050000  1.0 -0.0500103056
C  C28  1  0.69190000  0.92600000  0.19070000  1.0 0.069025987
C  C29  1  0.72510000  0.91080000  0.11690000  1.0 -0.0902854943
C  C30  1  0.68130000  0.90530000  0.15040000  1.0 -0.1395794151
C  C31  1  0.41560000  0.02440000  0.22260000  1.0 0.0624452426
C  C32  1  0.19770000  0.04340000  0.17040000  1.0 -0.0902854943
C  C33  1  0.15360000  0.05800000  0.09960000  1.0 0.6446457068
C  C34  1  0.24280000  0.04890000  0.20340000  1.0 -0.1324219292
C  C35  1  0.36550000  0.07750000  0.22240000  1.0 -0.0500103056
C  C36  1  0.41110000  0.96440000  0.19230000  1.0 -0.4212753566
C  C37  1  0.21110000  0.06360000  0.13050000  1.0 -0.0500103056
C  C38  1  0.30810000  0.07400000  0.19070000  1.0 0.069025987
C  C39  1  0.27490000  0.08920000  0.11690000  1.0 -0.0902854943
C  C40  1  0.31870000  0.09470000  0.15040000  1.0 -0.1395794151
C  C41  1  0.52440000  0.91560000  0.27740000  1.0 0.0624452426
C  C42  1  0.54340000  0.69770000  0.32960000  1.0 -0.0902854943
C  C43  1  0.55800000  0.65360000  0.40040000  1.0 0.6446457068
C  C44  1  0.54890000  0.74280000  0.29660000  1.0 -0.1324219292
C  C45  1  0.57750000  0.86550000  0.27760000  1.0 -0.0500103056
C  C46  1  0.46440000  0.91110000  0.30770000  1.0 -0.4212753566
C  C47  1  0.56360000  0.71110000  0.36950000  1.0 -0.0500103056
C  C48  1  0.57400000  0.80810000  0.30930000  1.0 0.069025987
C  C49  1  0.58920000  0.77490000  0.38310000  1.0 -0.0902854943
C  C50  1  0.59470000  0.81870000  0.34960000  1.0 -0.1395794151
C  C51  1  0.47560000  0.08440000  0.27740000  1.0 0.0624452426
C  C52  1  0.45660000  0.30230000  0.32960000  1.0 -0.0902854943
C  C53  1  0.44200000  0.34640000  0.40040000  1.0 0.6446457068
C  C54  1  0.45110000  0.25720000  0.29660000  1.0 -0.1324219292
C  C55  1  0.42250000  0.13450000  0.27760000  1.0 -0.0500103056
C  C56  1  0.53560000  0.08890000  0.30770000  1.0 -0.4212753566
C  C57  1  0.43640000  0.28890000  0.36950000  1.0 -0.0500103056
C  C58  1  0.42600000  0.19190000  0.30930000  1.0 0.069025987
C  C59  1  0.41080000  0.22510000  0.38310000  1.0 -0.0902854943
C  C60  1  0.40530000  0.18130000  0.34960000  1.0 -0.1395794151
C  C61  1  0.91560000  0.47560000  0.27740000  1.0 0.0624452426
C  C62  1  0.69770000  0.45660000  0.32960000  1.0 -0.0902854943
C  C63  1  0.65360000  0.44200000  0.40040000  1.0 0.6446457068
C  C64  1  0.74280000  0.45110000  0.29660000  1.0 -0.1324219292
C  C65  1  0.86550000  0.42250000  0.27760000  1.0 -0.0500103056
C  C66  1  0.91110000  0.53560000  0.30770000  1.0 -0.4212753566
C  C67  1  0.71110000  0.43640000  0.36950000  1.0 -0.0500103056
C  C68  1  0.80810000  0.42600000  0.30930000  1.0 0.069025987
C  C69  1  0.77490000  0.41080000  0.38310000  1.0 -0.0902854943
C  C70  1  0.81870000  0.40530000  0.34960000  1.0 -0.1395794151
C  C71  1  0.08440000  0.52440000  0.27740000  1.0 0.0624452426
C  C72  1  0.30230000  0.54340000  0.32960000  1.0 -0.0902854943
C  C73  1  0.34640000  0.55800000  0.40040000  1.0 0.6446457068
C  C74  1  0.25720000  0.54890000  0.29660000  1.0 -0.1324219292
C  C75  1  0.13450000  0.57750000  0.27760000  1.0 -0.0500103056
C  C76  1  0.08890000  0.46440000  0.30770000  1.0 -0.4212753566
C  C77  1  0.28890000  0.56360000  0.36950000  1.0 -0.0500103056
C  C78  1  0.19190000  0.57400000  0.30930000  1.0 0.069025987
C  C79  1  0.22510000  0.58920000  0.38310000  1.0 -0.0902854943
C  C80  1  0.18130000  0.59470000  0.34960000  1.0 -0.1395794151
C  C81  1  0.02440000  0.58440000  0.77740000  1.0 0.0624452426
C  C82  1  0.04340000  0.80230000  0.82960000  1.0 -0.0902854943
C  C83  1  0.05800000  0.84640000  0.90040000  1.0 0.6457785016
C  C84  1  0.04890000  0.75720000  0.79660000  1.0 -0.1324219292
C  C85  1  0.07750000  0.63450000  0.77760000  1.0 -0.0500103056
C  C86  1  0.96440000  0.58890000  0.80770000  1.0 -0.4212753566
C  C87  1  0.06360000  0.78890000  0.86950000  1.0 -0.0500103056
C  C88  1  0.07400000  0.69190000  0.80930000  1.0 0.069025987
C  C89  1  0.08920000  0.72510000  0.88310000  1.0 -0.0902854943
C  C90  1  0.09470000  0.68130000  0.84960000  1.0 -0.1395794151
C  C91  1  0.97560000  0.41560000  0.77740000  1.0 0.0624452426
C  C92  1  0.95660000  0.19770000  0.82960000  1.0 -0.0902854943
C  C93  1  0.94200000  0.15360000  0.90040000  1.0 0.6446457068
C  C94  1  0.95110000  0.24280000  0.79660000  1.0 -0.1324219292
C  C95  1  0.92250000  0.36550000  0.77760000  1.0 -0.0500103056
C  C96  1  0.03560000  0.41110000  0.80770000  1.0 -0.4212753566
C  C97  1  0.93640000  0.21110000  0.86950000  1.0 -0.0500103056
C  C98  1  0.92600000  0.30810000  0.80930000  1.0 0.069025987
C  C99  1  0.91080000  0.27490000  0.88310000  1.0 -0.0902854943
C  C100  1  0.90530000  0.31870000  0.84960000  1.0 -0.1395794151
C  C101  1  0.41560000  0.02440000  0.77740000  1.0 0.0624452426
C  C102  1  0.19770000  0.04340000  0.82960000  1.0 -0.0902854943
C  C103  1  0.15360000  0.05800000  0.90040000  1.0 0.6446457068
C  C104  1  0.24280000  0.04890000  0.79660000  1.0 -0.1324219292
C  C105  1  0.36550000  0.07750000  0.77760000  1.0 -0.0500103056
C  C106  1  0.41110000  0.96440000  0.80770000  1.0 -0.4212753566
C  C107  1  0.21110000  0.06360000  0.86950000  1.0 -0.0500103056
C  C108  1  0.30810000  0.07400000  0.80930000  1.0 0.069025987
C  C109  1  0.27490000  0.08920000  0.88310000  1.0 -0.0902854943
C  C110  1  0.31870000  0.09470000  0.84960000  1.0 -0.1395794151
C  C111  1  0.58440000  0.97560000  0.77740000  1.0 0.0624452426
C  C112  1  0.80230000  0.95660000  0.82960000  1.0 -0.0902854943
C  C113  1  0.84640000  0.94200000  0.90040000  1.0 0.6446457068
C  C114  1  0.75720000  0.95110000  0.79660000  1.0 -0.1324219292
C  C115  1  0.63450000  0.92250000  0.77760000  1.0 -0.0500103056
C  C116  1  0.58890000  0.03560000  0.80770000  1.0 -0.4212753566
C  C117  1  0.78890000  0.93640000  0.86950000  1.0 -0.0500103056
C  C118  1  0.69190000  0.92600000  0.80930000  1.0 0.069025987
C  C119  1  0.72510000  0.91080000  0.88310000  1.0 -0.0902854943
C  C120  1  0.68130000  0.90530000  0.84960000  1.0 -0.1395794151
C  C121  1  0.47560000  0.08440000  0.72260000  1.0 0.0624452426
C  C122  1  0.45660000  0.30230000  0.67040000  1.0 -0.0902854943
C  C123  1  0.44200000  0.34640000  0.59960000  1.0 0.6446457068
C  C124  1  0.45110000  0.25720000  0.70340000  1.0 -0.1324219292
C  C125  1  0.42250000  0.13450000  0.72240000  1.0 -0.0500103056
C  C126  1  0.53560000  0.08890000  0.69230000  1.0 -0.4212753566
C  C127  1  0.43640000  0.28890000  0.63050000  1.0 -0.0500103056
C  C128  1  0.42600000  0.19190000  0.69070000  1.0 0.069025987
C  C129  1  0.41080000  0.22510000  0.61690000  1.0 -0.0902854943
C  C130  1  0.40530000  0.18130000  0.65040000  1.0 -0.1395794151
C  C131  1  0.52440000  0.91560000  0.72260000  1.0 0.0624452426
C  C132  1  0.54340000  0.69770000  0.67040000  1.0 -0.0902854943
C  C133  1  0.55800000  0.65360000  0.59960000  1.0 0.6446457068
C  C134  1  0.54890000  0.74280000  0.70340000  1.0 -0.1324219292
C  C135  1  0.57750000  0.86550000  0.72240000  1.0 -0.0500103056
C  C136  1  0.46440000  0.91110000  0.69230000  1.0 -0.4212753566
C  C137  1  0.56360000  0.71110000  0.63050000  1.0 -0.0500103056
C  C138  1  0.57400000  0.80810000  0.69070000  1.0 0.069025987
C  C139  1  0.58920000  0.77490000  0.61690000  1.0 -0.0902854943
C  C140  1  0.59470000  0.81870000  0.65040000  1.0 -0.1395794151
C  C141  1  0.08440000  0.52440000  0.72260000  1.0 0.0624452426
C  C142  1  0.30230000  0.54340000  0.67040000  1.0 -0.0902854943
C  C143  1  0.34640000  0.55800000  0.59960000  1.0 0.6446457068
C  C144  1  0.25720000  0.54890000  0.70340000  1.0 -0.1324219292
C  C145  1  0.13450000  0.57750000  0.72240000  1.0 -0.0500103056
C  C146  1  0.08890000  0.46440000  0.69230000  1.0 -0.4212753566
C  C147  1  0.28890000  0.56360000  0.63050000  1.0 -0.0500103056
C  C148  1  0.19190000  0.57400000  0.69070000  1.0 0.069025987
C  C149  1  0.22510000  0.58920000  0.61690000  1.0 -0.0902854943
C  C150  1  0.18130000  0.59470000  0.65040000  1.0 -0.1395794151
C  C151  1  0.91560000  0.47560000  0.72260000  1.0 0.0624452426
C  C152  1  0.69770000  0.45660000  0.67040000  1.0 -0.0902854943
C  C153  1  0.65360000  0.44200000  0.59960000  1.0 0.6446457068
C  C154  1  0.74280000  0.45110000  0.70340000  1.0 -0.1324219292
C  C155  1  0.86550000  0.42250000  0.72240000  1.0 -0.0500103056
C  C156  1  0.91110000  0.53560000  0.69230000  1.0 -0.4212753566
C  C157  1  0.71110000  0.43640000  0.63050000  1.0 -0.0500103056
C  C158  1  0.80810000  0.42600000  0.69070000  1.0 0.069025987
C  C159  1  0.77490000  0.41080000  0.61690000  1.0 -0.0902854943
C  C160  1  0.81870000  0.40530000  0.65040000  1.0 -0.1395794151
C  C161  1  0.97220000  0.47220000  0.25000000  1.0 -0.0161450085
C  C162  1  0.86690000  0.36690000  0.25000000  1.0 -0.0097483429
C  C163  1  0.81150000  0.31150000  0.25000000  1.0 -0.1721816732
C  C164  1  0.02780000  0.52780000  0.25000000  1.0 -0.0161450085
C  C165  1  0.13310000  0.63310000  0.25000000  1.0 -0.0097483429
C  C166  1  0.18850000  0.68850000  0.25000000  1.0 -0.1721816732
C  C167  1  0.52780000  0.97220000  0.25000000  1.0 -0.0161450085
C  C168  1  0.63310000  0.86690000  0.25000000  1.0 -0.0097483429
C  C169  1  0.68850000  0.81150000  0.25000000  1.0 -0.1721816732
C  C170  1  0.47220000  0.02780000  0.25000000  1.0 -0.0161450085
C  C171  1  0.36690000  0.13310000  0.25000000  1.0 -0.0097483429
C  C172  1  0.31150000  0.18850000  0.25000000  1.0 -0.1721816732
C  C173  1  0.02780000  0.52780000  0.75000000  1.0 -0.0161450085
C  C174  1  0.13310000  0.63310000  0.75000000  1.0 -0.0097483429
C  C175  1  0.18850000  0.68850000  0.75000000  1.0 -0.1721816732
C  C176  1  0.97220000  0.47220000  0.75000000  1.0 -0.0161450085
C  C177  1  0.86690000  0.36690000  0.75000000  1.0 -0.0097483429
C  C178  1  0.81150000  0.31150000  0.75000000  1.0 -0.1721816732
C  C179  1  0.47220000  0.02780000  0.75000000  1.0 -0.0161450085
C  C180  1  0.36690000  0.13310000  0.75000000  1.0 -0.0097483429
C  C181  1  0.31150000  0.18850000  0.75000000  1.0 -0.1721816732
C  C182  1  0.52780000  0.97220000  0.75000000  1.0 -0.0161450085
C  C183  1  0.63310000  0.86690000  0.75000000  1.0 -0.0097483429
C  C184  1  0.68850000  0.81150000  0.75000000  1.0 -0.1721816732
O  O1  1  0.97080000  0.09220000  0.11000000  1.0 -0.6222602034
O  O2  1  0.94020000  0.17330000  0.06140000  1.0 -0.6559344414
O  O3  1  0.03680000  0.08430000  0.03640000  1.0 -1.1732128615
O  O4  1  0.02920000  0.90780000  0.11000000  1.0 -0.6222602034
O  O5  1  0.05980000  0.82670000  0.06140000  1.0 -0.6559344414
O  O6  1  0.96320000  0.91570000  0.03640000  1.0 -1.1732128615
O  O7  1  0.90780000  0.97080000  0.11000000  1.0 -0.6222602034
O  O8  1  0.82670000  0.94020000  0.06140000  1.0 -0.6559344414
O  O9  1  0.91570000  0.03680000  0.03640000  1.0 -1.1732128615
O  O10  1  0.09220000  0.02920000  0.11000000  1.0 -0.6222602034
O  O11  1  0.17330000  0.05980000  0.06140000  1.0 -0.6559344414
O  O12  1  0.08430000  0.96320000  0.03640000  1.0 -1.1764536256
O  O13  1  0.52920000  0.59220000  0.39000000  1.0 -0.6222602034
O  O14  1  0.55980000  0.67330000  0.43860000  1.0 -0.6559344414
O  O15  1  0.46320000  0.58430000  0.46360000  1.0 -1.1732128615
O  O16  1  0.47080000  0.40780000  0.39000000  1.0 -0.6222602034
O  O17  1  0.44020000  0.32670000  0.43860000  1.0 -0.6559344414
O  O18  1  0.53680000  0.41570000  0.46360000  1.0 -1.1732128615
O  O19  1  0.59220000  0.47080000  0.39000000  1.0 -0.6222602034
O  O20  1  0.67330000  0.44020000  0.43860000  1.0 -0.6559344414
O  O21  1  0.58430000  0.53680000  0.46360000  1.0 -1.1732128615
O  O22  1  0.40780000  0.52920000  0.39000000  1.0 -0.6222602034
O  O23  1  0.32670000  0.55980000  0.43860000  1.0 -0.6559344414
O  O24  1  0.41570000  0.46320000  0.46360000  1.0 -1.1732128615
O  O25  1  0.02920000  0.90780000  0.89000000  1.0 -0.6222602034
O  O26  1  0.05980000  0.82670000  0.93860000  1.0 -0.6559344414
O  O27  1  0.96320000  0.91570000  0.96360000  1.0 -1.1764536256
O  O28  1  0.97080000  0.09220000  0.89000000  1.0 -0.6222602034
O  O29  1  0.94020000  0.17330000  0.93860000  1.0 -0.6559344414
O  O30  1  0.03680000  0.08430000  0.96360000  1.0 -1.1764536256
O  O31  1  0.09220000  0.02920000  0.89000000  1.0 -0.6222602034
O  O32  1  0.17330000  0.05980000  0.93860000  1.0 -0.6559344414
O  O33  1  0.08430000  0.96320000  0.96360000  1.0 -1.1764536256
O  O34  1  0.90780000  0.97080000  0.89000000  1.0 -0.6222602034
O  O35  1  0.82670000  0.94020000  0.93860000  1.0 -0.6559344414
O  O36  1  0.91570000  0.03680000  0.96360000  1.0 -1.1764536256
O  O37  1  0.47080000  0.40780000  0.61000000  1.0 -0.6222602034
O  O38  1  0.44020000  0.32670000  0.56140000  1.0 -0.6559344414
O  O39  1  0.53680000  0.41570000  0.53640000  1.0 -1.1732128615
O  O40  1  0.52920000  0.59220000  0.61000000  1.0 -0.6222602034
O  O41  1  0.55980000  0.67330000  0.56140000  1.0 -0.6541877741
O  O42  1  0.46320000  0.58430000  0.53640000  1.0 -1.1764536256
O  O43  1  0.40780000  0.52920000  0.61000000  1.0 -0.6222602034
O  O44  1  0.32670000  0.55980000  0.56140000  1.0 -0.6541877741
O  O45  1  0.41570000  0.46320000  0.53640000  1.0 -1.1732128615
O  O46  1  0.59220000  0.47080000  0.61000000  1.0 -0.6222602034
O  O47  1  0.67330000  0.44020000  0.56140000  1.0 -0.6559344414
O  O48  1  0.58430000  0.53680000  0.53640000  1.0 -1.1732128615
