# DDEC6 charges by PACMAN v1.1 (https://github.com/mtap-research/PACMAN-charge/)
data_NEVSUF10_ASR_pacman
_symmetry_space_group_name_H-M   'P 1'
_cell_length_a   18.90920000
_cell_length_b   18.90920000
_cell_length_c   33.22220000
_cell_angle_alpha   90.00000000
_cell_angle_beta   90.00000000
_cell_angle_gamma   90.00000000
_symmetry_Int_Tables_number   1
_chemical_formula_structural   Zr3H40(C23O6)2
_chemical_formula_sum   'Zr12 H160 C184 O48'
_cell_volume   11878.85822620
_cell_formula_units_Z   4
loop_
 _symmetry_equiv_pos_site_id
 _symmetry_equiv_pos_as_xyz
  1  'x, y, z'
loop_
 _atom_site_type_symbol
 _atom_site_label
 _atom_site_symmetry_multiplicity
 _atom_site_fract_x
 _atom_site_fract_y
 _atom_site_fract_z
 _atom_site_occupancy
 _atom_site_charge
Zr  Zr1  1  0.12340000  0.04732000  0.00000000  1.0 2.4760904364
Zr  Zr2  1  0.87660000  0.95268000  0.00000000  1.0 2.4760904364
Zr  Zr3  1  0.95268000  0.12340000  0.00000000  1.0 2.4760904364
Zr  Zr4  1  0.04732000  0.87660000  0.00000000  1.0 2.4760904364
Zr  Zr5  1  0.37660000  0.54732000  0.50000000  1.0 2.4760904364
Zr  Zr6  1  0.62340000  0.45268000  0.50000000  1.0 2.4760904364
Zr  Zr7  1  0.54732000  0.62340000  0.50000000  1.0 2.4760904364
Zr  Zr8  1  0.45268000  0.37660000  0.50000000  1.0 2.4760904364
Zr  Zr9  1  0.00000000  0.00000000  0.07352000  1.0 2.3689081721
Zr  Zr10  1  0.50000000  0.50000000  0.42648000  1.0 2.3637979083
Zr  Zr11  1  0.00000000  0.00000000  0.92648000  1.0 2.3689081721
Zr  Zr12  1  0.50000000  0.50000000  0.57352000  1.0 2.3637979083
H  H1  1  0.96500000  0.14510000  0.17490000  1.0 0.1197017749
H  H2  1  0.95200000  0.22890000  0.22640000  1.0 0.1197017749
H  H3  1  0.01900000  0.43450000  0.16600000  1.0 0.1130113049
H  H4  1  0.04780000  0.36580000  0.18680000  1.0 0.1291880536
H  H5  1  0.07410000  0.44030000  0.20110000  1.0 0.1291880536
H  H6  1  0.90780000  0.28490000  0.09340000  1.0 0.1039755546
H  H7  1  0.89390000  0.37080000  0.14080000  1.0 0.1291880536
H  H8  1  0.81970000  0.27870000  0.22830000  1.0 0.0106329387
H  H9  1  0.81220000  0.28610000  0.27510000  1.0 0.0106329387
H  H10  1  0.76560000  0.33270000  0.24660000  1.0 0.0187314179
H  H11  1  0.03500000  0.85490000  0.17490000  1.0 0.1197017749
H  H12  1  0.04800000  0.77110000  0.22640000  1.0 0.1197017749
H  H13  1  0.98100000  0.56550000  0.16600000  1.0 0.1130113049
H  H14  1  0.95220000  0.63420000  0.18680000  1.0 0.1291880536
H  H15  1  0.92590000  0.55970000  0.20110000  1.0 0.1291880536
H  H16  1  0.09220000  0.71510000  0.09340000  1.0 0.1039755546
H  H17  1  0.10610000  0.62920000  0.14080000  1.0 0.1291880536
H  H18  1  0.18030000  0.72130000  0.22830000  1.0 0.0106329387
H  H19  1  0.18780000  0.71390000  0.27510000  1.0 0.0106329387
H  H20  1  0.23440000  0.66730000  0.24660000  1.0 0.0187314179
H  H21  1  0.85490000  0.96500000  0.17490000  1.0 0.1197017749
H  H22  1  0.77110000  0.95200000  0.22640000  1.0 0.1197017749
H  H23  1  0.56550000  0.01900000  0.16600000  1.0 0.1130113049
H  H24  1  0.63420000  0.04780000  0.18680000  1.0 0.1291880536
H  H25  1  0.55970000  0.07410000  0.20110000  1.0 0.1291880536
H  H26  1  0.71510000  0.90780000  0.09340000  1.0 0.1039755546
H  H27  1  0.62920000  0.89390000  0.14080000  1.0 0.1291880536
H  H28  1  0.72130000  0.81970000  0.22830000  1.0 0.0106329387
H  H29  1  0.71390000  0.81220000  0.27510000  1.0 0.0106329387
H  H30  1  0.66730000  0.76560000  0.24660000  1.0 0.0187314179
H  H31  1  0.14510000  0.03500000  0.17490000  1.0 0.1197017749
H  H32  1  0.22890000  0.04800000  0.22640000  1.0 0.1197017749
H  H33  1  0.43450000  0.98100000  0.16600000  1.0 0.1130113049
H  H34  1  0.36580000  0.95220000  0.18680000  1.0 0.1291880536
H  H35  1  0.44030000  0.92590000  0.20110000  1.0 0.1291880536
H  H36  1  0.28490000  0.09220000  0.09340000  1.0 0.1039755546
H  H37  1  0.37080000  0.10610000  0.14080000  1.0 0.1291880536
H  H38  1  0.27870000  0.18030000  0.22830000  1.0 0.0106329387
H  H39  1  0.28610000  0.18780000  0.27510000  1.0 0.0106329387
H  H40  1  0.33270000  0.23440000  0.24660000  1.0 0.0187314179
H  H41  1  0.53500000  0.64510000  0.32510000  1.0 0.1197017749
H  H42  1  0.54800000  0.72890000  0.27360000  1.0 0.1197017749
H  H43  1  0.48100000  0.93450000  0.33400000  1.0 0.1130113049
H  H44  1  0.45220000  0.86580000  0.31320000  1.0 0.1291880536
H  H45  1  0.42590000  0.94030000  0.29890000  1.0 0.1291880536
H  H46  1  0.59220000  0.78490000  0.40660000  1.0 0.1039755546
H  H47  1  0.60610000  0.87080000  0.35920000  1.0 0.1291880536
H  H48  1  0.68030000  0.77870000  0.27170000  1.0 0.0106329387
H  H49  1  0.68780000  0.78610000  0.22490000  1.0 0.0106329387
H  H50  1  0.73440000  0.83270000  0.25340000  1.0 0.0187314179
H  H51  1  0.46500000  0.35490000  0.32510000  1.0 0.1197017749
H  H52  1  0.45200000  0.27110000  0.27360000  1.0 0.1197017749
H  H53  1  0.51900000  0.06550000  0.33400000  1.0 0.1130113049
H  H54  1  0.54780000  0.13420000  0.31320000  1.0 0.1291880536
H  H55  1  0.57410000  0.05970000  0.29890000  1.0 0.1291880536
H  H56  1  0.40780000  0.21510000  0.40660000  1.0 0.1039755546
H  H57  1  0.39390000  0.12920000  0.35920000  1.0 0.1291880536
H  H58  1  0.31970000  0.22130000  0.27170000  1.0 0.0106329387
H  H59  1  0.31220000  0.21390000  0.22490000  1.0 0.0106329387
H  H60  1  0.26560000  0.16730000  0.25340000  1.0 0.0187314179
H  H61  1  0.64510000  0.46500000  0.32510000  1.0 0.1197017749
H  H62  1  0.72890000  0.45200000  0.27360000  1.0 0.1197017749
H  H63  1  0.93450000  0.51900000  0.33400000  1.0 0.1130113049
H  H64  1  0.86580000  0.54780000  0.31320000  1.0 0.1291880536
H  H65  1  0.94030000  0.57410000  0.29890000  1.0 0.1291880536
H  H66  1  0.78490000  0.40780000  0.40660000  1.0 0.1039755546
H  H67  1  0.87080000  0.39390000  0.35920000  1.0 0.1291880536
H  H68  1  0.77870000  0.31970000  0.27170000  1.0 0.0106329387
H  H69  1  0.78610000  0.31220000  0.22490000  1.0 0.0187314179
H  H70  1  0.83270000  0.26560000  0.25340000  1.0 0.0187314179
H  H71  1  0.35490000  0.53500000  0.32510000  1.0 0.1197017749
H  H72  1  0.27110000  0.54800000  0.27360000  1.0 0.1197017749
H  H73  1  0.06550000  0.48100000  0.33400000  1.0 0.1130113049
H  H74  1  0.13420000  0.45220000  0.31320000  1.0 0.1291880536
H  H75  1  0.05970000  0.42590000  0.29890000  1.0 0.1291880536
H  H76  1  0.21510000  0.59220000  0.40660000  1.0 0.1039755546
H  H77  1  0.12920000  0.60610000  0.35920000  1.0 0.1291880536
H  H78  1  0.22130000  0.68030000  0.27170000  1.0 0.0106329387
H  H79  1  0.21390000  0.68780000  0.22490000  1.0 0.0106329387
H  H80  1  0.16730000  0.73440000  0.25340000  1.0 0.0187314179
H  H81  1  0.03500000  0.85490000  0.82510000  1.0 0.1197017749
H  H82  1  0.04800000  0.77110000  0.77360000  1.0 0.1197017749
H  H83  1  0.98100000  0.56550000  0.83400000  1.0 0.1130113049
H  H84  1  0.95220000  0.63420000  0.81320000  1.0 0.1291880536
H  H85  1  0.92590000  0.55970000  0.79890000  1.0 0.1291880536
H  H86  1  0.09220000  0.71510000  0.90660000  1.0 0.1039755546
H  H87  1  0.10610000  0.62920000  0.85920000  1.0 0.1291880536
H  H88  1  0.18030000  0.72130000  0.77170000  1.0 0.0106329387
H  H89  1  0.18780000  0.71390000  0.72490000  1.0 0.0106329387
H  H90  1  0.23440000  0.66730000  0.75340000  1.0 0.0187314179
H  H91  1  0.96500000  0.14510000  0.82510000  1.0 0.1197017749
H  H92  1  0.95200000  0.22890000  0.77360000  1.0 0.1197017749
H  H93  1  0.01900000  0.43450000  0.83400000  1.0 0.1130113049
H  H94  1  0.04780000  0.36580000  0.81320000  1.0 0.1291880536
H  H95  1  0.07410000  0.44030000  0.79890000  1.0 0.1291880536
H  H96  1  0.90780000  0.28490000  0.90660000  1.0 0.1039755546
H  H97  1  0.89390000  0.37080000  0.85920000  1.0 0.1291880536
H  H98  1  0.81970000  0.27870000  0.77170000  1.0 0.0106329387
H  H99  1  0.81220000  0.28610000  0.72490000  1.0 0.0106329387
H  H100  1  0.76560000  0.33270000  0.75340000  1.0 0.0187314179
H  H101  1  0.14510000  0.03500000  0.82510000  1.0 0.1197017749
H  H102  1  0.22890000  0.04800000  0.77360000  1.0 0.1197017749
H  H103  1  0.43450000  0.98100000  0.83400000  1.0 0.1130113049
H  H104  1  0.36580000  0.95220000  0.81320000  1.0 0.1291880536
H  H105  1  0.44030000  0.92590000  0.79890000  1.0 0.1291880536
H  H106  1  0.28490000  0.09220000  0.90660000  1.0 0.1039755546
H  H107  1  0.37080000  0.10610000  0.85920000  1.0 0.1291880536
H  H108  1  0.27870000  0.18030000  0.77170000  1.0 0.0106329387
H  H109  1  0.28610000  0.18780000  0.72490000  1.0 0.0106329387
H  H110  1  0.33270000  0.23440000  0.75340000  1.0 0.0187314179
H  H111  1  0.85490000  0.96500000  0.82510000  1.0 0.1197017749
H  H112  1  0.77110000  0.95200000  0.77360000  1.0 0.1197017749
H  H113  1  0.56550000  0.01900000  0.83400000  1.0 0.1130113049
H  H114  1  0.63420000  0.04780000  0.81320000  1.0 0.1291880536
H  H115  1  0.55970000  0.07410000  0.79890000  1.0 0.1291880536
H  H116  1  0.71510000  0.90780000  0.90660000  1.0 0.1039755546
H  H117  1  0.62920000  0.89390000  0.85920000  1.0 0.1291880536
H  H118  1  0.72130000  0.81970000  0.77170000  1.0 0.0106329387
H  H119  1  0.71390000  0.81220000  0.72490000  1.0 0.0106329387
H  H120  1  0.66730000  0.76560000  0.75340000  1.0 0.0187314179
H  H121  1  0.46500000  0.35490000  0.67490000  1.0 0.1197017749
H  H122  1  0.45200000  0.27110000  0.72640000  1.0 0.1197017749
H  H123  1  0.51900000  0.06550000  0.66600000  1.0 0.1130113049
H  H124  1  0.54780000  0.13420000  0.68680000  1.0 0.1291880536
H  H125  1  0.57410000  0.05970000  0.70110000  1.0 0.1291880536
H  H126  1  0.40780000  0.21510000  0.59340000  1.0 0.1039755546
H  H127  1  0.39390000  0.12920000  0.64080000  1.0 0.1291880536
H  H128  1  0.31970000  0.22130000  0.72830000  1.0 0.0106329387
H  H129  1  0.31220000  0.21390000  0.77510000  1.0 0.0106329387
H  H130  1  0.26560000  0.16730000  0.74660000  1.0 0.0187314179
H  H131  1  0.53500000  0.64510000  0.67490000  1.0 0.1197017749
H  H132  1  0.54800000  0.72890000  0.72640000  1.0 0.1197017749
H  H133  1  0.48100000  0.93450000  0.66600000  1.0 0.1130113049
H  H134  1  0.45220000  0.86580000  0.68680000  1.0 0.1291880536
H  H135  1  0.42590000  0.94030000  0.70110000  1.0 0.1291880536
H  H136  1  0.59220000  0.78490000  0.59340000  1.0 0.1039755546
H  H137  1  0.60610000  0.87080000  0.64080000  1.0 0.1291880536
H  H138  1  0.68030000  0.77870000  0.72830000  1.0 0.0106329387
H  H139  1  0.68780000  0.78610000  0.77510000  1.0 0.0106329387
H  H140  1  0.73440000  0.83270000  0.74660000  1.0 0.025364244
H  H141  1  0.35490000  0.53500000  0.67490000  1.0 0.1197017749
H  H142  1  0.27110000  0.54800000  0.72640000  1.0 0.1197017749
H  H143  1  0.06550000  0.48100000  0.66600000  1.0 0.1130113049
H  H144  1  0.13420000  0.45220000  0.68680000  1.0 0.1291880536
H  H145  1  0.05970000  0.42590000  0.70110000  1.0 0.1291880536
H  H146  1  0.21510000  0.59220000  0.59340000  1.0 0.1039755546
H  H147  1  0.12920000  0.60610000  0.64080000  1.0 0.1291880536
H  H148  1  0.22130000  0.68030000  0.72830000  1.0 0.0106329387
H  H149  1  0.21390000  0.68780000  0.77510000  1.0 0.0106329387
H  H150  1  0.16730000  0.73440000  0.74660000  1.0 0.0187314179
H  H151  1  0.64510000  0.46500000  0.67490000  1.0 0.1197017749
H  H152  1  0.72890000  0.45200000  0.72640000  1.0 0.1197017749
H  H153  1  0.93450000  0.51900000  0.66600000  1.0 0.1130113049
H  H154  1  0.86580000  0.54780000  0.68680000  1.0 0.1291880536
H  H155  1  0.94030000  0.57410000  0.70110000  1.0 0.1291880536
H  H156  1  0.78490000  0.40780000  0.59340000  1.0 0.1039755546
H  H157  1  0.87080000  0.39390000  0.64080000  1.0 0.1291880536
H  H158  1  0.77870000  0.31970000  0.72830000  1.0 0.0106329387
H  H159  1  0.78610000  0.31220000  0.77510000  1.0 0.0106329387
H  H160  1  0.83270000  0.26560000  0.74660000  1.0 0.025364244
C  C1  1  0.97460000  0.41730000  0.22120000  1.0 0.0495487448
C  C2  1  0.95020000  0.19070000  0.16860000  1.0 -0.1034666709
C  C3  1  0.93980000  0.15250000  0.09770000  1.0 0.6428230383
C  C4  1  0.94310000  0.24090000  0.19970000  1.0 -0.0803203349
C  C5  1  0.92080000  0.36670000  0.22140000  1.0 -0.0583416949
C  C6  1  0.03430000  0.41420000  0.19100000  1.0 -0.4231413811
C  C7  1  0.93570000  0.20730000  0.12960000  1.0 -0.0500127016
C  C8  1  0.92120000  0.31310000  0.18840000  1.0 0.0660235189
C  C9  1  0.91620000  0.27380000  0.12020000  1.0 -0.0803203349
C  C10  1  0.90830000  0.32590000  0.14870000  1.0 -0.1492628617
C  C11  1  0.02540000  0.58270000  0.22120000  1.0 0.0495487448
C  C12  1  0.04980000  0.80930000  0.16860000  1.0 -0.1034666709
C  C13  1  0.06020000  0.84750000  0.09770000  1.0 0.6428230383
C  C14  1  0.05690000  0.75910000  0.19970000  1.0 -0.0803203349
C  C15  1  0.07920000  0.63330000  0.22140000  1.0 -0.0583416949
C  C16  1  0.96570000  0.58580000  0.19100000  1.0 -0.4231413811
C  C17  1  0.06430000  0.79270000  0.12960000  1.0 -0.0500127016
C  C18  1  0.07880000  0.68690000  0.18840000  1.0 0.0660235189
C  C19  1  0.08380000  0.72620000  0.12020000  1.0 -0.0803203349
C  C20  1  0.09170000  0.67410000  0.14870000  1.0 -0.1492628617
C  C21  1  0.58270000  0.97460000  0.22120000  1.0 0.0495487448
C  C22  1  0.80930000  0.95020000  0.16860000  1.0 -0.1034666709
C  C23  1  0.84750000  0.93980000  0.09770000  1.0 0.6428230383
C  C24  1  0.75910000  0.94310000  0.19970000  1.0 -0.0803203349
C  C25  1  0.63330000  0.92080000  0.22140000  1.0 -0.0583416949
C  C26  1  0.58580000  0.03430000  0.19100000  1.0 -0.4231413811
C  C27  1  0.79270000  0.93570000  0.12960000  1.0 -0.0500127016
C  C28  1  0.68690000  0.92120000  0.18840000  1.0 0.0660235189
C  C29  1  0.72620000  0.91620000  0.12020000  1.0 -0.0803203349
C  C30  1  0.67410000  0.90830000  0.14870000  1.0 -0.1492628617
C  C31  1  0.41730000  0.02540000  0.22120000  1.0 0.0495487448
C  C32  1  0.19070000  0.04980000  0.16860000  1.0 -0.1034666709
C  C33  1  0.15250000  0.06020000  0.09770000  1.0 0.6428230383
C  C34  1  0.24090000  0.05690000  0.19970000  1.0 -0.0803203349
C  C35  1  0.36670000  0.07920000  0.22140000  1.0 -0.0583416949
C  C36  1  0.41420000  0.96570000  0.19100000  1.0 -0.4231413811
C  C37  1  0.20730000  0.06430000  0.12960000  1.0 -0.0500127016
C  C38  1  0.31310000  0.07880000  0.18840000  1.0 0.0660235189
C  C39  1  0.27380000  0.08380000  0.12020000  1.0 -0.0803203349
C  C40  1  0.32590000  0.09170000  0.14870000  1.0 -0.1492628617
C  C41  1  0.52540000  0.91730000  0.27880000  1.0 0.0495487448
C  C42  1  0.54980000  0.69070000  0.33140000  1.0 -0.1034666709
C  C43  1  0.56020000  0.65250000  0.40230000  1.0 0.6428230383
C  C44  1  0.55690000  0.74090000  0.30030000  1.0 -0.0803203349
C  C45  1  0.57920000  0.86670000  0.27860000  1.0 -0.0583416949
C  C46  1  0.46570000  0.91420000  0.30900000  1.0 -0.4231413811
C  C47  1  0.56430000  0.70730000  0.37040000  1.0 -0.0500127016
C  C48  1  0.57880000  0.81310000  0.31160000  1.0 0.0646659759
C  C49  1  0.58380000  0.77380000  0.37980000  1.0 -0.0803203349
C  C50  1  0.59170000  0.82590000  0.35130000  1.0 -0.1492628617
C  C51  1  0.47460000  0.08270000  0.27880000  1.0 0.0495487448
C  C52  1  0.45020000  0.30930000  0.33140000  1.0 -0.1034666709
C  C53  1  0.43980000  0.34750000  0.40230000  1.0 0.6428230383
C  C54  1  0.44310000  0.25910000  0.30030000  1.0 -0.0803203349
C  C55  1  0.42080000  0.13330000  0.27860000  1.0 -0.0583416949
C  C56  1  0.53430000  0.08580000  0.30900000  1.0 -0.4231413811
C  C57  1  0.43570000  0.29270000  0.37040000  1.0 -0.0500127016
C  C58  1  0.42120000  0.18690000  0.31160000  1.0 0.0646659759
C  C59  1  0.41620000  0.22620000  0.37980000  1.0 -0.0803203349
C  C60  1  0.40830000  0.17410000  0.35130000  1.0 -0.1492628617
C  C61  1  0.91730000  0.47460000  0.27880000  1.0 0.0495487448
C  C62  1  0.69070000  0.45020000  0.33140000  1.0 -0.1034666709
C  C63  1  0.65250000  0.43980000  0.40230000  1.0 0.6428230383
C  C64  1  0.74090000  0.44310000  0.30030000  1.0 -0.0803203349
C  C65  1  0.86670000  0.42080000  0.27860000  1.0 -0.0583416949
C  C66  1  0.91420000  0.53430000  0.30900000  1.0 -0.4231413811
C  C67  1  0.70730000  0.43570000  0.37040000  1.0 -0.0500127016
C  C68  1  0.81310000  0.42120000  0.31160000  1.0 0.0646659759
C  C69  1  0.77380000  0.41620000  0.37980000  1.0 -0.0803203349
C  C70  1  0.82590000  0.40830000  0.35130000  1.0 -0.1492628617
C  C71  1  0.08270000  0.52540000  0.27880000  1.0 0.0495487448
C  C72  1  0.30930000  0.54980000  0.33140000  1.0 -0.1034666709
C  C73  1  0.34750000  0.56020000  0.40230000  1.0 0.6428230383
C  C74  1  0.25910000  0.55690000  0.30030000  1.0 -0.0803203349
C  C75  1  0.13330000  0.57920000  0.27860000  1.0 -0.0583416949
C  C76  1  0.08580000  0.46570000  0.30900000  1.0 -0.4231413811
C  C77  1  0.29270000  0.56430000  0.37040000  1.0 -0.0500127016
C  C78  1  0.18690000  0.57880000  0.31160000  1.0 0.0646659759
C  C79  1  0.22620000  0.58380000  0.37980000  1.0 -0.0803203349
C  C80  1  0.17410000  0.59170000  0.35130000  1.0 -0.1492628617
C  C81  1  0.02540000  0.58270000  0.77880000  1.0 0.0495487448
C  C82  1  0.04980000  0.80930000  0.83140000  1.0 -0.1034666709
C  C83  1  0.06020000  0.84750000  0.90230000  1.0 0.6428230383
C  C84  1  0.05690000  0.75910000  0.80030000  1.0 -0.0803203349
C  C85  1  0.07920000  0.63330000  0.77860000  1.0 -0.0583416949
C  C86  1  0.96570000  0.58580000  0.80900000  1.0 -0.4231413811
C  C87  1  0.06430000  0.79270000  0.87040000  1.0 -0.0500127016
C  C88  1  0.07880000  0.68690000  0.81160000  1.0 0.0646659759
C  C89  1  0.08380000  0.72620000  0.87980000  1.0 -0.0803203349
C  C90  1  0.09170000  0.67410000  0.85130000  1.0 -0.1492628617
C  C91  1  0.97460000  0.41730000  0.77880000  1.0 0.0495487448
C  C92  1  0.95020000  0.19070000  0.83140000  1.0 -0.1034666709
C  C93  1  0.93980000  0.15250000  0.90230000  1.0 0.6428230383
C  C94  1  0.94310000  0.24090000  0.80030000  1.0 -0.0803203349
C  C95  1  0.92080000  0.36670000  0.77860000  1.0 -0.0583416949
C  C96  1  0.03430000  0.41420000  0.80900000  1.0 -0.4231413811
C  C97  1  0.93570000  0.20730000  0.87040000  1.0 -0.0500127016
C  C98  1  0.92120000  0.31310000  0.81160000  1.0 0.0646659759
C  C99  1  0.91620000  0.27380000  0.87980000  1.0 -0.0803203349
C  C100  1  0.90830000  0.32590000  0.85130000  1.0 -0.1492628617
C  C101  1  0.41730000  0.02540000  0.77880000  1.0 0.0495487448
C  C102  1  0.19070000  0.04980000  0.83140000  1.0 -0.1034666709
C  C103  1  0.15250000  0.06020000  0.90230000  1.0 0.6428230383
C  C104  1  0.24090000  0.05690000  0.80030000  1.0 -0.0803203349
C  C105  1  0.36670000  0.07920000  0.77860000  1.0 -0.0583416949
C  C106  1  0.41420000  0.96570000  0.80900000  1.0 -0.4231413811
C  C107  1  0.20730000  0.06430000  0.87040000  1.0 -0.0500127016
C  C108  1  0.31310000  0.07880000  0.81160000  1.0 0.0646659759
C  C109  1  0.27380000  0.08380000  0.87980000  1.0 -0.0803203349
C  C110  1  0.32590000  0.09170000  0.85130000  1.0 -0.1492628617
C  C111  1  0.58270000  0.97460000  0.77880000  1.0 0.0495487448
C  C112  1  0.80930000  0.95020000  0.83140000  1.0 -0.1034666709
C  C113  1  0.84750000  0.93980000  0.90230000  1.0 0.6428230383
C  C114  1  0.75910000  0.94310000  0.80030000  1.0 -0.0803203349
C  C115  1  0.63330000  0.92080000  0.77860000  1.0 -0.0583416949
C  C116  1  0.58580000  0.03430000  0.80900000  1.0 -0.4231413811
C  C117  1  0.79270000  0.93570000  0.87040000  1.0 -0.0500127016
C  C118  1  0.68690000  0.92120000  0.81160000  1.0 0.0646659759
C  C119  1  0.72620000  0.91620000  0.87980000  1.0 -0.0803203349
C  C120  1  0.67410000  0.90830000  0.85130000  1.0 -0.1492628617
C  C121  1  0.47460000  0.08270000  0.72120000  1.0 0.0495487448
C  C122  1  0.45020000  0.30930000  0.66860000  1.0 -0.1034666709
C  C123  1  0.43980000  0.34750000  0.59770000  1.0 0.6428230383
C  C124  1  0.44310000  0.25910000  0.69970000  1.0 -0.0803203349
C  C125  1  0.42080000  0.13330000  0.72140000  1.0 -0.0583416949
C  C126  1  0.53430000  0.08580000  0.69100000  1.0 -0.4231413811
C  C127  1  0.43570000  0.29270000  0.62960000  1.0 -0.0500127016
C  C128  1  0.42120000  0.18690000  0.68840000  1.0 0.0646659759
C  C129  1  0.41620000  0.22620000  0.62020000  1.0 -0.0803203349
C  C130  1  0.40830000  0.17410000  0.64870000  1.0 -0.1492628617
C  C131  1  0.52540000  0.91730000  0.72120000  1.0 0.0495487448
C  C132  1  0.54980000  0.69070000  0.66860000  1.0 -0.1034666709
C  C133  1  0.56020000  0.65250000  0.59770000  1.0 0.6428230383
C  C134  1  0.55690000  0.74090000  0.69970000  1.0 -0.0803203349
C  C135  1  0.57920000  0.86670000  0.72140000  1.0 -0.0583416949
C  C136  1  0.46570000  0.91420000  0.69100000  1.0 -0.4231413811
C  C137  1  0.56430000  0.70730000  0.62960000  1.0 -0.0500127016
C  C138  1  0.57880000  0.81310000  0.68840000  1.0 0.0646659759
C  C139  1  0.58380000  0.77380000  0.62020000  1.0 -0.0803203349
C  C140  1  0.59170000  0.82590000  0.64870000  1.0 -0.1492628617
C  C141  1  0.08270000  0.52540000  0.72120000  1.0 0.0495487448
C  C142  1  0.30930000  0.54980000  0.66860000  1.0 -0.1034666709
C  C143  1  0.34750000  0.56020000  0.59770000  1.0 0.6428230383
C  C144  1  0.25910000  0.55690000  0.69970000  1.0 -0.0803203349
C  C145  1  0.13330000  0.57920000  0.72140000  1.0 -0.0583416949
C  C146  1  0.08580000  0.46570000  0.69100000  1.0 -0.4231413811
C  C147  1  0.29270000  0.56430000  0.62960000  1.0 -0.0500127016
C  C148  1  0.18690000  0.57880000  0.68840000  1.0 0.0646659759
C  C149  1  0.22620000  0.58380000  0.62020000  1.0 -0.0803203349
C  C150  1  0.17410000  0.59170000  0.64870000  1.0 -0.1492628617
C  C151  1  0.91730000  0.47460000  0.72120000  1.0 0.0495487448
C  C152  1  0.69070000  0.45020000  0.66860000  1.0 -0.1034666709
C  C153  1  0.65250000  0.43980000  0.59770000  1.0 0.6428230383
C  C154  1  0.74090000  0.44310000  0.69970000  1.0 -0.0803203349
C  C155  1  0.86670000  0.42080000  0.72140000  1.0 -0.0583416949
C  C156  1  0.91420000  0.53430000  0.69100000  1.0 -0.4231413811
C  C157  1  0.70730000  0.43570000  0.62960000  1.0 -0.0500127016
C  C158  1  0.81310000  0.42120000  0.68840000  1.0 0.0646659759
C  C159  1  0.77380000  0.41620000  0.62020000  1.0 -0.0803203349
C  C160  1  0.82590000  0.40830000  0.64870000  1.0 -0.1492628617
C  C161  1  0.97090000  0.47090000  0.25000000  1.0 -0.0129165809
C  C162  1  0.86730000  0.36730000  0.25000000  1.0 -0.0322358901
C  C163  1  0.81110000  0.31110000  0.25000000  1.0 -0.1676897466
C  C164  1  0.02910000  0.52910000  0.25000000  1.0 -0.0129165809
C  C165  1  0.13270000  0.63270000  0.25000000  1.0 -0.0322358901
C  C166  1  0.18890000  0.68890000  0.25000000  1.0 -0.1676897466
C  C167  1  0.52910000  0.97090000  0.25000000  1.0 -0.0129165809
C  C168  1  0.63270000  0.86730000  0.25000000  1.0 -0.0322358901
C  C169  1  0.68890000  0.81110000  0.25000000  1.0 -0.1676897466
C  C170  1  0.47090000  0.02910000  0.25000000  1.0 -0.0129165809
C  C171  1  0.36730000  0.13270000  0.25000000  1.0 -0.0322358901
C  C172  1  0.31110000  0.18890000  0.25000000  1.0 -0.1676897466
C  C173  1  0.02910000  0.52910000  0.75000000  1.0 -0.0129165809
C  C174  1  0.13270000  0.63270000  0.75000000  1.0 -0.0322358901
C  C175  1  0.18890000  0.68890000  0.75000000  1.0 -0.1676897466
C  C176  1  0.97090000  0.47090000  0.75000000  1.0 -0.0129165809
C  C177  1  0.86730000  0.36730000  0.75000000  1.0 -0.0322358901
C  C178  1  0.81110000  0.31110000  0.75000000  1.0 -0.1676897466
C  C179  1  0.47090000  0.02910000  0.75000000  1.0 -0.0129165809
C  C180  1  0.36730000  0.13270000  0.75000000  1.0 -0.0322358901
C  C181  1  0.31110000  0.18890000  0.75000000  1.0 -0.1676897466
C  C182  1  0.52910000  0.97090000  0.75000000  1.0 -0.0129165809
C  C183  1  0.63270000  0.86730000  0.75000000  1.0 -0.0322358901
C  C184  1  0.68890000  0.81110000  0.75000000  1.0 -0.1676897466
O  O1  1  0.96700000  0.09190000  0.10745000  1.0 -0.5956846722
O  O2  1  0.93460000  0.17430000  0.06036000  1.0 -0.6436050705
O  O3  1  0.03820000  0.08630000  0.03571000  1.0 -1.1817209147
O  O4  1  0.03300000  0.90810000  0.10745000  1.0 -0.5956846722
O  O5  1  0.06540000  0.82570000  0.06036000  1.0 -0.6436050705
O  O6  1  0.96180000  0.91370000  0.03571000  1.0 -1.1817209147
O  O7  1  0.90810000  0.96700000  0.10745000  1.0 -0.5956846722
O  O8  1  0.82570000  0.93460000  0.06036000  1.0 -0.6436050705
O  O9  1  0.91370000  0.03820000  0.03571000  1.0 -1.1817209147
O  O10  1  0.09190000  0.03300000  0.10745000  1.0 -0.5956846722
O  O11  1  0.17430000  0.06540000  0.06036000  1.0 -0.6436050705
O  O12  1  0.08630000  0.96180000  0.03571000  1.0 -1.1817209147
O  O13  1  0.53300000  0.59190000  0.39255000  1.0 -0.5956846722
O  O14  1  0.56540000  0.67430000  0.43964000  1.0 -0.6436050705
O  O15  1  0.46180000  0.58630000  0.46429000  1.0 -1.1817209147
O  O16  1  0.46700000  0.40810000  0.39255000  1.0 -0.5956846722
O  O17  1  0.43460000  0.32570000  0.43964000  1.0 -0.6436050705
O  O18  1  0.53820000  0.41370000  0.46429000  1.0 -1.1817209147
O  O19  1  0.59190000  0.46700000  0.39255000  1.0 -0.5956846722
O  O20  1  0.67430000  0.43460000  0.43964000  1.0 -0.6436050705
O  O21  1  0.58630000  0.53820000  0.46429000  1.0 -1.1817209147
O  O22  1  0.40810000  0.53300000  0.39255000  1.0 -0.5956846722
O  O23  1  0.32570000  0.56540000  0.43964000  1.0 -0.6436050705
O  O24  1  0.41370000  0.46180000  0.46429000  1.0 -1.1817209147
O  O25  1  0.03300000  0.90810000  0.89255000  1.0 -0.5956846722
O  O26  1  0.06540000  0.82570000  0.93964000  1.0 -0.6436050705
O  O27  1  0.96180000  0.91370000  0.96429000  1.0 -1.1817209147
O  O28  1  0.96700000  0.09190000  0.89255000  1.0 -0.5956846722
O  O29  1  0.93460000  0.17430000  0.93964000  1.0 -0.6436050705
O  O30  1  0.03820000  0.08630000  0.96429000  1.0 -1.1817209147
O  O31  1  0.09190000  0.03300000  0.89255000  1.0 -0.5956846722
O  O32  1  0.17430000  0.06540000  0.93964000  1.0 -0.6436050705
O  O33  1  0.08630000  0.96180000  0.96429000  1.0 -1.1817209147
O  O34  1  0.90810000  0.96700000  0.89255000  1.0 -0.5956846722
O  O35  1  0.82570000  0.93460000  0.93964000  1.0 -0.6436050705
O  O36  1  0.91370000  0.03820000  0.96429000  1.0 -1.1817209147
O  O37  1  0.46700000  0.40810000  0.60745000  1.0 -0.5956846722
O  O38  1  0.43460000  0.32570000  0.56036000  1.0 -0.6436050705
O  O39  1  0.53820000  0.41370000  0.53571000  1.0 -1.1817209147
O  O40  1  0.53300000  0.59190000  0.60745000  1.0 -0.5956846722
O  O41  1  0.56540000  0.67430000  0.56036000  1.0 -0.6436050705
O  O42  1  0.46180000  0.58630000  0.53571000  1.0 -1.1817209147
O  O43  1  0.40810000  0.53300000  0.60745000  1.0 -0.5956846722
O  O44  1  0.32570000  0.56540000  0.56036000  1.0 -0.6436050705
O  O45  1  0.41370000  0.46180000  0.53571000  1.0 -1.1817209147
O  O46  1  0.59190000  0.46700000  0.60745000  1.0 -0.5956846722
O  O47  1  0.67430000  0.43460000  0.56036000  1.0 -0.6436050705
O  O48  1  0.58630000  0.53820000  0.53571000  1.0 -1.1817209147
