# DDEC6 charges by PACMAN v1.1 (https://github.com/mtap-research/PACMAN-charge/)
data_NEVSUF09_ASR_pacman
_symmetry_space_group_name_H-M   'P 1'
_cell_length_a   19.03700000
_cell_length_b   19.03700000
_cell_length_c   33.15900000
_cell_angle_alpha   90.00000000
_cell_angle_beta   90.00000000
_cell_angle_gamma   90.00000000
_symmetry_Int_Tables_number   1
_chemical_formula_structural   Zr3H40(C23O6)2
_chemical_formula_sum   'Zr12 H160 C184 O48'
_cell_volume   12017.06594867
_cell_formula_units_Z   4
loop_
 _symmetry_equiv_pos_site_id
 _symmetry_equiv_pos_as_xyz
  1  'x, y, z'
loop_
 _atom_site_type_symbol
 _atom_site_label
 _atom_site_symmetry_multiplicity
 _atom_site_fract_x
 _atom_site_fract_y
 _atom_site_fract_z
 _atom_site_occupancy
 _atom_site_charge
Zr  Zr1  1  0.12389000  0.04540000  0.00000000  1.0 2.5009843089
Zr  Zr2  1  0.87611000  0.95460000  0.00000000  1.0 2.5009843089
Zr  Zr3  1  0.95460000  0.12389000  0.00000000  1.0 2.5009843089
Zr  Zr4  1  0.04540000  0.87611000  0.00000000  1.0 2.5009843089
Zr  Zr5  1  0.37611000  0.54540000  0.50000000  1.0 2.4935979225
Zr  Zr6  1  0.62389000  0.45460000  0.50000000  1.0 2.4935979225
Zr  Zr7  1  0.54540000  0.62389000  0.50000000  1.0 2.4935979225
Zr  Zr8  1  0.45460000  0.37611000  0.50000000  1.0 2.4935979225
Zr  Zr9  1  0.00000000  0.00000000  0.07351000  1.0 2.4083844997
Zr  Zr10  1  0.50000000  0.50000000  0.42649000  1.0 2.4009887554
Zr  Zr11  1  0.00000000  0.00000000  0.92649000  1.0 2.4083844997
Zr  Zr12  1  0.50000000  0.50000000  0.57351000  1.0 2.4009887554
H  H1  1  0.97720000  0.14930000  0.17540000  1.0 0.1210100902
H  H2  1  0.96780000  0.23040000  0.22880000  1.0 0.1311963532
H  H3  1  0.06380000  0.45230000  0.19470000  1.0 0.1311963532
H  H4  1  0.05590000  0.37050000  0.19220000  1.0 0.1311963532
H  H5  1  0.01090000  0.41880000  0.16400000  1.0 0.1210100902
H  H6  1  0.89840000  0.28560000  0.09160000  1.0 0.1091364367
H  H7  1  0.88380000  0.36370000  0.14650000  1.0 0.1210100902
H  H8  1  0.82220000  0.28110000  0.22840000  1.0 0.0216161055
H  H9  1  0.81440000  0.28890000  0.27530000  1.0 0.0216161055
H  H10  1  0.76840000  0.33500000  0.24630000  1.0 0.0281011785
H  H11  1  0.02280000  0.85070000  0.17540000  1.0 0.1210100902
H  H12  1  0.03220000  0.76960000  0.22880000  1.0 0.1311963532
H  H13  1  0.93620000  0.54770000  0.19470000  1.0 0.1311963532
H  H14  1  0.94410000  0.62950000  0.19220000  1.0 0.1311963532
H  H15  1  0.98910000  0.58120000  0.16400000  1.0 0.1210100902
H  H16  1  0.10160000  0.71440000  0.09160000  1.0 0.1091364367
H  H17  1  0.11620000  0.63630000  0.14650000  1.0 0.1210100902
H  H18  1  0.17780000  0.71890000  0.22840000  1.0 0.0216161055
H  H19  1  0.18560000  0.71110000  0.27530000  1.0 0.0216161055
H  H20  1  0.23160000  0.66500000  0.24630000  1.0 0.0281011785
H  H21  1  0.85070000  0.97720000  0.17540000  1.0 0.1210100902
H  H22  1  0.76960000  0.96780000  0.22880000  1.0 0.1311963532
H  H23  1  0.54770000  0.06380000  0.19470000  1.0 0.1311963532
H  H24  1  0.62950000  0.05590000  0.19220000  1.0 0.1311963532
H  H25  1  0.58120000  0.01090000  0.16400000  1.0 0.1210100902
H  H26  1  0.71440000  0.89840000  0.09160000  1.0 0.1091364367
H  H27  1  0.63630000  0.88380000  0.14650000  1.0 0.1210100902
H  H28  1  0.71890000  0.82220000  0.22840000  1.0 0.0216161055
H  H29  1  0.71110000  0.81440000  0.27530000  1.0 0.0216161055
H  H30  1  0.66500000  0.76840000  0.24630000  1.0 0.0281011785
H  H31  1  0.14930000  0.02280000  0.17540000  1.0 0.1210100902
H  H32  1  0.23040000  0.03220000  0.22880000  1.0 0.1311963532
H  H33  1  0.45230000  0.93620000  0.19470000  1.0 0.1311963532
H  H34  1  0.37050000  0.94410000  0.19220000  1.0 0.1311963532
H  H35  1  0.41880000  0.98910000  0.16400000  1.0 0.1210100902
H  H36  1  0.28560000  0.10160000  0.09160000  1.0 0.1091364367
H  H37  1  0.36370000  0.11620000  0.14650000  1.0 0.1210100902
H  H38  1  0.28110000  0.17780000  0.22840000  1.0 0.0216161055
H  H39  1  0.28890000  0.18560000  0.27530000  1.0 0.0216161055
H  H40  1  0.33500000  0.23160000  0.24630000  1.0 0.0281011785
H  H41  1  0.52280000  0.64930000  0.32460000  1.0 0.1210100902
H  H42  1  0.53220000  0.73040000  0.27120000  1.0 0.1311963532
H  H43  1  0.43620000  0.95230000  0.30530000  1.0 0.1311963532
H  H44  1  0.44410000  0.87050000  0.30780000  1.0 0.1311963532
H  H45  1  0.48910000  0.91880000  0.33600000  1.0 0.1210100902
H  H46  1  0.60160000  0.78560000  0.40840000  1.0 0.1091364367
H  H47  1  0.61620000  0.86370000  0.35350000  1.0 0.1210100902
H  H48  1  0.67780000  0.78110000  0.27160000  1.0 0.0216161055
H  H49  1  0.68560000  0.78890000  0.22470000  1.0 0.0216161055
H  H50  1  0.73160000  0.83500000  0.25370000  1.0 0.0216161055
H  H51  1  0.47720000  0.35070000  0.32460000  1.0 0.1210100902
H  H52  1  0.46780000  0.26960000  0.27120000  1.0 0.1311963532
H  H53  1  0.56380000  0.04770000  0.30530000  1.0 0.1311963532
H  H54  1  0.55590000  0.12950000  0.30780000  1.0 0.1311963532
H  H55  1  0.51090000  0.08120000  0.33600000  1.0 0.1210100902
H  H56  1  0.39840000  0.21440000  0.40840000  1.0 0.1091364367
H  H57  1  0.38380000  0.13630000  0.35350000  1.0 0.1210100902
H  H58  1  0.32220000  0.21890000  0.27160000  1.0 0.0216161055
H  H59  1  0.31440000  0.21110000  0.22470000  1.0 0.0216161055
H  H60  1  0.26840000  0.16500000  0.25370000  1.0 0.0216161055
H  H61  1  0.64930000  0.47720000  0.32460000  1.0 0.1210100902
H  H62  1  0.73040000  0.46780000  0.27120000  1.0 0.1311963532
H  H63  1  0.95230000  0.56380000  0.30530000  1.0 0.1311963532
H  H64  1  0.87050000  0.55590000  0.30780000  1.0 0.1311963532
H  H65  1  0.91880000  0.51090000  0.33600000  1.0 0.1210100902
H  H66  1  0.78560000  0.39840000  0.40840000  1.0 0.1091364367
H  H67  1  0.86370000  0.38380000  0.35350000  1.0 0.1210100902
H  H68  1  0.78110000  0.32220000  0.27160000  1.0 0.0216161055
H  H69  1  0.78890000  0.31440000  0.22470000  1.0 0.0216161055
H  H70  1  0.83500000  0.26840000  0.25370000  1.0 0.0216161055
H  H71  1  0.35070000  0.52280000  0.32460000  1.0 0.1210100902
H  H72  1  0.26960000  0.53220000  0.27120000  1.0 0.1311963532
H  H73  1  0.04770000  0.43620000  0.30530000  1.0 0.1311963532
H  H74  1  0.12950000  0.44410000  0.30780000  1.0 0.1311963532
H  H75  1  0.08120000  0.48910000  0.33600000  1.0 0.1210100902
H  H76  1  0.21440000  0.60160000  0.40840000  1.0 0.1091364367
H  H77  1  0.13630000  0.61620000  0.35350000  1.0 0.1311963532
H  H78  1  0.21890000  0.67780000  0.27160000  1.0 0.0216161055
H  H79  1  0.21110000  0.68560000  0.22470000  1.0 0.0216161055
H  H80  1  0.16500000  0.73160000  0.25370000  1.0 0.0216161055
H  H81  1  0.02280000  0.85070000  0.82460000  1.0 0.1210100902
H  H82  1  0.03220000  0.76960000  0.77120000  1.0 0.1311963532
H  H83  1  0.93620000  0.54770000  0.80530000  1.0 0.1311963532
H  H84  1  0.94410000  0.62950000  0.80780000  1.0 0.1311963532
H  H85  1  0.98910000  0.58120000  0.83600000  1.0 0.1210100902
H  H86  1  0.10160000  0.71440000  0.90840000  1.0 0.1091364367
H  H87  1  0.11620000  0.63630000  0.85350000  1.0 0.1210100902
H  H88  1  0.17780000  0.71890000  0.77160000  1.0 0.0216161055
H  H89  1  0.18560000  0.71110000  0.72470000  1.0 0.0216161055
H  H90  1  0.23160000  0.66500000  0.75370000  1.0 0.0216161055
H  H91  1  0.97720000  0.14930000  0.82460000  1.0 0.1210100902
H  H92  1  0.96780000  0.23040000  0.77120000  1.0 0.1311963532
H  H93  1  0.06380000  0.45230000  0.80530000  1.0 0.1311963532
H  H94  1  0.05590000  0.37050000  0.80780000  1.0 0.1311963532
H  H95  1  0.01090000  0.41880000  0.83600000  1.0 0.1210100902
H  H96  1  0.89840000  0.28560000  0.90840000  1.0 0.1091364367
H  H97  1  0.88380000  0.36370000  0.85350000  1.0 0.1210100902
H  H98  1  0.82220000  0.28110000  0.77160000  1.0 0.0216161055
H  H99  1  0.81440000  0.28890000  0.72470000  1.0 0.0216161055
H  H100  1  0.76840000  0.33500000  0.75370000  1.0 0.0216161055
H  H101  1  0.14930000  0.02280000  0.82460000  1.0 0.1210100902
H  H102  1  0.23040000  0.03220000  0.77120000  1.0 0.1311963532
H  H103  1  0.45230000  0.93620000  0.80530000  1.0 0.1311963532
H  H104  1  0.37050000  0.94410000  0.80780000  1.0 0.1311963532
H  H105  1  0.41880000  0.98910000  0.83600000  1.0 0.1210100902
H  H106  1  0.28560000  0.10160000  0.90840000  1.0 0.1091364367
H  H107  1  0.36370000  0.11620000  0.85350000  1.0 0.1210100902
H  H108  1  0.28110000  0.17780000  0.77160000  1.0 0.0216161055
H  H109  1  0.28890000  0.18560000  0.72470000  1.0 0.0216161055
H  H110  1  0.33500000  0.23160000  0.75370000  1.0 0.0216161055
H  H111  1  0.85070000  0.97720000  0.82460000  1.0 0.1210100902
H  H112  1  0.76960000  0.96780000  0.77120000  1.0 0.1311963532
H  H113  1  0.54770000  0.06380000  0.80530000  1.0 0.1311963532
H  H114  1  0.62950000  0.05590000  0.80780000  1.0 0.1311963532
H  H115  1  0.58120000  0.01090000  0.83600000  1.0 0.1210100902
H  H116  1  0.71440000  0.89840000  0.90840000  1.0 0.1091364367
H  H117  1  0.63630000  0.88380000  0.85350000  1.0 0.1210100902
H  H118  1  0.71890000  0.82220000  0.77160000  1.0 0.0216161055
H  H119  1  0.71110000  0.81440000  0.72470000  1.0 0.0216161055
H  H120  1  0.66500000  0.76840000  0.75370000  1.0 0.0216161055
H  H121  1  0.47720000  0.35070000  0.67540000  1.0 0.1210100902
H  H122  1  0.46780000  0.26960000  0.72880000  1.0 0.1311963532
H  H123  1  0.56380000  0.04770000  0.69470000  1.0 0.1311963532
H  H124  1  0.55590000  0.12950000  0.69220000  1.0 0.1311963532
H  H125  1  0.51090000  0.08120000  0.66400000  1.0 0.1210100902
H  H126  1  0.39840000  0.21440000  0.59160000  1.0 0.1091364367
H  H127  1  0.38380000  0.13630000  0.64650000  1.0 0.1210100902
H  H128  1  0.32220000  0.21890000  0.72840000  1.0 0.0216161055
H  H129  1  0.31440000  0.21110000  0.77530000  1.0 0.0216161055
H  H130  1  0.26840000  0.16500000  0.74630000  1.0 0.0281011785
H  H131  1  0.52280000  0.64930000  0.67540000  1.0 0.1210100902
H  H132  1  0.53220000  0.73040000  0.72880000  1.0 0.1311963532
H  H133  1  0.43620000  0.95230000  0.69470000  1.0 0.1311963532
H  H134  1  0.44410000  0.87050000  0.69220000  1.0 0.1311963532
H  H135  1  0.48910000  0.91880000  0.66400000  1.0 0.1210100902
H  H136  1  0.60160000  0.78560000  0.59160000  1.0 0.1091364367
H  H137  1  0.61620000  0.86370000  0.64650000  1.0 0.1210100902
H  H138  1  0.67780000  0.78110000  0.72840000  1.0 0.0216161055
H  H139  1  0.68560000  0.78890000  0.77530000  1.0 0.0216161055
H  H140  1  0.73160000  0.83500000  0.74630000  1.0 0.0281011785
H  H141  1  0.35070000  0.52280000  0.67540000  1.0 0.1210100902
H  H142  1  0.26960000  0.53220000  0.72880000  1.0 0.1311963532
H  H143  1  0.04770000  0.43620000  0.69470000  1.0 0.1311963532
H  H144  1  0.12950000  0.44410000  0.69220000  1.0 0.1311963532
H  H145  1  0.08120000  0.48910000  0.66400000  1.0 0.1210100902
H  H146  1  0.21440000  0.60160000  0.59160000  1.0 0.1091364367
H  H147  1  0.13630000  0.61620000  0.64650000  1.0 0.1210100902
H  H148  1  0.21890000  0.67780000  0.72840000  1.0 0.0216161055
H  H149  1  0.21110000  0.68560000  0.77530000  1.0 0.0216161055
H  H150  1  0.16500000  0.73160000  0.74630000  1.0 0.0281011785
H  H151  1  0.64930000  0.47720000  0.67540000  1.0 0.1210100902
H  H152  1  0.73040000  0.46780000  0.72880000  1.0 0.1311963532
H  H153  1  0.95230000  0.56380000  0.69470000  1.0 0.1311963532
H  H154  1  0.87050000  0.55590000  0.69220000  1.0 0.1311963532
H  H155  1  0.91880000  0.51090000  0.66400000  1.0 0.1210100902
H  H156  1  0.78560000  0.39840000  0.59160000  1.0 0.1091364367
H  H157  1  0.86370000  0.38380000  0.64650000  1.0 0.1210100902
H  H158  1  0.78110000  0.32220000  0.72840000  1.0 0.0216161055
H  H159  1  0.78890000  0.31440000  0.77530000  1.0 0.0216161055
H  H160  1  0.83500000  0.26840000  0.74630000  1.0 0.0281011785
C  C1  1  0.97410000  0.41690000  0.22190000  1.0 0.0518141854
C  C2  1  0.95870000  0.19380000  0.17060000  1.0 -0.0899261621
C  C3  1  0.94100000  0.15400000  0.09990000  1.0 0.6346620896
C  C4  1  0.95420000  0.24090000  0.20250000  1.0 -0.133809035
C  C5  1  0.92190000  0.36560000  0.22040000  1.0 -0.0311966562
C  C6  1  0.03140000  0.41440000  0.19030000  1.0 -0.4199826665
C  C7  1  0.93660000  0.21040000  0.13170000  1.0 -0.0410804728
C  C8  1  0.92690000  0.30600000  0.19050000  1.0 0.0662515738
C  C9  1  0.91020000  0.27480000  0.11810000  1.0 -0.0974118294
C  C10  1  0.90440000  0.32020000  0.15110000  1.0 -0.1231160418
C  C11  1  0.02590000  0.58310000  0.22190000  1.0 0.0518141854
C  C12  1  0.04130000  0.80620000  0.17060000  1.0 -0.0899261621
C  C13  1  0.05900000  0.84600000  0.09990000  1.0 0.6346620896
C  C14  1  0.04580000  0.75910000  0.20250000  1.0 -0.133809035
C  C15  1  0.07810000  0.63440000  0.22040000  1.0 -0.0311966562
C  C16  1  0.96860000  0.58560000  0.19030000  1.0 -0.4199826665
C  C17  1  0.06340000  0.78960000  0.13170000  1.0 -0.0410804728
C  C18  1  0.07310000  0.69400000  0.19050000  1.0 0.0662515738
C  C19  1  0.08980000  0.72520000  0.11810000  1.0 -0.0974118294
C  C20  1  0.09560000  0.67980000  0.15110000  1.0 -0.1231160418
C  C21  1  0.58310000  0.97410000  0.22190000  1.0 0.0518141854
C  C22  1  0.80620000  0.95870000  0.17060000  1.0 -0.0899261621
C  C23  1  0.84600000  0.94100000  0.09990000  1.0 0.6346620896
C  C24  1  0.75910000  0.95420000  0.20250000  1.0 -0.133809035
C  C25  1  0.63440000  0.92190000  0.22040000  1.0 -0.0311966562
C  C26  1  0.58560000  0.03140000  0.19030000  1.0 -0.4199826665
C  C27  1  0.78960000  0.93660000  0.13170000  1.0 -0.0410804728
C  C28  1  0.69400000  0.92690000  0.19050000  1.0 0.0662515738
C  C29  1  0.72520000  0.91020000  0.11810000  1.0 -0.0974118294
C  C30  1  0.67980000  0.90440000  0.15110000  1.0 -0.1231160418
C  C31  1  0.41690000  0.02590000  0.22190000  1.0 0.0518141854
C  C32  1  0.19380000  0.04130000  0.17060000  1.0 -0.0899261621
C  C33  1  0.15400000  0.05900000  0.09990000  1.0 0.6346620896
C  C34  1  0.24090000  0.04580000  0.20250000  1.0 -0.133809035
C  C35  1  0.36560000  0.07810000  0.22040000  1.0 -0.0311966562
C  C36  1  0.41440000  0.96860000  0.19030000  1.0 -0.4199826665
C  C37  1  0.21040000  0.06340000  0.13170000  1.0 -0.0410804728
C  C38  1  0.30600000  0.07310000  0.19050000  1.0 0.0662515738
C  C39  1  0.27480000  0.08980000  0.11810000  1.0 -0.0974118294
C  C40  1  0.32020000  0.09560000  0.15110000  1.0 -0.1231160418
C  C41  1  0.52590000  0.91690000  0.27810000  1.0 0.0518141854
C  C42  1  0.54130000  0.69380000  0.32940000  1.0 -0.0899261621
C  C43  1  0.55900000  0.65400000  0.40010000  1.0 0.6355187275
C  C44  1  0.54580000  0.74090000  0.29750000  1.0 -0.133809035
C  C45  1  0.57810000  0.86560000  0.27960000  1.0 -0.0311966562
C  C46  1  0.46860000  0.91440000  0.30970000  1.0 -0.4199826665
C  C47  1  0.56340000  0.71040000  0.36830000  1.0 -0.0410804728
C  C48  1  0.57310000  0.80600000  0.30950000  1.0 0.0662515738
C  C49  1  0.58980000  0.77480000  0.38190000  1.0 -0.0974118294
C  C50  1  0.59560000  0.82020000  0.34890000  1.0 -0.1231160418
C  C51  1  0.47410000  0.08310000  0.27810000  1.0 0.0518141854
C  C52  1  0.45870000  0.30620000  0.32940000  1.0 -0.0899261621
C  C53  1  0.44100000  0.34600000  0.40010000  1.0 0.6355187275
C  C54  1  0.45420000  0.25910000  0.29750000  1.0 -0.133809035
C  C55  1  0.42190000  0.13440000  0.27960000  1.0 -0.0311966562
C  C56  1  0.53140000  0.08560000  0.30970000  1.0 -0.4199826665
C  C57  1  0.43660000  0.28960000  0.36830000  1.0 -0.0410804728
C  C58  1  0.42690000  0.19400000  0.30950000  1.0 0.0662515738
C  C59  1  0.41020000  0.22520000  0.38190000  1.0 -0.0974118294
C  C60  1  0.40440000  0.17980000  0.34890000  1.0 -0.1231160418
C  C61  1  0.91690000  0.47410000  0.27810000  1.0 0.0518141854
C  C62  1  0.69380000  0.45870000  0.32940000  1.0 -0.0899261621
C  C63  1  0.65400000  0.44100000  0.40010000  1.0 0.6355187275
C  C64  1  0.74090000  0.45420000  0.29750000  1.0 -0.133809035
C  C65  1  0.86560000  0.42190000  0.27960000  1.0 -0.0311966562
C  C66  1  0.91440000  0.53140000  0.30970000  1.0 -0.4199826665
C  C67  1  0.71040000  0.43660000  0.36830000  1.0 -0.0410804728
C  C68  1  0.80600000  0.42690000  0.30950000  1.0 0.0662515738
C  C69  1  0.77480000  0.41020000  0.38190000  1.0 -0.0974118294
C  C70  1  0.82020000  0.40440000  0.34890000  1.0 -0.1231160418
C  C71  1  0.08310000  0.52590000  0.27810000  1.0 0.0518141854
C  C72  1  0.30620000  0.54130000  0.32940000  1.0 -0.0899261621
C  C73  1  0.34600000  0.55900000  0.40010000  1.0 0.6355187275
C  C74  1  0.25910000  0.54580000  0.29750000  1.0 -0.133809035
C  C75  1  0.13440000  0.57810000  0.27960000  1.0 -0.0311966562
C  C76  1  0.08560000  0.46860000  0.30970000  1.0 -0.4199826665
C  C77  1  0.28960000  0.56340000  0.36830000  1.0 -0.0410804728
C  C78  1  0.19400000  0.57310000  0.30950000  1.0 0.0662515738
C  C79  1  0.22520000  0.58980000  0.38190000  1.0 -0.0974118294
C  C80  1  0.17980000  0.59560000  0.34890000  1.0 -0.1231160418
C  C81  1  0.02590000  0.58310000  0.77810000  1.0 0.0518141854
C  C82  1  0.04130000  0.80620000  0.82940000  1.0 -0.0899261621
C  C83  1  0.05900000  0.84600000  0.90010000  1.0 0.6346620896
C  C84  1  0.04580000  0.75910000  0.79750000  1.0 -0.1357325114
C  C85  1  0.07810000  0.63440000  0.77960000  1.0 -0.0311966562
C  C86  1  0.96860000  0.58560000  0.80970000  1.0 -0.4199826665
C  C87  1  0.06340000  0.78960000  0.86830000  1.0 -0.0410804728
C  C88  1  0.07310000  0.69400000  0.80950000  1.0 0.0662515738
C  C89  1  0.08980000  0.72520000  0.88190000  1.0 -0.0974118294
C  C90  1  0.09560000  0.67980000  0.84890000  1.0 -0.1231160418
C  C91  1  0.97410000  0.41690000  0.77810000  1.0 0.0518141854
C  C92  1  0.95870000  0.19380000  0.82940000  1.0 -0.0899261621
C  C93  1  0.94100000  0.15400000  0.90010000  1.0 0.6346620896
C  C94  1  0.95420000  0.24090000  0.79750000  1.0 -0.1357325114
C  C95  1  0.92190000  0.36560000  0.77960000  1.0 -0.0311966562
C  C96  1  0.03140000  0.41440000  0.80970000  1.0 -0.4199826665
C  C97  1  0.93660000  0.21040000  0.86830000  1.0 -0.0410804728
C  C98  1  0.92690000  0.30600000  0.80950000  1.0 0.0662515738
C  C99  1  0.91020000  0.27480000  0.88190000  1.0 -0.0974118294
C  C100  1  0.90440000  0.32020000  0.84890000  1.0 -0.1231160418
C  C101  1  0.41690000  0.02590000  0.77810000  1.0 0.0518141854
C  C102  1  0.19380000  0.04130000  0.82940000  1.0 -0.0899261621
C  C103  1  0.15400000  0.05900000  0.90010000  1.0 0.6346620896
C  C104  1  0.24090000  0.04580000  0.79750000  1.0 -0.1357325114
C  C105  1  0.36560000  0.07810000  0.77960000  1.0 -0.0311966562
C  C106  1  0.41440000  0.96860000  0.80970000  1.0 -0.4199826665
C  C107  1  0.21040000  0.06340000  0.86830000  1.0 -0.0410804728
C  C108  1  0.30600000  0.07310000  0.80950000  1.0 0.0662515738
C  C109  1  0.27480000  0.08980000  0.88190000  1.0 -0.0974118294
C  C110  1  0.32020000  0.09560000  0.84890000  1.0 -0.1231160418
C  C111  1  0.58310000  0.97410000  0.77810000  1.0 0.0518141854
C  C112  1  0.80620000  0.95870000  0.82940000  1.0 -0.0899261621
C  C113  1  0.84600000  0.94100000  0.90010000  1.0 0.6346620896
C  C114  1  0.75910000  0.95420000  0.79750000  1.0 -0.1357325114
C  C115  1  0.63440000  0.92190000  0.77960000  1.0 -0.0311966562
C  C116  1  0.58560000  0.03140000  0.80970000  1.0 -0.4199826665
C  C117  1  0.78960000  0.93660000  0.86830000  1.0 -0.0410804728
C  C118  1  0.69400000  0.92690000  0.80950000  1.0 0.0662515738
C  C119  1  0.72520000  0.91020000  0.88190000  1.0 -0.0974118294
C  C120  1  0.67980000  0.90440000  0.84890000  1.0 -0.1231160418
C  C121  1  0.47410000  0.08310000  0.72190000  1.0 0.0518141854
C  C122  1  0.45870000  0.30620000  0.67060000  1.0 -0.0899261621
C  C123  1  0.44100000  0.34600000  0.59990000  1.0 0.6355187275
C  C124  1  0.45420000  0.25910000  0.70250000  1.0 -0.1357325114
C  C125  1  0.42190000  0.13440000  0.72040000  1.0 -0.0311966562
C  C126  1  0.53140000  0.08560000  0.69030000  1.0 -0.4199826665
C  C127  1  0.43660000  0.28960000  0.63170000  1.0 -0.0410804728
C  C128  1  0.42690000  0.19400000  0.69050000  1.0 0.0662515738
C  C129  1  0.41020000  0.22520000  0.61810000  1.0 -0.0974118294
C  C130  1  0.40440000  0.17980000  0.65110000  1.0 -0.1231160418
C  C131  1  0.52590000  0.91690000  0.72190000  1.0 0.0518141854
C  C132  1  0.54130000  0.69380000  0.67060000  1.0 -0.0899261621
C  C133  1  0.55900000  0.65400000  0.59990000  1.0 0.6355187275
C  C134  1  0.54580000  0.74090000  0.70250000  1.0 -0.1357325114
C  C135  1  0.57810000  0.86560000  0.72040000  1.0 -0.0311966562
C  C136  1  0.46860000  0.91440000  0.69030000  1.0 -0.4199826665
C  C137  1  0.56340000  0.71040000  0.63170000  1.0 -0.0410804728
C  C138  1  0.57310000  0.80600000  0.69050000  1.0 0.0662515738
C  C139  1  0.58980000  0.77480000  0.61810000  1.0 -0.0974118294
C  C140  1  0.59560000  0.82020000  0.65110000  1.0 -0.1231160418
C  C141  1  0.08310000  0.52590000  0.72190000  1.0 0.0518141854
C  C142  1  0.30620000  0.54130000  0.67060000  1.0 -0.0899261621
C  C143  1  0.34600000  0.55900000  0.59990000  1.0 0.6355187275
C  C144  1  0.25910000  0.54580000  0.70250000  1.0 -0.1357325114
C  C145  1  0.13440000  0.57810000  0.72040000  1.0 -0.0311966562
C  C146  1  0.08560000  0.46860000  0.69030000  1.0 -0.4199826665
C  C147  1  0.28960000  0.56340000  0.63170000  1.0 -0.0410804728
C  C148  1  0.19400000  0.57310000  0.69050000  1.0 0.0662515738
C  C149  1  0.22520000  0.58980000  0.61810000  1.0 -0.0974118294
C  C150  1  0.17980000  0.59560000  0.65110000  1.0 -0.1231160418
C  C151  1  0.91690000  0.47410000  0.72190000  1.0 0.0518141854
C  C152  1  0.69380000  0.45870000  0.67060000  1.0 -0.0899261621
C  C153  1  0.65400000  0.44100000  0.59990000  1.0 0.6355187275
C  C154  1  0.74090000  0.45420000  0.70250000  1.0 -0.1357325114
C  C155  1  0.86560000  0.42190000  0.72040000  1.0 -0.0311966562
C  C156  1  0.91440000  0.53140000  0.69030000  1.0 -0.4199826665
C  C157  1  0.71040000  0.43660000  0.63170000  1.0 -0.0410804728
C  C158  1  0.80600000  0.42690000  0.69050000  1.0 0.0662515738
C  C159  1  0.77480000  0.41020000  0.61810000  1.0 -0.0974118294
C  C160  1  0.82020000  0.40440000  0.65110000  1.0 -0.1231160418
C  C161  1  0.97210000  0.47210000  0.25000000  1.0 -0.0099678385
C  C162  1  0.86940000  0.36940000  0.25000000  1.0 -0.0226692158
C  C163  1  0.81360000  0.31360000  0.25000000  1.0 -0.1631563328
C  C164  1  0.02790000  0.52790000  0.25000000  1.0 -0.0099678385
C  C165  1  0.13060000  0.63060000  0.25000000  1.0 -0.0226692158
C  C166  1  0.18640000  0.68640000  0.25000000  1.0 -0.1631563328
C  C167  1  0.52790000  0.97210000  0.25000000  1.0 -0.0099678385
C  C168  1  0.63060000  0.86940000  0.25000000  1.0 -0.0226692158
C  C169  1  0.68640000  0.81360000  0.25000000  1.0 -0.1665173083
C  C170  1  0.47210000  0.02790000  0.25000000  1.0 -0.0099678385
C  C171  1  0.36940000  0.13060000  0.25000000  1.0 -0.0226692158
C  C172  1  0.31360000  0.18640000  0.25000000  1.0 -0.1631563328
C  C173  1  0.02790000  0.52790000  0.75000000  1.0 -0.0099678385
C  C174  1  0.13060000  0.63060000  0.75000000  1.0 -0.0226692158
C  C175  1  0.18640000  0.68640000  0.75000000  1.0 -0.1665173083
C  C176  1  0.97210000  0.47210000  0.75000000  1.0 -0.0099678385
C  C177  1  0.86940000  0.36940000  0.75000000  1.0 -0.0226692158
C  C178  1  0.81360000  0.31360000  0.75000000  1.0 -0.1665173083
C  C179  1  0.47210000  0.02790000  0.75000000  1.0 -0.0099678385
C  C180  1  0.36940000  0.13060000  0.75000000  1.0 -0.0226692158
C  C181  1  0.31360000  0.18640000  0.75000000  1.0 -0.1631563328
C  C182  1  0.52790000  0.97210000  0.75000000  1.0 -0.0099678385
C  C183  1  0.63060000  0.86940000  0.75000000  1.0 -0.0226692158
C  C184  1  0.68640000  0.81360000  0.75000000  1.0 -0.1665173083
O  O1  1  0.97110000  0.09360000  0.10890000  1.0 -0.6046199224
O  O2  1  0.93870000  0.17510000  0.06020000  1.0 -0.7118976734
O  O3  1  0.03960000  0.08600000  0.03580000  1.0 -1.1819942094
O  O4  1  0.02890000  0.90640000  0.10890000  1.0 -0.6062754159
O  O5  1  0.06130000  0.82490000  0.06020000  1.0 -0.7118976734
O  O6  1  0.96040000  0.91400000  0.03580000  1.0 -1.1819942094
O  O7  1  0.90640000  0.97110000  0.10890000  1.0 -0.6062754159
O  O8  1  0.82490000  0.93870000  0.06020000  1.0 -0.7118976734
O  O9  1  0.91400000  0.03960000  0.03580000  1.0 -1.1819942094
O  O10  1  0.09360000  0.02890000  0.10890000  1.0 -0.6046199224
O  O11  1  0.17510000  0.06130000  0.06020000  1.0 -0.7118976734
O  O12  1  0.08600000  0.96040000  0.03580000  1.0 -1.1819942094
O  O13  1  0.52890000  0.59360000  0.39110000  1.0 -0.6062754159
O  O14  1  0.56130000  0.67510000  0.43980000  1.0 -0.7152969859
O  O15  1  0.46040000  0.58600000  0.46420000  1.0 -1.1819942094
O  O16  1  0.47110000  0.40640000  0.39110000  1.0 -0.6062754159
O  O17  1  0.43870000  0.32490000  0.43980000  1.0 -0.7152969859
O  O18  1  0.53960000  0.41400000  0.46420000  1.0 -1.1819942094
O  O19  1  0.59360000  0.47110000  0.39110000  1.0 -0.6062754159
O  O20  1  0.67510000  0.43870000  0.43980000  1.0 -0.7152969859
O  O21  1  0.58600000  0.53960000  0.46420000  1.0 -1.1819942094
O  O22  1  0.40640000  0.52890000  0.39110000  1.0 -0.6062754159
O  O23  1  0.32490000  0.56130000  0.43980000  1.0 -0.7152969859
O  O24  1  0.41400000  0.46040000  0.46420000  1.0 -1.1819942094
O  O25  1  0.02890000  0.90640000  0.89110000  1.0 -0.6062754159
O  O26  1  0.06130000  0.82490000  0.93980000  1.0 -0.7152969859
O  O27  1  0.96040000  0.91400000  0.96420000  1.0 -1.1819942094
O  O28  1  0.97110000  0.09360000  0.89110000  1.0 -0.6062754159
O  O29  1  0.93870000  0.17510000  0.93980000  1.0 -0.7118976734
O  O30  1  0.03960000  0.08600000  0.96420000  1.0 -1.1819942094
O  O31  1  0.09360000  0.02890000  0.89110000  1.0 -0.6062754159
O  O32  1  0.17510000  0.06130000  0.93980000  1.0 -0.7152969859
O  O33  1  0.08600000  0.96040000  0.96420000  1.0 -1.1819942094
O  O34  1  0.90640000  0.97110000  0.89110000  1.0 -0.6062754159
O  O35  1  0.82490000  0.93870000  0.93980000  1.0 -0.7118976734
O  O36  1  0.91400000  0.03960000  0.96420000  1.0 -1.1819942094
O  O37  1  0.47110000  0.40640000  0.60890000  1.0 -0.6062754159
O  O38  1  0.43870000  0.32490000  0.56020000  1.0 -0.7118976734
O  O39  1  0.53960000  0.41400000  0.53580000  1.0 -1.1819942094
O  O40  1  0.52890000  0.59360000  0.60890000  1.0 -0.6062754159
O  O41  1  0.56130000  0.67510000  0.56020000  1.0 -0.7118976734
O  O42  1  0.46040000  0.58600000  0.53580000  1.0 -1.1819942094
O  O43  1  0.40640000  0.52890000  0.60890000  1.0 -0.6062754159
O  O44  1  0.32490000  0.56130000  0.56020000  1.0 -0.7118976734
O  O45  1  0.41400000  0.46040000  0.53580000  1.0 -1.1819942094
O  O46  1  0.59360000  0.47110000  0.60890000  1.0 -0.6062754159
O  O47  1  0.67510000  0.43870000  0.56020000  1.0 -0.7118976734
O  O48  1  0.58600000  0.53960000  0.53580000  1.0 -1.1819942094
