# DDEC6 charges by PACMAN v1.1 (https://github.com/mtap-research/PACMAN-charge/)
data_NEVTIU_ASR_pacman
_symmetry_space_group_name_H-M   'P 1'
_cell_length_a   19.37850000
_cell_length_b   19.37850000
_cell_length_c   32.52300000
_cell_angle_alpha   90.00000000
_cell_angle_beta   90.00000000
_cell_angle_gamma   90.00000000
_symmetry_Int_Tables_number   1
_chemical_formula_structural   Hf3H28(C25O6)2
_chemical_formula_sum   'Hf12 H112 C200 O48'
_cell_volume   12213.24062716
_cell_formula_units_Z   4
loop_
 _symmetry_equiv_pos_site_id
 _symmetry_equiv_pos_as_xyz
  1  'x, y, z'
loop_
 _atom_site_type_symbol
 _atom_site_label
 _atom_site_symmetry_multiplicity
 _atom_site_fract_x
 _atom_site_fract_y
 _atom_site_fract_z
 _atom_site_occupancy
 _atom_site_charge
Hf  Hf1  1  0.95798000  0.12174000  0.00000000  1.0 1.6076947967
Hf  Hf2  1  0.04202000  0.87826000  0.00000000  1.0 1.6076947967
Hf  Hf3  1  0.87826000  0.95798000  0.00000000  1.0 1.6012319694
Hf  Hf4  1  0.12174000  0.04202000  0.00000000  1.0 1.6076947967
Hf  Hf5  1  0.54202000  0.62174000  0.50000000  1.0 1.6076947967
Hf  Hf6  1  0.45798000  0.37826000  0.50000000  1.0 1.6076947967
Hf  Hf7  1  0.62174000  0.45798000  0.50000000  1.0 1.6076947967
Hf  Hf8  1  0.37826000  0.54202000  0.50000000  1.0 1.6076947967
Hf  Hf9  1  0.00000000  0.00000000  0.07538000  1.0 1.6186626722
Hf  Hf10  1  0.50000000  0.50000000  0.42462000  1.0 1.6076947967
Hf  Hf11  1  0.00000000  0.00000000  0.92462000  1.0 1.6186626722
Hf  Hf12  1  0.50000000  0.50000000  0.57538000  1.0 1.6186626722
H  H1  1  0.89680000  0.36890000  0.14210000  1.0 0.1390547998
H  H2  1  0.90710000  0.28310000  0.09350000  1.0 0.1075227898
H  H3  1  0.97340000  0.14950000  0.18060000  1.0 0.1258410811
H  H4  1  0.96340000  0.23560000  0.22920000  1.0 0.1390547998
H  H5  1  0.06670000  0.38750000  0.20840000  1.0 0.1466380949
H  H6  1  0.04690000  0.46320000  0.19630000  1.0 0.1075227898
H  H7  1  0.01880000  0.40090000  0.17040000  1.0 0.1390547998
H  H8  1  0.10320000  0.63110000  0.14210000  1.0 0.1390547998
H  H9  1  0.09290000  0.71690000  0.09350000  1.0 0.1075227898
H  H10  1  0.02660000  0.85050000  0.18060000  1.0 0.1258410811
H  H11  1  0.03660000  0.76440000  0.22920000  1.0 0.1390547998
H  H12  1  0.93330000  0.61250000  0.20840000  1.0 0.1466380949
H  H13  1  0.95310000  0.53680000  0.19630000  1.0 0.1075227898
H  H14  1  0.98120000  0.59910000  0.17040000  1.0 0.1390547998
H  H15  1  0.63110000  0.89680000  0.14210000  1.0 0.1390547998
H  H16  1  0.71690000  0.90710000  0.09350000  1.0 0.1075227898
H  H17  1  0.85050000  0.97340000  0.18060000  1.0 0.1258410811
H  H18  1  0.76440000  0.96340000  0.22920000  1.0 0.1390547998
H  H19  1  0.61250000  0.06670000  0.20840000  1.0 0.1466380949
H  H20  1  0.53680000  0.04690000  0.19630000  1.0 0.1075227898
H  H21  1  0.59910000  0.01880000  0.17040000  1.0 0.1390547998
H  H22  1  0.36890000  0.10320000  0.14210000  1.0 0.1390547998
H  H23  1  0.28310000  0.09290000  0.09350000  1.0 0.1075227898
H  H24  1  0.14950000  0.02660000  0.18060000  1.0 0.1258410811
H  H25  1  0.23560000  0.03660000  0.22920000  1.0 0.1390547998
H  H26  1  0.38750000  0.93330000  0.20840000  1.0 0.1466380949
H  H27  1  0.46320000  0.95310000  0.19630000  1.0 0.1075227898
H  H28  1  0.40090000  0.98120000  0.17040000  1.0 0.1390547998
H  H29  1  0.60320000  0.86890000  0.35790000  1.0 0.1390547998
H  H30  1  0.59290000  0.78310000  0.40650000  1.0 0.1075227898
H  H31  1  0.52660000  0.64950000  0.31940000  1.0 0.1258410811
H  H32  1  0.53660000  0.73560000  0.27080000  1.0 0.1390547998
H  H33  1  0.43330000  0.88750000  0.29160000  1.0 0.1466380949
H  H34  1  0.45310000  0.96320000  0.30370000  1.0 0.1075227898
H  H35  1  0.48120000  0.90090000  0.32960000  1.0 0.1390547998
H  H36  1  0.39680000  0.13110000  0.35790000  1.0 0.1390547998
H  H37  1  0.40710000  0.21690000  0.40650000  1.0 0.1075227898
H  H38  1  0.47340000  0.35050000  0.31940000  1.0 0.1258410811
H  H39  1  0.46340000  0.26440000  0.27080000  1.0 0.1390547998
H  H40  1  0.56670000  0.11250000  0.29160000  1.0 0.1466380949
H  H41  1  0.54690000  0.03680000  0.30370000  1.0 0.1075227898
H  H42  1  0.51880000  0.09910000  0.32960000  1.0 0.1390547998
H  H43  1  0.86890000  0.39680000  0.35790000  1.0 0.1390547998
H  H44  1  0.78310000  0.40710000  0.40650000  1.0 0.1075227898
H  H45  1  0.64950000  0.47340000  0.31940000  1.0 0.1258410811
H  H46  1  0.73560000  0.46340000  0.27080000  1.0 0.1390547998
H  H47  1  0.88750000  0.56670000  0.29160000  1.0 0.1466380949
H  H48  1  0.96320000  0.54690000  0.30370000  1.0 0.1075227898
H  H49  1  0.90090000  0.51880000  0.32960000  1.0 0.1390547998
H  H50  1  0.13110000  0.60320000  0.35790000  1.0 0.1390547998
H  H51  1  0.21690000  0.59290000  0.40650000  1.0 0.1075227898
H  H52  1  0.35050000  0.52660000  0.31940000  1.0 0.1258410811
H  H53  1  0.26440000  0.53660000  0.27080000  1.0 0.1390547998
H  H54  1  0.11250000  0.43330000  0.29160000  1.0 0.1466380949
H  H55  1  0.03680000  0.45310000  0.30370000  1.0 0.1075227898
H  H56  1  0.09910000  0.48120000  0.32960000  1.0 0.1390547998
H  H57  1  0.10320000  0.63110000  0.85790000  1.0 0.1390547998
H  H58  1  0.09290000  0.71690000  0.90650000  1.0 0.1075227898
H  H59  1  0.02660000  0.85050000  0.81940000  1.0 0.1258410811
H  H60  1  0.03660000  0.76440000  0.77080000  1.0 0.1390547998
H  H61  1  0.93330000  0.61250000  0.79160000  1.0 0.1466380949
H  H62  1  0.95310000  0.53680000  0.80370000  1.0 0.1075227898
H  H63  1  0.98120000  0.59910000  0.82960000  1.0 0.1390547998
H  H64  1  0.89680000  0.36890000  0.85790000  1.0 0.1390547998
H  H65  1  0.90710000  0.28310000  0.90650000  1.0 0.1075227898
H  H66  1  0.97340000  0.14950000  0.81940000  1.0 0.1258410811
H  H67  1  0.96340000  0.23560000  0.77080000  1.0 0.1390547998
H  H68  1  0.06670000  0.38750000  0.79160000  1.0 0.1466380949
H  H69  1  0.04690000  0.46320000  0.80370000  1.0 0.1075227898
H  H70  1  0.01880000  0.40090000  0.82960000  1.0 0.1390547998
H  H71  1  0.36890000  0.10320000  0.85790000  1.0 0.1390547998
H  H72  1  0.28310000  0.09290000  0.90650000  1.0 0.1075227898
H  H73  1  0.14950000  0.02660000  0.81940000  1.0 0.1258410811
H  H74  1  0.23560000  0.03660000  0.77080000  1.0 0.1390547998
H  H75  1  0.38750000  0.93330000  0.79160000  1.0 0.1466380949
H  H76  1  0.46320000  0.95310000  0.80370000  1.0 0.1075227898
H  H77  1  0.40090000  0.98120000  0.82960000  1.0 0.1390547998
H  H78  1  0.63110000  0.89680000  0.85790000  1.0 0.1390547998
H  H79  1  0.71690000  0.90710000  0.90650000  1.0 0.1075227898
H  H80  1  0.85050000  0.97340000  0.81940000  1.0 0.1258410811
H  H81  1  0.76440000  0.96340000  0.77080000  1.0 0.1390547998
H  H82  1  0.61250000  0.06670000  0.79160000  1.0 0.1466380949
H  H83  1  0.53680000  0.04690000  0.80370000  1.0 0.1075227898
H  H84  1  0.59910000  0.01880000  0.82960000  1.0 0.1390547998
H  H85  1  0.39680000  0.13110000  0.64210000  1.0 0.1390547998
H  H86  1  0.40710000  0.21690000  0.59350000  1.0 0.1075227898
H  H87  1  0.47340000  0.35050000  0.68060000  1.0 0.1258410811
H  H88  1  0.46340000  0.26440000  0.72920000  1.0 0.1390547998
H  H89  1  0.56670000  0.11250000  0.70840000  1.0 0.1466380949
H  H90  1  0.54690000  0.03680000  0.69630000  1.0 0.1075227898
H  H91  1  0.51880000  0.09910000  0.67040000  1.0 0.1390547998
H  H92  1  0.60320000  0.86890000  0.64210000  1.0 0.1390547998
H  H93  1  0.59290000  0.78310000  0.59350000  1.0 0.1075227898
H  H94  1  0.52660000  0.64950000  0.68060000  1.0 0.1258410811
H  H95  1  0.53660000  0.73560000  0.72920000  1.0 0.1390547998
H  H96  1  0.43330000  0.88750000  0.70840000  1.0 0.1466380949
H  H97  1  0.45310000  0.96320000  0.69630000  1.0 0.1075227898
H  H98  1  0.48120000  0.90090000  0.67040000  1.0 0.1390547998
H  H99  1  0.13110000  0.60320000  0.64210000  1.0 0.1390547998
H  H100  1  0.21690000  0.59290000  0.59350000  1.0 0.1075227898
H  H101  1  0.35050000  0.52660000  0.68060000  1.0 0.1258410811
H  H102  1  0.26440000  0.53660000  0.72920000  1.0 0.1390547998
H  H103  1  0.11250000  0.43330000  0.70840000  1.0 0.1466380949
H  H104  1  0.03680000  0.45310000  0.69630000  1.0 0.1075227898
H  H105  1  0.09910000  0.48120000  0.67040000  1.0 0.1390547998
H  H106  1  0.86890000  0.39680000  0.64210000  1.0 0.1390547998
H  H107  1  0.78310000  0.40710000  0.59350000  1.0 0.1075227898
H  H108  1  0.64950000  0.47340000  0.68060000  1.0 0.1258410811
H  H109  1  0.73560000  0.46340000  0.72920000  1.0 0.1390547998
H  H110  1  0.88750000  0.56670000  0.70840000  1.0 0.1466380949
H  H111  1  0.96320000  0.54690000  0.69630000  1.0 0.1075227898
H  H112  1  0.90090000  0.51880000  0.67040000  1.0 0.1390547998
C  C1  1  0.92940000  0.31110000  0.19180000  1.0 0.0759622952
C  C2  1  0.91210000  0.32530000  0.14970000  1.0 -0.1665264261
C  C3  1  0.91840000  0.27350000  0.12070000  1.0 -0.0500017798
C  C4  1  0.94110000  0.20710000  0.13080000  1.0 -0.092157912
C  C5  1  0.95820000  0.19310000  0.17280000  1.0 -0.0500017798
C  C6  1  0.95200000  0.24520000  0.20200000  1.0 -0.1625315291
C  C7  1  0.92330000  0.36370000  0.22160000  1.0 0.0078364494
C  C8  1  0.97550000  0.41290000  0.22190000  1.0 0.0705481011
C  C9  1  0.97520000  0.47180000  0.25070000  1.0 0.0078364494
C  C10  1  0.87080000  0.36960000  0.25020000  1.0 -0.0500017798
C  C11  1  0.94720000  0.15480000  0.10080000  1.0 0.5706568206
C  C12  1  0.03090000  0.41640000  0.19750000  1.0 -0.3990427168
C  C13  1  0.07060000  0.68890000  0.19180000  1.0 0.0759622952
C  C14  1  0.08790000  0.67470000  0.14970000  1.0 -0.1665264261
C  C15  1  0.08160000  0.72650000  0.12070000  1.0 -0.0500017798
C  C16  1  0.05890000  0.79290000  0.13080000  1.0 -0.092157912
C  C17  1  0.04180000  0.80690000  0.17280000  1.0 -0.0500017798
C  C18  1  0.04800000  0.75480000  0.20200000  1.0 -0.1625315291
C  C19  1  0.07670000  0.63630000  0.22160000  1.0 0.0078364494
C  C20  1  0.02450000  0.58710000  0.22190000  1.0 0.0705481011
C  C21  1  0.02480000  0.52820000  0.25070000  1.0 0.0078364494
C  C22  1  0.12920000  0.63040000  0.25020000  1.0 -0.0500017798
C  C23  1  0.05280000  0.84520000  0.10080000  1.0 0.5706568206
C  C24  1  0.96910000  0.58360000  0.19750000  1.0 -0.3990427168
C  C25  1  0.68890000  0.92940000  0.19180000  1.0 0.0759622952
C  C26  1  0.67470000  0.91210000  0.14970000  1.0 -0.1665264261
C  C27  1  0.72650000  0.91840000  0.12070000  1.0 -0.0500017798
C  C28  1  0.79290000  0.94110000  0.13080000  1.0 -0.092157912
C  C29  1  0.80690000  0.95820000  0.17280000  1.0 -0.0500017798
C  C30  1  0.75480000  0.95200000  0.20200000  1.0 -0.1625315291
C  C31  1  0.63630000  0.92330000  0.22160000  1.0 0.0078364494
C  C32  1  0.58710000  0.97550000  0.22190000  1.0 0.0705481011
C  C33  1  0.52820000  0.97520000  0.25070000  1.0 0.0078364494
C  C34  1  0.63040000  0.87080000  0.25020000  1.0 -0.0500017798
C  C35  1  0.84520000  0.94720000  0.10080000  1.0 0.5706568206
C  C36  1  0.58360000  0.03090000  0.19750000  1.0 -0.3990427168
C  C37  1  0.31110000  0.07060000  0.19180000  1.0 0.0759622952
C  C38  1  0.32530000  0.08790000  0.14970000  1.0 -0.1665264261
C  C39  1  0.27350000  0.08160000  0.12070000  1.0 -0.0500017798
C  C40  1  0.20710000  0.05890000  0.13080000  1.0 -0.092157912
C  C41  1  0.19310000  0.04180000  0.17280000  1.0 -0.0500017798
C  C42  1  0.24520000  0.04800000  0.20200000  1.0 -0.1625315291
C  C43  1  0.36370000  0.07670000  0.22160000  1.0 0.0078364494
C  C44  1  0.41290000  0.02450000  0.22190000  1.0 0.0705481011
C  C45  1  0.47180000  0.02480000  0.25070000  1.0 0.0078364494
C  C46  1  0.36960000  0.12920000  0.25020000  1.0 -0.0500017798
C  C47  1  0.15480000  0.05280000  0.10080000  1.0 0.5706568206
C  C48  1  0.41640000  0.96910000  0.19750000  1.0 -0.3990427168
C  C49  1  0.57060000  0.81110000  0.30820000  1.0 0.0705481011
C  C50  1  0.58790000  0.82530000  0.35030000  1.0 -0.1665264261
C  C51  1  0.58160000  0.77350000  0.37930000  1.0 -0.0500017798
C  C52  1  0.55890000  0.70710000  0.36920000  1.0 -0.092157912
C  C53  1  0.54180000  0.69310000  0.32720000  1.0 -0.0500017798
C  C54  1  0.54800000  0.74520000  0.29800000  1.0 -0.1625315291
C  C55  1  0.57670000  0.86370000  0.27840000  1.0 0.0078364494
C  C56  1  0.52450000  0.91290000  0.27810000  1.0 0.0705481011
C  C57  1  0.52480000  0.97180000  0.24930000  1.0 0.0078364494
C  C58  1  0.62920000  0.86960000  0.24980000  1.0 -0.0500017798
C  C59  1  0.55280000  0.65480000  0.39920000  1.0 0.5706568206
C  C60  1  0.46910000  0.91640000  0.30250000  1.0 -0.3990427168
C  C61  1  0.42940000  0.18890000  0.30820000  1.0 0.0705481011
C  C62  1  0.41210000  0.17470000  0.35030000  1.0 -0.1665264261
C  C63  1  0.41840000  0.22650000  0.37930000  1.0 -0.0500017798
C  C64  1  0.44110000  0.29290000  0.36920000  1.0 -0.092157912
C  C65  1  0.45820000  0.30690000  0.32720000  1.0 -0.0500017798
C  C66  1  0.45200000  0.25480000  0.29800000  1.0 -0.1625315291
C  C67  1  0.42330000  0.13630000  0.27840000  1.0 0.0078364494
C  C68  1  0.47550000  0.08710000  0.27810000  1.0 0.0705481011
C  C69  1  0.47520000  0.02820000  0.24930000  1.0 0.0078364494
C  C70  1  0.37080000  0.13040000  0.24980000  1.0 -0.0500017798
C  C71  1  0.44720000  0.34520000  0.39920000  1.0 0.5706568206
C  C72  1  0.53090000  0.08360000  0.30250000  1.0 -0.3990427168
C  C73  1  0.81110000  0.42940000  0.30820000  1.0 0.0705481011
C  C74  1  0.82530000  0.41210000  0.35030000  1.0 -0.1665264261
C  C75  1  0.77350000  0.41840000  0.37930000  1.0 -0.0500017798
C  C76  1  0.70710000  0.44110000  0.36920000  1.0 -0.092157912
C  C77  1  0.69310000  0.45820000  0.32720000  1.0 -0.0500017798
C  C78  1  0.74520000  0.45200000  0.29800000  1.0 -0.1625315291
C  C79  1  0.86370000  0.42330000  0.27840000  1.0 0.0078364494
C  C80  1  0.91290000  0.47550000  0.27810000  1.0 0.0705481011
C  C81  1  0.97180000  0.47520000  0.24930000  1.0 0.0078364494
C  C82  1  0.86960000  0.37080000  0.24980000  1.0 -0.0500017798
C  C83  1  0.65480000  0.44720000  0.39920000  1.0 0.5706568206
C  C84  1  0.91640000  0.53090000  0.30250000  1.0 -0.3990427168
C  C85  1  0.18890000  0.57060000  0.30820000  1.0 0.0705481011
C  C86  1  0.17470000  0.58790000  0.35030000  1.0 -0.1665264261
C  C87  1  0.22650000  0.58160000  0.37930000  1.0 -0.0500017798
C  C88  1  0.29290000  0.55890000  0.36920000  1.0 -0.092157912
C  C89  1  0.30690000  0.54180000  0.32720000  1.0 -0.0500017798
C  C90  1  0.25480000  0.54800000  0.29800000  1.0 -0.1625315291
C  C91  1  0.13630000  0.57670000  0.27840000  1.0 0.0078364494
C  C92  1  0.08710000  0.52450000  0.27810000  1.0 0.0705481011
C  C93  1  0.02820000  0.52480000  0.24930000  1.0 0.0078364494
C  C94  1  0.13040000  0.62920000  0.24980000  1.0 -0.0500017798
C  C95  1  0.34520000  0.55280000  0.39920000  1.0 0.5706568206
C  C96  1  0.08360000  0.46910000  0.30250000  1.0 -0.3990427168
C  C97  1  0.07060000  0.68890000  0.80820000  1.0 0.0759622952
C  C98  1  0.08790000  0.67470000  0.85030000  1.0 -0.1665264261
C  C99  1  0.08160000  0.72650000  0.87930000  1.0 -0.0500017798
C  C100  1  0.05890000  0.79290000  0.86920000  1.0 -0.092157912
C  C101  1  0.04180000  0.80690000  0.82720000  1.0 -0.0500017798
C  C102  1  0.04800000  0.75480000  0.79800000  1.0 -0.1625315291
C  C103  1  0.07670000  0.63630000  0.77840000  1.0 0.0078364494
C  C104  1  0.02450000  0.58710000  0.77810000  1.0 0.0705481011
C  C105  1  0.02480000  0.52820000  0.74930000  1.0 0.0078364494
C  C106  1  0.12920000  0.63040000  0.74980000  1.0 -0.0500017798
C  C107  1  0.05280000  0.84520000  0.89920000  1.0 0.5706568206
C  C108  1  0.96910000  0.58360000  0.80250000  1.0 -0.3990427168
C  C109  1  0.92940000  0.31110000  0.80820000  1.0 0.0759622952
C  C110  1  0.91210000  0.32530000  0.85030000  1.0 -0.1665264261
C  C111  1  0.91840000  0.27350000  0.87930000  1.0 -0.0500017798
C  C112  1  0.94110000  0.20710000  0.86920000  1.0 -0.092157912
C  C113  1  0.95820000  0.19310000  0.82720000  1.0 -0.0500017798
C  C114  1  0.95200000  0.24520000  0.79800000  1.0 -0.1625315291
C  C115  1  0.92330000  0.36370000  0.77840000  1.0 0.0078364494
C  C116  1  0.97550000  0.41290000  0.77810000  1.0 0.0705481011
C  C117  1  0.97520000  0.47180000  0.74930000  1.0 0.0078364494
C  C118  1  0.87080000  0.36960000  0.74980000  1.0 -0.0500017798
C  C119  1  0.94720000  0.15480000  0.89920000  1.0 0.5706568206
C  C120  1  0.03090000  0.41640000  0.80250000  1.0 -0.3990427168
C  C121  1  0.31110000  0.07060000  0.80820000  1.0 0.0759622952
C  C122  1  0.32530000  0.08790000  0.85030000  1.0 -0.1665264261
C  C123  1  0.27350000  0.08160000  0.87930000  1.0 -0.0500017798
C  C124  1  0.20710000  0.05890000  0.86920000  1.0 -0.092157912
C  C125  1  0.19310000  0.04180000  0.82720000  1.0 -0.0500017798
C  C126  1  0.24520000  0.04800000  0.79800000  1.0 -0.1625315291
C  C127  1  0.36370000  0.07670000  0.77840000  1.0 0.0078364494
C  C128  1  0.41290000  0.02450000  0.77810000  1.0 0.0705481011
C  C129  1  0.47180000  0.02480000  0.74930000  1.0 0.0078364494
C  C130  1  0.36960000  0.12920000  0.74980000  1.0 -0.0500017798
C  C131  1  0.15480000  0.05280000  0.89920000  1.0 0.5706568206
C  C132  1  0.41640000  0.96910000  0.80250000  1.0 -0.3990427168
C  C133  1  0.68890000  0.92940000  0.80820000  1.0 0.0759622952
C  C134  1  0.67470000  0.91210000  0.85030000  1.0 -0.1665264261
C  C135  1  0.72650000  0.91840000  0.87930000  1.0 -0.0500017798
C  C136  1  0.79290000  0.94110000  0.86920000  1.0 -0.092157912
C  C137  1  0.80690000  0.95820000  0.82720000  1.0 -0.0500017798
C  C138  1  0.75480000  0.95200000  0.79800000  1.0 -0.1625315291
C  C139  1  0.63630000  0.92330000  0.77840000  1.0 0.0078364494
C  C140  1  0.58710000  0.97550000  0.77810000  1.0 0.0705481011
C  C141  1  0.52820000  0.97520000  0.74930000  1.0 0.0078364494
C  C142  1  0.63040000  0.87080000  0.74980000  1.0 -0.0500017798
C  C143  1  0.84520000  0.94720000  0.89920000  1.0 0.5706568206
C  C144  1  0.58360000  0.03090000  0.80250000  1.0 -0.3990427168
C  C145  1  0.42940000  0.18890000  0.69180000  1.0 0.0705481011
C  C146  1  0.41210000  0.17470000  0.64970000  1.0 -0.1665264261
C  C147  1  0.41840000  0.22650000  0.62070000  1.0 -0.0500017798
C  C148  1  0.44110000  0.29290000  0.63080000  1.0 -0.092157912
C  C149  1  0.45820000  0.30690000  0.67280000  1.0 -0.0500017798
C  C150  1  0.45200000  0.25480000  0.70200000  1.0 -0.1625315291
C  C151  1  0.42330000  0.13630000  0.72160000  1.0 0.0024104475
C  C152  1  0.47550000  0.08710000  0.72190000  1.0 0.0705481011
C  C153  1  0.47520000  0.02820000  0.75070000  1.0 0.0078364494
C  C154  1  0.37080000  0.13040000  0.75020000  1.0 -0.0500017798
C  C155  1  0.44720000  0.34520000  0.60080000  1.0 0.5706568206
C  C156  1  0.53090000  0.08360000  0.69750000  1.0 -0.3990427168
C  C157  1  0.57060000  0.81110000  0.69180000  1.0 0.0705481011
C  C158  1  0.58790000  0.82530000  0.64970000  1.0 -0.1665264261
C  C159  1  0.58160000  0.77350000  0.62070000  1.0 -0.0500017798
C  C160  1  0.55890000  0.70710000  0.63080000  1.0 -0.092157912
C  C161  1  0.54180000  0.69310000  0.67280000  1.0 -0.0500017798
C  C162  1  0.54800000  0.74520000  0.70200000  1.0 -0.1625315291
C  C163  1  0.57670000  0.86370000  0.72160000  1.0 0.0024104475
C  C164  1  0.52450000  0.91290000  0.72190000  1.0 0.0705481011
C  C165  1  0.52480000  0.97180000  0.75070000  1.0 0.0078364494
C  C166  1  0.62920000  0.86960000  0.75020000  1.0 -0.0500017798
C  C167  1  0.55280000  0.65480000  0.60080000  1.0 0.5706568206
C  C168  1  0.46910000  0.91640000  0.69750000  1.0 -0.3990427168
C  C169  1  0.18890000  0.57060000  0.69180000  1.0 0.0705481011
C  C170  1  0.17470000  0.58790000  0.64970000  1.0 -0.1665264261
C  C171  1  0.22650000  0.58160000  0.62070000  1.0 -0.0500017798
C  C172  1  0.29290000  0.55890000  0.63080000  1.0 -0.092157912
C  C173  1  0.30690000  0.54180000  0.67280000  1.0 -0.0500017798
C  C174  1  0.25480000  0.54800000  0.70200000  1.0 -0.1625315291
C  C175  1  0.13630000  0.57670000  0.72160000  1.0 0.0024104475
C  C176  1  0.08710000  0.52450000  0.72190000  1.0 0.0705481011
C  C177  1  0.02820000  0.52480000  0.75070000  1.0 0.0078364494
C  C178  1  0.13040000  0.62920000  0.75020000  1.0 -0.0500017798
C  C179  1  0.34520000  0.55280000  0.60080000  1.0 0.5706568206
C  C180  1  0.08360000  0.46910000  0.69750000  1.0 -0.3990427168
C  C181  1  0.81110000  0.42940000  0.69180000  1.0 0.0705481011
C  C182  1  0.82530000  0.41210000  0.64970000  1.0 -0.1665264261
C  C183  1  0.77350000  0.41840000  0.62070000  1.0 -0.0500017798
C  C184  1  0.70710000  0.44110000  0.63080000  1.0 -0.092157912
C  C185  1  0.69310000  0.45820000  0.67280000  1.0 -0.0500017798
C  C186  1  0.74520000  0.45200000  0.70200000  1.0 -0.1625315291
C  C187  1  0.86370000  0.42330000  0.72160000  1.0 0.0024104475
C  C188  1  0.91290000  0.47550000  0.72190000  1.0 0.0705481011
C  C189  1  0.97180000  0.47520000  0.75070000  1.0 0.0078364494
C  C190  1  0.86960000  0.37080000  0.75020000  1.0 -0.0500017798
C  C191  1  0.65480000  0.44720000  0.60080000  1.0 0.5706568206
C  C192  1  0.91640000  0.53090000  0.69750000  1.0 -0.3990427168
C  C193  1  0.81650000  0.31650000  0.25000000  1.0 0.0024104475
C  C194  1  0.18350000  0.68350000  0.25000000  1.0 0.0024104475
C  C195  1  0.68350000  0.81650000  0.25000000  1.0 0.0024104475
C  C196  1  0.31650000  0.18350000  0.25000000  1.0 0.0024104475
C  C197  1  0.18350000  0.68350000  0.75000000  1.0 -0.002245327
C  C198  1  0.81650000  0.31650000  0.75000000  1.0 0.0024104475
C  C199  1  0.31650000  0.18350000  0.75000000  1.0 -0.002245327
C  C200  1  0.68350000  0.81650000  0.75000000  1.0 0.0024104475
O  O1  1  0.97180000  0.08950000  0.11150000  1.0 -0.5317051863
O  O2  1  0.91960000  0.03800000  0.03730000  1.0 -0.7374541839
O  O3  1  0.94440000  0.17340000  0.05930000  1.0 -0.6005290032
O  O4  1  0.02820000  0.91050000  0.11150000  1.0 -0.5317051863
O  O5  1  0.08040000  0.96200000  0.03730000  1.0 -0.7374541839
O  O6  1  0.05560000  0.82660000  0.05930000  1.0 -0.6005290032
O  O7  1  0.91050000  0.97180000  0.11150000  1.0 -0.5317051863
O  O8  1  0.96200000  0.91960000  0.03730000  1.0 -0.7374541839
O  O9  1  0.82660000  0.94440000  0.05930000  1.0 -0.6005290032
O  O10  1  0.08950000  0.02820000  0.11150000  1.0 -0.5317051863
O  O11  1  0.03800000  0.08040000  0.03730000  1.0 -0.7374541839
O  O12  1  0.17340000  0.05560000  0.05930000  1.0 -0.6005290032
O  O13  1  0.52820000  0.58950000  0.38850000  1.0 -0.5317051863
O  O14  1  0.58040000  0.53800000  0.46270000  1.0 -0.7374541839
O  O15  1  0.55560000  0.67340000  0.44070000  1.0 -0.6005290032
O  O16  1  0.47180000  0.41050000  0.38850000  1.0 -0.5317051863
O  O17  1  0.41960000  0.46200000  0.46270000  1.0 -0.7374541839
O  O18  1  0.44440000  0.32660000  0.44070000  1.0 -0.6005290032
O  O19  1  0.58950000  0.47180000  0.38850000  1.0 -0.5317051863
O  O20  1  0.53800000  0.41960000  0.46270000  1.0 -0.7374541839
O  O21  1  0.67340000  0.44440000  0.44070000  1.0 -0.6005290032
O  O22  1  0.41050000  0.52820000  0.38850000  1.0 -0.5317051863
O  O23  1  0.46200000  0.58040000  0.46270000  1.0 -0.7374541839
O  O24  1  0.32660000  0.55560000  0.44070000  1.0 -0.6005290032
O  O25  1  0.02820000  0.91050000  0.88850000  1.0 -0.5317051863
O  O26  1  0.08040000  0.96200000  0.96270000  1.0 -0.7374541839
O  O27  1  0.05560000  0.82660000  0.94070000  1.0 -0.6067701062
O  O28  1  0.97180000  0.08950000  0.88850000  1.0 -0.5317051863
O  O29  1  0.91960000  0.03800000  0.96270000  1.0 -0.7374541839
O  O30  1  0.94440000  0.17340000  0.94070000  1.0 -0.6067701062
O  O31  1  0.08950000  0.02820000  0.88850000  1.0 -0.5317051863
O  O32  1  0.03800000  0.08040000  0.96270000  1.0 -0.7374541839
O  O33  1  0.17340000  0.05560000  0.94070000  1.0 -0.6067701062
O  O34  1  0.91050000  0.97180000  0.88850000  1.0 -0.5317051863
O  O35  1  0.96200000  0.91960000  0.96270000  1.0 -0.7374541839
O  O36  1  0.82660000  0.94440000  0.94070000  1.0 -0.6067701062
O  O37  1  0.47180000  0.41050000  0.61150000  1.0 -0.5317051863
O  O38  1  0.41960000  0.46200000  0.53730000  1.0 -0.7374541839
O  O39  1  0.44440000  0.32660000  0.55930000  1.0 -0.6005290032
O  O40  1  0.52820000  0.58950000  0.61150000  1.0 -0.5317051863
O  O41  1  0.58040000  0.53800000  0.53730000  1.0 -0.7374541839
O  O42  1  0.55560000  0.67340000  0.55930000  1.0 -0.6005290032
O  O43  1  0.41050000  0.52820000  0.61150000  1.0 -0.5317051863
O  O44  1  0.46200000  0.58040000  0.53730000  1.0 -0.7374541839
O  O45  1  0.32660000  0.55560000  0.55930000  1.0 -0.6005290032
O  O46  1  0.58950000  0.47180000  0.61150000  1.0 -0.5317051863
O  O47  1  0.53800000  0.41960000  0.53730000  1.0 -0.7374541839
O  O48  1  0.67340000  0.44440000  0.55930000  1.0 -0.6005290032
