# DDEC6 charges by PACMAN v1.1 (https://github.com/mtap-research/PACMAN-charge/)
data_NEVTIU07_ASR_pacman
_symmetry_space_group_name_H-M   'P 1'
_cell_length_a   19.08200000
_cell_length_b   19.08200000
_cell_length_c   32.67400000
_cell_angle_alpha   90.00000000
_cell_angle_beta   90.00000000
_cell_angle_gamma   90.00000000
_symmetry_Int_Tables_number   1
_chemical_formula_structural   Hf3H40(C23O6)2
_chemical_formula_sum   'Hf12 H160 C184 O48'
_cell_volume   11897.34588398
_cell_formula_units_Z   4
loop_
 _symmetry_equiv_pos_site_id
 _symmetry_equiv_pos_as_xyz
  1  'x, y, z'
loop_
 _atom_site_type_symbol
 _atom_site_label
 _atom_site_symmetry_multiplicity
 _atom_site_fract_x
 _atom_site_fract_y
 _atom_site_fract_z
 _atom_site_occupancy
 _atom_site_charge
Hf  Hf1  1  0.95720000  0.12290000  0.00000000  1.0 1.3435671426
Hf  Hf2  1  0.04280000  0.87710000  0.00000000  1.0 1.3435671426
Hf  Hf3  1  0.87710000  0.95720000  0.00000000  1.0 1.3435671426
Hf  Hf4  1  0.12290000  0.04280000  0.00000000  1.0 1.346458615
Hf  Hf5  1  0.54280000  0.62290000  0.50000000  1.0 1.3435671426
Hf  Hf6  1  0.45720000  0.37710000  0.50000000  1.0 1.3435671426
Hf  Hf7  1  0.62290000  0.45720000  0.50000000  1.0 1.3435671426
Hf  Hf8  1  0.37710000  0.54280000  0.50000000  1.0 1.3435671426
Hf  Hf9  1  0.00000000  0.00000000  0.07400000  1.0 1.409374119
Hf  Hf10  1  0.50000000  0.50000000  0.42600000  1.0 1.409374119
Hf  Hf11  1  0.00000000  0.00000000  0.92600000  1.0 1.409374119
Hf  Hf12  1  0.50000000  0.50000000  0.57400000  1.0 1.409374119
H  H1  1  0.89560000  0.37080000  0.14390000  1.0 0.1191512825
H  H2  1  0.90430000  0.28380000  0.09520000  1.0 0.1191512825
H  H3  1  0.97540000  0.14620000  0.18160000  1.0 0.1191512825
H  H4  1  0.96670000  0.23320000  0.23020000  1.0 0.1400803297
H  H5  1  0.06880000  0.40860000  0.21030000  1.0 0.1400803297
H  H6  1  0.03430000  0.47500000  0.19060000  1.0 0.1191512825
H  H7  1  0.01880000  0.40040000  0.17260000  1.0 0.126308636
H  H8  1  0.77960000  0.33600000  0.23500000  1.0 0.038786573
H  H9  1  0.80600000  0.30920000  0.27760000  1.0 0.030693607
H  H10  1  0.83760000  0.27790000  0.23730000  1.0 0.030693607
H  H11  1  0.10440000  0.62920000  0.14390000  1.0 0.1191512825
H  H12  1  0.09570000  0.71620000  0.09520000  1.0 0.1146451097
H  H13  1  0.02460000  0.85380000  0.18160000  1.0 0.1191512825
H  H14  1  0.03330000  0.76680000  0.23020000  1.0 0.1400803297
H  H15  1  0.93120000  0.59140000  0.21030000  1.0 0.1400803297
H  H16  1  0.96570000  0.52500000  0.19060000  1.0 0.1191512825
H  H17  1  0.98120000  0.59960000  0.17260000  1.0 0.126308636
H  H18  1  0.22040000  0.66400000  0.23500000  1.0 0.038786573
H  H19  1  0.19400000  0.69080000  0.27760000  1.0 0.030693607
H  H20  1  0.16240000  0.72210000  0.23730000  1.0 0.030693607
H  H21  1  0.62920000  0.89560000  0.14390000  1.0 0.1191512825
H  H22  1  0.71620000  0.90430000  0.09520000  1.0 0.1146451097
H  H23  1  0.85380000  0.97540000  0.18160000  1.0 0.1191512825
H  H24  1  0.76680000  0.96670000  0.23020000  1.0 0.1400803297
H  H25  1  0.59140000  0.06880000  0.21030000  1.0 0.1400803297
H  H26  1  0.52500000  0.03430000  0.19060000  1.0 0.1191512825
H  H27  1  0.59960000  0.01880000  0.17260000  1.0 0.126308636
H  H28  1  0.66400000  0.77960000  0.23500000  1.0 0.038786573
H  H29  1  0.69080000  0.80600000  0.27760000  1.0 0.030693607
H  H30  1  0.72210000  0.83760000  0.23730000  1.0 0.030693607
H  H31  1  0.37080000  0.10440000  0.14390000  1.0 0.1191512825
H  H32  1  0.28380000  0.09570000  0.09520000  1.0 0.1191512825
H  H33  1  0.14620000  0.02460000  0.18160000  1.0 0.1191512825
H  H34  1  0.23320000  0.03330000  0.23020000  1.0 0.1400803297
H  H35  1  0.40860000  0.93120000  0.21030000  1.0 0.1400803297
H  H36  1  0.47500000  0.96570000  0.19060000  1.0 0.1191512825
H  H37  1  0.40040000  0.98120000  0.17260000  1.0 0.126308636
H  H38  1  0.33600000  0.22040000  0.23500000  1.0 0.038786573
H  H39  1  0.30920000  0.19400000  0.27760000  1.0 0.030693607
H  H40  1  0.27790000  0.16240000  0.23730000  1.0 0.030693607
H  H41  1  0.60440000  0.87080000  0.35610000  1.0 0.1191512825
H  H42  1  0.59570000  0.78380000  0.40480000  1.0 0.1191512825
H  H43  1  0.52460000  0.64620000  0.31840000  1.0 0.1191512825
H  H44  1  0.53330000  0.73320000  0.26980000  1.0 0.1400803297
H  H45  1  0.43120000  0.90860000  0.28970000  1.0 0.1400803297
H  H46  1  0.46570000  0.97500000  0.30940000  1.0 0.1191512825
H  H47  1  0.48120000  0.90040000  0.32740000  1.0 0.126308636
H  H48  1  0.72040000  0.83600000  0.26500000  1.0 0.038786573
H  H49  1  0.69400000  0.80920000  0.22240000  1.0 0.030693607
H  H50  1  0.66240000  0.77790000  0.26270000  1.0 0.030693607
H  H51  1  0.39560000  0.12920000  0.35610000  1.0 0.1191512825
H  H52  1  0.40430000  0.21620000  0.40480000  1.0 0.1191512825
H  H53  1  0.47540000  0.35380000  0.31840000  1.0 0.1191512825
H  H54  1  0.46670000  0.26680000  0.26980000  1.0 0.1400803297
H  H55  1  0.56880000  0.09140000  0.28970000  1.0 0.1400803297
H  H56  1  0.53430000  0.02500000  0.30940000  1.0 0.1191512825
H  H57  1  0.51880000  0.09960000  0.32740000  1.0 0.126308636
H  H58  1  0.27960000  0.16400000  0.26500000  1.0 0.038786573
H  H59  1  0.30600000  0.19080000  0.22240000  1.0 0.030693607
H  H60  1  0.33760000  0.22210000  0.26270000  1.0 0.030693607
H  H61  1  0.87080000  0.39560000  0.35610000  1.0 0.1191512825
H  H62  1  0.78380000  0.40430000  0.40480000  1.0 0.1191512825
H  H63  1  0.64620000  0.47540000  0.31840000  1.0 0.1191512825
H  H64  1  0.73320000  0.46670000  0.26980000  1.0 0.1400803297
H  H65  1  0.90860000  0.56880000  0.28970000  1.0 0.1400803297
H  H66  1  0.97500000  0.53430000  0.30940000  1.0 0.1191512825
H  H67  1  0.90040000  0.51880000  0.32740000  1.0 0.126308636
H  H68  1  0.83600000  0.27960000  0.26500000  1.0 0.038786573
H  H69  1  0.80920000  0.30600000  0.22240000  1.0 0.030693607
H  H70  1  0.77790000  0.33760000  0.26270000  1.0 0.030693607
H  H71  1  0.12920000  0.60440000  0.35610000  1.0 0.1191512825
H  H72  1  0.21620000  0.59570000  0.40480000  1.0 0.1191512825
H  H73  1  0.35380000  0.52460000  0.31840000  1.0 0.1191512825
H  H74  1  0.26680000  0.53330000  0.26980000  1.0 0.1400803297
H  H75  1  0.09140000  0.43120000  0.28970000  1.0 0.1400803297
H  H76  1  0.02500000  0.46570000  0.30940000  1.0 0.1191512825
H  H77  1  0.09960000  0.48120000  0.32740000  1.0 0.126308636
H  H78  1  0.16400000  0.72040000  0.26500000  1.0 0.038786573
H  H79  1  0.19080000  0.69400000  0.22240000  1.0 0.030693607
H  H80  1  0.22210000  0.66240000  0.26270000  1.0 0.030693607
H  H81  1  0.10440000  0.62920000  0.85610000  1.0 0.1191512825
H  H82  1  0.09570000  0.71620000  0.90480000  1.0 0.1191512825
H  H83  1  0.02460000  0.85380000  0.81840000  1.0 0.1191512825
H  H84  1  0.03330000  0.76680000  0.76980000  1.0 0.1400803297
H  H85  1  0.93120000  0.59140000  0.78970000  1.0 0.1400803297
H  H86  1  0.96570000  0.52500000  0.80940000  1.0 0.1191512825
H  H87  1  0.98120000  0.59960000  0.82740000  1.0 0.126308636
H  H88  1  0.22040000  0.66400000  0.76500000  1.0 0.038786573
H  H89  1  0.19400000  0.69080000  0.72240000  1.0 0.030693607
H  H90  1  0.16240000  0.72210000  0.76270000  1.0 0.030693607
H  H91  1  0.89560000  0.37080000  0.85610000  1.0 0.1191512825
H  H92  1  0.90430000  0.28380000  0.90480000  1.0 0.1191512825
H  H93  1  0.97540000  0.14620000  0.81840000  1.0 0.1191512825
H  H94  1  0.96670000  0.23320000  0.76980000  1.0 0.1400803297
H  H95  1  0.06880000  0.40860000  0.78970000  1.0 0.1400803297
H  H96  1  0.03430000  0.47500000  0.80940000  1.0 0.1191512825
H  H97  1  0.01880000  0.40040000  0.82740000  1.0 0.126308636
H  H98  1  0.77960000  0.33600000  0.76500000  1.0 0.038786573
H  H99  1  0.80600000  0.30920000  0.72240000  1.0 0.030693607
H  H100  1  0.83760000  0.27790000  0.76270000  1.0 0.030693607
H  H101  1  0.37080000  0.10440000  0.85610000  1.0 0.1191512825
H  H102  1  0.28380000  0.09570000  0.90480000  1.0 0.1191512825
H  H103  1  0.14620000  0.02460000  0.81840000  1.0 0.1191512825
H  H104  1  0.23320000  0.03330000  0.76980000  1.0 0.1400803297
H  H105  1  0.40860000  0.93120000  0.78970000  1.0 0.1400803297
H  H106  1  0.47500000  0.96570000  0.80940000  1.0 0.1191512825
H  H107  1  0.40040000  0.98120000  0.82740000  1.0 0.126308636
H  H108  1  0.33600000  0.22040000  0.76500000  1.0 0.038786573
H  H109  1  0.30920000  0.19400000  0.72240000  1.0 0.030693607
H  H110  1  0.27790000  0.16240000  0.76270000  1.0 0.030693607
H  H111  1  0.62920000  0.89560000  0.85610000  1.0 0.1191512825
H  H112  1  0.71620000  0.90430000  0.90480000  1.0 0.1191512825
H  H113  1  0.85380000  0.97540000  0.81840000  1.0 0.1191512825
H  H114  1  0.76680000  0.96670000  0.76980000  1.0 0.1400803297
H  H115  1  0.59140000  0.06880000  0.78970000  1.0 0.1400803297
H  H116  1  0.52500000  0.03430000  0.80940000  1.0 0.1191512825
H  H117  1  0.59960000  0.01880000  0.82740000  1.0 0.126308636
H  H118  1  0.66400000  0.77960000  0.76500000  1.0 0.038786573
H  H119  1  0.69080000  0.80600000  0.72240000  1.0 0.030693607
H  H120  1  0.72210000  0.83760000  0.76270000  1.0 0.030693607
H  H121  1  0.39560000  0.12920000  0.64390000  1.0 0.1191512825
H  H122  1  0.40430000  0.21620000  0.59520000  1.0 0.1191512825
H  H123  1  0.47540000  0.35380000  0.68160000  1.0 0.1191512825
H  H124  1  0.46670000  0.26680000  0.73020000  1.0 0.1400803297
H  H125  1  0.56880000  0.09140000  0.71030000  1.0 0.1400803297
H  H126  1  0.53430000  0.02500000  0.69060000  1.0 0.1191512825
H  H127  1  0.51880000  0.09960000  0.67260000  1.0 0.126308636
H  H128  1  0.27960000  0.16400000  0.73500000  1.0 0.038786573
H  H129  1  0.30600000  0.19080000  0.77760000  1.0 0.030693607
H  H130  1  0.33760000  0.22210000  0.73730000  1.0 0.030693607
H  H131  1  0.60440000  0.87080000  0.64390000  1.0 0.1191512825
H  H132  1  0.59570000  0.78380000  0.59520000  1.0 0.1191512825
H  H133  1  0.52460000  0.64620000  0.68160000  1.0 0.1191512825
H  H134  1  0.53330000  0.73320000  0.73020000  1.0 0.1400803297
H  H135  1  0.43120000  0.90860000  0.71030000  1.0 0.1400803297
H  H136  1  0.46570000  0.97500000  0.69060000  1.0 0.1191512825
H  H137  1  0.48120000  0.90040000  0.67260000  1.0 0.126308636
H  H138  1  0.72040000  0.83600000  0.73500000  1.0 0.038786573
H  H139  1  0.69400000  0.80920000  0.77760000  1.0 0.030693607
H  H140  1  0.66240000  0.77790000  0.73730000  1.0 0.030693607
H  H141  1  0.12920000  0.60440000  0.64390000  1.0 0.1191512825
H  H142  1  0.21620000  0.59570000  0.59520000  1.0 0.1191512825
H  H143  1  0.35380000  0.52460000  0.68160000  1.0 0.1191512825
H  H144  1  0.26680000  0.53330000  0.73020000  1.0 0.1400803297
H  H145  1  0.09140000  0.43120000  0.71030000  1.0 0.1400803297
H  H146  1  0.02500000  0.46570000  0.69060000  1.0 0.1191512825
H  H147  1  0.09960000  0.48120000  0.67260000  1.0 0.126308636
H  H148  1  0.16400000  0.72040000  0.73500000  1.0 0.038786573
H  H149  1  0.19080000  0.69400000  0.77760000  1.0 0.030693607
H  H150  1  0.22210000  0.66240000  0.73730000  1.0 0.030693607
H  H151  1  0.87080000  0.39560000  0.64390000  1.0 0.1191512825
H  H152  1  0.78380000  0.40430000  0.59520000  1.0 0.1191512825
H  H153  1  0.64620000  0.47540000  0.68160000  1.0 0.1191512825
H  H154  1  0.73320000  0.46670000  0.73020000  1.0 0.1400803297
H  H155  1  0.90860000  0.56880000  0.71030000  1.0 0.1400803297
H  H156  1  0.97500000  0.53430000  0.69060000  1.0 0.1191512825
H  H157  1  0.90040000  0.51880000  0.67260000  1.0 0.126308636
H  H158  1  0.83600000  0.27960000  0.73500000  1.0 0.038786573
H  H159  1  0.80920000  0.30600000  0.77760000  1.0 0.030693607
H  H160  1  0.77790000  0.33760000  0.73730000  1.0 0.030693607
C  C1  1  0.93060000  0.31190000  0.19380000  1.0 0.0719293684
C  C2  1  0.91130000  0.32650000  0.15130000  1.0 -0.115561812
C  C3  1  0.91670000  0.27400000  0.12210000  1.0 -0.080264557
C  C4  1  0.94040000  0.20500000  0.13160000  1.0 -0.0592552643
C  C5  1  0.95970000  0.19100000  0.17420000  1.0 -0.0592552643
C  C6  1  0.95430000  0.24300000  0.20330000  1.0 -0.1415745946
C  C7  1  0.92320000  0.36900000  0.22100000  1.0 -0.0277284186
C  C8  1  0.97500000  0.42020000  0.22140000  1.0 0.038786573
C  C9  1  0.94350000  0.15640000  0.09920000  1.0 0.5504162397
C  C10  1  0.02750000  0.42600000  0.19720000  1.0 -0.3635370217
C  C11  1  0.06940000  0.68810000  0.19380000  1.0 0.0719293684
C  C12  1  0.08870000  0.67350000  0.15130000  1.0 -0.1149705115
C  C13  1  0.08330000  0.72600000  0.12210000  1.0 -0.080264557
C  C14  1  0.05960000  0.79500000  0.13160000  1.0 -0.0592552643
C  C15  1  0.04030000  0.80900000  0.17420000  1.0 -0.0592552643
C  C16  1  0.04570000  0.75700000  0.20330000  1.0 -0.1415745946
C  C17  1  0.07680000  0.63100000  0.22100000  1.0 -0.0277284186
C  C18  1  0.02500000  0.57980000  0.22140000  1.0 0.038786573
C  C19  1  0.05650000  0.84360000  0.09920000  1.0 0.5504162397
C  C20  1  0.97250000  0.57400000  0.19720000  1.0 -0.3635370217
C  C21  1  0.68810000  0.93060000  0.19380000  1.0 0.0719293684
C  C22  1  0.67350000  0.91130000  0.15130000  1.0 -0.1149705115
C  C23  1  0.72600000  0.91670000  0.12210000  1.0 -0.080264557
C  C24  1  0.79500000  0.94040000  0.13160000  1.0 -0.0592552643
C  C25  1  0.80900000  0.95970000  0.17420000  1.0 -0.0540514842
C  C26  1  0.75700000  0.95430000  0.20330000  1.0 -0.1415745946
C  C27  1  0.63100000  0.92320000  0.22100000  1.0 -0.0277284186
C  C28  1  0.57980000  0.97500000  0.22140000  1.0 0.038786573
C  C29  1  0.84360000  0.94350000  0.09920000  1.0 0.5504162397
C  C30  1  0.57400000  0.02750000  0.19720000  1.0 -0.3635370217
C  C31  1  0.31190000  0.06940000  0.19380000  1.0 0.0719293684
C  C32  1  0.32650000  0.08870000  0.15130000  1.0 -0.115561812
C  C33  1  0.27400000  0.08330000  0.12210000  1.0 -0.080264557
C  C34  1  0.20500000  0.05960000  0.13160000  1.0 -0.0592552643
C  C35  1  0.19100000  0.04030000  0.17420000  1.0 -0.0592552643
C  C36  1  0.24300000  0.04570000  0.20330000  1.0 -0.1415745946
C  C37  1  0.36900000  0.07680000  0.22100000  1.0 -0.0277284186
C  C38  1  0.42020000  0.02500000  0.22140000  1.0 0.038786573
C  C39  1  0.15640000  0.05650000  0.09920000  1.0 0.5504162397
C  C40  1  0.42600000  0.97250000  0.19720000  1.0 -0.3635370217
C  C41  1  0.56940000  0.81190000  0.30620000  1.0 0.0719293684
C  C42  1  0.58870000  0.82650000  0.34870000  1.0 -0.1149705115
C  C43  1  0.58330000  0.77400000  0.37790000  1.0 -0.080264557
C  C44  1  0.55960000  0.70500000  0.36840000  1.0 -0.0592552643
C  C45  1  0.54030000  0.69100000  0.32580000  1.0 -0.0592552643
C  C46  1  0.54570000  0.74300000  0.29670000  1.0 -0.1415745946
C  C47  1  0.57680000  0.86900000  0.27900000  1.0 -0.0277284186
C  C48  1  0.52500000  0.92020000  0.27860000  1.0 0.038786573
C  C49  1  0.55650000  0.65640000  0.40080000  1.0 0.5504162397
C  C50  1  0.47250000  0.92600000  0.30280000  1.0 -0.3635370217
C  C51  1  0.43060000  0.18810000  0.30620000  1.0 0.0719293684
C  C52  1  0.41130000  0.17350000  0.34870000  1.0 -0.115561812
C  C53  1  0.41670000  0.22600000  0.37790000  1.0 -0.080264557
C  C54  1  0.44040000  0.29500000  0.36840000  1.0 -0.0592552643
C  C55  1  0.45970000  0.30900000  0.32580000  1.0 -0.0592552643
C  C56  1  0.45430000  0.25700000  0.29670000  1.0 -0.1415745946
C  C57  1  0.42320000  0.13100000  0.27900000  1.0 -0.0277284186
C  C58  1  0.47500000  0.07980000  0.27860000  1.0 0.038786573
C  C59  1  0.44350000  0.34360000  0.40080000  1.0 0.5504162397
C  C60  1  0.52750000  0.07400000  0.30280000  1.0 -0.3635370217
C  C61  1  0.81190000  0.43060000  0.30620000  1.0 0.0719293684
C  C62  1  0.82650000  0.41130000  0.34870000  1.0 -0.115561812
C  C63  1  0.77400000  0.41670000  0.37790000  1.0 -0.080264557
C  C64  1  0.70500000  0.44040000  0.36840000  1.0 -0.0592552643
C  C65  1  0.69100000  0.45970000  0.32580000  1.0 -0.0592552643
C  C66  1  0.74300000  0.45430000  0.29670000  1.0 -0.1415745946
C  C67  1  0.86900000  0.42320000  0.27900000  1.0 -0.0277284186
C  C68  1  0.92020000  0.47500000  0.27860000  1.0 0.038786573
C  C69  1  0.65640000  0.44350000  0.40080000  1.0 0.5504162397
C  C70  1  0.92600000  0.52750000  0.30280000  1.0 -0.3635370217
C  C71  1  0.18810000  0.56940000  0.30620000  1.0 0.0719293684
C  C72  1  0.17350000  0.58870000  0.34870000  1.0 -0.115561812
C  C73  1  0.22600000  0.58330000  0.37790000  1.0 -0.080264557
C  C74  1  0.29500000  0.55960000  0.36840000  1.0 -0.0592552643
C  C75  1  0.30900000  0.54030000  0.32580000  1.0 -0.0592552643
C  C76  1  0.25700000  0.54570000  0.29670000  1.0 -0.1415745946
C  C77  1  0.13100000  0.57680000  0.27900000  1.0 -0.0277284186
C  C78  1  0.07980000  0.52500000  0.27860000  1.0 0.038786573
C  C79  1  0.34360000  0.55650000  0.40080000  1.0 0.5504162397
C  C80  1  0.07400000  0.47250000  0.30280000  1.0 -0.3635370217
C  C81  1  0.06940000  0.68810000  0.80620000  1.0 0.0719293684
C  C82  1  0.08870000  0.67350000  0.84870000  1.0 -0.115561812
C  C83  1  0.08330000  0.72600000  0.87790000  1.0 -0.080264557
C  C84  1  0.05960000  0.79500000  0.86840000  1.0 -0.0592552643
C  C85  1  0.04030000  0.80900000  0.82580000  1.0 -0.0592552643
C  C86  1  0.04570000  0.75700000  0.79670000  1.0 -0.1415745946
C  C87  1  0.07680000  0.63100000  0.77900000  1.0 -0.0277284186
C  C88  1  0.02500000  0.57980000  0.77860000  1.0 0.038786573
C  C89  1  0.05650000  0.84360000  0.90080000  1.0 0.5504162397
C  C90  1  0.97250000  0.57400000  0.80280000  1.0 -0.3635370217
C  C91  1  0.93060000  0.31190000  0.80620000  1.0 0.0719293684
C  C92  1  0.91130000  0.32650000  0.84870000  1.0 -0.115561812
C  C93  1  0.91670000  0.27400000  0.87790000  1.0 -0.080264557
C  C94  1  0.94040000  0.20500000  0.86840000  1.0 -0.0592552643
C  C95  1  0.95970000  0.19100000  0.82580000  1.0 -0.0592552643
C  C96  1  0.95430000  0.24300000  0.79670000  1.0 -0.1415745946
C  C97  1  0.92320000  0.36900000  0.77900000  1.0 -0.0277284186
C  C98  1  0.97500000  0.42020000  0.77860000  1.0 0.038786573
C  C99  1  0.94350000  0.15640000  0.90080000  1.0 0.5504162397
C  C100  1  0.02750000  0.42600000  0.80280000  1.0 -0.3635370217
C  C101  1  0.31190000  0.06940000  0.80620000  1.0 0.0719293684
C  C102  1  0.32650000  0.08870000  0.84870000  1.0 -0.115561812
C  C103  1  0.27400000  0.08330000  0.87790000  1.0 -0.080264557
C  C104  1  0.20500000  0.05960000  0.86840000  1.0 -0.0592552643
C  C105  1  0.19100000  0.04030000  0.82580000  1.0 -0.0592552643
C  C106  1  0.24300000  0.04570000  0.79670000  1.0 -0.1415745946
C  C107  1  0.36900000  0.07680000  0.77900000  1.0 -0.0277284186
C  C108  1  0.42020000  0.02500000  0.77860000  1.0 0.038786573
C  C109  1  0.15640000  0.05650000  0.90080000  1.0 0.5504162397
C  C110  1  0.42600000  0.97250000  0.80280000  1.0 -0.3635370217
C  C111  1  0.68810000  0.93060000  0.80620000  1.0 0.0719293684
C  C112  1  0.67350000  0.91130000  0.84870000  1.0 -0.115561812
C  C113  1  0.72600000  0.91670000  0.87790000  1.0 -0.080264557
C  C114  1  0.79500000  0.94040000  0.86840000  1.0 -0.0592552643
C  C115  1  0.80900000  0.95970000  0.82580000  1.0 -0.0592552643
C  C116  1  0.75700000  0.95430000  0.79670000  1.0 -0.1415745946
C  C117  1  0.63100000  0.92320000  0.77900000  1.0 -0.0277284186
C  C118  1  0.57980000  0.97500000  0.77860000  1.0 0.038786573
C  C119  1  0.84360000  0.94350000  0.90080000  1.0 0.5504162397
C  C120  1  0.57400000  0.02750000  0.80280000  1.0 -0.3635370217
C  C121  1  0.43060000  0.18810000  0.69380000  1.0 0.0719293684
C  C122  1  0.41130000  0.17350000  0.65130000  1.0 -0.115561812
C  C123  1  0.41670000  0.22600000  0.62210000  1.0 -0.080264557
C  C124  1  0.44040000  0.29500000  0.63160000  1.0 -0.0592552643
C  C125  1  0.45970000  0.30900000  0.67420000  1.0 -0.0592552643
C  C126  1  0.45430000  0.25700000  0.70330000  1.0 -0.1415745946
C  C127  1  0.42320000  0.13100000  0.72100000  1.0 -0.0277284186
C  C128  1  0.47500000  0.07980000  0.72140000  1.0 0.038786573
C  C129  1  0.44350000  0.34360000  0.59920000  1.0 0.5504162397
C  C130  1  0.52750000  0.07400000  0.69720000  1.0 -0.3635370217
C  C131  1  0.56940000  0.81190000  0.69380000  1.0 0.0719293684
C  C132  1  0.58870000  0.82650000  0.65130000  1.0 -0.115561812
C  C133  1  0.58330000  0.77400000  0.62210000  1.0 -0.080264557
C  C134  1  0.55960000  0.70500000  0.63160000  1.0 -0.0592552643
C  C135  1  0.54030000  0.69100000  0.67420000  1.0 -0.0592552643
C  C136  1  0.54570000  0.74300000  0.70330000  1.0 -0.1415745946
C  C137  1  0.57680000  0.86900000  0.72100000  1.0 -0.0277284186
C  C138  1  0.52500000  0.92020000  0.72140000  1.0 0.038786573
C  C139  1  0.55650000  0.65640000  0.59920000  1.0 0.5504162397
C  C140  1  0.47250000  0.92600000  0.69720000  1.0 -0.3635370217
C  C141  1  0.18810000  0.56940000  0.69380000  1.0 0.0719293684
C  C142  1  0.17350000  0.58870000  0.65130000  1.0 -0.115561812
C  C143  1  0.22600000  0.58330000  0.62210000  1.0 -0.080264557
C  C144  1  0.29500000  0.55960000  0.63160000  1.0 -0.0592552643
C  C145  1  0.30900000  0.54030000  0.67420000  1.0 -0.0592552643
C  C146  1  0.25700000  0.54570000  0.70330000  1.0 -0.1415745946
C  C147  1  0.13100000  0.57680000  0.72100000  1.0 -0.0277284186
C  C148  1  0.07980000  0.52500000  0.72140000  1.0 0.038786573
C  C149  1  0.34360000  0.55650000  0.59920000  1.0 0.5504162397
C  C150  1  0.07400000  0.47250000  0.69720000  1.0 -0.3635370217
C  C151  1  0.81190000  0.43060000  0.69380000  1.0 0.0719293684
C  C152  1  0.82650000  0.41130000  0.65130000  1.0 -0.115561812
C  C153  1  0.77400000  0.41670000  0.62210000  1.0 -0.080264557
C  C154  1  0.70500000  0.44040000  0.63160000  1.0 -0.0592552643
C  C155  1  0.69100000  0.45970000  0.67420000  1.0 -0.0592552643
C  C156  1  0.74300000  0.45430000  0.70330000  1.0 -0.1415745946
C  C157  1  0.86900000  0.42320000  0.72100000  1.0 -0.0277284186
C  C158  1  0.92020000  0.47500000  0.72140000  1.0 0.038786573
C  C159  1  0.65640000  0.44350000  0.59920000  1.0 0.5504162397
C  C160  1  0.92600000  0.52750000  0.69720000  1.0 -0.3635370217
C  C161  1  0.97400000  0.47400000  0.25000000  1.0 -0.0592552643
C  C162  1  0.87040000  0.37040000  0.25000000  1.0 -0.0540514842
C  C163  1  0.81960000  0.31960000  0.25000000  1.0 -0.1415745946
C  C164  1  0.02600000  0.52600000  0.25000000  1.0 -0.0592552643
C  C165  1  0.12960000  0.62960000  0.25000000  1.0 -0.0540514842
C  C166  1  0.18040000  0.68040000  0.25000000  1.0 -0.1415745946
C  C167  1  0.52600000  0.97400000  0.25000000  1.0 -0.0592552643
C  C168  1  0.62960000  0.87040000  0.25000000  1.0 -0.0540514842
C  C169  1  0.68040000  0.81960000  0.25000000  1.0 -0.1415745946
C  C170  1  0.47400000  0.02600000  0.25000000  1.0 -0.0592552643
C  C171  1  0.37040000  0.12960000  0.25000000  1.0 -0.0540514842
C  C172  1  0.31960000  0.18040000  0.25000000  1.0 -0.1415745946
C  C173  1  0.02600000  0.52600000  0.75000000  1.0 -0.0592552643
C  C174  1  0.12960000  0.62960000  0.75000000  1.0 -0.0540514842
C  C175  1  0.18040000  0.68040000  0.75000000  1.0 -0.1415745946
C  C176  1  0.97400000  0.47400000  0.75000000  1.0 -0.0592552643
C  C177  1  0.87040000  0.37040000  0.75000000  1.0 -0.0540514842
C  C178  1  0.81960000  0.31960000  0.75000000  1.0 -0.1415745946
C  C179  1  0.47400000  0.02600000  0.75000000  1.0 -0.0592552643
C  C180  1  0.37040000  0.12960000  0.75000000  1.0 -0.0540514842
C  C181  1  0.31960000  0.18040000  0.75000000  1.0 -0.1415745946
C  C182  1  0.52600000  0.97400000  0.75000000  1.0 -0.0592552643
C  C183  1  0.62960000  0.87040000  0.75000000  1.0 -0.0540514842
C  C184  1  0.68040000  0.81960000  0.75000000  1.0 -0.1415745946
O  O1  1  0.97600000  0.09190000  0.10780000  1.0 -0.5015934657
O  O2  1  0.92100000  0.02700000  0.03830000  1.0 -0.6080013725
O  O3  1  0.94000000  0.17400000  0.05750000  1.0 -0.5842732895
O  O4  1  0.02400000  0.90810000  0.10780000  1.0 -0.5015934657
O  O5  1  0.07900000  0.97300000  0.03830000  1.0 -0.6080013725
O  O6  1  0.06000000  0.82600000  0.05750000  1.0 -0.5842732895
O  O7  1  0.90810000  0.97600000  0.10780000  1.0 -0.5015934657
O  O8  1  0.97300000  0.92100000  0.03830000  1.0 -0.6080013725
O  O9  1  0.82600000  0.94000000  0.05750000  1.0 -0.5842732895
O  O10  1  0.09190000  0.02400000  0.10780000  1.0 -0.5015934657
O  O11  1  0.02700000  0.07900000  0.03830000  1.0 -0.6080013725
O  O12  1  0.17400000  0.06000000  0.05750000  1.0 -0.5842732895
O  O13  1  0.52400000  0.59190000  0.39220000  1.0 -0.5015934657
O  O14  1  0.57900000  0.52700000  0.46170000  1.0 -0.6080013725
O  O15  1  0.56000000  0.67400000  0.44250000  1.0 -0.5842732895
O  O16  1  0.47600000  0.40810000  0.39220000  1.0 -0.5015934657
O  O17  1  0.42100000  0.47300000  0.46170000  1.0 -0.6080013725
O  O18  1  0.44000000  0.32600000  0.44250000  1.0 -0.5842732895
O  O19  1  0.59190000  0.47600000  0.39220000  1.0 -0.5015934657
O  O20  1  0.52700000  0.42100000  0.46170000  1.0 -0.6080013725
O  O21  1  0.67400000  0.44000000  0.44250000  1.0 -0.5842732895
O  O22  1  0.40810000  0.52400000  0.39220000  1.0 -0.5015934657
O  O23  1  0.47300000  0.57900000  0.46170000  1.0 -0.6080013725
O  O24  1  0.32600000  0.56000000  0.44250000  1.0 -0.5842732895
O  O25  1  0.02400000  0.90810000  0.89220000  1.0 -0.5015934657
O  O26  1  0.07900000  0.97300000  0.96170000  1.0 -0.6080013725
O  O27  1  0.06000000  0.82600000  0.94250000  1.0 -0.5842732895
O  O28  1  0.97600000  0.09190000  0.89220000  1.0 -0.5015934657
O  O29  1  0.92100000  0.02700000  0.96170000  1.0 -0.6080013725
O  O30  1  0.94000000  0.17400000  0.94250000  1.0 -0.5842732895
O  O31  1  0.09190000  0.02400000  0.89220000  1.0 -0.5015934657
O  O32  1  0.02700000  0.07900000  0.96170000  1.0 -0.6080013725
O  O33  1  0.17400000  0.06000000  0.94250000  1.0 -0.5854783047
O  O34  1  0.90810000  0.97600000  0.89220000  1.0 -0.5015934657
O  O35  1  0.97300000  0.92100000  0.96170000  1.0 -0.6080013725
O  O36  1  0.82600000  0.94000000  0.94250000  1.0 -0.5842732895
O  O37  1  0.47600000  0.40810000  0.60780000  1.0 -0.5015934657
O  O38  1  0.42100000  0.47300000  0.53830000  1.0 -0.6080013725
O  O39  1  0.44000000  0.32600000  0.55750000  1.0 -0.5842732895
O  O40  1  0.52400000  0.59190000  0.60780000  1.0 -0.5015934657
O  O41  1  0.57900000  0.52700000  0.53830000  1.0 -0.6080013725
O  O42  1  0.56000000  0.67400000  0.55750000  1.0 -0.5842732895
O  O43  1  0.40810000  0.52400000  0.60780000  1.0 -0.5015934657
O  O44  1  0.47300000  0.57900000  0.53830000  1.0 -0.6080013725
O  O45  1  0.32600000  0.56000000  0.55750000  1.0 -0.5842732895
O  O46  1  0.59190000  0.47600000  0.60780000  1.0 -0.5015934657
O  O47  1  0.52700000  0.42100000  0.53830000  1.0 -0.6080013725
O  O48  1  0.67400000  0.44000000  0.55750000  1.0 -0.5842732895
