# DDEC6 charges by PACMAN v1.1 (https://github.com/mtap-research/PACMAN-charge/)
data_NEVTIU03_ASR_pacman
_symmetry_space_group_name_H-M   'P 1'
_cell_length_a   19.34300000
_cell_length_b   19.34300000
_cell_length_c   32.30720000
_cell_angle_alpha   90.00000000
_cell_angle_beta   90.00000000
_cell_angle_gamma   90.00000000
_symmetry_Int_Tables_number   1
_chemical_formula_structural   Hf3H28(C23O6)2
_chemical_formula_sum   'Hf12 H112 C184 O48'
_cell_volume   12087.79215457
_cell_formula_units_Z   4
loop_
 _symmetry_equiv_pos_site_id
 _symmetry_equiv_pos_as_xyz
  1  'x, y, z'
loop_
 _atom_site_type_symbol
 _atom_site_label
 _atom_site_symmetry_multiplicity
 _atom_site_fract_x
 _atom_site_fract_y
 _atom_site_fract_z
 _atom_site_occupancy
 _atom_site_charge
Hf  Hf1  1  0.95856000  0.12178000  0.00000000  1.0 1.5308176556
Hf  Hf2  1  0.04144000  0.87822000  0.00000000  1.0 1.5308176556
Hf  Hf3  1  0.87822000  0.95856000  0.00000000  1.0 1.523050773
Hf  Hf4  1  0.12178000  0.04144000  0.00000000  1.0 1.5308176556
Hf  Hf5  1  0.54144000  0.62178000  0.50000000  1.0 1.523050773
Hf  Hf6  1  0.45856000  0.37822000  0.50000000  1.0 1.523050773
Hf  Hf7  1  0.62178000  0.45856000  0.50000000  1.0 1.523050773
Hf  Hf8  1  0.37822000  0.54144000  0.50000000  1.0 1.523050773
Hf  Hf9  1  0.00000000  0.00000000  0.07572000  1.0 1.5415100931
Hf  Hf10  1  0.50000000  0.50000000  0.42428000  1.0 1.5415100931
Hf  Hf11  1  0.00000000  0.00000000  0.92428000  1.0 1.5415100931
Hf  Hf12  1  0.50000000  0.50000000  0.57572000  1.0 1.5415100931
H  H1  1  0.89640000  0.37120000  0.14350000  1.0 0.130239332
H  H2  1  0.90530000  0.28340000  0.09500000  1.0 0.1082908763
H  H3  1  0.97490000  0.15120000  0.18190000  1.0 0.1248974754
H  H4  1  0.96610000  0.23890000  0.23020000  1.0 0.1396009038
H  H5  1  0.06060000  0.38300000  0.20120000  1.0 0.1467585443
H  H6  1  0.05580000  0.46390000  0.20140000  1.0 0.1396009038
H  H7  1  0.01540000  0.42120000  0.16800000  1.0 0.1396009038
H  H8  1  0.10360000  0.62880000  0.14350000  1.0 0.130239332
H  H9  1  0.09470000  0.71660000  0.09500000  1.0 0.1082908763
H  H10  1  0.02510000  0.84880000  0.18190000  1.0 0.1248974754
H  H11  1  0.03390000  0.76110000  0.23020000  1.0 0.1396009038
H  H12  1  0.93940000  0.61700000  0.20120000  1.0 0.1467585443
H  H13  1  0.94420000  0.53610000  0.20140000  1.0 0.1396009038
H  H14  1  0.98460000  0.57880000  0.16800000  1.0 0.1396009038
H  H15  1  0.62880000  0.89640000  0.14350000  1.0 0.130239332
H  H16  1  0.71660000  0.90530000  0.09500000  1.0 0.1082908763
H  H17  1  0.84880000  0.97490000  0.18190000  1.0 0.1248974754
H  H18  1  0.76110000  0.96610000  0.23020000  1.0 0.1396009038
H  H19  1  0.61700000  0.06060000  0.20120000  1.0 0.1467585443
H  H20  1  0.53610000  0.05580000  0.20140000  1.0 0.1396009038
H  H21  1  0.57880000  0.01540000  0.16800000  1.0 0.1396009038
H  H22  1  0.37120000  0.10360000  0.14350000  1.0 0.130239332
H  H23  1  0.28340000  0.09470000  0.09500000  1.0 0.1082908763
H  H24  1  0.15120000  0.02510000  0.18190000  1.0 0.1248974754
H  H25  1  0.23890000  0.03390000  0.23020000  1.0 0.1396009038
H  H26  1  0.38300000  0.93940000  0.20120000  1.0 0.1467585443
H  H27  1  0.46390000  0.94420000  0.20140000  1.0 0.1396009038
H  H28  1  0.42120000  0.98460000  0.16800000  1.0 0.1396009038
H  H29  1  0.60360000  0.87120000  0.35650000  1.0 0.130239332
H  H30  1  0.59470000  0.78340000  0.40500000  1.0 0.1082908763
H  H31  1  0.52510000  0.65120000  0.31810000  1.0 0.1248974754
H  H32  1  0.53390000  0.73890000  0.26980000  1.0 0.130239332
H  H33  1  0.43940000  0.88300000  0.29880000  1.0 0.1467585443
H  H34  1  0.44420000  0.96390000  0.29860000  1.0 0.1396009038
H  H35  1  0.48460000  0.92120000  0.33200000  1.0 0.1396009038
H  H36  1  0.39640000  0.12880000  0.35650000  1.0 0.130239332
H  H37  1  0.40530000  0.21660000  0.40500000  1.0 0.1082908763
H  H38  1  0.47490000  0.34880000  0.31810000  1.0 0.1248974754
H  H39  1  0.46610000  0.26110000  0.26980000  1.0 0.130239332
H  H40  1  0.56060000  0.11700000  0.29880000  1.0 0.1467585443
H  H41  1  0.55580000  0.03610000  0.29860000  1.0 0.1396009038
H  H42  1  0.51540000  0.07880000  0.33200000  1.0 0.1396009038
H  H43  1  0.87120000  0.39640000  0.35650000  1.0 0.130239332
H  H44  1  0.78340000  0.40530000  0.40500000  1.0 0.1082908763
H  H45  1  0.65120000  0.47490000  0.31810000  1.0 0.1248974754
H  H46  1  0.73890000  0.46610000  0.26980000  1.0 0.130239332
H  H47  1  0.88300000  0.56060000  0.29880000  1.0 0.1467585443
H  H48  1  0.96390000  0.55580000  0.29860000  1.0 0.1396009038
H  H49  1  0.92120000  0.51540000  0.33200000  1.0 0.1396009038
H  H50  1  0.12880000  0.60360000  0.35650000  1.0 0.130239332
H  H51  1  0.21660000  0.59470000  0.40500000  1.0 0.1082908763
H  H52  1  0.34880000  0.52510000  0.31810000  1.0 0.1248974754
H  H53  1  0.26110000  0.53390000  0.26980000  1.0 0.130239332
H  H54  1  0.11700000  0.43940000  0.29880000  1.0 0.1467585443
H  H55  1  0.03610000  0.44420000  0.29860000  1.0 0.1396009038
H  H56  1  0.07880000  0.48460000  0.33200000  1.0 0.1396009038
H  H57  1  0.10360000  0.62880000  0.85650000  1.0 0.130239332
H  H58  1  0.09470000  0.71660000  0.90500000  1.0 0.1082908763
H  H59  1  0.02510000  0.84880000  0.81810000  1.0 0.1248974754
H  H60  1  0.03390000  0.76110000  0.76980000  1.0 0.1396009038
H  H61  1  0.93940000  0.61700000  0.79880000  1.0 0.1467585443
H  H62  1  0.94420000  0.53610000  0.79860000  1.0 0.1396009038
H  H63  1  0.98460000  0.57880000  0.83200000  1.0 0.1396009038
H  H64  1  0.89640000  0.37120000  0.85650000  1.0 0.130239332
H  H65  1  0.90530000  0.28340000  0.90500000  1.0 0.1082908763
H  H66  1  0.97490000  0.15120000  0.81810000  1.0 0.1248974754
H  H67  1  0.96610000  0.23890000  0.76980000  1.0 0.1396009038
H  H68  1  0.06060000  0.38300000  0.79880000  1.0 0.1467585443
H  H69  1  0.05580000  0.46390000  0.79860000  1.0 0.1396009038
H  H70  1  0.01540000  0.42120000  0.83200000  1.0 0.1396009038
H  H71  1  0.37120000  0.10360000  0.85650000  1.0 0.130239332
H  H72  1  0.28340000  0.09470000  0.90500000  1.0 0.1082908763
H  H73  1  0.15120000  0.02510000  0.81810000  1.0 0.1248974754
H  H74  1  0.23890000  0.03390000  0.76980000  1.0 0.1396009038
H  H75  1  0.38300000  0.93940000  0.79880000  1.0 0.1467585443
H  H76  1  0.46390000  0.94420000  0.79860000  1.0 0.1396009038
H  H77  1  0.42120000  0.98460000  0.83200000  1.0 0.1396009038
H  H78  1  0.62880000  0.89640000  0.85650000  1.0 0.130239332
H  H79  1  0.71660000  0.90530000  0.90500000  1.0 0.1082908763
H  H80  1  0.84880000  0.97490000  0.81810000  1.0 0.1248974754
H  H81  1  0.76110000  0.96610000  0.76980000  1.0 0.1396009038
H  H82  1  0.61700000  0.06060000  0.79880000  1.0 0.1467585443
H  H83  1  0.53610000  0.05580000  0.79860000  1.0 0.1396009038
H  H84  1  0.57880000  0.01540000  0.83200000  1.0 0.1396009038
H  H85  1  0.39640000  0.12880000  0.64350000  1.0 0.130239332
H  H86  1  0.40530000  0.21660000  0.59500000  1.0 0.1082908763
H  H87  1  0.47490000  0.34880000  0.68190000  1.0 0.130239332
H  H88  1  0.46610000  0.26110000  0.73020000  1.0 0.130239332
H  H89  1  0.56060000  0.11700000  0.70120000  1.0 0.1467585443
H  H90  1  0.55580000  0.03610000  0.70140000  1.0 0.1396009038
H  H91  1  0.51540000  0.07880000  0.66800000  1.0 0.1396009038
H  H92  1  0.60360000  0.87120000  0.64350000  1.0 0.130239332
H  H93  1  0.59470000  0.78340000  0.59500000  1.0 0.1082908763
H  H94  1  0.52510000  0.65120000  0.68190000  1.0 0.130239332
H  H95  1  0.53390000  0.73890000  0.73020000  1.0 0.130239332
H  H96  1  0.43940000  0.88300000  0.70120000  1.0 0.1467585443
H  H97  1  0.44420000  0.96390000  0.70140000  1.0 0.1396009038
H  H98  1  0.48460000  0.92120000  0.66800000  1.0 0.1396009038
H  H99  1  0.12880000  0.60360000  0.64350000  1.0 0.130239332
H  H100  1  0.21660000  0.59470000  0.59500000  1.0 0.1082908763
H  H101  1  0.34880000  0.52510000  0.68190000  1.0 0.130239332
H  H102  1  0.26110000  0.53390000  0.73020000  1.0 0.130239332
H  H103  1  0.11700000  0.43940000  0.70120000  1.0 0.1467585443
H  H104  1  0.03610000  0.44420000  0.70140000  1.0 0.1396009038
H  H105  1  0.07880000  0.48460000  0.66800000  1.0 0.1396009038
H  H106  1  0.87120000  0.39640000  0.64350000  1.0 0.130239332
H  H107  1  0.78340000  0.40530000  0.59500000  1.0 0.1082908763
H  H108  1  0.65120000  0.47490000  0.68190000  1.0 0.130239332
H  H109  1  0.73890000  0.46610000  0.73020000  1.0 0.130239332
H  H110  1  0.88300000  0.56060000  0.70120000  1.0 0.1467585443
H  H111  1  0.96390000  0.55580000  0.70140000  1.0 0.1396009038
H  H112  1  0.92120000  0.51540000  0.66800000  1.0 0.1396009038
C  C1  1  0.93125000  0.31255000  0.19309000  1.0 0.0892314446
C  C2  1  0.91202000  0.32752000  0.15113000  1.0 -0.1473406077
C  C3  1  0.91759000  0.27435000  0.12233000  1.0 -0.0610609538
C  C4  1  0.93999000  0.21012000  0.13209000  1.0 -0.0943410927
C  C5  1  0.95931000  0.19491000  0.17423000  1.0 -0.0610609538
C  C6  1  0.95379000  0.24790000  0.20291000  1.0 -0.1473406077
C  C7  1  0.92507000  0.36765000  0.22169000  1.0 -0.0165649103
C  C8  1  0.97590000  0.41845000  0.22166000  1.0 0.051609476
C  C9  1  0.94566000  0.15606000  0.10287000  1.0 0.5631513475
C  C10  1  0.03086000  0.42187000  0.19624000  1.0 -0.393764953
C  C11  1  0.06875000  0.68745000  0.19309000  1.0 0.0892314446
C  C12  1  0.08798000  0.67248000  0.15113000  1.0 -0.1473406077
C  C13  1  0.08241000  0.72565000  0.12233000  1.0 -0.0610609538
C  C14  1  0.06001000  0.78988000  0.13209000  1.0 -0.0943410927
C  C15  1  0.04069000  0.80509000  0.17423000  1.0 -0.0610609538
C  C16  1  0.04621000  0.75210000  0.20291000  1.0 -0.1473406077
C  C17  1  0.07493000  0.63235000  0.22169000  1.0 -0.0165649103
C  C18  1  0.02410000  0.58155000  0.22166000  1.0 0.051609476
C  C19  1  0.05434000  0.84394000  0.10287000  1.0 0.5631513475
C  C20  1  0.96914000  0.57813000  0.19624000  1.0 -0.393764953
C  C21  1  0.68745000  0.93125000  0.19309000  1.0 0.0892314446
C  C22  1  0.67248000  0.91202000  0.15113000  1.0 -0.1473406077
C  C23  1  0.72565000  0.91759000  0.12233000  1.0 -0.0610609538
C  C24  1  0.78988000  0.93999000  0.13209000  1.0 -0.0943410927
C  C25  1  0.80509000  0.95931000  0.17423000  1.0 -0.0610609538
C  C26  1  0.75210000  0.95379000  0.20291000  1.0 -0.1473406077
C  C27  1  0.63235000  0.92507000  0.22169000  1.0 -0.0165649103
C  C28  1  0.58155000  0.97590000  0.22166000  1.0 0.051609476
C  C29  1  0.84394000  0.94566000  0.10287000  1.0 0.5631513475
C  C30  1  0.57813000  0.03086000  0.19624000  1.0 -0.393764953
C  C31  1  0.31255000  0.06875000  0.19309000  1.0 0.0892314446
C  C32  1  0.32752000  0.08798000  0.15113000  1.0 -0.1473406077
C  C33  1  0.27435000  0.08241000  0.12233000  1.0 -0.0610609538
C  C34  1  0.21012000  0.06001000  0.13209000  1.0 -0.0943410927
C  C35  1  0.19491000  0.04069000  0.17423000  1.0 -0.0610609538
C  C36  1  0.24790000  0.04621000  0.20291000  1.0 -0.1473406077
C  C37  1  0.36765000  0.07493000  0.22169000  1.0 -0.0165649103
C  C38  1  0.41845000  0.02410000  0.22166000  1.0 0.051609476
C  C39  1  0.15606000  0.05434000  0.10287000  1.0 0.5631513475
C  C40  1  0.42187000  0.96914000  0.19624000  1.0 -0.393764953
C  C41  1  0.56875000  0.81255000  0.30691000  1.0 0.0892314446
C  C42  1  0.58798000  0.82752000  0.34887000  1.0 -0.1473406077
C  C43  1  0.58241000  0.77435000  0.37767000  1.0 -0.0610609538
C  C44  1  0.56001000  0.71012000  0.36791000  1.0 -0.0954368011
C  C45  1  0.54069000  0.69491000  0.32577000  1.0 -0.0610609538
C  C46  1  0.54621000  0.74790000  0.29709000  1.0 -0.1473406077
C  C47  1  0.57493000  0.86765000  0.27831000  1.0 -0.0165649103
C  C48  1  0.52410000  0.91845000  0.27834000  1.0 0.051609476
C  C49  1  0.55434000  0.65606000  0.39713000  1.0 0.5631513475
C  C50  1  0.46914000  0.92187000  0.30376000  1.0 -0.393764953
C  C51  1  0.43125000  0.18745000  0.30691000  1.0 0.0892314446
C  C52  1  0.41202000  0.17248000  0.34887000  1.0 -0.1473406077
C  C53  1  0.41759000  0.22565000  0.37767000  1.0 -0.0610609538
C  C54  1  0.43999000  0.28988000  0.36791000  1.0 -0.0954368011
C  C55  1  0.45931000  0.30509000  0.32577000  1.0 -0.0610609538
C  C56  1  0.45379000  0.25210000  0.29709000  1.0 -0.1473406077
C  C57  1  0.42507000  0.13235000  0.27831000  1.0 -0.0165649103
C  C58  1  0.47590000  0.08155000  0.27834000  1.0 0.051609476
C  C59  1  0.44566000  0.34394000  0.39713000  1.0 0.5631513475
C  C60  1  0.53086000  0.07813000  0.30376000  1.0 -0.393764953
C  C61  1  0.81255000  0.43125000  0.30691000  1.0 0.0892314446
C  C62  1  0.82752000  0.41202000  0.34887000  1.0 -0.1473406077
C  C63  1  0.77435000  0.41759000  0.37767000  1.0 -0.0610609538
C  C64  1  0.71012000  0.43999000  0.36791000  1.0 -0.0954368011
C  C65  1  0.69491000  0.45931000  0.32577000  1.0 -0.0610609538
C  C66  1  0.74790000  0.45379000  0.29709000  1.0 -0.1473406077
C  C67  1  0.86765000  0.42507000  0.27831000  1.0 -0.0165649103
C  C68  1  0.91845000  0.47590000  0.27834000  1.0 0.051609476
C  C69  1  0.65606000  0.44566000  0.39713000  1.0 0.5631513475
C  C70  1  0.92187000  0.53086000  0.30376000  1.0 -0.393764953
C  C71  1  0.18745000  0.56875000  0.30691000  1.0 0.0892314446
C  C72  1  0.17248000  0.58798000  0.34887000  1.0 -0.1473406077
C  C73  1  0.22565000  0.58241000  0.37767000  1.0 -0.0610609538
C  C74  1  0.28988000  0.56001000  0.36791000  1.0 -0.0954368011
C  C75  1  0.30509000  0.54069000  0.32577000  1.0 -0.0610609538
C  C76  1  0.25210000  0.54621000  0.29709000  1.0 -0.1473406077
C  C77  1  0.13235000  0.57493000  0.27831000  1.0 -0.0165649103
C  C78  1  0.08155000  0.52410000  0.27834000  1.0 0.051609476
C  C79  1  0.34394000  0.55434000  0.39713000  1.0 0.5631513475
C  C80  1  0.07813000  0.46914000  0.30376000  1.0 -0.393764953
C  C81  1  0.06875000  0.68745000  0.80691000  1.0 0.0892314446
C  C82  1  0.08798000  0.67248000  0.84887000  1.0 -0.1473406077
C  C83  1  0.08241000  0.72565000  0.87767000  1.0 -0.0610609538
C  C84  1  0.06001000  0.78988000  0.86791000  1.0 -0.0943410927
C  C85  1  0.04069000  0.80509000  0.82577000  1.0 -0.0610609538
C  C86  1  0.04621000  0.75210000  0.79709000  1.0 -0.1473406077
C  C87  1  0.07493000  0.63235000  0.77831000  1.0 -0.0165649103
C  C88  1  0.02410000  0.58155000  0.77834000  1.0 0.051609476
C  C89  1  0.05434000  0.84394000  0.89713000  1.0 0.5631513475
C  C90  1  0.96914000  0.57813000  0.80376000  1.0 -0.393764953
C  C91  1  0.93125000  0.31255000  0.80691000  1.0 0.0892314446
C  C92  1  0.91202000  0.32752000  0.84887000  1.0 -0.1473406077
C  C93  1  0.91759000  0.27435000  0.87767000  1.0 -0.0610609538
C  C94  1  0.93999000  0.21012000  0.86791000  1.0 -0.0943410927
C  C95  1  0.95931000  0.19491000  0.82577000  1.0 -0.0610609538
C  C96  1  0.95379000  0.24790000  0.79709000  1.0 -0.1473406077
C  C97  1  0.92507000  0.36765000  0.77831000  1.0 -0.0165649103
C  C98  1  0.97590000  0.41845000  0.77834000  1.0 0.051609476
C  C99  1  0.94566000  0.15606000  0.89713000  1.0 0.5631513475
C  C100  1  0.03086000  0.42187000  0.80376000  1.0 -0.393764953
C  C101  1  0.31255000  0.06875000  0.80691000  1.0 0.0892314446
C  C102  1  0.32752000  0.08798000  0.84887000  1.0 -0.1473406077
C  C103  1  0.27435000  0.08241000  0.87767000  1.0 -0.0610609538
C  C104  1  0.21012000  0.06001000  0.86791000  1.0 -0.0943410927
C  C105  1  0.19491000  0.04069000  0.82577000  1.0 -0.0610609538
C  C106  1  0.24790000  0.04621000  0.79709000  1.0 -0.1473406077
C  C107  1  0.36765000  0.07493000  0.77831000  1.0 -0.0165649103
C  C108  1  0.41845000  0.02410000  0.77834000  1.0 0.051609476
C  C109  1  0.15606000  0.05434000  0.89713000  1.0 0.5631513475
C  C110  1  0.42187000  0.96914000  0.80376000  1.0 -0.393764953
C  C111  1  0.68745000  0.93125000  0.80691000  1.0 0.0892314446
C  C112  1  0.67248000  0.91202000  0.84887000  1.0 -0.1473406077
C  C113  1  0.72565000  0.91759000  0.87767000  1.0 -0.0610609538
C  C114  1  0.78988000  0.93999000  0.86791000  1.0 -0.0943410927
C  C115  1  0.80509000  0.95931000  0.82577000  1.0 -0.0610609538
C  C116  1  0.75210000  0.95379000  0.79709000  1.0 -0.1473406077
C  C117  1  0.63235000  0.92507000  0.77831000  1.0 -0.0165649103
C  C118  1  0.58155000  0.97590000  0.77834000  1.0 0.051609476
C  C119  1  0.84394000  0.94566000  0.89713000  1.0 0.5631513475
C  C120  1  0.57813000  0.03086000  0.80376000  1.0 -0.393764953
C  C121  1  0.43125000  0.18745000  0.69309000  1.0 0.0892314446
C  C122  1  0.41202000  0.17248000  0.65113000  1.0 -0.1473406077
C  C123  1  0.41759000  0.22565000  0.62233000  1.0 -0.0610609538
C  C124  1  0.43999000  0.28988000  0.63209000  1.0 -0.0943410927
C  C125  1  0.45931000  0.30509000  0.67423000  1.0 -0.0610609538
C  C126  1  0.45379000  0.25210000  0.70291000  1.0 -0.1473406077
C  C127  1  0.42507000  0.13235000  0.72169000  1.0 -0.0165649103
C  C128  1  0.47590000  0.08155000  0.72166000  1.0 0.051609476
C  C129  1  0.44566000  0.34394000  0.60287000  1.0 0.5631513475
C  C130  1  0.53086000  0.07813000  0.69624000  1.0 -0.393764953
C  C131  1  0.56875000  0.81255000  0.69309000  1.0 0.0892314446
C  C132  1  0.58798000  0.82752000  0.65113000  1.0 -0.1473406077
C  C133  1  0.58241000  0.77435000  0.62233000  1.0 -0.0610609538
C  C134  1  0.56001000  0.71012000  0.63209000  1.0 -0.0943410927
C  C135  1  0.54069000  0.69491000  0.67423000  1.0 -0.0610609538
C  C136  1  0.54621000  0.74790000  0.70291000  1.0 -0.1473406077
C  C137  1  0.57493000  0.86765000  0.72169000  1.0 -0.0165649103
C  C138  1  0.52410000  0.91845000  0.72166000  1.0 0.051609476
C  C139  1  0.55434000  0.65606000  0.60287000  1.0 0.5631513475
C  C140  1  0.46914000  0.92187000  0.69624000  1.0 -0.393764953
C  C141  1  0.18745000  0.56875000  0.69309000  1.0 0.0892314446
C  C142  1  0.17248000  0.58798000  0.65113000  1.0 -0.1473406077
C  C143  1  0.22565000  0.58241000  0.62233000  1.0 -0.0610609538
C  C144  1  0.28988000  0.56001000  0.63209000  1.0 -0.0943410927
C  C145  1  0.30509000  0.54069000  0.67423000  1.0 -0.0610609538
C  C146  1  0.25210000  0.54621000  0.70291000  1.0 -0.1473406077
C  C147  1  0.13235000  0.57493000  0.72169000  1.0 -0.0165649103
C  C148  1  0.08155000  0.52410000  0.72166000  1.0 0.051609476
C  C149  1  0.34394000  0.55434000  0.60287000  1.0 0.5631513475
C  C150  1  0.07813000  0.46914000  0.69624000  1.0 -0.393764953
C  C151  1  0.81255000  0.43125000  0.69309000  1.0 0.0892314446
C  C152  1  0.82752000  0.41202000  0.65113000  1.0 -0.1473406077
C  C153  1  0.77435000  0.41759000  0.62233000  1.0 -0.0610609538
C  C154  1  0.71012000  0.43999000  0.63209000  1.0 -0.0943410927
C  C155  1  0.69491000  0.45931000  0.67423000  1.0 -0.0610609538
C  C156  1  0.74790000  0.45379000  0.70291000  1.0 -0.1473406077
C  C157  1  0.86765000  0.42507000  0.72169000  1.0 -0.0165649103
C  C158  1  0.91845000  0.47590000  0.72166000  1.0 0.051609476
C  C159  1  0.65606000  0.44566000  0.60287000  1.0 0.5631513475
C  C160  1  0.92187000  0.53086000  0.69624000  1.0 -0.393764953
C  C161  1  0.97264000  0.47264000  0.25000000  1.0 -0.0165649103
C  C162  1  0.87099000  0.37099000  0.25000000  1.0 0.0297057748
C  C163  1  0.81839000  0.31839000  0.25000000  1.0 -0.2219140799
C  C164  1  0.02736000  0.52736000  0.25000000  1.0 -0.0165649103
C  C165  1  0.12901000  0.62901000  0.25000000  1.0 0.0297057748
C  C166  1  0.18161000  0.68161000  0.25000000  1.0 -0.2219140799
C  C167  1  0.52736000  0.97264000  0.25000000  1.0 -0.0165649103
C  C168  1  0.62901000  0.87099000  0.25000000  1.0 0.0297057748
C  C169  1  0.68161000  0.81839000  0.25000000  1.0 -0.2219140799
C  C170  1  0.47264000  0.02736000  0.25000000  1.0 -0.0165649103
C  C171  1  0.37099000  0.12901000  0.25000000  1.0 0.0297057748
C  C172  1  0.31839000  0.18161000  0.25000000  1.0 -0.2219140799
C  C173  1  0.02736000  0.52736000  0.75000000  1.0 -0.0165649103
C  C174  1  0.12901000  0.62901000  0.75000000  1.0 0.0297057748
C  C175  1  0.18161000  0.68161000  0.75000000  1.0 -0.2219140799
C  C176  1  0.97264000  0.47264000  0.75000000  1.0 -0.0165649103
C  C177  1  0.87099000  0.37099000  0.75000000  1.0 0.0297057748
C  C178  1  0.81839000  0.31839000  0.75000000  1.0 -0.2219140799
C  C179  1  0.47264000  0.02736000  0.75000000  1.0 -0.0165649103
C  C180  1  0.37099000  0.12901000  0.75000000  1.0 0.0297057748
C  C181  1  0.31839000  0.18161000  0.75000000  1.0 -0.2219140799
C  C182  1  0.52736000  0.97264000  0.75000000  1.0 -0.0165649103
C  C183  1  0.62901000  0.87099000  0.75000000  1.0 0.0297057748
C  C184  1  0.68161000  0.81839000  0.75000000  1.0 -0.2219140799
O  O1  1  0.97440000  0.09041000  0.11000000  1.0 -0.504334581
O  O2  1  0.92120000  0.03900000  0.03670000  1.0 -0.6997072854
O  O3  1  0.94160000  0.16830000  0.05996000  1.0 -0.5466684596
O  O4  1  0.02560000  0.90959000  0.11000000  1.0 -0.5060075209
O  O5  1  0.07880000  0.96100000  0.03670000  1.0 -0.6997072854
O  O6  1  0.05840000  0.83170000  0.05996000  1.0 -0.5466684596
O  O7  1  0.90959000  0.97440000  0.11000000  1.0 -0.504334581
O  O8  1  0.96100000  0.92120000  0.03670000  1.0 -0.6997072854
O  O9  1  0.83170000  0.94160000  0.05996000  1.0 -0.5466684596
O  O10  1  0.09041000  0.02560000  0.11000000  1.0 -0.504334581
O  O11  1  0.03900000  0.07880000  0.03670000  1.0 -0.6997072854
O  O12  1  0.16830000  0.05840000  0.05996000  1.0 -0.5466684596
O  O13  1  0.52560000  0.59041000  0.39000000  1.0 -0.5060075209
O  O14  1  0.57880000  0.53900000  0.46330000  1.0 -0.6997072854
O  O15  1  0.55840000  0.66830000  0.44004000  1.0 -0.5466684596
O  O16  1  0.47440000  0.40959000  0.39000000  1.0 -0.5060075209
O  O17  1  0.42120000  0.46100000  0.46330000  1.0 -0.6997072854
O  O18  1  0.44160000  0.33170000  0.44004000  1.0 -0.5466684596
O  O19  1  0.59041000  0.47440000  0.39000000  1.0 -0.5060075209
O  O20  1  0.53900000  0.42120000  0.46330000  1.0 -0.6997072854
O  O21  1  0.66830000  0.44160000  0.44004000  1.0 -0.5466684596
O  O22  1  0.40959000  0.52560000  0.39000000  1.0 -0.5060075209
O  O23  1  0.46100000  0.57880000  0.46330000  1.0 -0.6997072854
O  O24  1  0.33170000  0.55840000  0.44004000  1.0 -0.5466684596
O  O25  1  0.02560000  0.90959000  0.89000000  1.0 -0.5060075209
O  O26  1  0.07880000  0.96100000  0.96330000  1.0 -0.6997072854
O  O27  1  0.05840000  0.83170000  0.94004000  1.0 -0.5466684596
O  O28  1  0.97440000  0.09041000  0.89000000  1.0 -0.504334581
O  O29  1  0.92120000  0.03900000  0.96330000  1.0 -0.6997072854
O  O30  1  0.94160000  0.16830000  0.94004000  1.0 -0.5466684596
O  O31  1  0.09041000  0.02560000  0.89000000  1.0 -0.5060075209
O  O32  1  0.03900000  0.07880000  0.96330000  1.0 -0.6997072854
O  O33  1  0.16830000  0.05840000  0.94004000  1.0 -0.5466684596
O  O34  1  0.90959000  0.97440000  0.89000000  1.0 -0.504334581
O  O35  1  0.96100000  0.92120000  0.96330000  1.0 -0.6997072854
O  O36  1  0.83170000  0.94160000  0.94004000  1.0 -0.5466684596
O  O37  1  0.47440000  0.40959000  0.61000000  1.0 -0.5060075209
O  O38  1  0.42120000  0.46100000  0.53670000  1.0 -0.6997072854
O  O39  1  0.44160000  0.33170000  0.55996000  1.0 -0.5466684596
O  O40  1  0.52560000  0.59041000  0.61000000  1.0 -0.5060075209
O  O41  1  0.57880000  0.53900000  0.53670000  1.0 -0.6997072854
O  O42  1  0.55840000  0.66830000  0.55996000  1.0 -0.5466684596
O  O43  1  0.40959000  0.52560000  0.61000000  1.0 -0.5060075209
O  O44  1  0.46100000  0.57880000  0.53670000  1.0 -0.6997072854
O  O45  1  0.33170000  0.55840000  0.55996000  1.0 -0.5466684596
O  O46  1  0.59041000  0.47440000  0.61000000  1.0 -0.5060075209
O  O47  1  0.53900000  0.42120000  0.53670000  1.0 -0.6997072854
O  O48  1  0.66830000  0.44160000  0.55996000  1.0 -0.5466684596
