# DDEC6 charges by PACMAN v1.1 (https://github.com/mtap-research/PACMAN-charge/)
data_NEVTIU02_ASR_pacman
_symmetry_space_group_name_H-M   'P 1'
_cell_length_a   19.35670000
_cell_length_b   19.35670000
_cell_length_c   32.03600000
_cell_angle_alpha   90.00000000
_cell_angle_beta   90.00000000
_cell_angle_gamma   90.00000000
_symmetry_Int_Tables_number   1
_chemical_formula_structural   Hf3H40(C23O6)2
_chemical_formula_sum   'Hf12 H160 C184 O48'
_cell_volume   12003.30726254
_cell_formula_units_Z   4
loop_
 _symmetry_equiv_pos_site_id
 _symmetry_equiv_pos_as_xyz
  1  'x, y, z'
loop_
 _atom_site_type_symbol
 _atom_site_label
 _atom_site_symmetry_multiplicity
 _atom_site_fract_x
 _atom_site_fract_y
 _atom_site_fract_z
 _atom_site_occupancy
 _atom_site_charge
Hf  Hf1  1  0.95973000  0.12121000  0.00000000  1.0 1.3898694793
Hf  Hf2  1  0.04027000  0.87879000  0.00000000  1.0 1.3898694793
Hf  Hf3  1  0.87879000  0.95973000  0.00000000  1.0 1.3898694793
Hf  Hf4  1  0.12121000  0.04027000  0.00000000  1.0 1.3898694793
Hf  Hf5  1  0.54027000  0.62121000  0.50000000  1.0 1.3898694793
Hf  Hf6  1  0.45973000  0.37879000  0.50000000  1.0 1.3898694793
Hf  Hf7  1  0.62121000  0.45973000  0.50000000  1.0 1.3898694793
Hf  Hf8  1  0.37879000  0.54027000  0.50000000  1.0 1.3898694793
Hf  Hf9  1  0.00000000  0.00000000  0.07586000  1.0 1.4431069621
Hf  Hf10  1  0.50000000  0.50000000  0.42414000  1.0 1.4431069621
Hf  Hf11  1  0.00000000  0.00000000  0.92414000  1.0 1.4431069621
Hf  Hf12  1  0.50000000  0.50000000  0.57586000  1.0 1.4431069621
H  H1  1  0.89640000  0.36810000  0.14870000  1.0 0.1356134937
H  H2  1  0.89850000  0.28970000  0.09470000  1.0 0.1213999645
H  H3  1  0.97710000  0.15180000  0.17730000  1.0 0.1213999645
H  H4  1  0.97500000  0.23020000  0.23140000  1.0 0.1302090623
H  H5  1  0.06490000  0.38950000  0.20290000  1.0 0.1356134937
H  H6  1  0.05270000  0.46900000  0.19760000  1.0 0.1302090623
H  H7  1  0.01670000  0.41670000  0.16720000  1.0 0.1302090623
H  H8  1  0.81210000  0.30500000  0.22190000  1.0 0.0227925432
H  H9  1  0.77830000  0.33880000  0.26140000  1.0 0.0227925432
H  H10  1  0.83520000  0.28180000  0.26670000  1.0 0.0281914427
H  H11  1  0.10360000  0.63190000  0.14870000  1.0 0.1356134937
H  H12  1  0.10150000  0.71030000  0.09470000  1.0 0.1213999645
H  H13  1  0.02290000  0.84820000  0.17730000  1.0 0.1213999645
H  H14  1  0.02500000  0.76980000  0.23140000  1.0 0.1302090623
H  H15  1  0.93510000  0.61050000  0.20290000  1.0 0.1356134937
H  H16  1  0.94730000  0.53100000  0.19760000  1.0 0.1302090623
H  H17  1  0.98330000  0.58330000  0.16720000  1.0 0.1302090623
H  H18  1  0.18790000  0.69500000  0.22190000  1.0 0.0227925432
H  H19  1  0.22170000  0.66120000  0.26140000  1.0 0.0227925432
H  H20  1  0.16480000  0.71820000  0.26670000  1.0 0.0281914427
H  H21  1  0.63190000  0.89640000  0.14870000  1.0 0.1356134937
H  H22  1  0.71030000  0.89850000  0.09470000  1.0 0.1213999645
H  H23  1  0.84820000  0.97710000  0.17730000  1.0 0.1213999645
H  H24  1  0.76980000  0.97500000  0.23140000  1.0 0.1302090623
H  H25  1  0.61050000  0.06490000  0.20290000  1.0 0.1356134937
H  H26  1  0.53100000  0.05270000  0.19760000  1.0 0.1302090623
H  H27  1  0.58330000  0.01670000  0.16720000  1.0 0.1302090623
H  H28  1  0.69500000  0.81210000  0.22190000  1.0 0.0227925432
H  H29  1  0.66120000  0.77830000  0.26140000  1.0 0.0227925432
H  H30  1  0.71820000  0.83520000  0.26670000  1.0 0.0281914427
H  H31  1  0.36810000  0.10360000  0.14870000  1.0 0.1356134937
H  H32  1  0.28970000  0.10150000  0.09470000  1.0 0.1213999645
H  H33  1  0.15180000  0.02290000  0.17730000  1.0 0.1213999645
H  H34  1  0.23020000  0.02500000  0.23140000  1.0 0.1302090623
H  H35  1  0.38950000  0.93510000  0.20290000  1.0 0.1356134937
H  H36  1  0.46900000  0.94730000  0.19760000  1.0 0.1302090623
H  H37  1  0.41670000  0.98330000  0.16720000  1.0 0.1302090623
H  H38  1  0.30500000  0.18790000  0.22190000  1.0 0.0227925432
H  H39  1  0.33880000  0.22170000  0.26140000  1.0 0.0227925432
H  H40  1  0.28180000  0.16480000  0.26670000  1.0 0.0281914427
H  H41  1  0.60360000  0.86810000  0.35130000  1.0 0.1356134937
H  H42  1  0.60150000  0.78970000  0.40530000  1.0 0.1213999645
H  H43  1  0.52290000  0.65180000  0.32270000  1.0 0.1213999645
H  H44  1  0.52500000  0.73020000  0.26860000  1.0 0.1302090623
H  H45  1  0.43510000  0.88950000  0.29710000  1.0 0.1356134937
H  H46  1  0.44730000  0.96900000  0.30240000  1.0 0.1302090623
H  H47  1  0.48330000  0.91670000  0.33280000  1.0 0.1302090623
H  H48  1  0.68790000  0.80500000  0.27810000  1.0 0.0227925432
H  H49  1  0.72170000  0.83880000  0.23860000  1.0 0.0227925432
H  H50  1  0.66480000  0.78180000  0.23330000  1.0 0.0281914427
H  H51  1  0.39640000  0.13190000  0.35130000  1.0 0.1356134937
H  H52  1  0.39850000  0.21030000  0.40530000  1.0 0.1213999645
H  H53  1  0.47710000  0.34820000  0.32270000  1.0 0.1213999645
H  H54  1  0.47500000  0.26980000  0.26860000  1.0 0.1302090623
H  H55  1  0.56490000  0.11050000  0.29710000  1.0 0.1356134937
H  H56  1  0.55270000  0.03100000  0.30240000  1.0 0.1302090623
H  H57  1  0.51670000  0.08330000  0.33280000  1.0 0.1302090623
H  H58  1  0.31210000  0.19500000  0.27810000  1.0 0.0227925432
H  H59  1  0.27830000  0.16120000  0.23860000  1.0 0.0227925432
H  H60  1  0.33520000  0.21820000  0.23330000  1.0 0.0281914427
H  H61  1  0.86810000  0.39640000  0.35130000  1.0 0.1356134937
H  H62  1  0.78970000  0.39850000  0.40530000  1.0 0.1213999645
H  H63  1  0.65180000  0.47710000  0.32270000  1.0 0.1213999645
H  H64  1  0.73020000  0.47500000  0.26860000  1.0 0.1302090623
H  H65  1  0.88950000  0.56490000  0.29710000  1.0 0.1356134937
H  H66  1  0.96900000  0.55270000  0.30240000  1.0 0.1302090623
H  H67  1  0.91670000  0.51670000  0.33280000  1.0 0.1302090623
H  H68  1  0.80500000  0.31210000  0.27810000  1.0 0.0227925432
H  H69  1  0.83880000  0.27830000  0.23860000  1.0 0.0227925432
H  H70  1  0.78180000  0.33520000  0.23330000  1.0 0.0281914427
H  H71  1  0.13190000  0.60360000  0.35130000  1.0 0.1356134937
H  H72  1  0.21030000  0.60150000  0.40530000  1.0 0.1213999645
H  H73  1  0.34820000  0.52290000  0.32270000  1.0 0.1213999645
H  H74  1  0.26980000  0.52500000  0.26860000  1.0 0.1302090623
H  H75  1  0.11050000  0.43510000  0.29710000  1.0 0.1356134937
H  H76  1  0.03100000  0.44730000  0.30240000  1.0 0.1302090623
H  H77  1  0.08330000  0.48330000  0.33280000  1.0 0.1302090623
H  H78  1  0.19500000  0.68790000  0.27810000  1.0 0.0227925432
H  H79  1  0.16120000  0.72170000  0.23860000  1.0 0.0227925432
H  H80  1  0.21820000  0.66480000  0.23330000  1.0 0.0281914427
H  H81  1  0.10360000  0.63190000  0.85130000  1.0 0.1356134937
H  H82  1  0.10150000  0.71030000  0.90530000  1.0 0.1213999645
H  H83  1  0.02290000  0.84820000  0.82270000  1.0 0.1213999645
H  H84  1  0.02500000  0.76980000  0.76860000  1.0 0.1302090623
H  H85  1  0.93510000  0.61050000  0.79710000  1.0 0.1356134937
H  H86  1  0.94730000  0.53100000  0.80240000  1.0 0.1302090623
H  H87  1  0.98330000  0.58330000  0.83280000  1.0 0.1302090623
H  H88  1  0.18790000  0.69500000  0.77810000  1.0 0.0281914427
H  H89  1  0.22170000  0.66120000  0.73860000  1.0 0.0227925432
H  H90  1  0.16480000  0.71820000  0.73330000  1.0 0.0281914427
H  H91  1  0.89640000  0.36810000  0.85130000  1.0 0.1302090623
H  H92  1  0.89850000  0.28970000  0.90530000  1.0 0.1213999645
H  H93  1  0.97710000  0.15180000  0.82270000  1.0 0.1213999645
H  H94  1  0.97500000  0.23020000  0.76860000  1.0 0.1302090623
H  H95  1  0.06490000  0.38950000  0.79710000  1.0 0.1356134937
H  H96  1  0.05270000  0.46900000  0.80240000  1.0 0.1302090623
H  H97  1  0.01670000  0.41670000  0.83280000  1.0 0.1302090623
H  H98  1  0.81210000  0.30500000  0.77810000  1.0 0.0281914427
H  H99  1  0.77830000  0.33880000  0.73860000  1.0 0.0227925432
H  H100  1  0.83520000  0.28180000  0.73330000  1.0 0.0281914427
H  H101  1  0.36810000  0.10360000  0.85130000  1.0 0.1356134937
H  H102  1  0.28970000  0.10150000  0.90530000  1.0 0.1213999645
H  H103  1  0.15180000  0.02290000  0.82270000  1.0 0.1213999645
H  H104  1  0.23020000  0.02500000  0.76860000  1.0 0.1302090623
H  H105  1  0.38950000  0.93510000  0.79710000  1.0 0.1356134937
H  H106  1  0.46900000  0.94730000  0.80240000  1.0 0.1302090623
H  H107  1  0.41670000  0.98330000  0.83280000  1.0 0.1302090623
H  H108  1  0.30500000  0.18790000  0.77810000  1.0 0.0281914427
H  H109  1  0.33880000  0.22170000  0.73860000  1.0 0.0227925432
H  H110  1  0.28180000  0.16480000  0.73330000  1.0 0.0281914427
H  H111  1  0.63190000  0.89640000  0.85130000  1.0 0.1356134937
H  H112  1  0.71030000  0.89850000  0.90530000  1.0 0.1213999645
H  H113  1  0.84820000  0.97710000  0.82270000  1.0 0.1213999645
H  H114  1  0.76980000  0.97500000  0.76860000  1.0 0.1302090623
H  H115  1  0.61050000  0.06490000  0.79710000  1.0 0.1356134937
H  H116  1  0.53100000  0.05270000  0.80240000  1.0 0.1302090623
H  H117  1  0.58330000  0.01670000  0.83280000  1.0 0.1302090623
H  H118  1  0.69500000  0.81210000  0.77810000  1.0 0.0281914427
H  H119  1  0.66120000  0.77830000  0.73860000  1.0 0.0227925432
H  H120  1  0.71820000  0.83520000  0.73330000  1.0 0.0281914427
H  H121  1  0.39640000  0.13190000  0.64870000  1.0 0.1356134937
H  H122  1  0.39850000  0.21030000  0.59470000  1.0 0.1213999645
H  H123  1  0.47710000  0.34820000  0.67730000  1.0 0.1213999645
H  H124  1  0.47500000  0.26980000  0.73140000  1.0 0.1302090623
H  H125  1  0.56490000  0.11050000  0.70290000  1.0 0.1356134937
H  H126  1  0.55270000  0.03100000  0.69760000  1.0 0.1302090623
H  H127  1  0.51670000  0.08330000  0.66720000  1.0 0.1302090623
H  H128  1  0.31210000  0.19500000  0.72190000  1.0 0.0227925432
H  H129  1  0.27830000  0.16120000  0.76140000  1.0 0.0227925432
H  H130  1  0.33520000  0.21820000  0.76670000  1.0 0.0281914427
H  H131  1  0.60360000  0.86810000  0.64870000  1.0 0.1356134937
H  H132  1  0.60150000  0.78970000  0.59470000  1.0 0.1213999645
H  H133  1  0.52290000  0.65180000  0.67730000  1.0 0.1213999645
H  H134  1  0.52500000  0.73020000  0.73140000  1.0 0.1302090623
H  H135  1  0.43510000  0.88950000  0.70290000  1.0 0.1356134937
H  H136  1  0.44730000  0.96900000  0.69760000  1.0 0.1302090623
H  H137  1  0.48330000  0.91670000  0.66720000  1.0 0.1302090623
H  H138  1  0.68790000  0.80500000  0.72190000  1.0 0.0227925432
H  H139  1  0.72170000  0.83880000  0.76140000  1.0 0.0227925432
H  H140  1  0.66480000  0.78180000  0.76670000  1.0 0.0281914427
H  H141  1  0.13190000  0.60360000  0.64870000  1.0 0.1356134937
H  H142  1  0.21030000  0.60150000  0.59470000  1.0 0.1213999645
H  H143  1  0.34820000  0.52290000  0.67730000  1.0 0.1213999645
H  H144  1  0.26980000  0.52500000  0.73140000  1.0 0.1302090623
H  H145  1  0.11050000  0.43510000  0.70290000  1.0 0.1356134937
H  H146  1  0.03100000  0.44730000  0.69760000  1.0 0.1302090623
H  H147  1  0.08330000  0.48330000  0.66720000  1.0 0.1302090623
H  H148  1  0.19500000  0.68790000  0.72190000  1.0 0.0227925432
H  H149  1  0.16120000  0.72170000  0.76140000  1.0 0.0227925432
H  H150  1  0.21820000  0.66480000  0.76670000  1.0 0.0281914427
H  H151  1  0.86810000  0.39640000  0.64870000  1.0 0.1356134937
H  H152  1  0.78970000  0.39850000  0.59470000  1.0 0.1213999645
H  H153  1  0.65180000  0.47710000  0.67730000  1.0 0.1213999645
H  H154  1  0.73020000  0.47500000  0.73140000  1.0 0.1302090623
H  H155  1  0.88950000  0.56490000  0.70290000  1.0 0.1356134937
H  H156  1  0.96900000  0.55270000  0.69760000  1.0 0.1302090623
H  H157  1  0.91670000  0.51670000  0.66720000  1.0 0.1302090623
H  H158  1  0.80500000  0.31210000  0.72190000  1.0 0.0227925432
H  H159  1  0.83880000  0.27830000  0.76140000  1.0 0.0227925432
H  H160  1  0.78180000  0.33520000  0.76670000  1.0 0.0281914427
C  C1  1  0.93269000  0.31328000  0.19353000  1.0 0.0578441427
C  C2  1  0.91286000  0.32407000  0.15462000  1.0 -0.1636741368
C  C3  1  0.91347000  0.27798000  0.12136000  1.0 -0.0172315655
C  C4  1  0.94076000  0.20682000  0.13251000  1.0 -0.088709742
C  C5  1  0.96067000  0.19589000  0.17148000  1.0 -0.097023211
C  C6  1  0.96007000  0.24187000  0.20470000  1.0 -0.0692304133
C  C7  1  0.92643000  0.36977000  0.22123000  1.0 -0.0395226152
C  C8  1  0.97721000  0.42055000  0.22122000  1.0 0.0281914427
C  C9  1  0.94391000  0.15545000  0.10128000  1.0 0.560273839
C  C10  1  0.03179000  0.42421000  0.19536000  1.0 -0.378893478
C  C11  1  0.06731000  0.68672000  0.19353000  1.0 0.0578441427
C  C12  1  0.08714000  0.67593000  0.15462000  1.0 -0.1636741368
C  C13  1  0.08653000  0.72202000  0.12136000  1.0 -0.0172315655
C  C14  1  0.05924000  0.79318000  0.13251000  1.0 -0.088709742
C  C15  1  0.03933000  0.80411000  0.17148000  1.0 -0.097023211
C  C16  1  0.03993000  0.75813000  0.20470000  1.0 -0.0692304133
C  C17  1  0.07357000  0.63023000  0.22123000  1.0 -0.0395226152
C  C18  1  0.02279000  0.57945000  0.22122000  1.0 0.0281914427
C  C19  1  0.05609000  0.84455000  0.10128000  1.0 0.560273839
C  C20  1  0.96821000  0.57579000  0.19536000  1.0 -0.378893478
C  C21  1  0.68672000  0.93269000  0.19353000  1.0 0.0578441427
C  C22  1  0.67593000  0.91286000  0.15462000  1.0 -0.1636741368
C  C23  1  0.72202000  0.91347000  0.12136000  1.0 -0.0172315655
C  C24  1  0.79318000  0.94076000  0.13251000  1.0 -0.088709742
C  C25  1  0.80411000  0.96067000  0.17148000  1.0 -0.097023211
C  C26  1  0.75813000  0.96007000  0.20470000  1.0 -0.0692304133
C  C27  1  0.63023000  0.92643000  0.22123000  1.0 -0.0395226152
C  C28  1  0.57945000  0.97721000  0.22122000  1.0 0.0281914427
C  C29  1  0.84455000  0.94391000  0.10128000  1.0 0.560273839
C  C30  1  0.57579000  0.03179000  0.19536000  1.0 -0.378893478
C  C31  1  0.31328000  0.06731000  0.19353000  1.0 0.0578441427
C  C32  1  0.32407000  0.08714000  0.15462000  1.0 -0.1636741368
C  C33  1  0.27798000  0.08653000  0.12136000  1.0 -0.0172315655
C  C34  1  0.20682000  0.05924000  0.13251000  1.0 -0.088709742
C  C35  1  0.19589000  0.03933000  0.17148000  1.0 -0.097023211
C  C36  1  0.24187000  0.03993000  0.20470000  1.0 -0.0692304133
C  C37  1  0.36977000  0.07357000  0.22123000  1.0 -0.0395226152
C  C38  1  0.42055000  0.02279000  0.22122000  1.0 0.0281914427
C  C39  1  0.15545000  0.05609000  0.10128000  1.0 0.560273839
C  C40  1  0.42421000  0.96821000  0.19536000  1.0 -0.378893478
C  C41  1  0.56731000  0.81328000  0.30647000  1.0 0.0578441427
C  C42  1  0.58714000  0.82407000  0.34538000  1.0 -0.1636741368
C  C43  1  0.58653000  0.77798000  0.37864000  1.0 -0.0172315655
C  C44  1  0.55924000  0.70682000  0.36749000  1.0 -0.088709742
C  C45  1  0.53933000  0.69589000  0.32852000  1.0 -0.088709742
C  C46  1  0.53993000  0.74187000  0.29530000  1.0 -0.0692304133
C  C47  1  0.57357000  0.86977000  0.27877000  1.0 -0.0395226152
C  C48  1  0.52279000  0.92055000  0.27878000  1.0 0.0281914427
C  C49  1  0.55609000  0.65545000  0.39872000  1.0 0.560273839
C  C50  1  0.46821000  0.92421000  0.30464000  1.0 -0.378893478
C  C51  1  0.43269000  0.18672000  0.30647000  1.0 0.0578441427
C  C52  1  0.41286000  0.17593000  0.34538000  1.0 -0.1636741368
C  C53  1  0.41347000  0.22202000  0.37864000  1.0 -0.0172315655
C  C54  1  0.44076000  0.29318000  0.36749000  1.0 -0.088709742
C  C55  1  0.46067000  0.30411000  0.32852000  1.0 -0.088709742
C  C56  1  0.46007000  0.25813000  0.29530000  1.0 -0.0692304133
C  C57  1  0.42643000  0.13023000  0.27877000  1.0 -0.0395226152
C  C58  1  0.47721000  0.07945000  0.27878000  1.0 0.0281914427
C  C59  1  0.44391000  0.34455000  0.39872000  1.0 0.560273839
C  C60  1  0.53179000  0.07579000  0.30464000  1.0 -0.378893478
C  C61  1  0.81328000  0.43269000  0.30647000  1.0 0.0578441427
C  C62  1  0.82407000  0.41286000  0.34538000  1.0 -0.1636741368
C  C63  1  0.77798000  0.41347000  0.37864000  1.0 -0.0172315655
C  C64  1  0.70682000  0.44076000  0.36749000  1.0 -0.088709742
C  C65  1  0.69589000  0.46067000  0.32852000  1.0 -0.088709742
C  C66  1  0.74187000  0.46007000  0.29530000  1.0 -0.0692304133
C  C67  1  0.86977000  0.42643000  0.27877000  1.0 -0.0395226152
C  C68  1  0.92055000  0.47721000  0.27878000  1.0 0.0281914427
C  C69  1  0.65545000  0.44391000  0.39872000  1.0 0.560273839
C  C70  1  0.92421000  0.53179000  0.30464000  1.0 -0.378893478
C  C71  1  0.18672000  0.56731000  0.30647000  1.0 0.0578441427
C  C72  1  0.17593000  0.58714000  0.34538000  1.0 -0.1636741368
C  C73  1  0.22202000  0.58653000  0.37864000  1.0 -0.0172315655
C  C74  1  0.29318000  0.55924000  0.36749000  1.0 -0.088709742
C  C75  1  0.30411000  0.53933000  0.32852000  1.0 -0.088709742
C  C76  1  0.25813000  0.53993000  0.29530000  1.0 -0.0692304133
C  C77  1  0.13023000  0.57357000  0.27877000  1.0 -0.0395226152
C  C78  1  0.07945000  0.52279000  0.27878000  1.0 0.0281914427
C  C79  1  0.34455000  0.55609000  0.39872000  1.0 0.560273839
C  C80  1  0.07579000  0.46821000  0.30464000  1.0 -0.378893478
C  C81  1  0.06731000  0.68672000  0.80647000  1.0 0.0578441427
C  C82  1  0.08714000  0.67593000  0.84538000  1.0 -0.1636741368
C  C83  1  0.08653000  0.72202000  0.87864000  1.0 -0.0172315655
C  C84  1  0.05924000  0.79318000  0.86749000  1.0 -0.088709742
C  C85  1  0.03933000  0.80411000  0.82852000  1.0 -0.097023211
C  C86  1  0.03993000  0.75813000  0.79530000  1.0 -0.0692304133
C  C87  1  0.07357000  0.63023000  0.77877000  1.0 -0.0395226152
C  C88  1  0.02279000  0.57945000  0.77878000  1.0 0.0281914427
C  C89  1  0.05609000  0.84455000  0.89872000  1.0 0.560273839
C  C90  1  0.96821000  0.57579000  0.80464000  1.0 -0.378893478
C  C91  1  0.93269000  0.31328000  0.80647000  1.0 0.0578441427
C  C92  1  0.91286000  0.32407000  0.84538000  1.0 -0.1636741368
C  C93  1  0.91347000  0.27798000  0.87864000  1.0 -0.0172315655
C  C94  1  0.94076000  0.20682000  0.86749000  1.0 -0.088709742
C  C95  1  0.96067000  0.19589000  0.82852000  1.0 -0.097023211
C  C96  1  0.96007000  0.24187000  0.79530000  1.0 -0.0692304133
C  C97  1  0.92643000  0.36977000  0.77877000  1.0 -0.0395226152
C  C98  1  0.97721000  0.42055000  0.77878000  1.0 0.0281914427
C  C99  1  0.94391000  0.15545000  0.89872000  1.0 0.560273839
C  C100  1  0.03179000  0.42421000  0.80464000  1.0 -0.378893478
C  C101  1  0.31328000  0.06731000  0.80647000  1.0 0.0578441427
C  C102  1  0.32407000  0.08714000  0.84538000  1.0 -0.1636741368
C  C103  1  0.27798000  0.08653000  0.87864000  1.0 -0.0172315655
C  C104  1  0.20682000  0.05924000  0.86749000  1.0 -0.088709742
C  C105  1  0.19589000  0.03933000  0.82852000  1.0 -0.097023211
C  C106  1  0.24187000  0.03993000  0.79530000  1.0 -0.0692304133
C  C107  1  0.36977000  0.07357000  0.77877000  1.0 -0.0395226152
C  C108  1  0.42055000  0.02279000  0.77878000  1.0 0.0281914427
C  C109  1  0.15545000  0.05609000  0.89872000  1.0 0.560273839
C  C110  1  0.42421000  0.96821000  0.80464000  1.0 -0.378893478
C  C111  1  0.68672000  0.93269000  0.80647000  1.0 0.0578441427
C  C112  1  0.67593000  0.91286000  0.84538000  1.0 -0.1636741368
C  C113  1  0.72202000  0.91347000  0.87864000  1.0 -0.0172315655
C  C114  1  0.79318000  0.94076000  0.86749000  1.0 -0.088709742
C  C115  1  0.80411000  0.96067000  0.82852000  1.0 -0.097023211
C  C116  1  0.75813000  0.96007000  0.79530000  1.0 -0.0692304133
C  C117  1  0.63023000  0.92643000  0.77877000  1.0 -0.0395226152
C  C118  1  0.57945000  0.97721000  0.77878000  1.0 0.0281914427
C  C119  1  0.84455000  0.94391000  0.89872000  1.0 0.560273839
C  C120  1  0.57579000  0.03179000  0.80464000  1.0 -0.378893478
C  C121  1  0.43269000  0.18672000  0.69353000  1.0 0.0578441427
C  C122  1  0.41286000  0.17593000  0.65462000  1.0 -0.1636741368
C  C123  1  0.41347000  0.22202000  0.62136000  1.0 -0.0172315655
C  C124  1  0.44076000  0.29318000  0.63251000  1.0 -0.088709742
C  C125  1  0.46067000  0.30411000  0.67148000  1.0 -0.097023211
C  C126  1  0.46007000  0.25813000  0.70470000  1.0 -0.0692304133
C  C127  1  0.42643000  0.13023000  0.72123000  1.0 -0.0395226152
C  C128  1  0.47721000  0.07945000  0.72122000  1.0 0.0281914427
C  C129  1  0.44391000  0.34455000  0.60128000  1.0 0.560273839
C  C130  1  0.53179000  0.07579000  0.69536000  1.0 -0.378893478
C  C131  1  0.56731000  0.81328000  0.69353000  1.0 0.0578441427
C  C132  1  0.58714000  0.82407000  0.65462000  1.0 -0.1636741368
C  C133  1  0.58653000  0.77798000  0.62136000  1.0 -0.0172315655
C  C134  1  0.55924000  0.70682000  0.63251000  1.0 -0.088709742
C  C135  1  0.53933000  0.69589000  0.67148000  1.0 -0.097023211
C  C136  1  0.53993000  0.74187000  0.70470000  1.0 -0.0692304133
C  C137  1  0.57357000  0.86977000  0.72123000  1.0 -0.0395226152
C  C138  1  0.52279000  0.92055000  0.72122000  1.0 0.0281914427
C  C139  1  0.55609000  0.65545000  0.60128000  1.0 0.560273839
C  C140  1  0.46821000  0.92421000  0.69536000  1.0 -0.378893478
C  C141  1  0.18672000  0.56731000  0.69353000  1.0 0.0578441427
C  C142  1  0.17593000  0.58714000  0.65462000  1.0 -0.1636741368
C  C143  1  0.22202000  0.58653000  0.62136000  1.0 -0.0172315655
C  C144  1  0.29318000  0.55924000  0.63251000  1.0 -0.088709742
C  C145  1  0.30411000  0.53933000  0.67148000  1.0 -0.097023211
C  C146  1  0.25813000  0.53993000  0.70470000  1.0 -0.0692304133
C  C147  1  0.13023000  0.57357000  0.72123000  1.0 -0.0395226152
C  C148  1  0.07945000  0.52279000  0.72122000  1.0 0.0281914427
C  C149  1  0.34455000  0.55609000  0.60128000  1.0 0.560273839
C  C150  1  0.07579000  0.46821000  0.69536000  1.0 -0.378893478
C  C151  1  0.81328000  0.43269000  0.69353000  1.0 0.0578441427
C  C152  1  0.82407000  0.41286000  0.65462000  1.0 -0.1636741368
C  C153  1  0.77798000  0.41347000  0.62136000  1.0 -0.0172315655
C  C154  1  0.70682000  0.44076000  0.63251000  1.0 -0.088709742
C  C155  1  0.69589000  0.46067000  0.67148000  1.0 -0.097023211
C  C156  1  0.74187000  0.46007000  0.70470000  1.0 -0.0692304133
C  C157  1  0.86977000  0.42643000  0.72123000  1.0 -0.0395226152
C  C158  1  0.92055000  0.47721000  0.72122000  1.0 0.0281914427
C  C159  1  0.65545000  0.44391000  0.60128000  1.0 0.560273839
C  C160  1  0.92421000  0.53179000  0.69536000  1.0 -0.378893478
C  C161  1  0.97429000  0.47429000  0.25000000  1.0 -0.0143611592
C  C162  1  0.87273000  0.37273000  0.25000000  1.0 -0.0329686366
C  C163  1  0.82020000  0.32020000  0.25000000  1.0 -0.1472661478
C  C164  1  0.02571000  0.52571000  0.25000000  1.0 -0.0172315655
C  C165  1  0.12727000  0.62727000  0.25000000  1.0 -0.0329686366
C  C166  1  0.17980000  0.67980000  0.25000000  1.0 -0.1472661478
C  C167  1  0.52571000  0.97429000  0.25000000  1.0 -0.0172315655
C  C168  1  0.62727000  0.87273000  0.25000000  1.0 -0.0329686366
C  C169  1  0.67980000  0.82020000  0.25000000  1.0 -0.1472661478
C  C170  1  0.47429000  0.02571000  0.25000000  1.0 -0.0143611592
C  C171  1  0.37273000  0.12727000  0.25000000  1.0 -0.0329686366
C  C172  1  0.32020000  0.17980000  0.25000000  1.0 -0.1472661478
C  C173  1  0.02571000  0.52571000  0.75000000  1.0 -0.0172315655
C  C174  1  0.12727000  0.62727000  0.75000000  1.0 -0.0329686366
C  C175  1  0.17980000  0.67980000  0.75000000  1.0 -0.1472661478
C  C176  1  0.97429000  0.47429000  0.75000000  1.0 -0.0143611592
C  C177  1  0.87273000  0.37273000  0.75000000  1.0 -0.0329686366
C  C178  1  0.82020000  0.32020000  0.75000000  1.0 -0.1472661478
C  C179  1  0.47429000  0.02571000  0.75000000  1.0 -0.0143611592
C  C180  1  0.37273000  0.12727000  0.75000000  1.0 -0.0329686366
C  C181  1  0.32020000  0.17980000  0.75000000  1.0 -0.1472661478
C  C182  1  0.52571000  0.97429000  0.75000000  1.0 -0.0172315655
C  C183  1  0.62727000  0.87273000  0.75000000  1.0 -0.0329686366
C  C184  1  0.67980000  0.82020000  0.75000000  1.0 -0.1472661478
O  O1  1  0.97750000  0.09219000  0.10920000  1.0 -0.5181171915
O  O2  1  0.92260000  0.03140000  0.03640000  1.0 -0.6345891526
O  O3  1  0.94260000  0.17160000  0.05840000  1.0 -0.576521349
O  O4  1  0.02250000  0.90781000  0.10920000  1.0 -0.5181171915
O  O5  1  0.07740000  0.96860000  0.03640000  1.0 -0.6375063708
O  O6  1  0.05740000  0.82840000  0.05840000  1.0 -0.576521349
O  O7  1  0.90781000  0.97750000  0.10920000  1.0 -0.5181171915
O  O8  1  0.96860000  0.92260000  0.03640000  1.0 -0.6375063708
O  O9  1  0.82840000  0.94260000  0.05840000  1.0 -0.576521349
O  O10  1  0.09219000  0.02250000  0.10920000  1.0 -0.5181171915
O  O11  1  0.03140000  0.07740000  0.03640000  1.0 -0.6375063708
O  O12  1  0.17160000  0.05740000  0.05840000  1.0 -0.576521349
O  O13  1  0.52250000  0.59219000  0.39080000  1.0 -0.5181171915
O  O14  1  0.57740000  0.53140000  0.46360000  1.0 -0.6375063708
O  O15  1  0.55740000  0.67160000  0.44160000  1.0 -0.576521349
O  O16  1  0.47750000  0.40781000  0.39080000  1.0 -0.5181171915
O  O17  1  0.42260000  0.46860000  0.46360000  1.0 -0.6375063708
O  O18  1  0.44260000  0.32840000  0.44160000  1.0 -0.576521349
O  O19  1  0.59219000  0.47750000  0.39080000  1.0 -0.5181171915
O  O20  1  0.53140000  0.42260000  0.46360000  1.0 -0.6375063708
O  O21  1  0.67160000  0.44260000  0.44160000  1.0 -0.576521349
O  O22  1  0.40781000  0.52250000  0.39080000  1.0 -0.5181171915
O  O23  1  0.46860000  0.57740000  0.46360000  1.0 -0.6375063708
O  O24  1  0.32840000  0.55740000  0.44160000  1.0 -0.576521349
O  O25  1  0.02250000  0.90781000  0.89080000  1.0 -0.5181171915
O  O26  1  0.07740000  0.96860000  0.96360000  1.0 -0.6375063708
O  O27  1  0.05740000  0.82840000  0.94160000  1.0 -0.576521349
O  O28  1  0.97750000  0.09219000  0.89080000  1.0 -0.5181171915
O  O29  1  0.92260000  0.03140000  0.96360000  1.0 -0.6375063708
O  O30  1  0.94260000  0.17160000  0.94160000  1.0 -0.576521349
O  O31  1  0.09219000  0.02250000  0.89080000  1.0 -0.5181171915
O  O32  1  0.03140000  0.07740000  0.96360000  1.0 -0.6375063708
O  O33  1  0.17160000  0.05740000  0.94160000  1.0 -0.576521349
O  O34  1  0.90781000  0.97750000  0.89080000  1.0 -0.5181171915
O  O35  1  0.96860000  0.92260000  0.96360000  1.0 -0.6375063708
O  O36  1  0.82840000  0.94260000  0.94160000  1.0 -0.576521349
O  O37  1  0.47750000  0.40781000  0.60920000  1.0 -0.5181171915
O  O38  1  0.42260000  0.46860000  0.53640000  1.0 -0.6375063708
O  O39  1  0.44260000  0.32840000  0.55840000  1.0 -0.5736354759
O  O40  1  0.52250000  0.59219000  0.60920000  1.0 -0.5181171915
O  O41  1  0.57740000  0.53140000  0.53640000  1.0 -0.6375063708
O  O42  1  0.55740000  0.67160000  0.55840000  1.0 -0.5736354759
O  O43  1  0.40781000  0.52250000  0.60920000  1.0 -0.5181171915
O  O44  1  0.46860000  0.57740000  0.53640000  1.0 -0.6375063708
O  O45  1  0.32840000  0.55740000  0.55840000  1.0 -0.5736354759
O  O46  1  0.59219000  0.47750000  0.60920000  1.0 -0.5181171915
O  O47  1  0.53140000  0.42260000  0.53640000  1.0 -0.6375063708
O  O48  1  0.67160000  0.44260000  0.55840000  1.0 -0.5736354759
