# DDEC6 charges by PACMAN v1.1 (https://github.com/mtap-research/PACMAN-charge/)
data_NEXXIZ_ASR_pacman
_symmetry_space_group_name_H-M   'P 1'
_cell_length_a   21.18930000
_cell_length_b   21.18930000
_cell_length_c   21.18930000
_cell_angle_alpha   144.38600000
_cell_angle_beta   95.59850000
_cell_angle_gamma   95.13410000
_symmetry_Int_Tables_number   1
_chemical_formula_structural   Li4H19C30(NO4)2
_chemical_formula_sum   'Li16 H76 C120 N8 O32'
_cell_volume   5274.56686502
_cell_formula_units_Z   4
loop_
 _symmetry_equiv_pos_site_id
 _symmetry_equiv_pos_as_xyz
  1  'x, y, z'
loop_
 _atom_site_type_symbol
 _atom_site_label
 _atom_site_symmetry_multiplicity
 _atom_site_fract_x
 _atom_site_fract_y
 _atom_site_fract_z
 _atom_site_occupancy
 _atom_site_charge
Li  Li1  1  0.48585000  0.48390000  0.53275000  1.0 0.8027314894
Li  Li2  1  0.51415000  0.04690000  0.99805000  1.0 0.8027314894
Li  Li3  1  0.95115000  0.98390000  0.49805000  1.0 0.8027314894
Li  Li4  1  0.04885000  0.54690000  0.03275000  1.0 0.8027314894
Li  Li5  1  0.04596000  0.33037000  0.85279000  1.0 0.8027314894
Li  Li6  1  0.95404000  0.80683000  0.28441000  1.0 0.8027314894
Li  Li7  1  0.47758000  0.83037000  0.78441000  1.0 0.8027314894
Li  Li8  1  0.52242000  0.30683000  0.35279000  1.0 0.8027314894
Li  Li9  1  0.99363000  0.63236000  0.19567000  1.0 0.7876887597
Li  Li10  1  0.00637000  0.20204000  0.63873000  1.0 0.7876887597
Li  Li11  1  0.43669000  0.13236000  0.13873000  1.0 0.7876887597
Li  Li12  1  0.56331000  0.70204000  0.69567000  1.0 0.7876887597
Li  Li13  1  0.69510000  0.76950000  0.74820000  1.0 0.7561034538
Li  Li14  1  0.30490000  0.05310000  0.07440000  1.0 0.7561034538
Li  Li15  1  0.02130000  0.26950000  0.57440000  1.0 0.7561034538
Li  Li16  1  0.97870000  0.55310000  0.24820000  1.0 0.7561034538
H  H1  1  0.42800000  0.40650000  0.34730000  1.0 0.1218457999
H  H2  1  0.57200000  0.91930000  0.97850000  1.0 0.1218457999
H  H3  1  0.05920000  0.90650000  0.47850000  1.0 0.1218457999
H  H4  1  0.94080000  0.41930000  0.84730000  1.0 0.1218457999
H  H5  1  0.34790000  0.27980000  0.17470000  1.0 0.1218457999
H  H6  1  0.65210000  0.82680000  0.93190000  1.0 0.1218457999
H  H7  1  0.10510000  0.77980000  0.43190000  1.0 0.1218457999
H  H8  1  0.89490000  0.32680000  0.67470000  1.0 0.1218457999
H  H9  1  0.27760000  0.53750000  0.32190000  1.0 0.1068834097
H  H10  1  0.72240000  0.04430000  0.25990000  1.0 0.1034319097
H  H11  1  0.21560000  0.03750000  0.75990000  1.0 0.1068834097
H  H12  1  0.78440000  0.54430000  0.82190000  1.0 0.1068834097
H  H13  1  0.35740000  0.66120000  0.49140000  1.0 0.1034319097
H  H14  1  0.64260000  0.13400000  0.30380000  1.0 0.1034319097
H  H15  1  0.16980000  0.16120000  0.80380000  1.0 0.1034319097
H  H16  1  0.83020000  0.63400000  0.99140000  1.0 0.1034319097
H  H17  1  0.08440000  0.47260000  0.22280000  1.0 0.0913304068
H  H18  1  0.91560000  0.13840000  0.38820000  1.0 0.0913304068
H  H19  1  0.24980000  0.97260000  0.88820000  1.0 0.0913304068
H  H20  1  0.75020000  0.63840000  0.72280000  1.0 0.0913304068
H  H21  1  0.15960000  0.40610000  0.23490000  1.0 0.1218457999
H  H22  1  0.84040000  0.07530000  0.24650000  1.0 0.1218457999
H  H23  1  0.17120000  0.90610000  0.74650000  1.0 0.1218457999
H  H24  1  0.82880000  0.57530000  0.73490000  1.0 0.1218457999
H  H25  1  0.23000000  0.30450000  0.99690000  1.0 0.1218457999
H  H26  1  0.77000000  0.76690000  0.07450000  1.0 0.1218457999
H  H27  1  0.30760000  0.80450000  0.57450000  1.0 0.1218457999
H  H28  1  0.69240000  0.26690000  0.49690000  1.0 0.1218457999
H  H29  1  0.15200000  0.36480000  0.98100000  1.0 0.1218457999
H  H30  1  0.84800000  0.82900000  0.21280000  1.0 0.1218457999
H  H31  1  0.38380000  0.86480000  0.71280000  1.0 0.1218457999
H  H32  1  0.61620000  0.32900000  0.48100000  1.0 0.1218457999
H  H33  1  0.22660000  0.16920000  0.95940000  1.0 0.1304803058
H  H34  1  0.77340000  0.73280000  0.94260000  1.0 0.1304803058
H  H35  1  0.20980000  0.66920000  0.44260000  1.0 0.1304803058
H  H36  1  0.79020000  0.23280000  0.45940000  1.0 0.1304803058
H  H37  1  0.25920000  0.15950000  0.02190000  1.0 0.1304803058
H  H38  1  0.74080000  0.76270000  0.90030000  1.0 0.1304803058
H  H39  1  0.13760000  0.65950000  0.40030000  1.0 0.1304803058
H  H40  1  0.86240000  0.26270000  0.52190000  1.0 0.1304803058
H  H41  1  0.30460000  0.22370000  0.02150000  1.0 0.1431902625
H  H42  1  0.69540000  0.71690000  0.91910000  1.0 0.1431902625
H  H43  1  0.20220000  0.72370000  0.41910000  1.0 0.1431902625
H  H44  1  0.79780000  0.21690000  0.52150000  1.0 0.1431902625
H  H45  1  0.92930000  0.35790000  0.91640000  1.0 0.1218457999
H  H46  1  0.07070000  0.98710000  0.42860000  1.0 0.1218457999
H  H47  1  0.44150000  0.85790000  0.92860000  1.0 0.1218457999
H  H48  1  0.55850000  0.48710000  0.41640000  1.0 0.1218457999
H  H49  1  0.87300000  0.40000000  0.03240000  1.0 0.1304803058
H  H50  1  0.12700000  0.15940000  0.52700000  1.0 0.1304803058
H  H51  1  0.36760000  0.90000000  0.02700000  1.0 0.1304803058
H  H52  1  0.63240000  0.65940000  0.53240000  1.0 0.1304803058
H  H53  1  0.74510000  0.08430000  0.75600000  1.0 0.1218457999
H  H54  1  0.25490000  0.01090000  0.33920000  1.0 0.1218457999
H  H55  1  0.32830000  0.58430000  0.83920000  1.0 0.1218457999
H  H56  1  0.67170000  0.51090000  0.25600000  1.0 0.1218457999
H  H57  1  0.80380000  0.04070000  0.64110000  1.0 0.1068834097
H  H58  1  0.19620000  0.83730000  0.23690000  1.0 0.1068834097
H  H59  1  0.39960000  0.54070000  0.73690000  1.0 0.1068834097
H  H60  1  0.60040000  0.33730000  0.14110000  1.0 0.1068834097
H  H61  1  0.72770000  0.95360000  0.82130000  1.0 0.1034319097
H  H62  1  0.27230000  0.09360000  0.22590000  1.0 0.1034319097
H  H63  1  0.13230000  0.45360000  0.72590000  1.0 0.1034319097
H  H64  1  0.86770000  0.59360000  0.32130000  1.0 0.1034319097
H  H65  1  0.79120000  0.09500000  0.87640000  1.0 0.1218457999
H  H66  1  0.20880000  0.08520000  0.30380000  1.0 0.1218457999
H  H67  1  0.21860000  0.59500000  0.80380000  1.0 0.1218457999
H  H68  1  0.78140000  0.58520000  0.37640000  1.0 0.1218457999
H  H69  1  0.65570000  0.26410000  0.01120000  1.0 0.1304803058
H  H70  1  0.34430000  0.35550000  0.60840000  1.0 0.1304803058
H  H71  1  0.25290000  0.76410000  0.10840000  1.0 0.1304803058
H  H72  1  0.74710000  0.85550000  0.51120000  1.0 0.1304803058
H  H73  1  0.59510000  0.12880000  0.96590000  1.0 0.1218457999
H  H74  1  0.40490000  0.37080000  0.53370000  1.0 0.1218457999
H  H75  1  0.16290000  0.62880000  0.03370000  1.0 0.1218457999
H  H76  1  0.83710000  0.87080000  0.46590000  1.0 0.1218457999
C  C1  1  0.45327000  0.62872000  0.54689000  1.0 0.6274781801
C  C2  1  0.54673000  0.09362000  0.17545000  1.0 0.6274781801
C  C3  1  0.08183000  0.12872000  0.67545000  1.0 0.6274781801
C  C4  1  0.91817000  0.59362000  0.04689000  1.0 0.6274781801
C  C5  1  0.40190000  0.54749000  0.43637000  1.0 -0.0376784321
C  C6  1  0.59810000  0.03447000  0.14559000  1.0 -0.0376784321
C  C7  1  0.11112000  0.04749000  0.64559000  1.0 -0.0376784321
C  C8  1  0.88888000  0.53447000  0.93637000  1.0 -0.0376784321
C  C9  1  0.39749000  0.43326000  0.34219000  1.0 -0.0785118218
C  C10  1  0.60251000  0.94470000  0.03577000  1.0 -0.0785118218
C  C11  1  0.09107000  0.93326000  0.53577000  1.0 -0.0785118218
C  C12  1  0.90893000  0.44470000  0.84219000  1.0 -0.0785118218
C  C13  1  0.34874000  0.35708000  0.23988000  1.0 -0.1921658861
C  C14  1  0.65126000  0.89114000  0.00834000  1.0 -0.1921658861
C  C15  1  0.11720000  0.85708000  0.50834000  1.0 -0.1921658861
C  C16  1  0.88280000  0.39114000  0.73988000  1.0 -0.1921658861
C  C17  1  0.30102000  0.39439000  0.23305000  1.0 0.179707618
C  C18  1  0.69898000  0.93203000  0.09337000  1.0 0.179707618
C  C19  1  0.16134000  0.89439000  0.59337000  1.0 0.179707618
C  C20  1  0.83866000  0.43203000  0.73305000  1.0 0.179707618
C  C21  1  0.30703000  0.50961000  0.32686000  1.0 -0.2106278878
C  C22  1  0.69297000  0.01983000  0.20258000  1.0 -0.2106278878
C  C23  1  0.18275000  0.00961000  0.70258000  1.0 -0.2106278878
C  C24  1  0.81725000  0.51983000  0.82686000  1.0 -0.2106278878
C  C25  1  0.35555000  0.58344000  0.42693000  1.0 -0.0899698858
C  C26  1  0.64445000  0.07138000  0.22789000  1.0 -0.0899698858
C  C27  1  0.15651000  0.08344000  0.72789000  1.0 -0.0899698858
C  C28  1  0.84349000  0.57138000  0.92693000  1.0 -0.0899698858
C  C29  1  0.06468000  0.47036000  0.09356000  1.0 0.6501003183
C  C30  1  0.93532000  0.02888000  0.40568000  1.0 0.6501003183
C  C31  1  0.37680000  0.97036000  0.90568000  1.0 0.6501003183
C  C32  1  0.62320000  0.52888000  0.59356000  1.0 0.6501003183
C  C33  1  0.11058000  0.42399000  0.09927000  1.0 -0.0619266233
C  C34  1  0.88942000  0.98869000  0.31341000  1.0 -0.0619266233
C  C35  1  0.32472000  0.92399000  0.81341000  1.0 -0.0619266233
C  C36  1  0.67528000  0.48869000  0.59927000  1.0 -0.0619266233
C  C37  1  0.11337000  0.43774000  0.17663000  1.0 -0.1107580759
C  C38  1  0.88663000  0.06326000  0.32437000  1.0 -0.1107580759
C  C39  1  0.26111000  0.93774000  0.82437000  1.0 -0.1107580759
C  C40  1  0.73889000  0.56326000  0.67663000  1.0 -0.1107580759
C  C41  1  0.15881000  0.39992000  0.18509000  1.0 -0.2106278878
C  C42  1  0.84119000  0.02628000  0.24111000  1.0 -0.2106278878
C  C43  1  0.21483000  0.89992000  0.74111000  1.0 -0.2106278878
C  C44  1  0.78517000  0.52628000  0.68509000  1.0 -0.2106278878
C  C45  1  0.20313000  0.35295000  0.12058000  1.0 0.179707618
C  C46  1  0.79687000  0.91745000  0.14982000  1.0 0.179707618
C  C47  1  0.23237000  0.85295000  0.64982000  1.0 0.179707618
C  C48  1  0.76763000  0.41745000  0.62058000  1.0 0.179707618
C  C49  1  0.20067000  0.33819000  0.04228000  1.0 -0.2039630286
C  C50  1  0.79933000  0.84161000  0.13752000  1.0 -0.2039630286
C  C51  1  0.29591000  0.83819000  0.63752000  1.0 -0.2039630286
C  C52  1  0.70409000  0.34161000  0.54228000  1.0 -0.2039630286
C  C53  1  0.15420000  0.37419000  0.03341000  1.0 -0.0785118218
C  C54  1  0.84580000  0.87921000  0.21999000  1.0 -0.0785118218
C  C55  1  0.34078000  0.87419000  0.71999000  1.0 -0.0785118218
C  C56  1  0.65922000  0.37921000  0.53341000  1.0 -0.0785118218
C  C57  1  0.26089000  0.20790000  0.02439000  1.0 -0.3497677841
C  C58  1  0.73911000  0.76350000  0.94701000  1.0 -0.3497677841
C  C59  1  0.18351000  0.70790000  0.44701000  1.0 -0.3497677841
C  C60  1  0.81649000  0.26350000  0.52439000  1.0 -0.3497677841
C  C61  1  0.91155000  0.16473000  0.69424000  1.0 0.6245593406
C  C62  1  0.08845000  0.78269000  0.25318000  1.0 0.6245593406
C  C63  1  0.47049000  0.66473000  0.75318000  1.0 0.6245593406
C  C64  1  0.52951000  0.28269000  0.19424000  1.0 0.6245593406
C  C65  1  0.87287000  0.19509000  0.76810000  1.0 -0.0376784321
C  C66  1  0.12713000  0.89523000  0.32222000  1.0 -0.0376784321
C  C67  1  0.42699000  0.69509000  0.82222000  1.0 -0.0376784321
C  C68  1  0.57301000  0.39523000  0.26810000  1.0 -0.0376784321
C  C69  1  0.89225000  0.30148000  0.88365000  1.0 -0.0785118218
C  C70  1  0.10775000  0.99140000  0.40923000  1.0 -0.0785118218
C  C71  1  0.41783000  0.80148000  0.90923000  1.0 -0.0785118218
C  C72  1  0.58217000  0.49140000  0.38365000  1.0 -0.0785118218
C  C73  1  0.85816000  0.32719000  0.95277000  1.0 -0.179031039
C  C74  1  0.14184000  0.09461000  0.46903000  1.0 -0.179031039
C  C75  1  0.37442000  0.82719000  0.96903000  1.0 -0.179031039
C  C76  1  0.62558000  0.59461000  0.45277000  1.0 -0.179031039
C  C77  1  0.80275000  0.24695000  0.90580000  1.0 0.179707618
C  C78  1  0.19725000  0.10305000  0.44420000  1.0 0.179707618
C  C79  1  0.34115000  0.74695000  0.94420000  1.0 0.179707618
C  C80  1  0.65885000  0.60305000  0.40580000  1.0 0.179707618
C  C81  1  0.78292000  0.14012000  0.78920000  1.0 -0.1921658861
C  C82  1  0.21708000  0.00628000  0.35720000  1.0 -0.1921658861
C  C83  1  0.35092000  0.64012000  0.85720000  1.0 -0.1921658861
C  C84  1  0.64908000  0.50628000  0.28920000  1.0 -0.1921658861
C  C85  1  0.81780000  0.11405000  0.72055000  1.0 -0.0785118218
C  C86  1  0.18220000  0.90275000  0.29625000  1.0 -0.0785118218
C  C87  1  0.39350000  0.61405000  0.79625000  1.0 -0.0785118218
C  C88  1  0.60650000  0.40275000  0.22055000  1.0 -0.0785118218
C  C89  1  0.60947000  0.93367000  0.84726000  1.0 0.6501003183
C  C90  1  0.39053000  0.23779000  0.32420000  1.0 0.6501003183
C  C91  1  0.08641000  0.43367000  0.82420000  1.0 0.6501003183
C  C92  1  0.91359000  0.73779000  0.34726000  1.0 0.6501003183
C  C93  1  0.65410000  0.02618000  0.88702000  1.0 -0.0619266233
C  C94  1  0.34590000  0.23292000  0.37208000  1.0 -0.0619266233
C  C95  1  0.13916000  0.52618000  0.87208000  1.0 -0.0619266233
C  C96  1  0.86084000  0.73292000  0.38702000  1.0 -0.0619266233
C  C97  1  0.71263000  0.01679000  0.86064000  1.0 -0.0899698858
C  C98  1  0.28737000  0.14801000  0.30416000  1.0 -0.0899698858
C  C99  1  0.15615000  0.51679000  0.80416000  1.0 -0.0899698858
C  C100  1  0.84385000  0.64801000  0.36064000  1.0 -0.0954029657
C  C101  1  0.74988000  0.10088000  0.89220000  1.0 -0.1921658861
C  C102  1  0.25012000  0.14232000  0.35100000  1.0 -0.1921658861
C  C103  1  0.20868000  0.60088000  0.85100000  1.0 -0.1921658861
C  C104  1  0.79132000  0.64232000  0.39220000  1.0 -0.1921658861
C  C105  1  0.72931000  0.19171000  0.94500000  1.0 0.179707618
C  C106  1  0.27069000  0.21569000  0.46240000  1.0 0.179707618
C  C107  1  0.24671000  0.69171000  0.96240000  1.0 0.179707618
C  C108  1  0.75329000  0.71569000  0.44500000  1.0 0.179707618
C  C109  1  0.67094000  0.20144000  0.97270000  1.0 -0.179031039
C  C110  1  0.32906000  0.30176000  0.53050000  1.0 -0.179031039
C  C111  1  0.22874000  0.70144000  0.03050000  1.0 -0.179031039
C  C112  1  0.77126000  0.80176000  0.47270000  1.0 -0.179031039
C  C113  1  0.63459000  0.11974000  0.94465000  1.0 -0.0785118218
C  C114  1  0.36541000  0.31006000  0.48515000  1.0 -0.0785118218
C  C115  1  0.17509000  0.61974000  0.98515000  1.0 -0.0785118218
C  C116  1  0.82491000  0.81006000  0.44465000  1.0 -0.0785118218
C  C117  1  0.75520000  0.38750000  0.06590000  1.0 -0.0899698858
C  C118  1  0.24480000  0.31070000  0.63230000  1.0 -0.0899698858
C  C119  1  0.32160000  0.88750000  0.13230000  1.0 -0.0899698858
C  C120  1  0.67840000  0.81070000  0.56590000  1.0 -0.0899698858
N  N1  1  0.24953000  0.31574000  0.13075000  1.0 -0.0619266233
N  N2  1  0.75047000  0.88122000  0.06621000  1.0 -0.0619266233
N  N3  1  0.18499000  0.81574000  0.56621000  1.0 -0.0619266233
N  N4  1  0.81501000  0.38122000  0.63075000  1.0 -0.0619266233
N  N5  1  0.76608000  0.27368000  0.97420000  1.0 -0.0336772594
N  N6  1  0.23392000  0.20812000  0.50760000  1.0 -0.0336772594
N  N7  1  0.29948000  0.77368000  0.00760000  1.0 -0.0336772594
N  N8  1  0.70052000  0.70812000  0.47420000  1.0 -0.0336772594
O  O1  1  0.49261000  0.58973000  0.55096000  1.0 -0.7394358489
O  O2  1  0.50739000  0.05835000  0.09712000  1.0 -0.7394358489
O  O3  1  0.03877000  0.08973000  0.59712000  1.0 -0.7394358489
O  O4  1  0.96123000  0.55835000  0.05096000  1.0 -0.7394358489
O  O5  1  0.45465000  0.73133000  0.63064000  1.0 -0.6676156245
O  O6  1  0.54535000  0.17599000  0.27668000  1.0 -0.6676156245
O  O7  1  0.10069000  0.23133000  0.77668000  1.0 -0.6676156245
O  O8  1  0.89931000  0.67599000  0.13064000  1.0 -0.6676156245
O  O9  1  0.05813000  0.44084000  0.01185000  1.0 -0.71299273
O  O10  1  0.94187000  0.95372000  0.38271000  1.0 -0.71299273
O  O11  1  0.42899000  0.94084000  0.88271000  1.0 -0.71299273
O  O12  1  0.57101000  0.45372000  0.51185000  1.0 -0.71299273
O  O13  1  0.03691000  0.53630000  0.17015000  1.0 -0.7486202144
O  O14  1  0.96309000  0.13324000  0.49939000  1.0 -0.7486202144
O  O15  1  0.36615000  0.03630000  0.99939000  1.0 -0.7486202144
O  O16  1  0.63385000  0.63324000  0.67015000  1.0 -0.7486202144
O  O17  1  0.96089000  0.24200000  0.74135000  1.0 -0.7394358489
O  O18  1  0.03911000  0.78046000  0.28111000  1.0 -0.7394358489
O  O19  1  0.50065000  0.74200000  0.78111000  1.0 -0.7394358489
O  O20  1  0.49935000  0.28046000  0.24135000  1.0 -0.7394358489
O  O21  1  0.89274000  0.06515000  0.59029000  1.0 -0.6676156245
O  O22  1  0.10726000  0.69755000  0.17241000  1.0 -0.6676156245
O  O23  1  0.47486000  0.56515000  0.67241000  1.0 -0.6676156245
O  O24  1  0.52514000  0.19755000  0.09029000  1.0 -0.6676156245
O  O25  1  0.62321000  0.84183000  0.78018000  1.0 -0.7394358489
O  O26  1  0.37679000  0.15697000  0.21862000  1.0 -0.7394358489
O  O27  1  0.06165000  0.34183000  0.71862000  1.0 -0.7394358489
O  O28  1  0.93835000  0.65697000  0.28018000  1.0 -0.7394358489
O  O29  1  0.55986000  0.95383000  0.88289000  1.0 -0.6990485065
O  O30  1  0.44014000  0.32303000  0.39397000  1.0 -0.6990485065
O  O31  1  0.07094000  0.45383000  0.89397000  1.0 -0.6990485065
O  O32  1  0.92906000  0.82303000  0.38289000  1.0 -0.6990485065
