# DDEC6 charges by PACMAN v1.1 (https://github.com/mtap-research/PACMAN-charge/)
data_NEYSOD_FSR_pacman
_symmetry_space_group_name_H-M   'P 1'
_cell_length_a   17.53920000
_cell_length_b   17.53920000
_cell_length_c   17.53920000
_cell_angle_alpha   90.00000000
_cell_angle_beta   90.00000000
_cell_angle_gamma   90.00000000
_symmetry_Int_Tables_number   1
_chemical_formula_structural   Cu3Ge3H48C60(N8F15)2
_chemical_formula_sum   'Cu6 Ge6 H96 C120 N32 F60'
_cell_volume   5395.47073384
_cell_formula_units_Z   2
loop_
 _symmetry_equiv_pos_site_id
 _symmetry_equiv_pos_as_xyz
  1  'x, y, z'
loop_
 _atom_site_type_symbol
 _atom_site_label
 _atom_site_symmetry_multiplicity
 _atom_site_fract_x
 _atom_site_fract_y
 _atom_site_fract_z
 _atom_site_occupancy
 _atom_site_charge
Cu  Cu1  1  0.00000000  0.25000000  0.50000000  1.0 0.3410534888
Cu  Cu2  1  0.00000000  0.75000000  0.50000000  1.0 0.3410534888
Cu  Cu3  1  0.50000000  0.00000000  0.25000000  1.0 0.3410534888
Cu  Cu4  1  0.50000000  0.00000000  0.75000000  1.0 0.3410534888
Cu  Cu5  1  0.25000000  0.50000000  0.00000000  1.0 0.3410534888
Cu  Cu6  1  0.75000000  0.50000000  0.00000000  1.0 0.3410534888
Ge  Ge1  1  0.00000000  0.50000000  0.50000000  1.0 0.6575845956
Ge  Ge2  1  0.50000000  0.00000000  0.50000000  1.0 0.6575845956
Ge  Ge3  1  0.50000000  0.50000000  0.00000000  1.0 0.6575845956
Ge  Ge4  1  0.00000000  0.50000000  0.00000000  1.0 0.6575845956
Ge  Ge5  1  0.50000000  0.00000000  0.00000000  1.0 0.6575845956
Ge  Ge6  1  0.00000000  0.00000000  0.50000000  1.0 0.6575845956
H  H1  1  0.81406000  0.36294000  0.67855000  1.0 0.135676367
H  H2  1  0.18594000  0.63706000  0.67855000  1.0 0.135676367
H  H3  1  0.18594000  0.36294000  0.32145000  1.0 0.135676367
H  H4  1  0.81406000  0.63706000  0.32145000  1.0 0.135676367
H  H5  1  0.67855000  0.81406000  0.36294000  1.0 0.135676367
H  H6  1  0.67855000  0.18594000  0.63706000  1.0 0.135676367
H  H7  1  0.32145000  0.18594000  0.36294000  1.0 0.135676367
H  H8  1  0.32145000  0.81406000  0.63706000  1.0 0.135676367
H  H9  1  0.36294000  0.67855000  0.81406000  1.0 0.135676367
H  H10  1  0.63706000  0.67855000  0.18594000  1.0 0.135676367
H  H11  1  0.36294000  0.32145000  0.18594000  1.0 0.135676367
H  H12  1  0.63706000  0.32145000  0.81406000  1.0 0.135676367
H  H13  1  0.86294000  0.31406000  0.82145000  1.0 0.135676367
H  H14  1  0.13706000  0.68594000  0.82145000  1.0 0.135676367
H  H15  1  0.86294000  0.68594000  0.17855000  1.0 0.135676367
H  H16  1  0.13706000  0.31406000  0.17855000  1.0 0.135676367
H  H17  1  0.31406000  0.17855000  0.13706000  1.0 0.135676367
H  H18  1  0.68594000  0.17855000  0.86294000  1.0 0.135676367
H  H19  1  0.68594000  0.82145000  0.13706000  1.0 0.135676367
H  H20  1  0.31406000  0.82145000  0.86294000  1.0 0.135676367
H  H21  1  0.17855000  0.86294000  0.68594000  1.0 0.135676367
H  H22  1  0.17855000  0.13706000  0.31406000  1.0 0.135676367
H  H23  1  0.82145000  0.86294000  0.31406000  1.0 0.135676367
H  H24  1  0.82145000  0.13706000  0.68594000  1.0 0.135676367
H  H25  1  0.18594000  0.63706000  0.32145000  1.0 0.135676367
H  H26  1  0.81406000  0.36294000  0.32145000  1.0 0.135676367
H  H27  1  0.81406000  0.63706000  0.67855000  1.0 0.135676367
H  H28  1  0.18594000  0.36294000  0.67855000  1.0 0.135676367
H  H29  1  0.32145000  0.18594000  0.63706000  1.0 0.135676367
H  H30  1  0.32145000  0.81406000  0.36294000  1.0 0.135676367
H  H31  1  0.67855000  0.81406000  0.63706000  1.0 0.135676367
H  H32  1  0.67855000  0.18594000  0.36294000  1.0 0.135676367
H  H33  1  0.63706000  0.32145000  0.18594000  1.0 0.135676367
H  H34  1  0.36294000  0.32145000  0.81406000  1.0 0.135676367
H  H35  1  0.63706000  0.67855000  0.81406000  1.0 0.135676367
H  H36  1  0.36294000  0.67855000  0.18594000  1.0 0.135676367
H  H37  1  0.13706000  0.68594000  0.17855000  1.0 0.135676367
H  H38  1  0.86294000  0.31406000  0.17855000  1.0 0.135676367
H  H39  1  0.13706000  0.31406000  0.82145000  1.0 0.135676367
H  H40  1  0.86294000  0.68594000  0.82145000  1.0 0.135676367
H  H41  1  0.68594000  0.82145000  0.86294000  1.0 0.135676367
H  H42  1  0.31406000  0.82145000  0.13706000  1.0 0.135676367
H  H43  1  0.31406000  0.17855000  0.86294000  1.0 0.135676367
H  H44  1  0.68594000  0.17855000  0.13706000  1.0 0.135676367
H  H45  1  0.82145000  0.13706000  0.31406000  1.0 0.135676367
H  H46  1  0.82145000  0.86294000  0.68594000  1.0 0.135676367
H  H47  1  0.17855000  0.13706000  0.68594000  1.0 0.135676367
H  H48  1  0.17855000  0.86294000  0.31406000  1.0 0.135676367
H  H49  1  0.91006000  0.36010000  0.58989000  1.0 0.091167644
H  H50  1  0.08994000  0.63990000  0.58989000  1.0 0.091167644
H  H51  1  0.08994000  0.36010000  0.41011000  1.0 0.091167644
H  H52  1  0.91006000  0.63990000  0.41011000  1.0 0.091167644
H  H53  1  0.58989000  0.91006000  0.36010000  1.0 0.091167644
H  H54  1  0.58989000  0.08994000  0.63990000  1.0 0.091167644
H  H55  1  0.41011000  0.08994000  0.36010000  1.0 0.091167644
H  H56  1  0.41011000  0.91006000  0.63990000  1.0 0.091167644
H  H57  1  0.36010000  0.58989000  0.91006000  1.0 0.091167644
H  H58  1  0.63990000  0.58989000  0.08994000  1.0 0.091167644
H  H59  1  0.36010000  0.41011000  0.08994000  1.0 0.091167644
H  H60  1  0.63990000  0.41011000  0.91006000  1.0 0.091167644
H  H61  1  0.86010000  0.41006000  0.91011000  1.0 0.091167644
H  H62  1  0.13990000  0.58994000  0.91011000  1.0 0.091167644
H  H63  1  0.86010000  0.58994000  0.08989000  1.0 0.091167644
H  H64  1  0.13990000  0.41006000  0.08989000  1.0 0.091167644
H  H65  1  0.41006000  0.08989000  0.13990000  1.0 0.091167644
H  H66  1  0.58994000  0.08989000  0.86010000  1.0 0.091167644
H  H67  1  0.58994000  0.91011000  0.13990000  1.0 0.091167644
H  H68  1  0.41006000  0.91011000  0.86010000  1.0 0.091167644
H  H69  1  0.08989000  0.86010000  0.58994000  1.0 0.091167644
H  H70  1  0.08989000  0.13990000  0.41006000  1.0 0.091167644
H  H71  1  0.91011000  0.86010000  0.41006000  1.0 0.091167644
H  H72  1  0.91011000  0.13990000  0.58994000  1.0 0.091167644
H  H73  1  0.08994000  0.63990000  0.41011000  1.0 0.091167644
H  H74  1  0.91006000  0.36010000  0.41011000  1.0 0.091167644
H  H75  1  0.91006000  0.63990000  0.58989000  1.0 0.091167644
H  H76  1  0.08994000  0.36010000  0.58989000  1.0 0.091167644
H  H77  1  0.41011000  0.08994000  0.63990000  1.0 0.091167644
H  H78  1  0.41011000  0.91006000  0.36010000  1.0 0.091167644
H  H79  1  0.58989000  0.91006000  0.63990000  1.0 0.091167644
H  H80  1  0.58989000  0.08994000  0.36010000  1.0 0.091167644
H  H81  1  0.63990000  0.41011000  0.08994000  1.0 0.091167644
H  H82  1  0.36010000  0.41011000  0.91006000  1.0 0.091167644
H  H83  1  0.63990000  0.58989000  0.91006000  1.0 0.091167644
H  H84  1  0.36010000  0.58989000  0.08994000  1.0 0.091167644
H  H85  1  0.13990000  0.58994000  0.08989000  1.0 0.091167644
H  H86  1  0.86010000  0.41006000  0.08989000  1.0 0.091167644
H  H87  1  0.13990000  0.41006000  0.91011000  1.0 0.091167644
H  H88  1  0.86010000  0.58994000  0.91011000  1.0 0.091167644
H  H89  1  0.58994000  0.91011000  0.86010000  1.0 0.091167644
H  H90  1  0.41006000  0.91011000  0.13990000  1.0 0.091167644
H  H91  1  0.41006000  0.08989000  0.86010000  1.0 0.091167644
H  H92  1  0.58994000  0.08989000  0.13990000  1.0 0.091167644
H  H93  1  0.91011000  0.13990000  0.41006000  1.0 0.091167644
H  H94  1  0.91011000  0.86010000  0.58994000  1.0 0.091167644
H  H95  1  0.08989000  0.13990000  0.58994000  1.0 0.091167644
H  H96  1  0.08989000  0.86010000  0.41006000  1.0 0.091167644
C  C1  1  0.80680000  0.25000000  0.69320000  1.0 0.1947126666
C  C2  1  0.19320000  0.75000000  0.69320000  1.0 0.1950291524
C  C3  1  0.19320000  0.25000000  0.30680000  1.0 0.1947126666
C  C4  1  0.80680000  0.75000000  0.30680000  1.0 0.1950291524
C  C5  1  0.69320000  0.80680000  0.25000000  1.0 0.1950291524
C  C6  1  0.69320000  0.19320000  0.75000000  1.0 0.1947126666
C  C7  1  0.30680000  0.19320000  0.25000000  1.0 0.1947126666
C  C8  1  0.30680000  0.80680000  0.75000000  1.0 0.1950291524
C  C9  1  0.25000000  0.69320000  0.80680000  1.0 0.1950291524
C  C10  1  0.75000000  0.69320000  0.19320000  1.0 0.1950291524
C  C11  1  0.25000000  0.30680000  0.19320000  1.0 0.1947126666
C  C12  1  0.75000000  0.30680000  0.80680000  1.0 0.1947126666
C  C13  1  0.19320000  0.75000000  0.30680000  1.0 0.1950291524
C  C14  1  0.80680000  0.25000000  0.30680000  1.0 0.1947126666
C  C15  1  0.80680000  0.75000000  0.69320000  1.0 0.1950291524
C  C16  1  0.19320000  0.25000000  0.69320000  1.0 0.1947126666
C  C17  1  0.30680000  0.19320000  0.75000000  1.0 0.1947126666
C  C18  1  0.30680000  0.80680000  0.25000000  1.0 0.1950291524
C  C19  1  0.69320000  0.80680000  0.75000000  1.0 0.1950291524
C  C20  1  0.69320000  0.19320000  0.25000000  1.0 0.1947126666
C  C21  1  0.75000000  0.30680000  0.19320000  1.0 0.1950291524
C  C22  1  0.25000000  0.30680000  0.80680000  1.0 0.1947126666
C  C23  1  0.75000000  0.69320000  0.80680000  1.0 0.1950291524
C  C24  1  0.25000000  0.69320000  0.19320000  1.0 0.1950291524
C  C25  1  0.83390000  0.31640000  0.66270000  1.0 -0.2290380121
C  C26  1  0.16610000  0.68360000  0.66270000  1.0 -0.2290380121
C  C27  1  0.16610000  0.31640000  0.33730000  1.0 -0.2290380121
C  C28  1  0.83390000  0.68360000  0.33730000  1.0 -0.2290380121
C  C29  1  0.66270000  0.83390000  0.31640000  1.0 -0.2290380121
C  C30  1  0.66270000  0.16610000  0.68360000  1.0 -0.2290380121
C  C31  1  0.33730000  0.16610000  0.31640000  1.0 -0.2290380121
C  C32  1  0.33730000  0.83390000  0.68360000  1.0 -0.2290380121
C  C33  1  0.31640000  0.66270000  0.83390000  1.0 -0.2290380121
C  C34  1  0.68360000  0.66270000  0.16610000  1.0 -0.2290380121
C  C35  1  0.31640000  0.33730000  0.16610000  1.0 -0.2290380121
C  C36  1  0.68360000  0.33730000  0.83390000  1.0 -0.2290380121
C  C37  1  0.81640000  0.33390000  0.83730000  1.0 -0.2290380121
C  C38  1  0.18360000  0.66610000  0.83730000  1.0 -0.2290380121
C  C39  1  0.81640000  0.66610000  0.16270000  1.0 -0.2290380121
C  C40  1  0.18360000  0.33390000  0.16270000  1.0 -0.2290380121
C  C41  1  0.33390000  0.16270000  0.18360000  1.0 -0.2290380121
C  C42  1  0.66610000  0.16270000  0.81640000  1.0 -0.2290380121
C  C43  1  0.66610000  0.83730000  0.18360000  1.0 -0.2290380121
C  C44  1  0.33390000  0.83730000  0.81640000  1.0 -0.2290380121
C  C45  1  0.16270000  0.81640000  0.66610000  1.0 -0.2290380121
C  C46  1  0.16270000  0.18360000  0.33390000  1.0 -0.2290380121
C  C47  1  0.83730000  0.81640000  0.33390000  1.0 -0.2290380121
C  C48  1  0.83730000  0.18360000  0.66610000  1.0 -0.2290380121
C  C49  1  0.16610000  0.68360000  0.33730000  1.0 -0.2290380121
C  C50  1  0.83390000  0.31640000  0.33730000  1.0 -0.2290380121
C  C51  1  0.83390000  0.68360000  0.66270000  1.0 -0.2290380121
C  C52  1  0.16610000  0.31640000  0.66270000  1.0 -0.2290380121
C  C53  1  0.33730000  0.16610000  0.68360000  1.0 -0.2290380121
C  C54  1  0.33730000  0.83390000  0.31640000  1.0 -0.2290380121
C  C55  1  0.66270000  0.83390000  0.68360000  1.0 -0.2290380121
C  C56  1  0.66270000  0.16610000  0.31640000  1.0 -0.2290380121
C  C57  1  0.68360000  0.33730000  0.16610000  1.0 -0.2290380121
C  C58  1  0.31640000  0.33730000  0.83390000  1.0 -0.2290380121
C  C59  1  0.68360000  0.66270000  0.83390000  1.0 -0.2290380121
C  C60  1  0.31640000  0.66270000  0.16610000  1.0 -0.2290380121
C  C61  1  0.18360000  0.66610000  0.16270000  1.0 -0.2290380121
C  C62  1  0.81640000  0.33390000  0.16270000  1.0 -0.2290380121
C  C63  1  0.18360000  0.33390000  0.83730000  1.0 -0.2290380121
C  C64  1  0.81640000  0.66610000  0.83730000  1.0 -0.2290380121
C  C65  1  0.66610000  0.83730000  0.81640000  1.0 -0.2290380121
C  C66  1  0.33390000  0.83730000  0.18360000  1.0 -0.2290380121
C  C67  1  0.33390000  0.16270000  0.81640000  1.0 -0.2290380121
C  C68  1  0.66610000  0.16270000  0.18360000  1.0 -0.2290380121
C  C69  1  0.83730000  0.18360000  0.33390000  1.0 -0.2290380121
C  C70  1  0.83730000  0.81640000  0.66610000  1.0 -0.2290380121
C  C71  1  0.16270000  0.18360000  0.66610000  1.0 -0.2290380121
C  C72  1  0.16270000  0.81640000  0.33390000  1.0 -0.2290380121
C  C73  1  0.89070000  0.31430000  0.60830000  1.0 0.091167644
C  C74  1  0.10930000  0.68570000  0.60830000  1.0 0.091167644
C  C75  1  0.10930000  0.31430000  0.39170000  1.0 0.091167644
C  C76  1  0.89070000  0.68570000  0.39170000  1.0 0.091167644
C  C77  1  0.60830000  0.89070000  0.31430000  1.0 0.091167644
C  C78  1  0.60830000  0.10930000  0.68570000  1.0 0.091167644
C  C79  1  0.39170000  0.10930000  0.31430000  1.0 0.091167644
C  C80  1  0.39170000  0.89070000  0.68570000  1.0 0.091167644
C  C81  1  0.31430000  0.60830000  0.89070000  1.0 0.091167644
C  C82  1  0.68570000  0.60830000  0.10930000  1.0 0.091167644
C  C83  1  0.31430000  0.39170000  0.10930000  1.0 0.091167644
C  C84  1  0.68570000  0.39170000  0.89070000  1.0 0.091167644
C  C85  1  0.81430000  0.39070000  0.89170000  1.0 0.091167644
C  C86  1  0.18570000  0.60930000  0.89170000  1.0 0.091167644
C  C87  1  0.81430000  0.60930000  0.10830000  1.0 0.091167644
C  C88  1  0.18570000  0.39070000  0.10830000  1.0 0.091167644
C  C89  1  0.39070000  0.10830000  0.18570000  1.0 0.091167644
C  C90  1  0.60930000  0.10830000  0.81430000  1.0 0.091167644
C  C91  1  0.60930000  0.89170000  0.18570000  1.0 0.091167644
C  C92  1  0.39070000  0.89170000  0.81430000  1.0 0.091167644
C  C93  1  0.10830000  0.81430000  0.60930000  1.0 0.091167644
C  C94  1  0.10830000  0.18570000  0.39070000  1.0 0.091167644
C  C95  1  0.89170000  0.81430000  0.39070000  1.0 0.091167644
C  C96  1  0.89170000  0.18570000  0.60930000  1.0 0.091167644
C  C97  1  0.10930000  0.68570000  0.39170000  1.0 0.091167644
C  C98  1  0.89070000  0.31430000  0.39170000  1.0 0.091167644
C  C99  1  0.89070000  0.68570000  0.60830000  1.0 0.091167644
C  C100  1  0.10930000  0.31430000  0.60830000  1.0 0.091167644
C  C101  1  0.39170000  0.10930000  0.68570000  1.0 0.091167644
C  C102  1  0.39170000  0.89070000  0.31430000  1.0 0.091167644
C  C103  1  0.60830000  0.89070000  0.68570000  1.0 0.091167644
C  C104  1  0.60830000  0.10930000  0.31430000  1.0 0.091167644
C  C105  1  0.68570000  0.39170000  0.10930000  1.0 0.091167644
C  C106  1  0.31430000  0.39170000  0.89070000  1.0 0.091167644
C  C107  1  0.68570000  0.60830000  0.89070000  1.0 0.091167644
C  C108  1  0.31430000  0.60830000  0.10930000  1.0 0.091167644
C  C109  1  0.18570000  0.60930000  0.10830000  1.0 0.091167644
C  C110  1  0.81430000  0.39070000  0.10830000  1.0 0.091167644
C  C111  1  0.18570000  0.39070000  0.89170000  1.0 0.091167644
C  C112  1  0.81430000  0.60930000  0.89170000  1.0 0.091167644
C  C113  1  0.60930000  0.89170000  0.81430000  1.0 0.091167644
C  C114  1  0.39070000  0.89170000  0.18570000  1.0 0.091167644
C  C115  1  0.39070000  0.10830000  0.81430000  1.0 0.091167644
C  C116  1  0.60930000  0.10830000  0.18570000  1.0 0.091167644
C  C117  1  0.89170000  0.18570000  0.39070000  1.0 0.091167644
C  C118  1  0.89170000  0.81430000  0.60930000  1.0 0.091167644
C  C119  1  0.10830000  0.18570000  0.60930000  1.0 0.091167644
C  C120  1  0.10830000  0.81430000  0.39070000  1.0 0.091167644
N  N1  1  0.91830000  0.25000000  0.58170000  1.0 -0.2290380121
N  N2  1  0.08170000  0.75000000  0.58170000  1.0 -0.2290380121
N  N3  1  0.08170000  0.25000000  0.41830000  1.0 -0.2290380121
N  N4  1  0.91830000  0.75000000  0.41830000  1.0 -0.2290380121
N  N5  1  0.58170000  0.91830000  0.25000000  1.0 -0.2290380121
N  N6  1  0.58170000  0.08170000  0.75000000  1.0 -0.2290380121
N  N7  1  0.41830000  0.08170000  0.25000000  1.0 -0.2290380121
N  N8  1  0.41830000  0.91830000  0.75000000  1.0 -0.2290380121
N  N9  1  0.25000000  0.58170000  0.91830000  1.0 -0.2290380121
N  N10  1  0.75000000  0.58170000  0.08170000  1.0 -0.2290380121
N  N11  1  0.25000000  0.41830000  0.08170000  1.0 -0.2290380121
N  N12  1  0.75000000  0.41830000  0.91830000  1.0 -0.2290380121
N  N13  1  0.08170000  0.75000000  0.41830000  1.0 -0.2290380121
N  N14  1  0.91830000  0.25000000  0.41830000  1.0 -0.2290380121
N  N15  1  0.91830000  0.75000000  0.58170000  1.0 -0.2290380121
N  N16  1  0.08170000  0.25000000  0.58170000  1.0 -0.2290380121
N  N17  1  0.41830000  0.08170000  0.75000000  1.0 -0.2290380121
N  N18  1  0.41830000  0.91830000  0.25000000  1.0 -0.2290380121
N  N19  1  0.58170000  0.91830000  0.75000000  1.0 -0.2290380121
N  N20  1  0.58170000  0.08170000  0.25000000  1.0 -0.2290380121
N  N21  1  0.75000000  0.41830000  0.08170000  1.0 -0.2290380121
N  N22  1  0.25000000  0.41830000  0.91830000  1.0 -0.2290380121
N  N23  1  0.75000000  0.58170000  0.91830000  1.0 -0.2290380121
N  N24  1  0.25000000  0.58170000  0.08170000  1.0 -0.2290380121
N  N25  1  0.75000000  0.25000000  0.75000000  1.0 -0.2055367103
N  N26  1  0.25000000  0.75000000  0.75000000  1.0 -0.2044590732
N  N27  1  0.25000000  0.25000000  0.25000000  1.0 -0.2055367103
N  N28  1  0.75000000  0.75000000  0.25000000  1.0 -0.2044590732
N  N29  1  0.25000000  0.75000000  0.25000000  1.0 -0.2044590732
N  N30  1  0.75000000  0.25000000  0.25000000  1.0 -0.2055367103
N  N31  1  0.75000000  0.75000000  0.75000000  1.0 -0.2044590732
N  N32  1  0.25000000  0.25000000  0.75000000  1.0 -0.2055367103
F  F1  1  0.00000000  0.40410000  0.50000000  1.0 -0.4688274558
F  F2  1  0.00000000  0.59590000  0.50000000  1.0 -0.4688274558
F  F3  1  0.50000000  0.00000000  0.40410000  1.0 -0.4688274558
F  F4  1  0.50000000  0.00000000  0.59590000  1.0 -0.4688274558
F  F5  1  0.40410000  0.50000000  0.00000000  1.0 -0.4688274558
F  F6  1  0.59590000  0.50000000  0.00000000  1.0 -0.4688274558
F  F7  1  0.90410000  0.50000000  0.00000000  1.0 -0.4688274558
F  F8  1  0.09590000  0.50000000  0.00000000  1.0 -0.4688274558
F  F9  1  0.50000000  0.00000000  0.09590000  1.0 -0.4688274558
F  F10  1  0.50000000  0.00000000  0.90410000  1.0 -0.4688274558
F  F11  1  0.00000000  0.90410000  0.50000000  1.0 -0.4688274558
F  F12  1  0.00000000  0.09590000  0.50000000  1.0 -0.4688274558
F  F13  1  0.95500000  0.50000000  0.41610000  1.0 -0.0261734579
F  F14  1  0.04500000  0.50000000  0.41610000  1.0 -0.0261734579
F  F15  1  0.04500000  0.50000000  0.58390000  1.0 -0.0239629369
F  F16  1  0.95500000  0.50000000  0.58390000  1.0 -0.0261734579
F  F17  1  0.41610000  0.95500000  0.50000000  1.0 -0.0261734579
F  F18  1  0.41610000  0.04500000  0.50000000  1.0 -0.0261734579
F  F19  1  0.58390000  0.04500000  0.50000000  1.0 -0.0261734579
F  F20  1  0.58390000  0.95500000  0.50000000  1.0 -0.0261734579
F  F21  1  0.50000000  0.41610000  0.95500000  1.0 -0.0239629369
F  F22  1  0.50000000  0.41610000  0.04500000  1.0 -0.0261734579
F  F23  1  0.50000000  0.58390000  0.04500000  1.0 -0.0261734579
F  F24  1  0.50000000  0.58390000  0.95500000  1.0 -0.0239629369
F  F25  1  0.00000000  0.45500000  0.08390000  1.0 -0.0261734579
F  F26  1  0.00000000  0.54500000  0.08390000  1.0 -0.0261734579
F  F27  1  0.00000000  0.54500000  0.91610000  1.0 -0.0239629369
F  F28  1  0.00000000  0.45500000  0.91610000  1.0 -0.0239629369
F  F29  1  0.45500000  0.91610000  0.00000000  1.0 -0.0261734579
F  F30  1  0.54500000  0.91610000  0.00000000  1.0 -0.0261734579
F  F31  1  0.54500000  0.08390000  0.00000000  1.0 -0.0261734579
F  F32  1  0.45500000  0.08390000  0.00000000  1.0 -0.0261734579
F  F33  1  0.91610000  0.00000000  0.54500000  1.0 -0.0239629369
F  F34  1  0.91610000  0.00000000  0.45500000  1.0 -0.0239629369
F  F35  1  0.08390000  0.00000000  0.45500000  1.0 -0.0239629369
F  F36  1  0.08390000  0.00000000  0.54500000  1.0 -0.0261734579
F  F37  1  0.92200000  0.50000000  0.44500000  1.0 -0.0658791335
F  F38  1  0.07800000  0.50000000  0.44500000  1.0 -0.0658791335
F  F39  1  0.07800000  0.50000000  0.55500000  1.0 -0.0658791335
F  F40  1  0.92200000  0.50000000  0.55500000  1.0 -0.0658791335
F  F41  1  0.44500000  0.92200000  0.50000000  1.0 -0.0658791335
F  F42  1  0.44500000  0.07800000  0.50000000  1.0 -0.0658791335
F  F43  1  0.55500000  0.07800000  0.50000000  1.0 -0.0658791335
F  F44  1  0.55500000  0.92200000  0.50000000  1.0 -0.0658791335
F  F45  1  0.50000000  0.44500000  0.92200000  1.0 -0.0658791335
F  F46  1  0.50000000  0.44500000  0.07800000  1.0 -0.0658791335
F  F47  1  0.50000000  0.55500000  0.07800000  1.0 -0.0658791335
F  F48  1  0.50000000  0.55500000  0.92200000  1.0 -0.0658791335
F  F49  1  0.00000000  0.42200000  0.05500000  1.0 -0.0658791335
F  F50  1  0.00000000  0.57800000  0.05500000  1.0 -0.0637903846
F  F51  1  0.00000000  0.57800000  0.94500000  1.0 -0.0658791335
F  F52  1  0.00000000  0.42200000  0.94500000  1.0 -0.0658791335
F  F53  1  0.42200000  0.94500000  0.00000000  1.0 -0.0658791335
F  F54  1  0.57800000  0.94500000  0.00000000  1.0 -0.0637903846
F  F55  1  0.57800000  0.05500000  0.00000000  1.0 -0.0637903846
F  F56  1  0.42200000  0.05500000  0.00000000  1.0 -0.0637903846
F  F57  1  0.94500000  0.00000000  0.57800000  1.0 -0.0637903846
F  F58  1  0.94500000  0.00000000  0.42200000  1.0 -0.0637903846
F  F59  1  0.05500000  0.00000000  0.42200000  1.0 -0.0658791335
F  F60  1  0.05500000  0.00000000  0.57800000  1.0 -0.0637903846
