# DDEC6 charges by PACMAN v1.1 (https://github.com/mtap-research/PACMAN-charge/)
data_NEYSIX_FSR_pacman
_symmetry_space_group_name_H-M   'P 1'
_cell_length_a   17.53430000
_cell_length_b   17.53430000
_cell_length_c   17.53430000
_cell_angle_alpha   90.00000000
_cell_angle_beta   90.00000000
_cell_angle_gamma   90.00000000
_symmetry_Int_Tables_number   1
_chemical_formula_structural   Cu3Ge3H48C60(N8F15)2
_chemical_formula_sum   'Cu6 Ge6 H96 C120 N32 F60'
_cell_volume   5390.94993108
_cell_formula_units_Z   2
loop_
 _symmetry_equiv_pos_site_id
 _symmetry_equiv_pos_as_xyz
  1  'x, y, z'
loop_
 _atom_site_type_symbol
 _atom_site_label
 _atom_site_symmetry_multiplicity
 _atom_site_fract_x
 _atom_site_fract_y
 _atom_site_fract_z
 _atom_site_occupancy
 _atom_site_charge
Cu  Cu1  1  0.00000000  0.25000000  0.50000000  1.0 0.4789649933
Cu  Cu2  1  0.00000000  0.75000000  0.50000000  1.0 0.4789649933
Cu  Cu3  1  0.50000000  0.00000000  0.25000000  1.0 0.4789649933
Cu  Cu4  1  0.50000000  0.00000000  0.75000000  1.0 0.4789649933
Cu  Cu5  1  0.25000000  0.50000000  0.00000000  1.0 0.4789649933
Cu  Cu6  1  0.75000000  0.50000000  0.00000000  1.0 0.4789649933
Ge  Ge1  1  0.00000000  0.50000000  0.50000000  1.0 0.65528872
Ge  Ge2  1  0.50000000  0.00000000  0.50000000  1.0 0.6513819336
Ge  Ge3  1  0.50000000  0.50000000  0.00000000  1.0 0.6513819336
Ge  Ge4  1  0.00000000  0.50000000  0.00000000  1.0 0.6513819336
Ge  Ge5  1  0.50000000  0.00000000  0.00000000  1.0 0.6513819336
Ge  Ge6  1  0.00000000  0.00000000  0.50000000  1.0 0.65528872
H  H1  1  0.09113000  0.36162000  0.58856000  1.0 0.0954469754
H  H2  1  0.90887000  0.63838000  0.58856000  1.0 0.0954469754
H  H3  1  0.90887000  0.36162000  0.41144000  1.0 0.0954469754
H  H4  1  0.09113000  0.63838000  0.41144000  1.0 0.0954469754
H  H5  1  0.58856000  0.09113000  0.36162000  1.0 0.0954469754
H  H6  1  0.58856000  0.90887000  0.63838000  1.0 0.0954469754
H  H7  1  0.41144000  0.90887000  0.36162000  1.0 0.0954469754
H  H8  1  0.41144000  0.09113000  0.63838000  1.0 0.0954469754
H  H9  1  0.36162000  0.58856000  0.09113000  1.0 0.0954469754
H  H10  1  0.63838000  0.58856000  0.90887000  1.0 0.0954469754
H  H11  1  0.36162000  0.41144000  0.90887000  1.0 0.0954469754
H  H12  1  0.63838000  0.41144000  0.09113000  1.0 0.0954469754
H  H13  1  0.86162000  0.59113000  0.91144000  1.0 0.0954469754
H  H14  1  0.13838000  0.40887000  0.91144000  1.0 0.0954469754
H  H15  1  0.86162000  0.40887000  0.08856000  1.0 0.0954469754
H  H16  1  0.13838000  0.59113000  0.08856000  1.0 0.0954469754
H  H17  1  0.59113000  0.08856000  0.13838000  1.0 0.0954469754
H  H18  1  0.40887000  0.08856000  0.86162000  1.0 0.0954469754
H  H19  1  0.40887000  0.91144000  0.13838000  1.0 0.0954469754
H  H20  1  0.59113000  0.91144000  0.86162000  1.0 0.0954469754
H  H21  1  0.08856000  0.86162000  0.40887000  1.0 0.0954469754
H  H22  1  0.08856000  0.13838000  0.59113000  1.0 0.0954469754
H  H23  1  0.91144000  0.86162000  0.59113000  1.0 0.0954469754
H  H24  1  0.91144000  0.13838000  0.40887000  1.0 0.0954469754
H  H25  1  0.90887000  0.63838000  0.41144000  1.0 0.0954469754
H  H26  1  0.09113000  0.36162000  0.41144000  1.0 0.0954469754
H  H27  1  0.09113000  0.63838000  0.58856000  1.0 0.0954469754
H  H28  1  0.90887000  0.36162000  0.58856000  1.0 0.0954469754
H  H29  1  0.41144000  0.90887000  0.63838000  1.0 0.0954469754
H  H30  1  0.41144000  0.09113000  0.36162000  1.0 0.0954469754
H  H31  1  0.58856000  0.09113000  0.63838000  1.0 0.0954469754
H  H32  1  0.58856000  0.90887000  0.36162000  1.0 0.0954469754
H  H33  1  0.63838000  0.41144000  0.90887000  1.0 0.0954469754
H  H34  1  0.36162000  0.41144000  0.09113000  1.0 0.0954469754
H  H35  1  0.63838000  0.58856000  0.09113000  1.0 0.0954469754
H  H36  1  0.36162000  0.58856000  0.90887000  1.0 0.0954469754
H  H37  1  0.13838000  0.40887000  0.08856000  1.0 0.0954469754
H  H38  1  0.86162000  0.59113000  0.08856000  1.0 0.0954469754
H  H39  1  0.13838000  0.59113000  0.91144000  1.0 0.0954469754
H  H40  1  0.86162000  0.40887000  0.91144000  1.0 0.0954469754
H  H41  1  0.40887000  0.91144000  0.86162000  1.0 0.0954469754
H  H42  1  0.59113000  0.91144000  0.13838000  1.0 0.0954469754
H  H43  1  0.59113000  0.08856000  0.86162000  1.0 0.0954469754
H  H44  1  0.40887000  0.08856000  0.13838000  1.0 0.0954469754
H  H45  1  0.91144000  0.13838000  0.59113000  1.0 0.0954469754
H  H46  1  0.91144000  0.86162000  0.40887000  1.0 0.0954469754
H  H47  1  0.08856000  0.13838000  0.40887000  1.0 0.0954469754
H  H48  1  0.08856000  0.86162000  0.59113000  1.0 0.0954469754
H  H49  1  0.18618000  0.36373000  0.67855000  1.0 0.137113083
H  H50  1  0.81382000  0.63627000  0.67855000  1.0 0.137113083
H  H51  1  0.81382000  0.36373000  0.32145000  1.0 0.137113083
H  H52  1  0.18618000  0.63627000  0.32145000  1.0 0.137113083
H  H53  1  0.67855000  0.18618000  0.36373000  1.0 0.137113083
H  H54  1  0.67855000  0.81382000  0.63627000  1.0 0.137113083
H  H55  1  0.32145000  0.81382000  0.36373000  1.0 0.137113083
H  H56  1  0.32145000  0.18618000  0.63627000  1.0 0.137113083
H  H57  1  0.36373000  0.67855000  0.18618000  1.0 0.137113083
H  H58  1  0.63627000  0.67855000  0.81382000  1.0 0.137113083
H  H59  1  0.36373000  0.32145000  0.81382000  1.0 0.137113083
H  H60  1  0.63627000  0.32145000  0.18618000  1.0 0.137113083
H  H61  1  0.86373000  0.68618000  0.82145000  1.0 0.137113083
H  H62  1  0.13627000  0.31382000  0.82145000  1.0 0.137113083
H  H63  1  0.86373000  0.31382000  0.17855000  1.0 0.137113083
H  H64  1  0.13627000  0.68618000  0.17855000  1.0 0.137113083
H  H65  1  0.68618000  0.17855000  0.13627000  1.0 0.137113083
H  H66  1  0.31382000  0.17855000  0.86373000  1.0 0.137113083
H  H67  1  0.31382000  0.82145000  0.13627000  1.0 0.137113083
H  H68  1  0.68618000  0.82145000  0.86373000  1.0 0.137113083
H  H69  1  0.17855000  0.86373000  0.31382000  1.0 0.137113083
H  H70  1  0.17855000  0.13627000  0.68618000  1.0 0.137113083
H  H71  1  0.82145000  0.86373000  0.68618000  1.0 0.137113083
H  H72  1  0.82145000  0.13627000  0.31382000  1.0 0.137113083
H  H73  1  0.81382000  0.63627000  0.32145000  1.0 0.137113083
H  H74  1  0.18618000  0.36373000  0.32145000  1.0 0.137113083
H  H75  1  0.18618000  0.63627000  0.67855000  1.0 0.137113083
H  H76  1  0.81382000  0.36373000  0.67855000  1.0 0.137113083
H  H77  1  0.32145000  0.81382000  0.63627000  1.0 0.137113083
H  H78  1  0.32145000  0.18618000  0.36373000  1.0 0.137113083
H  H79  1  0.67855000  0.18618000  0.63627000  1.0 0.137113083
H  H80  1  0.67855000  0.81382000  0.36373000  1.0 0.137113083
H  H81  1  0.63627000  0.32145000  0.81382000  1.0 0.137113083
H  H82  1  0.36373000  0.32145000  0.18618000  1.0 0.137113083
H  H83  1  0.63627000  0.67855000  0.18618000  1.0 0.137113083
H  H84  1  0.36373000  0.67855000  0.81382000  1.0 0.137113083
H  H85  1  0.13627000  0.31382000  0.17855000  1.0 0.137113083
H  H86  1  0.86373000  0.68618000  0.17855000  1.0 0.137113083
H  H87  1  0.13627000  0.68618000  0.82145000  1.0 0.137113083
H  H88  1  0.86373000  0.31382000  0.82145000  1.0 0.137113083
H  H89  1  0.31382000  0.82145000  0.86373000  1.0 0.137113083
H  H90  1  0.68618000  0.82145000  0.13627000  1.0 0.137113083
H  H91  1  0.68618000  0.17855000  0.86373000  1.0 0.137113083
H  H92  1  0.31382000  0.17855000  0.13627000  1.0 0.137113083
H  H93  1  0.82145000  0.13627000  0.68618000  1.0 0.137113083
H  H94  1  0.82145000  0.86373000  0.31382000  1.0 0.137113083
H  H95  1  0.17855000  0.13627000  0.31382000  1.0 0.137113083
H  H96  1  0.17855000  0.86373000  0.68618000  1.0 0.137113083
C  C1  1  0.10980000  0.31580000  0.60760000  1.0 0.0921394562
C  C2  1  0.89020000  0.68420000  0.60760000  1.0 0.0921394562
C  C3  1  0.89020000  0.31580000  0.39240000  1.0 0.0921394562
C  C4  1  0.10980000  0.68420000  0.39240000  1.0 0.0921394562
C  C5  1  0.60760000  0.10980000  0.31580000  1.0 0.0921394562
C  C6  1  0.60760000  0.89020000  0.68420000  1.0 0.0921394562
C  C7  1  0.39240000  0.89020000  0.31580000  1.0 0.0921394562
C  C8  1  0.39240000  0.10980000  0.68420000  1.0 0.0921394562
C  C9  1  0.31580000  0.60760000  0.10980000  1.0 0.0921394562
C  C10  1  0.68420000  0.60760000  0.89020000  1.0 0.0921394562
C  C11  1  0.31580000  0.39240000  0.89020000  1.0 0.0921394562
C  C12  1  0.68420000  0.39240000  0.10980000  1.0 0.0921394562
C  C13  1  0.81580000  0.60980000  0.89240000  1.0 0.0921394562
C  C14  1  0.18420000  0.39020000  0.89240000  1.0 0.0921394562
C  C15  1  0.81580000  0.39020000  0.10760000  1.0 0.0921394562
C  C16  1  0.18420000  0.60980000  0.10760000  1.0 0.0921394562
C  C17  1  0.60980000  0.10760000  0.18420000  1.0 0.0921394562
C  C18  1  0.39020000  0.10760000  0.81580000  1.0 0.0921394562
C  C19  1  0.39020000  0.89240000  0.18420000  1.0 0.0921394562
C  C20  1  0.60980000  0.89240000  0.81580000  1.0 0.0921394562
C  C21  1  0.10760000  0.81580000  0.39020000  1.0 0.0921394562
C  C22  1  0.10760000  0.18420000  0.60980000  1.0 0.0921394562
C  C23  1  0.89240000  0.81580000  0.60980000  1.0 0.0921394562
C  C24  1  0.89240000  0.18420000  0.39020000  1.0 0.0921394562
C  C25  1  0.89020000  0.68420000  0.39240000  1.0 0.0921394562
C  C26  1  0.10980000  0.31580000  0.39240000  1.0 0.0921394562
C  C27  1  0.10980000  0.68420000  0.60760000  1.0 0.0921394562
C  C28  1  0.89020000  0.31580000  0.60760000  1.0 0.0921394562
C  C29  1  0.39240000  0.89020000  0.68420000  1.0 0.0921394562
C  C30  1  0.39240000  0.10980000  0.31580000  1.0 0.0921394562
C  C31  1  0.60760000  0.10980000  0.68420000  1.0 0.0921394562
C  C32  1  0.60760000  0.89020000  0.31580000  1.0 0.0921394562
C  C33  1  0.68420000  0.39240000  0.89020000  1.0 0.0921394562
C  C34  1  0.31580000  0.39240000  0.10980000  1.0 0.0921394562
C  C35  1  0.68420000  0.60760000  0.10980000  1.0 0.0921394562
C  C36  1  0.31580000  0.60760000  0.89020000  1.0 0.0921394562
C  C37  1  0.18420000  0.39020000  0.10760000  1.0 0.0921394562
C  C38  1  0.81580000  0.60980000  0.10760000  1.0 0.0921394562
C  C39  1  0.18420000  0.60980000  0.89240000  1.0 0.0921394562
C  C40  1  0.81580000  0.39020000  0.89240000  1.0 0.0921394562
C  C41  1  0.39020000  0.89240000  0.81580000  1.0 0.0921394562
C  C42  1  0.60980000  0.89240000  0.18420000  1.0 0.0921394562
C  C43  1  0.60980000  0.10760000  0.81580000  1.0 0.0921394562
C  C44  1  0.39020000  0.10760000  0.18420000  1.0 0.0921394562
C  C45  1  0.89240000  0.18420000  0.60980000  1.0 0.0921394562
C  C46  1  0.89240000  0.81580000  0.39020000  1.0 0.0921394562
C  C47  1  0.10760000  0.18420000  0.39020000  1.0 0.0921394562
C  C48  1  0.10760000  0.81580000  0.60980000  1.0 0.0921394562
C  C49  1  0.16610000  0.31740000  0.66220000  1.0 -0.2274779118
C  C50  1  0.83390000  0.68260000  0.66220000  1.0 -0.2274779118
C  C51  1  0.83390000  0.31740000  0.33780000  1.0 -0.2274779118
C  C52  1  0.16610000  0.68260000  0.33780000  1.0 -0.2274779118
C  C53  1  0.66220000  0.16610000  0.31740000  1.0 -0.2274779118
C  C54  1  0.66220000  0.83390000  0.68260000  1.0 -0.2274779118
C  C55  1  0.33780000  0.83390000  0.31740000  1.0 -0.2274779118
C  C56  1  0.33780000  0.16610000  0.68260000  1.0 -0.2274779118
C  C57  1  0.31740000  0.66220000  0.16610000  1.0 -0.2274779118
C  C58  1  0.68260000  0.66220000  0.83390000  1.0 -0.2274779118
C  C59  1  0.31740000  0.33780000  0.83390000  1.0 -0.2274779118
C  C60  1  0.68260000  0.33780000  0.16610000  1.0 -0.2274779118
C  C61  1  0.81740000  0.66610000  0.83780000  1.0 -0.2274779118
C  C62  1  0.18260000  0.33390000  0.83780000  1.0 -0.2274779118
C  C63  1  0.81740000  0.33390000  0.16220000  1.0 -0.2274779118
C  C64  1  0.18260000  0.66610000  0.16220000  1.0 -0.2274779118
C  C65  1  0.66610000  0.16220000  0.18260000  1.0 -0.2274779118
C  C66  1  0.33390000  0.16220000  0.81740000  1.0 -0.2274779118
C  C67  1  0.33390000  0.83780000  0.18260000  1.0 -0.2274779118
C  C68  1  0.66610000  0.83780000  0.81740000  1.0 -0.2274779118
C  C69  1  0.16220000  0.81740000  0.33390000  1.0 -0.2274779118
C  C70  1  0.16220000  0.18260000  0.66610000  1.0 -0.2274779118
C  C71  1  0.83780000  0.81740000  0.66610000  1.0 -0.2274779118
C  C72  1  0.83780000  0.18260000  0.33390000  1.0 -0.2274779118
C  C73  1  0.83390000  0.68260000  0.33780000  1.0 -0.2274779118
C  C74  1  0.16610000  0.31740000  0.33780000  1.0 -0.2274779118
C  C75  1  0.16610000  0.68260000  0.66220000  1.0 -0.2274779118
C  C76  1  0.83390000  0.31740000  0.66220000  1.0 -0.2274779118
C  C77  1  0.33780000  0.83390000  0.68260000  1.0 -0.2274779118
C  C78  1  0.33780000  0.16610000  0.31740000  1.0 -0.2274779118
C  C79  1  0.66220000  0.16610000  0.68260000  1.0 -0.2274779118
C  C80  1  0.66220000  0.83390000  0.31740000  1.0 -0.2274779118
C  C81  1  0.68260000  0.33780000  0.83390000  1.0 -0.2274779118
C  C82  1  0.31740000  0.33780000  0.16610000  1.0 -0.2274779118
C  C83  1  0.68260000  0.66220000  0.16610000  1.0 -0.2274779118
C  C84  1  0.31740000  0.66220000  0.83390000  1.0 -0.2274779118
C  C85  1  0.18260000  0.33390000  0.16220000  1.0 -0.2274779118
C  C86  1  0.81740000  0.66610000  0.16220000  1.0 -0.2274779118
C  C87  1  0.18260000  0.66610000  0.83780000  1.0 -0.2274779118
C  C88  1  0.81740000  0.33390000  0.83780000  1.0 -0.2274779118
C  C89  1  0.33390000  0.83780000  0.81740000  1.0 -0.2274779118
C  C90  1  0.66610000  0.83780000  0.18260000  1.0 -0.2274779118
C  C91  1  0.66610000  0.16220000  0.81740000  1.0 -0.2274779118
C  C92  1  0.33390000  0.16220000  0.18260000  1.0 -0.2274779118
C  C93  1  0.83780000  0.18260000  0.66610000  1.0 -0.2274779118
C  C94  1  0.83780000  0.81740000  0.33390000  1.0 -0.2274779118
C  C95  1  0.16220000  0.18260000  0.33390000  1.0 -0.2274779118
C  C96  1  0.16220000  0.81740000  0.66610000  1.0 -0.2274779118
C  C97  1  0.19250000  0.25000000  0.69250000  1.0 0.1991070635
C  C98  1  0.80750000  0.75000000  0.69250000  1.0 0.1991070635
C  C99  1  0.80750000  0.25000000  0.30750000  1.0 0.1991070635
C  C100  1  0.19250000  0.75000000  0.30750000  1.0 0.1991070635
C  C101  1  0.69250000  0.19250000  0.25000000  1.0 0.1991070635
C  C102  1  0.69250000  0.80750000  0.75000000  1.0 0.1991070635
C  C103  1  0.30750000  0.80750000  0.25000000  1.0 0.1991070635
C  C104  1  0.30750000  0.19250000  0.75000000  1.0 0.1991070635
C  C105  1  0.25000000  0.69250000  0.19250000  1.0 0.1991070635
C  C106  1  0.75000000  0.69250000  0.80750000  1.0 0.1991070635
C  C107  1  0.25000000  0.30750000  0.80750000  1.0 0.1991070635
C  C108  1  0.75000000  0.30750000  0.19250000  1.0 0.1991070635
C  C109  1  0.80750000  0.75000000  0.30750000  1.0 0.1991070635
C  C110  1  0.19250000  0.25000000  0.30750000  1.0 0.1991070635
C  C111  1  0.19250000  0.75000000  0.69250000  1.0 0.1991070635
C  C112  1  0.80750000  0.25000000  0.69250000  1.0 0.1991070635
C  C113  1  0.30750000  0.80750000  0.75000000  1.0 0.1991070635
C  C114  1  0.30750000  0.19250000  0.25000000  1.0 0.1991070635
C  C115  1  0.69250000  0.19250000  0.75000000  1.0 0.1991070635
C  C116  1  0.69250000  0.80750000  0.25000000  1.0 0.1991070635
C  C117  1  0.75000000  0.30750000  0.80750000  1.0 0.1991070635
C  C118  1  0.25000000  0.30750000  0.19250000  1.0 0.1991070635
C  C119  1  0.75000000  0.69250000  0.19250000  1.0 0.1991070635
C  C120  1  0.25000000  0.69250000  0.80750000  1.0 0.1991070635
N  N1  1  0.08090000  0.25000000  0.58090000  1.0 -0.2495533872
N  N2  1  0.91910000  0.75000000  0.58090000  1.0 -0.2495533872
N  N3  1  0.91910000  0.25000000  0.41910000  1.0 -0.2495533872
N  N4  1  0.08090000  0.75000000  0.41910000  1.0 -0.2495533872
N  N5  1  0.58090000  0.08090000  0.25000000  1.0 -0.2495533872
N  N6  1  0.58090000  0.91910000  0.75000000  1.0 -0.2495533872
N  N7  1  0.41910000  0.91910000  0.25000000  1.0 -0.2495533872
N  N8  1  0.41910000  0.08090000  0.75000000  1.0 -0.2495533872
N  N9  1  0.25000000  0.58090000  0.08090000  1.0 -0.2495533872
N  N10  1  0.75000000  0.58090000  0.91910000  1.0 -0.2495533872
N  N11  1  0.25000000  0.41910000  0.91910000  1.0 -0.2495533872
N  N12  1  0.75000000  0.41910000  0.08090000  1.0 -0.2495533872
N  N13  1  0.91910000  0.75000000  0.41910000  1.0 -0.2495533872
N  N14  1  0.08090000  0.25000000  0.41910000  1.0 -0.2495533872
N  N15  1  0.08090000  0.75000000  0.58090000  1.0 -0.2495533872
N  N16  1  0.91910000  0.25000000  0.58090000  1.0 -0.2495533872
N  N17  1  0.41910000  0.91910000  0.75000000  1.0 -0.2495533872
N  N18  1  0.41910000  0.08090000  0.25000000  1.0 -0.2495533872
N  N19  1  0.58090000  0.08090000  0.75000000  1.0 -0.2495533872
N  N20  1  0.58090000  0.91910000  0.25000000  1.0 -0.2495533872
N  N21  1  0.75000000  0.41910000  0.91910000  1.0 -0.2495533872
N  N22  1  0.25000000  0.41910000  0.08090000  1.0 -0.2495533872
N  N23  1  0.75000000  0.58090000  0.08090000  1.0 -0.2495533872
N  N24  1  0.25000000  0.58090000  0.91910000  1.0 -0.2495533872
N  N25  1  0.25000000  0.25000000  0.75000000  1.0 -0.2274779118
N  N26  1  0.75000000  0.75000000  0.75000000  1.0 -0.2274779118
N  N27  1  0.75000000  0.25000000  0.25000000  1.0 -0.2274779118
N  N28  1  0.25000000  0.75000000  0.25000000  1.0 -0.2274779118
N  N29  1  0.75000000  0.75000000  0.25000000  1.0 -0.2274779118
N  N30  1  0.25000000  0.25000000  0.25000000  1.0 -0.2274779118
N  N31  1  0.25000000  0.75000000  0.75000000  1.0 -0.2274779118
N  N32  1  0.75000000  0.25000000  0.75000000  1.0 -0.2274779118
F  F1  1  0.91730000  0.50000000  0.44870000  1.0 -0.0730804623
F  F2  1  0.08270000  0.50000000  0.44870000  1.0 -0.0730804623
F  F3  1  0.08270000  0.50000000  0.55130000  1.0 -0.0730804623
F  F4  1  0.91730000  0.50000000  0.55130000  1.0 -0.0730804623
F  F5  1  0.44870000  0.91730000  0.50000000  1.0 -0.0730804623
F  F6  1  0.44870000  0.08270000  0.50000000  1.0 -0.0730804623
F  F7  1  0.55130000  0.08270000  0.50000000  1.0 -0.0730804623
F  F8  1  0.55130000  0.91730000  0.50000000  1.0 -0.0730804623
F  F9  1  0.50000000  0.44870000  0.91730000  1.0 -0.0730804623
F  F10  1  0.50000000  0.44870000  0.08270000  1.0 -0.0730804623
F  F11  1  0.50000000  0.55130000  0.08270000  1.0 -0.0730804623
F  F12  1  0.50000000  0.55130000  0.91730000  1.0 -0.0730804623
F  F13  1  0.00000000  0.41730000  0.05130000  1.0 -0.0730804623
F  F14  1  0.00000000  0.58270000  0.05130000  1.0 -0.0730804623
F  F15  1  0.00000000  0.58270000  0.94870000  1.0 -0.0730804623
F  F16  1  0.00000000  0.41730000  0.94870000  1.0 -0.0730804623
F  F17  1  0.41730000  0.94870000  0.00000000  1.0 -0.0730804623
F  F18  1  0.58270000  0.94870000  0.00000000  1.0 -0.0730804623
F  F19  1  0.58270000  0.05130000  0.00000000  1.0 -0.0730804623
F  F20  1  0.41730000  0.05130000  0.00000000  1.0 -0.0730804623
F  F21  1  0.94870000  0.00000000  0.58270000  1.0 -0.0730804623
F  F22  1  0.94870000  0.00000000  0.41730000  1.0 -0.0730804623
F  F23  1  0.05130000  0.00000000  0.41730000  1.0 -0.0730804623
F  F24  1  0.05130000  0.00000000  0.58270000  1.0 -0.0730804623
F  F25  1  0.00000000  0.40290000  0.50000000  1.0 -0.4803452254
F  F26  1  0.00000000  0.59710000  0.50000000  1.0 -0.4803452254
F  F27  1  0.50000000  0.00000000  0.40290000  1.0 -0.4803452254
F  F28  1  0.50000000  0.00000000  0.59710000  1.0 -0.4803452254
F  F29  1  0.40290000  0.50000000  0.00000000  1.0 -0.4803452254
F  F30  1  0.59710000  0.50000000  0.00000000  1.0 -0.4803452254
F  F31  1  0.90290000  0.50000000  0.00000000  1.0 -0.4803452254
F  F32  1  0.09710000  0.50000000  0.00000000  1.0 -0.4803452254
F  F33  1  0.50000000  0.00000000  0.09710000  1.0 -0.4803452254
F  F34  1  0.50000000  0.00000000  0.90290000  1.0 -0.4803452254
F  F35  1  0.00000000  0.90290000  0.50000000  1.0 -0.4803452254
F  F36  1  0.00000000  0.09710000  0.50000000  1.0 -0.4803452254
F  F37  1  0.95320000  0.50000000  0.41720000  1.0 -0.0378301335
F  F38  1  0.04680000  0.50000000  0.41720000  1.0 -0.0378301335
F  F39  1  0.04680000  0.50000000  0.58280000  1.0 -0.0378301335
F  F40  1  0.95320000  0.50000000  0.58280000  1.0 -0.0378301335
F  F41  1  0.41720000  0.95320000  0.50000000  1.0 -0.0378301335
F  F42  1  0.41720000  0.04680000  0.50000000  1.0 -0.0378301335
F  F43  1  0.58280000  0.04680000  0.50000000  1.0 -0.0378301335
F  F44  1  0.58280000  0.95320000  0.50000000  1.0 -0.0378301335
F  F45  1  0.50000000  0.41720000  0.95320000  1.0 -0.0378301335
F  F46  1  0.50000000  0.41720000  0.04680000  1.0 -0.0378301335
F  F47  1  0.50000000  0.58280000  0.04680000  1.0 -0.0378301335
F  F48  1  0.50000000  0.58280000  0.95320000  1.0 -0.0378301335
F  F49  1  0.00000000  0.45320000  0.08280000  1.0 -0.0378301335
F  F50  1  0.00000000  0.54680000  0.08280000  1.0 -0.0378301335
F  F51  1  0.00000000  0.54680000  0.91720000  1.0 -0.0378301335
F  F52  1  0.00000000  0.45320000  0.91720000  1.0 -0.0378301335
F  F53  1  0.45320000  0.91720000  0.00000000  1.0 -0.0378301335
F  F54  1  0.54680000  0.91720000  0.00000000  1.0 -0.0378301335
F  F55  1  0.54680000  0.08280000  0.00000000  1.0 -0.0378301335
F  F56  1  0.45320000  0.08280000  0.00000000  1.0 -0.0378301335
F  F57  1  0.91720000  0.00000000  0.54680000  1.0 -0.0378301335
F  F58  1  0.91720000  0.00000000  0.45320000  1.0 -0.0378301335
F  F59  1  0.08280000  0.00000000  0.45320000  1.0 -0.0378301335
F  F60  1  0.08280000  0.00000000  0.54680000  1.0 -0.0378301335
