# DDEC6 charges by PACMAN v1.1 (https://github.com/mtap-research/PACMAN-charge/)
data_NEYXOI_ASR_pacman
_symmetry_space_group_name_H-M   'P 1'
_cell_length_a   17.53520000
_cell_length_b   17.53520000
_cell_length_c   17.53520000
_cell_angle_alpha   90.00000000
_cell_angle_beta   90.00000000
_cell_angle_gamma   90.00000000
_symmetry_Int_Tables_number   1
_chemical_formula_structural   Cu3H48(C15N4)4
_chemical_formula_sum   'Cu6 H96 C120 N32'
_cell_volume   5391.78009321
_cell_formula_units_Z   2
loop_
 _symmetry_equiv_pos_site_id
 _symmetry_equiv_pos_as_xyz
  1  'x, y, z'
loop_
 _atom_site_type_symbol
 _atom_site_label
 _atom_site_symmetry_multiplicity
 _atom_site_fract_x
 _atom_site_fract_y
 _atom_site_fract_z
 _atom_site_occupancy
 _atom_site_charge
Cu  Cu1  1  0.00000000  0.50000000  0.25000000  1.0 0.1986537323
Cu  Cu2  1  0.00000000  0.50000000  0.75000000  1.0 0.1986537323
Cu  Cu3  1  0.25000000  0.00000000  0.50000000  1.0 0.1986537323
Cu  Cu4  1  0.75000000  0.00000000  0.50000000  1.0 0.1986537323
Cu  Cu5  1  0.50000000  0.25000000  0.00000000  1.0 0.1986537323
Cu  Cu6  1  0.50000000  0.75000000  0.00000000  1.0 0.1986537323
H  H1  1  0.09116000  0.58786000  0.36112000  1.0 0.0857235583
H  H2  1  0.90884000  0.41214000  0.36112000  1.0 0.0857235583
H  H3  1  0.90884000  0.58786000  0.63888000  1.0 0.0857235583
H  H4  1  0.09116000  0.41214000  0.63888000  1.0 0.0857235583
H  H5  1  0.36112000  0.09116000  0.58786000  1.0 0.0857235583
H  H6  1  0.36112000  0.90884000  0.41214000  1.0 0.0857235583
H  H7  1  0.63888000  0.90884000  0.58786000  1.0 0.0857235583
H  H8  1  0.63888000  0.09116000  0.41214000  1.0 0.0857235583
H  H9  1  0.58786000  0.36112000  0.09116000  1.0 0.0857235583
H  H10  1  0.41214000  0.36112000  0.90884000  1.0 0.0857235583
H  H11  1  0.58786000  0.63888000  0.90884000  1.0 0.0857235583
H  H12  1  0.41214000  0.63888000  0.09116000  1.0 0.0857235583
H  H13  1  0.08786000  0.59116000  0.13888000  1.0 0.0857235583
H  H14  1  0.91214000  0.40884000  0.13888000  1.0 0.0857235583
H  H15  1  0.08786000  0.40884000  0.86112000  1.0 0.0857235583
H  H16  1  0.91214000  0.59116000  0.86112000  1.0 0.0857235583
H  H17  1  0.59116000  0.86112000  0.91214000  1.0 0.0857235583
H  H18  1  0.40884000  0.86112000  0.08786000  1.0 0.0857235583
H  H19  1  0.40884000  0.13888000  0.91214000  1.0 0.0857235583
H  H20  1  0.59116000  0.13888000  0.08786000  1.0 0.0857235583
H  H21  1  0.86112000  0.08786000  0.40884000  1.0 0.0857235583
H  H22  1  0.86112000  0.91214000  0.59116000  1.0 0.0857235583
H  H23  1  0.13888000  0.08786000  0.59116000  1.0 0.0857235583
H  H24  1  0.13888000  0.91214000  0.40884000  1.0 0.0857235583
H  H25  1  0.90884000  0.41214000  0.63888000  1.0 0.0857235583
H  H26  1  0.09116000  0.58786000  0.63888000  1.0 0.0857235583
H  H27  1  0.09116000  0.41214000  0.36112000  1.0 0.0857235583
H  H28  1  0.90884000  0.58786000  0.36112000  1.0 0.0857235583
H  H29  1  0.63888000  0.90884000  0.41214000  1.0 0.0857235583
H  H30  1  0.63888000  0.09116000  0.58786000  1.0 0.0857235583
H  H31  1  0.36112000  0.09116000  0.41214000  1.0 0.0857235583
H  H32  1  0.36112000  0.90884000  0.58786000  1.0 0.0857235583
H  H33  1  0.41214000  0.63888000  0.90884000  1.0 0.0857235583
H  H34  1  0.58786000  0.63888000  0.09116000  1.0 0.0857235583
H  H35  1  0.41214000  0.36112000  0.09116000  1.0 0.0857235583
H  H36  1  0.58786000  0.36112000  0.90884000  1.0 0.0857235583
H  H37  1  0.91214000  0.40884000  0.86112000  1.0 0.0857235583
H  H38  1  0.08786000  0.59116000  0.86112000  1.0 0.0857235583
H  H39  1  0.91214000  0.59116000  0.13888000  1.0 0.0857235583
H  H40  1  0.08786000  0.40884000  0.13888000  1.0 0.0857235583
H  H41  1  0.40884000  0.13888000  0.08786000  1.0 0.0857235583
H  H42  1  0.59116000  0.13888000  0.91214000  1.0 0.0857235583
H  H43  1  0.59116000  0.86112000  0.08786000  1.0 0.0857235583
H  H44  1  0.40884000  0.86112000  0.91214000  1.0 0.0857235583
H  H45  1  0.13888000  0.91214000  0.59116000  1.0 0.0857235583
H  H46  1  0.13888000  0.08786000  0.40884000  1.0 0.0857235583
H  H47  1  0.86112000  0.91214000  0.40884000  1.0 0.0857235583
H  H48  1  0.86112000  0.08786000  0.59116000  1.0 0.0857235583
H  H49  1  0.18580000  0.67871000  0.36315000  1.0 0.1306203798
H  H50  1  0.81420000  0.32129000  0.36315000  1.0 0.1306203798
H  H51  1  0.81420000  0.67871000  0.63685000  1.0 0.1306203798
H  H52  1  0.18580000  0.32129000  0.63685000  1.0 0.1306203798
H  H53  1  0.36315000  0.18580000  0.67871000  1.0 0.1306203798
H  H54  1  0.36315000  0.81420000  0.32129000  1.0 0.1306203798
H  H55  1  0.63685000  0.81420000  0.67871000  1.0 0.1306203798
H  H56  1  0.63685000  0.18580000  0.32129000  1.0 0.1306203798
H  H57  1  0.67871000  0.36315000  0.18580000  1.0 0.1306203798
H  H58  1  0.32129000  0.36315000  0.81420000  1.0 0.1306203798
H  H59  1  0.67871000  0.63685000  0.81420000  1.0 0.1306203798
H  H60  1  0.32129000  0.63685000  0.18580000  1.0 0.1306203798
H  H61  1  0.17871000  0.68580000  0.13685000  1.0 0.1306203798
H  H62  1  0.82129000  0.31420000  0.13685000  1.0 0.1306203798
H  H63  1  0.17871000  0.31420000  0.86315000  1.0 0.1306203798
H  H64  1  0.82129000  0.68580000  0.86315000  1.0 0.1306203798
H  H65  1  0.68580000  0.86315000  0.82129000  1.0 0.1306203798
H  H66  1  0.31420000  0.86315000  0.17871000  1.0 0.1306203798
H  H67  1  0.31420000  0.13685000  0.82129000  1.0 0.1306203798
H  H68  1  0.68580000  0.13685000  0.17871000  1.0 0.1306203798
H  H69  1  0.86315000  0.17871000  0.31420000  1.0 0.1306203798
H  H70  1  0.86315000  0.82129000  0.68580000  1.0 0.1306203798
H  H71  1  0.13685000  0.17871000  0.68580000  1.0 0.1306203798
H  H72  1  0.13685000  0.82129000  0.31420000  1.0 0.1306203798
H  H73  1  0.81420000  0.32129000  0.63685000  1.0 0.1306203798
H  H74  1  0.18580000  0.67871000  0.63685000  1.0 0.1306203798
H  H75  1  0.18580000  0.32129000  0.36315000  1.0 0.1306203798
H  H76  1  0.81420000  0.67871000  0.36315000  1.0 0.1306203798
H  H77  1  0.63685000  0.81420000  0.32129000  1.0 0.1306203798
H  H78  1  0.63685000  0.18580000  0.67871000  1.0 0.1306203798
H  H79  1  0.36315000  0.18580000  0.32129000  1.0 0.1306203798
H  H80  1  0.36315000  0.81420000  0.67871000  1.0 0.1306203798
H  H81  1  0.32129000  0.63685000  0.81420000  1.0 0.1306203798
H  H82  1  0.67871000  0.63685000  0.18580000  1.0 0.1306203798
H  H83  1  0.32129000  0.36315000  0.18580000  1.0 0.1306203798
H  H84  1  0.67871000  0.36315000  0.81420000  1.0 0.1306203798
H  H85  1  0.82129000  0.31420000  0.86315000  1.0 0.1306203798
H  H86  1  0.17871000  0.68580000  0.86315000  1.0 0.1306203798
H  H87  1  0.82129000  0.68580000  0.13685000  1.0 0.1306203798
H  H88  1  0.17871000  0.31420000  0.13685000  1.0 0.1306203798
H  H89  1  0.31420000  0.13685000  0.17871000  1.0 0.1306203798
H  H90  1  0.68580000  0.13685000  0.82129000  1.0 0.1306203798
H  H91  1  0.68580000  0.86315000  0.17871000  1.0 0.1306203798
H  H92  1  0.31420000  0.86315000  0.82129000  1.0 0.1306203798
H  H93  1  0.13685000  0.82129000  0.68580000  1.0 0.1306203798
H  H94  1  0.13685000  0.17871000  0.31420000  1.0 0.1306203798
H  H95  1  0.86315000  0.82129000  0.31420000  1.0 0.1306203798
H  H96  1  0.86315000  0.17871000  0.68580000  1.0 0.1306203798
C  C1  1  0.19310000  0.69310000  0.25000000  1.0 0.1801843093
C  C2  1  0.80690000  0.30690000  0.25000000  1.0 0.1801843093
C  C3  1  0.80690000  0.69310000  0.75000000  1.0 0.1801843093
C  C4  1  0.19310000  0.30690000  0.75000000  1.0 0.1801843093
C  C5  1  0.25000000  0.19310000  0.69310000  1.0 0.1801843093
C  C6  1  0.25000000  0.80690000  0.30690000  1.0 0.1801843093
C  C7  1  0.75000000  0.80690000  0.69310000  1.0 0.1801843093
C  C8  1  0.75000000  0.19310000  0.30690000  1.0 0.1801843093
C  C9  1  0.69310000  0.25000000  0.19310000  1.0 0.1801843093
C  C10  1  0.30690000  0.25000000  0.80690000  1.0 0.1801843093
C  C11  1  0.69310000  0.75000000  0.80690000  1.0 0.1801843093
C  C12  1  0.30690000  0.75000000  0.19310000  1.0 0.1801843093
C  C13  1  0.80690000  0.30690000  0.75000000  1.0 0.1801843093
C  C14  1  0.19310000  0.69310000  0.75000000  1.0 0.1801843093
C  C15  1  0.19310000  0.30690000  0.25000000  1.0 0.1801843093
C  C16  1  0.80690000  0.69310000  0.25000000  1.0 0.1801843093
C  C17  1  0.75000000  0.80690000  0.30690000  1.0 0.1801843093
C  C18  1  0.75000000  0.19310000  0.69310000  1.0 0.1801843093
C  C19  1  0.25000000  0.19310000  0.30690000  1.0 0.1801843093
C  C20  1  0.25000000  0.80690000  0.69310000  1.0 0.1801843093
C  C21  1  0.30690000  0.75000000  0.80690000  1.0 0.1801843093
C  C22  1  0.69310000  0.75000000  0.19310000  1.0 0.1801843093
C  C23  1  0.30690000  0.25000000  0.19310000  1.0 0.1801843093
C  C24  1  0.69310000  0.25000000  0.80690000  1.0 0.1801843093
C  C25  1  0.10960000  0.60720000  0.31530000  1.0 0.0432634239
C  C26  1  0.89040000  0.39280000  0.31530000  1.0 0.0432634239
C  C27  1  0.89040000  0.60720000  0.68470000  1.0 0.0432634239
C  C28  1  0.10960000  0.39280000  0.68470000  1.0 0.0432634239
C  C29  1  0.31530000  0.10960000  0.60720000  1.0 0.0432634239
C  C30  1  0.31530000  0.89040000  0.39280000  1.0 0.0432634239
C  C31  1  0.68470000  0.89040000  0.60720000  1.0 0.0432634239
C  C32  1  0.68470000  0.10960000  0.39280000  1.0 0.0432634239
C  C33  1  0.60720000  0.31530000  0.10960000  1.0 0.0432634239
C  C34  1  0.39280000  0.31530000  0.89040000  1.0 0.0432634239
C  C35  1  0.60720000  0.68470000  0.89040000  1.0 0.0432634239
C  C36  1  0.39280000  0.68470000  0.10960000  1.0 0.0432634239
C  C37  1  0.10720000  0.60960000  0.18470000  1.0 0.0432634239
C  C38  1  0.89280000  0.39040000  0.18470000  1.0 0.0432634239
C  C39  1  0.10720000  0.39040000  0.81530000  1.0 0.0432634239
C  C40  1  0.89280000  0.60960000  0.81530000  1.0 0.0432634239
C  C41  1  0.60960000  0.81530000  0.89280000  1.0 0.0432634239
C  C42  1  0.39040000  0.81530000  0.10720000  1.0 0.0432634239
C  C43  1  0.39040000  0.18470000  0.89280000  1.0 0.0432634239
C  C44  1  0.60960000  0.18470000  0.10720000  1.0 0.0432634239
C  C45  1  0.81530000  0.10720000  0.39040000  1.0 0.0432634239
C  C46  1  0.81530000  0.89280000  0.60960000  1.0 0.0432634239
C  C47  1  0.18470000  0.10720000  0.60960000  1.0 0.0432634239
C  C48  1  0.18470000  0.89280000  0.39040000  1.0 0.0432634239
C  C49  1  0.89040000  0.39280000  0.68470000  1.0 0.0432634239
C  C50  1  0.10960000  0.60720000  0.68470000  1.0 0.0432634239
C  C51  1  0.10960000  0.39280000  0.31530000  1.0 0.0432634239
C  C52  1  0.89040000  0.60720000  0.31530000  1.0 0.0432634239
C  C53  1  0.68470000  0.89040000  0.39280000  1.0 0.0432634239
C  C54  1  0.68470000  0.10960000  0.60720000  1.0 0.0432634239
C  C55  1  0.31530000  0.10960000  0.39280000  1.0 0.0432634239
C  C56  1  0.31530000  0.89040000  0.60720000  1.0 0.0432634239
C  C57  1  0.39280000  0.68470000  0.89040000  1.0 0.0432634239
C  C58  1  0.60720000  0.68470000  0.10960000  1.0 0.0432634239
C  C59  1  0.39280000  0.31530000  0.10960000  1.0 0.0432634239
C  C60  1  0.60720000  0.31530000  0.89040000  1.0 0.0432634239
C  C61  1  0.89280000  0.39040000  0.81530000  1.0 0.0432634239
C  C62  1  0.10720000  0.60960000  0.81530000  1.0 0.0432634239
C  C63  1  0.89280000  0.60960000  0.18470000  1.0 0.0432634239
C  C64  1  0.10720000  0.39040000  0.18470000  1.0 0.0432634239
C  C65  1  0.39040000  0.18470000  0.10720000  1.0 0.0432634239
C  C66  1  0.60960000  0.18470000  0.89280000  1.0 0.0432634239
C  C67  1  0.60960000  0.81530000  0.10720000  1.0 0.0432634239
C  C68  1  0.39040000  0.81530000  0.89280000  1.0 0.0432634239
C  C69  1  0.18470000  0.89280000  0.60960000  1.0 0.0432634239
C  C70  1  0.18470000  0.10720000  0.39040000  1.0 0.0432634239
C  C71  1  0.81530000  0.89280000  0.39040000  1.0 0.0432634239
C  C72  1  0.81530000  0.10720000  0.60960000  1.0 0.0432634239
C  C73  1  0.16610000  0.66240000  0.31670000  1.0 -0.2363567115
C  C74  1  0.83390000  0.33760000  0.31670000  1.0 -0.2363567115
C  C75  1  0.83390000  0.66240000  0.68330000  1.0 -0.2363567115
C  C76  1  0.16610000  0.33760000  0.68330000  1.0 -0.2363567115
C  C77  1  0.31670000  0.16610000  0.66240000  1.0 -0.2363567115
C  C78  1  0.31670000  0.83390000  0.33760000  1.0 -0.2363567115
C  C79  1  0.68330000  0.83390000  0.66240000  1.0 -0.2363567115
C  C80  1  0.68330000  0.16610000  0.33760000  1.0 -0.2363567115
C  C81  1  0.66240000  0.31670000  0.16610000  1.0 -0.2363567115
C  C82  1  0.33760000  0.31670000  0.83390000  1.0 -0.2363567115
C  C83  1  0.66240000  0.68330000  0.83390000  1.0 -0.2363567115
C  C84  1  0.33760000  0.68330000  0.16610000  1.0 -0.2363567115
C  C85  1  0.16240000  0.66610000  0.18330000  1.0 -0.2363567115
C  C86  1  0.83760000  0.33390000  0.18330000  1.0 -0.2363567115
C  C87  1  0.16240000  0.33390000  0.81670000  1.0 -0.2363567115
C  C88  1  0.83760000  0.66610000  0.81670000  1.0 -0.2363567115
C  C89  1  0.66610000  0.81670000  0.83760000  1.0 -0.2363567115
C  C90  1  0.33390000  0.81670000  0.16240000  1.0 -0.2363567115
C  C91  1  0.33390000  0.18330000  0.83760000  1.0 -0.2363567115
C  C92  1  0.66610000  0.18330000  0.16240000  1.0 -0.2363567115
C  C93  1  0.81670000  0.16240000  0.33390000  1.0 -0.2363567115
C  C94  1  0.81670000  0.83760000  0.66610000  1.0 -0.2363567115
C  C95  1  0.18330000  0.16240000  0.66610000  1.0 -0.2363567115
C  C96  1  0.18330000  0.83760000  0.33390000  1.0 -0.2363567115
C  C97  1  0.83390000  0.33760000  0.68330000  1.0 -0.2363567115
C  C98  1  0.16610000  0.66240000  0.68330000  1.0 -0.2363567115
C  C99  1  0.16610000  0.33760000  0.31670000  1.0 -0.2363567115
C  C100  1  0.83390000  0.66240000  0.31670000  1.0 -0.2363567115
C  C101  1  0.68330000  0.83390000  0.33760000  1.0 -0.2363567115
C  C102  1  0.68330000  0.16610000  0.66240000  1.0 -0.2363567115
C  C103  1  0.31670000  0.16610000  0.33760000  1.0 -0.2363567115
C  C104  1  0.31670000  0.83390000  0.66240000  1.0 -0.2363567115
C  C105  1  0.33760000  0.68330000  0.83390000  1.0 -0.2363567115
C  C106  1  0.66240000  0.68330000  0.16610000  1.0 -0.2363567115
C  C107  1  0.33760000  0.31670000  0.16610000  1.0 -0.2363567115
C  C108  1  0.66240000  0.31670000  0.83390000  1.0 -0.2363567115
C  C109  1  0.83760000  0.33390000  0.81670000  1.0 -0.2363567115
C  C110  1  0.16240000  0.66610000  0.81670000  1.0 -0.2363567115
C  C111  1  0.83760000  0.66610000  0.18330000  1.0 -0.2363567115
C  C112  1  0.16240000  0.33390000  0.18330000  1.0 -0.2363567115
C  C113  1  0.33390000  0.18330000  0.16240000  1.0 -0.2363567115
C  C114  1  0.66610000  0.18330000  0.83760000  1.0 -0.2363567115
C  C115  1  0.66610000  0.81670000  0.16240000  1.0 -0.2363567115
C  C116  1  0.33390000  0.81670000  0.83760000  1.0 -0.2363567115
C  C117  1  0.18330000  0.83760000  0.66610000  1.0 -0.2363567115
C  C118  1  0.18330000  0.16240000  0.33390000  1.0 -0.2363567115
C  C119  1  0.81670000  0.83760000  0.33390000  1.0 -0.2363567115
C  C120  1  0.81670000  0.16240000  0.66610000  1.0 -0.2363567115
N  N1  1  0.08130000  0.58130000  0.25000000  1.0 -0.2088348224
N  N2  1  0.91870000  0.41870000  0.25000000  1.0 -0.2088348224
N  N3  1  0.91870000  0.58130000  0.75000000  1.0 -0.2088348224
N  N4  1  0.08130000  0.41870000  0.75000000  1.0 -0.2088348224
N  N5  1  0.25000000  0.08130000  0.58130000  1.0 -0.2088348224
N  N6  1  0.25000000  0.91870000  0.41870000  1.0 -0.2088348224
N  N7  1  0.75000000  0.91870000  0.58130000  1.0 -0.2088348224
N  N8  1  0.75000000  0.08130000  0.41870000  1.0 -0.2088348224
N  N9  1  0.58130000  0.25000000  0.08130000  1.0 -0.2088348224
N  N10  1  0.41870000  0.25000000  0.91870000  1.0 -0.2088348224
N  N11  1  0.58130000  0.75000000  0.91870000  1.0 -0.2088348224
N  N12  1  0.41870000  0.75000000  0.08130000  1.0 -0.2088348224
N  N13  1  0.91870000  0.41870000  0.75000000  1.0 -0.2088348224
N  N14  1  0.08130000  0.58130000  0.75000000  1.0 -0.2088348224
N  N15  1  0.08130000  0.41870000  0.25000000  1.0 -0.2088348224
N  N16  1  0.91870000  0.58130000  0.25000000  1.0 -0.2088348224
N  N17  1  0.75000000  0.91870000  0.41870000  1.0 -0.2088348224
N  N18  1  0.75000000  0.08130000  0.58130000  1.0 -0.2088348224
N  N19  1  0.25000000  0.08130000  0.41870000  1.0 -0.2088348224
N  N20  1  0.25000000  0.91870000  0.58130000  1.0 -0.2088348224
N  N21  1  0.41870000  0.75000000  0.91870000  1.0 -0.2088348224
N  N22  1  0.58130000  0.75000000  0.08130000  1.0 -0.2088348224
N  N23  1  0.41870000  0.25000000  0.08130000  1.0 -0.2088348224
N  N24  1  0.58130000  0.25000000  0.91870000  1.0 -0.2088348224
N  N25  1  0.25000000  0.75000000  0.25000000  1.0 -0.2025426637
N  N26  1  0.75000000  0.25000000  0.25000000  1.0 -0.2025426637
N  N27  1  0.75000000  0.75000000  0.75000000  1.0 -0.2025426637
N  N28  1  0.25000000  0.25000000  0.75000000  1.0 -0.2025426637
N  N29  1  0.75000000  0.25000000  0.75000000  1.0 -0.2025426637
N  N30  1  0.25000000  0.75000000  0.75000000  1.0 -0.2025426637
N  N31  1  0.25000000  0.25000000  0.25000000  1.0 -0.2025426637
N  N32  1  0.75000000  0.75000000  0.25000000  1.0 -0.2025426637
