# DDEC6 charges by PACMAN v1.1 (https://github.com/mtap-research/PACMAN-charge/)
data_NEZQAN_ASR_pacman
_symmetry_space_group_name_H-M   'P 1'
_cell_length_a   9.27440000
_cell_length_b   9.27440000
_cell_length_c   10.78150000
_cell_angle_alpha   90.00000000
_cell_angle_beta   90.00000000
_cell_angle_gamma   120.00000000
_symmetry_Int_Tables_number   1
_chemical_formula_structural   Li2H4C7O3
_chemical_formula_sum   'Li6 H12 C21 O9'
_cell_volume   803.12189256
_cell_formula_units_Z   3
loop_
 _symmetry_equiv_pos_site_id
 _symmetry_equiv_pos_as_xyz
  1  'x, y, z'
loop_
 _atom_site_type_symbol
 _atom_site_label
 _atom_site_symmetry_multiplicity
 _atom_site_fract_x
 _atom_site_fract_y
 _atom_site_fract_z
 _atom_site_occupancy
 _atom_site_charge
Li  Li1  1  0.87020000  0.97060000  0.41760000  1.0 0.7943808474
Li  Li2  1  0.18180000  0.10920000  0.28160000  1.0 0.7964015044
Li  Li3  1  0.02940000  0.89960000  0.08427000  1.0 0.7943808474
Li  Li4  1  0.89080000  0.07260000  0.94827000  1.0 0.7964015044
Li  Li5  1  0.10040000  0.12980000  0.75093000  1.0 0.7943808474
Li  Li6  1  0.92740000  0.81820000  0.61493000  1.0 0.7964015044
H  H1  1  0.17740000  0.66800000  0.21120000  1.0 0.1097091101
H  H2  1  0.20120000  0.43280000  0.22310000  1.0 0.1177737601
H  H3  1  0.87510000  0.26620000  0.50620000  1.0 0.1177737601
H  H4  1  0.85980000  0.50550000  0.49840000  1.0 0.1033018045
H  H5  1  0.33200000  0.50940000  0.87787000  1.0 0.1097091101
H  H6  1  0.56720000  0.76840000  0.88977000  1.0 0.1177737601
H  H7  1  0.73380000  0.60890000  0.17287000  1.0 0.1177737601
H  H8  1  0.49450000  0.35430000  0.16507000  1.0 0.1033018045
H  H9  1  0.49060000  0.82260000  0.54453000  1.0 0.1097091101
H  H10  1  0.23160000  0.79880000  0.55643000  1.0 0.1177737601
H  H11  1  0.39110000  0.12490000  0.83953000  1.0 0.1177737601
H  H12  1  0.64570000  0.14020000  0.83173000  1.0 0.1033018045
C  C1  1  0.00500000  0.76848000  0.34800000  1.0 0.6526100077
C  C2  1  0.01420000  0.61263000  0.35241000  1.0 -0.1160356166
C  C3  1  0.11730000  0.58796000  0.27111000  1.0 -0.0757235549
C  C4  1  0.13150000  0.44600000  0.27826000  1.0 -0.2430950341
C  C5  1  0.04250000  0.32163000  0.36722000  1.0 0.3880086578
C  C6  1  0.93800000  0.34730000  0.44768000  1.0 -0.2430950341
C  C7  1  0.92680000  0.49040000  0.44182000  1.0 -0.0883590989
C  C8  1  0.23152000  0.23652000  0.01467000  1.0 0.6526100077
C  C9  1  0.38737000  0.40157000  0.01908000  1.0 -0.1160356166
C  C10  1  0.41204000  0.52934000  0.93778000  1.0 -0.0757235549
C  C11  1  0.55400000  0.68550000  0.94493000  1.0 -0.2430950341
C  C12  1  0.67837000  0.72087000  0.03389000  1.0 0.3880086578
C  C13  1  0.65270000  0.59070000  0.11435000  1.0 -0.2430950341
C  C14  1  0.50960000  0.43640000  0.10849000  1.0 -0.0883590989
C  C15  1  0.76348000  0.99500000  0.68133000  1.0 0.6526100077
C  C16  1  0.59843000  0.98580000  0.68574000  1.0 -0.1160356166
C  C17  1  0.47066000  0.88270000  0.60444000  1.0 -0.0757235549
C  C18  1  0.31450000  0.86850000  0.61159000  1.0 -0.2430950341
C  C19  1  0.27913000  0.95750000  0.70055000  1.0 0.3880086578
C  C20  1  0.40930000  0.06200000  0.78101000  1.0 -0.2430950341
C  C21  1  0.56360000  0.07320000  0.77515000  1.0 -0.0883590989
O  O1  1  0.06177000  0.86209000  0.25435000  1.0 -0.7586732966
O  O2  1  0.94255000  0.80341000  0.43957000  1.0 -0.7586732966
O  O3  1  0.06021000  0.18882000  0.37928000  1.0 -0.7963045202
O  O4  1  0.13791000  0.19968000  0.92102000  1.0 -0.7586732966
O  O5  1  0.19659000  0.13914000  0.10624000  1.0 -0.7586732966
O  O6  1  0.81118000  0.87139000  0.04595000  1.0 -0.7963045202
O  O7  1  0.80032000  0.93823000  0.58768000  1.0 -0.7586732966
O  O8  1  0.86086000  0.05745000  0.77290000  1.0 -0.7586732966
O  O9  1  0.12861000  0.93979000  0.71261000  1.0 -0.7963045202
