# DDEC6 charges by PACMAN v1.1 (https://github.com/mtap-research/PACMAN-charge/)
data_NEZWOG01_FSR_pacman
_symmetry_space_group_name_H-M   'P 1'
_cell_length_a   16.01680000
_cell_length_b   16.01680000
_cell_length_c   16.01680000
_cell_angle_alpha   139.39300000
_cell_angle_beta   130.27600000
_cell_angle_gamma   66.06720000
_symmetry_Int_Tables_number   1
_chemical_formula_structural   La3P4C8O33
_chemical_formula_sum   'La6 P8 C16 O66'
_cell_volume   2010.16531710
_cell_formula_units_Z   2
loop_
 _symmetry_equiv_pos_site_id
 _symmetry_equiv_pos_as_xyz
  1  'x, y, z'
loop_
 _atom_site_type_symbol
 _atom_site_label
 _atom_site_symmetry_multiplicity
 _atom_site_fract_x
 _atom_site_fract_y
 _atom_site_fract_z
 _atom_site_occupancy
 _atom_site_charge
La  La1  1  0.00000000  0.04640000  0.04640000  1.0 1.7956445938
La  La2  1  0.00000000  0.54640000  0.54640000  1.0 1.7929073101
La  La3  1  0.92931000  0.54131000  0.91200000  1.0 1.9301356799
La  La4  1  0.62931000  0.04131000  0.11200000  1.0 1.9301356799
La  La5  1  0.37069000  0.48269000  0.41200000  1.0 1.9301356799
La  La6  1  0.07069000  0.98269000  0.61200000  1.0 1.9301356799
P  P1  1  0.99740000  0.22260000  0.61680000  1.0 1.3232166296
P  P2  1  0.60580000  0.72260000  0.72520000  1.0 1.3232166296
P  P3  1  0.39420000  0.11940000  0.11680000  1.0 1.3232166296
P  P4  1  0.00260000  0.61940000  0.22520000  1.0 1.3232166296
P  P5  1  0.11680000  0.98150000  0.28550000  1.0 1.2698920494
P  P6  1  0.69600000  0.48150000  0.36470000  1.0 1.2784124142
P  P7  1  0.30400000  0.66870000  0.78550000  1.0 1.2784124142
P  P8  1  0.88320000  0.16870000  0.86470000  1.0 1.2784124142
C  C1  1  0.87550000  0.09910000  0.43080000  1.0 -0.1641054326
C  C2  1  0.66830000  0.59910000  0.72360000  1.0 -0.1661857887
C  C3  1  0.33170000  0.05530000  0.93080000  1.0 -0.1661857887
C  C4  1  0.12450000  0.55530000  0.22360000  1.0 -0.1661857887
C  C5  1  0.86510000  0.96140000  0.29130000  1.0 0.6026198195
C  C6  1  0.67010000  0.46140000  0.59630000  1.0 0.6026198195
C  C7  1  0.32990000  0.92620000  0.79130000  1.0 0.6026198195
C  C8  1  0.13490000  0.42620000  0.09630000  1.0 0.6055693156
C  C9  1  0.98490000  0.87510000  0.13380000  1.0 -0.0329357037
C  C10  1  0.74130000  0.37510000  0.39020000  1.0 -0.0403495331
C  C11  1  0.25870000  0.64890000  0.63380000  1.0 -0.0403495331
C  C12  1  0.01510000  0.14890000  0.89020000  1.0 -0.0403495331
C  C13  1  0.97670000  0.80300000  0.99230000  1.0 0.6231984174
C  C14  1  0.81070000  0.30300000  0.32630000  1.0 0.6231984174
C  C15  1  0.18930000  0.51560000  0.49230000  1.0 0.6231984174
C  C16  1  0.02330000  0.01560000  0.82630000  1.0 0.6231984174
O  O1  1  0.95560000  0.34730000  0.71090000  1.0 -0.7010956728
O  O2  1  0.63640000  0.84730000  0.89170000  1.0 -0.7010956728
O  O3  1  0.36360000  0.25530000  0.21090000  1.0 -0.7010956728
O  O4  1  0.04440000  0.75530000  0.39170000  1.0 -0.7010956728
O  O5  1  0.07560000  0.18680000  0.70900000  1.0 -0.7586675608
O  O6  1  0.47780000  0.68680000  0.61120000  1.0 -0.7586675608
O  O7  1  0.52220000  0.13340000  0.20900000  1.0 -0.7586675608
O  O8  1  0.92440000  0.63340000  0.11120000  1.0 -0.7586675608
O  O9  1  0.07020000  0.23220000  0.59220000  1.0 -0.4808480416
O  O10  1  0.64000000  0.73220000  0.66200000  1.0 -0.4808480416
O  O11  1  0.36000000  0.02200000  0.09220000  1.0 -0.4808480416
O  O12  1  0.92980000  0.52200000  0.16200000  1.0 -0.4808480416
O  O13  1  0.78790000  0.16460000  0.40730000  1.0 -0.3335595154
O  O14  1  0.75730000  0.66460000  0.87670000  1.0 -0.3335595154
O  O15  1  0.24270000  0.11940000  0.90730000  1.0 -0.3335595154
O  O16  1  0.21210000  0.61940000  0.37670000  1.0 -0.3335595154
O  O17  1  0.93790000  0.90180000  0.32490000  1.0 -0.4613510692
O  O18  1  0.57690000  0.40180000  0.46390000  1.0 -0.4613510692
O  O19  1  0.42310000  0.88700000  0.82490000  1.0 -0.4613510692
O  O20  1  0.06210000  0.38700000  0.96390000  1.0 -0.4613510692
O  O21  1  0.79590000  0.89270000  0.14780000  1.0 -0.4364301437
O  O22  1  0.74490000  0.39270000  0.59680000  1.0 -0.4364301437
O  O23  1  0.25510000  0.85190000  0.64780000  1.0 -0.4364301437
O  O24  1  0.20410000  0.35190000  0.09680000  1.0 -0.4364301437
O  O25  1  0.13190000  0.06580000  0.43810000  1.0 -0.4808480416
O  O26  1  0.62770000  0.56580000  0.43390000  1.0 -0.4865925783
O  O27  1  0.37230000  0.80620000  0.93810000  1.0 -0.4865925783
O  O28  1  0.86810000  0.30620000  0.93390000  1.0 -0.4865925783
O  O29  1  0.20140000  0.88800000  0.25520000  1.0 -0.5835061395
O  O30  1  0.63280000  0.38800000  0.18660000  1.0 -0.5835061395
O  O31  1  0.36720000  0.55380000  0.75520000  1.0 -0.5835061395
O  O32  1  0.79860000  0.05380000  0.68660000  1.0 -0.5835061395
O  O33  1  0.10750000  0.06570000  0.26580000  1.0 -0.7435880327
O  O34  1  0.79990000  0.56570000  0.45820000  1.0 -0.7435880327
O  O35  1  0.20010000  0.65830000  0.76580000  1.0 -0.7435880327
O  O36  1  0.89250000  0.15830000  0.95820000  1.0 -0.7435880327
O  O37  1  0.00270000  0.78730000  0.14240000  1.0 -0.3021984124
O  O38  1  0.64490000  0.28730000  0.28460000  1.0 -0.3021984124
O  O39  1  0.35510000  0.63970000  0.64240000  1.0 -0.3021984124
O  O40  1  0.99730000  0.13970000  0.78460000  1.0 -0.3021984124
O  O41  1  0.91940000  0.69060000  0.87740000  1.0 -0.4539701292
O  O42  1  0.81320000  0.19060000  0.27120000  1.0 -0.4539701292
O  O43  1  0.18680000  0.45800000  0.37740000  1.0 -0.4539701292
O  O44  1  0.08060000  0.95800000  0.77120000  1.0 -0.4539701292
O  O45  1  0.04920000  0.81710000  0.99270000  1.0 -0.4808480416
O  O46  1  0.82440000  0.31710000  0.26790000  1.0 -0.4808480416
O  O47  1  0.17560000  0.44350000  0.49270000  1.0 -0.4808480416
O  O48  1  0.95080000  0.94350000  0.76790000  1.0 -0.4808480416
O  O49  1  0.81450000  0.33650000  0.76200000  1.0 0.0466190174
O  O50  1  0.57450000  0.83650000  0.02200000  1.0 0.0466190174
O  O51  1  0.42550000  0.44750000  0.26200000  1.0 0.0466190174
O  O52  1  0.18550000  0.94750000  0.52200000  1.0 0.0398457921
O  O53  1  0.15440000  0.63790000  0.11050000  1.0 -0.111765469
O  O54  1  0.52740000  0.13790000  0.98350000  1.0 -0.121611225
O  O55  1  0.47260000  0.45610000  0.61050000  1.0 -0.111765469
O  O56  1  0.84560000  0.95610000  0.48350000  1.0 -0.121611225
O  O57  1  0.12610000  0.21130000  0.18440000  1.0 -0.4293637895
O  O58  1  0.02690000  0.71130000  0.58520000  1.0 -0.4293637895
O  O59  1  0.97310000  0.55830000  0.68440000  1.0 -0.4293637895
O  O60  1  0.87390000  0.05830000  0.08520000  1.0 -0.4293637895
O  O61  1  0.15750000  0.96740000  0.97830000  1.0 0.4842393225
O  O62  1  0.98910000  0.46740000  0.30990000  1.0 0.5162554806
O  O63  1  0.01090000  0.32080000  0.47830000  1.0 0.5100098973
O  O64  1  0.84250000  0.82080000  0.80990000  1.0 0.5260558254
O  O65  1  0.00000000  0.26000000  0.26000000  1.0 -0.4719218933
O  O66  1  0.00000000  0.76000000  0.76000000  1.0 -0.4719218933
