# DDEC6 charges by PACMAN v1.1 (https://github.com/mtap-research/PACMAN-charge/)
data_NICJUG_ASR_pacman
_symmetry_space_group_name_H-M   'P 1'
_cell_length_a   16.58100000
_cell_length_b   16.58100000
_cell_length_c   16.58100000
_cell_angle_alpha   113.84800000
_cell_angle_beta   113.84800000
_cell_angle_gamma   113.84800000
_symmetry_Int_Tables_number   1
_chemical_formula_structural   BaCuH28(CO)10
_chemical_formula_sum   'Ba6 Cu6 H168 C60 O60'
_cell_volume   2800.52948371
_cell_formula_units_Z   6
loop_
 _symmetry_equiv_pos_site_id
 _symmetry_equiv_pos_as_xyz
  1  'x, y, z'
loop_
 _atom_site_type_symbol
 _atom_site_label
 _atom_site_symmetry_multiplicity
 _atom_site_fract_x
 _atom_site_fract_y
 _atom_site_fract_z
 _atom_site_occupancy
 _atom_site_charge
Ba  Ba1  1  0.29507000  0.00000000  0.70493000  1.0 1.4795715986
Ba  Ba2  1  0.00000000  0.70493000  0.29507000  1.0 1.4795715986
Ba  Ba3  1  0.70493000  0.29507000  0.00000000  1.0 1.4795715986
Ba  Ba4  1  0.70493000  0.00000000  0.29507000  1.0 1.4795715986
Ba  Ba5  1  0.00000000  0.29507000  0.70493000  1.0 1.4795715986
Ba  Ba6  1  0.29507000  0.70493000  0.00000000  1.0 1.4795715986
Cu  Cu1  1  0.10743000  0.73490000  0.73490000  1.0 0.9194630065
Cu  Cu2  1  0.73490000  0.73490000  0.10743000  1.0 0.9194630065
Cu  Cu3  1  0.73490000  0.10743000  0.73490000  1.0 0.9194630065
Cu  Cu4  1  0.89257000  0.26510000  0.26510000  1.0 0.9194630065
Cu  Cu5  1  0.26510000  0.89257000  0.26510000  1.0 0.9194630065
Cu  Cu6  1  0.26510000  0.26510000  0.89257000  1.0 0.9194630065
H  H1  1  0.46700000  0.27610000  0.92390000  1.0 0.3194822349
H  H2  1  0.27610000  0.92390000  0.46700000  1.0 0.3194822349
H  H3  1  0.92390000  0.46700000  0.27610000  1.0 0.3194822349
H  H4  1  0.53300000  0.07610000  0.72390000  1.0 0.3194822349
H  H5  1  0.72390000  0.53300000  0.07610000  1.0 0.3194822349
H  H6  1  0.07610000  0.72390000  0.53300000  1.0 0.3194822349
H  H7  1  0.53300000  0.72390000  0.07610000  1.0 0.3194822349
H  H8  1  0.72390000  0.07610000  0.53300000  1.0 0.3194822349
H  H9  1  0.07610000  0.53300000  0.72390000  1.0 0.3194822349
H  H10  1  0.46700000  0.92390000  0.27610000  1.0 0.3194822349
H  H11  1  0.27610000  0.46700000  0.92390000  1.0 0.3194822349
H  H12  1  0.92390000  0.27610000  0.46700000  1.0 0.3194822349
H  H13  1  0.50010000  0.28940000  0.86850000  1.0 0.3141984124
H  H14  1  0.28940000  0.86850000  0.50010000  1.0 0.3141984124
H  H15  1  0.86850000  0.50010000  0.28940000  1.0 0.3141984124
H  H16  1  0.49990000  0.13150000  0.71060000  1.0 0.3141984124
H  H17  1  0.71060000  0.49990000  0.13150000  1.0 0.3141984124
H  H18  1  0.13150000  0.71060000  0.49990000  1.0 0.3141984124
H  H19  1  0.49990000  0.71060000  0.13150000  1.0 0.3141984124
H  H20  1  0.71060000  0.13150000  0.49990000  1.0 0.3141984124
H  H21  1  0.13150000  0.49990000  0.71060000  1.0 0.3141984124
H  H22  1  0.50010000  0.86850000  0.28940000  1.0 0.3141984124
H  H23  1  0.28940000  0.50010000  0.86850000  1.0 0.3141984124
H  H24  1  0.86850000  0.28940000  0.50010000  1.0 0.3141984124
H  H25  1  0.49520000  0.14910000  0.13250000  1.0 0.0722607238
H  H26  1  0.14910000  0.13250000  0.49520000  1.0 0.0722607238
H  H27  1  0.13250000  0.49520000  0.14910000  1.0 0.0722607238
H  H28  1  0.50480000  0.86750000  0.85090000  1.0 0.0722607238
H  H29  1  0.85090000  0.50480000  0.86750000  1.0 0.0722607238
H  H30  1  0.86750000  0.85090000  0.50480000  1.0 0.0722607238
H  H31  1  0.50480000  0.85090000  0.86750000  1.0 0.0722607238
H  H32  1  0.85090000  0.86750000  0.50480000  1.0 0.0722607238
H  H33  1  0.86750000  0.50480000  0.85090000  1.0 0.0722607238
H  H34  1  0.49520000  0.13250000  0.14910000  1.0 0.0722607238
H  H35  1  0.14910000  0.49520000  0.13250000  1.0 0.0722607238
H  H36  1  0.13250000  0.14910000  0.49520000  1.0 0.0722607238
H  H37  1  0.41850000  0.18340000  0.13590000  1.0 0.0619468373
H  H38  1  0.18340000  0.13590000  0.41850000  1.0 0.0619468373
H  H39  1  0.13590000  0.41850000  0.18340000  1.0 0.0619468373
H  H40  1  0.58150000  0.86410000  0.81660000  1.0 0.0619468373
H  H41  1  0.81660000  0.58150000  0.86410000  1.0 0.0619468373
H  H42  1  0.86410000  0.81660000  0.58150000  1.0 0.0619468373
H  H43  1  0.58150000  0.81660000  0.86410000  1.0 0.0619468373
H  H44  1  0.81660000  0.86410000  0.58150000  1.0 0.0619468373
H  H45  1  0.86410000  0.58150000  0.81660000  1.0 0.0619468373
H  H46  1  0.41850000  0.13590000  0.18340000  1.0 0.0619468373
H  H47  1  0.18340000  0.41850000  0.13590000  1.0 0.0619468373
H  H48  1  0.13590000  0.18340000  0.41850000  1.0 0.0619468373
H  H49  1  0.43840000  0.12280000  0.18680000  1.0 0.0722607238
H  H50  1  0.12280000  0.18680000  0.43840000  1.0 0.0722607238
H  H51  1  0.18680000  0.43840000  0.12280000  1.0 0.0722607238
H  H52  1  0.56160000  0.81320000  0.87720000  1.0 0.0722607238
H  H53  1  0.87720000  0.56160000  0.81320000  1.0 0.0722607238
H  H54  1  0.81320000  0.87720000  0.56160000  1.0 0.0722607238
H  H55  1  0.56160000  0.87720000  0.81320000  1.0 0.0722607238
H  H56  1  0.87720000  0.81320000  0.56160000  1.0 0.0722607238
H  H57  1  0.81320000  0.56160000  0.87720000  1.0 0.0722607238
H  H58  1  0.43840000  0.18680000  0.12280000  1.0 0.0722607238
H  H59  1  0.12280000  0.43840000  0.18680000  1.0 0.0722607238
H  H60  1  0.18680000  0.12280000  0.43840000  1.0 0.0722607238
H  H61  1  0.20020000  0.03470000  0.97400000  1.0 0.1111649941
H  H62  1  0.03470000  0.97400000  0.20020000  1.0 0.1111649941
H  H63  1  0.97400000  0.20020000  0.03470000  1.0 0.1111649941
H  H64  1  0.79980000  0.02600000  0.96530000  1.0 0.1111649941
H  H65  1  0.96530000  0.79980000  0.02600000  1.0 0.1111649941
H  H66  1  0.02600000  0.96530000  0.79980000  1.0 0.1111649941
H  H67  1  0.79980000  0.96530000  0.02600000  1.0 0.1111649941
H  H68  1  0.96530000  0.02600000  0.79980000  1.0 0.1111649941
H  H69  1  0.02600000  0.79980000  0.96530000  1.0 0.1111649941
H  H70  1  0.20020000  0.97400000  0.03470000  1.0 0.1111649941
H  H71  1  0.03470000  0.20020000  0.97400000  1.0 0.1111649941
H  H72  1  0.97400000  0.03470000  0.20020000  1.0 0.1111649941
H  H73  1  0.20920000  0.99060000  0.04450000  1.0 0.1111649941
H  H74  1  0.99060000  0.04450000  0.20920000  1.0 0.1111649941
H  H75  1  0.04450000  0.20920000  0.99060000  1.0 0.1111649941
H  H76  1  0.79080000  0.95550000  0.00940000  1.0 0.1111649941
H  H77  1  0.00940000  0.79080000  0.95550000  1.0 0.1111649941
H  H78  1  0.95550000  0.00940000  0.79080000  1.0 0.1111649941
H  H79  1  0.79080000  0.00940000  0.95550000  1.0 0.1111649941
H  H80  1  0.00940000  0.95550000  0.79080000  1.0 0.1111649941
H  H81  1  0.95550000  0.79080000  0.00940000  1.0 0.1111649941
H  H82  1  0.20920000  0.04450000  0.99060000  1.0 0.1111649941
H  H83  1  0.99060000  0.20920000  0.04450000  1.0 0.1111649941
H  H84  1  0.04450000  0.99060000  0.20920000  1.0 0.1111649941
H  H85  1  0.12960000  0.89600000  0.90280000  1.0 0.085854995
H  H86  1  0.89600000  0.90280000  0.12960000  1.0 0.085854995
H  H87  1  0.90280000  0.12960000  0.89600000  1.0 0.085854995
H  H88  1  0.87040000  0.09720000  0.10400000  1.0 0.085854995
H  H89  1  0.10400000  0.87040000  0.09720000  1.0 0.085854995
H  H90  1  0.09720000  0.10400000  0.87040000  1.0 0.085854995
H  H91  1  0.87040000  0.10400000  0.09720000  1.0 0.085854995
H  H92  1  0.10400000  0.09720000  0.87040000  1.0 0.085854995
H  H93  1  0.09720000  0.87040000  0.10400000  1.0 0.085854995
H  H94  1  0.12960000  0.90280000  0.89600000  1.0 0.085854995
H  H95  1  0.89600000  0.12960000  0.90280000  1.0 0.085854995
H  H96  1  0.90280000  0.89600000  0.12960000  1.0 0.085854995
H  H97  1  0.81770000  0.59800000  0.66340000  1.0 0.0619468373
H  H98  1  0.59800000  0.66340000  0.81770000  1.0 0.0619468373
H  H99  1  0.66340000  0.81770000  0.59800000  1.0 0.0619468373
H  H100  1  0.18230000  0.33660000  0.40200000  1.0 0.0619468373
H  H101  1  0.40200000  0.18230000  0.33660000  1.0 0.0619468373
H  H102  1  0.33660000  0.40200000  0.18230000  1.0 0.0619468373
H  H103  1  0.18230000  0.40200000  0.33660000  1.0 0.0619468373
H  H104  1  0.40200000  0.33660000  0.18230000  1.0 0.0619468373
H  H105  1  0.33660000  0.18230000  0.40200000  1.0 0.0619468373
H  H106  1  0.81770000  0.66340000  0.59800000  1.0 0.0619468373
H  H107  1  0.59800000  0.81770000  0.66340000  1.0 0.0619468373
H  H108  1  0.66340000  0.59800000  0.81770000  1.0 0.0619468373
H  H109  1  0.77010000  0.62270000  0.57950000  1.0 0.0619468373
H  H110  1  0.62270000  0.57950000  0.77010000  1.0 0.0619468373
H  H111  1  0.57950000  0.77010000  0.62270000  1.0 0.0619468373
H  H112  1  0.22990000  0.42050000  0.37730000  1.0 0.0619468373
H  H113  1  0.37730000  0.22990000  0.42050000  1.0 0.0619468373
H  H114  1  0.42050000  0.37730000  0.22990000  1.0 0.0619468373
H  H115  1  0.22990000  0.37730000  0.42050000  1.0 0.0619468373
H  H116  1  0.37730000  0.42050000  0.22990000  1.0 0.0619468373
H  H117  1  0.42050000  0.22990000  0.37730000  1.0 0.0619468373
H  H118  1  0.77010000  0.57950000  0.62270000  1.0 0.0619468373
H  H119  1  0.62270000  0.77010000  0.57950000  1.0 0.0619468373
H  H120  1  0.57950000  0.62270000  0.77010000  1.0 0.0619468373
H  H121  1  0.67720000  0.36060000  0.35280000  1.0 0.1111649941
H  H122  1  0.36060000  0.35280000  0.67720000  1.0 0.1111649941
H  H123  1  0.35280000  0.67720000  0.36060000  1.0 0.1111649941
H  H124  1  0.32280000  0.64720000  0.63940000  1.0 0.1111649941
H  H125  1  0.63940000  0.32280000  0.64720000  1.0 0.1111649941
H  H126  1  0.64720000  0.63940000  0.32280000  1.0 0.1111649941
H  H127  1  0.32280000  0.63940000  0.64720000  1.0 0.1111649941
H  H128  1  0.63940000  0.64720000  0.32280000  1.0 0.1156461714
H  H129  1  0.64720000  0.32280000  0.63940000  1.0 0.1111649941
H  H130  1  0.67720000  0.35280000  0.36060000  1.0 0.1156461714
H  H131  1  0.36060000  0.67720000  0.35280000  1.0 0.1111649941
H  H132  1  0.35280000  0.36060000  0.67720000  1.0 0.1111649941
H  H133  1  0.64850000  0.37530000  0.43640000  1.0 0.1111649941
H  H134  1  0.37530000  0.43640000  0.64850000  1.0 0.1111649941
H  H135  1  0.43640000  0.64850000  0.37530000  1.0 0.1111649941
H  H136  1  0.35150000  0.56360000  0.62470000  1.0 0.1111649941
H  H137  1  0.62470000  0.35150000  0.56360000  1.0 0.1111649941
H  H138  1  0.56360000  0.62470000  0.35150000  1.0 0.1111649941
H  H139  1  0.35150000  0.62470000  0.56360000  1.0 0.1111649941
H  H140  1  0.62470000  0.56360000  0.35150000  1.0 0.1111649941
H  H141  1  0.56360000  0.35150000  0.62470000  1.0 0.1111649941
H  H142  1  0.64850000  0.43640000  0.37530000  1.0 0.1111649941
H  H143  1  0.37530000  0.64850000  0.43640000  1.0 0.1111649941
H  H144  1  0.43640000  0.37530000  0.64850000  1.0 0.1111649941
H  H145  1  0.64430000  0.43970000  0.38640000  1.0 0.1111649941
H  H146  1  0.43970000  0.38640000  0.64430000  1.0 0.1111649941
H  H147  1  0.38640000  0.64430000  0.43970000  1.0 0.1111649941
H  H148  1  0.35570000  0.61360000  0.56030000  1.0 0.1111649941
H  H149  1  0.56030000  0.35570000  0.61360000  1.0 0.1111649941
H  H150  1  0.61360000  0.56030000  0.35570000  1.0 0.1111649941
H  H151  1  0.35570000  0.56030000  0.61360000  1.0 0.1111649941
H  H152  1  0.56030000  0.61360000  0.35570000  1.0 0.1111649941
H  H153  1  0.61360000  0.35570000  0.56030000  1.0 0.1111649941
H  H154  1  0.64430000  0.38640000  0.43970000  1.0 0.1111649941
H  H155  1  0.43970000  0.64430000  0.38640000  1.0 0.1111649941
H  H156  1  0.38640000  0.43970000  0.64430000  1.0 0.1111649941
H  H157  1  0.91080000  0.69990000  0.67780000  1.0 0.0420589953
H  H158  1  0.69990000  0.67780000  0.91080000  1.0 0.0420589953
H  H159  1  0.67780000  0.91080000  0.69990000  1.0 0.0420589953
H  H160  1  0.08920000  0.32220000  0.30010000  1.0 0.0420589953
H  H161  1  0.30010000  0.08920000  0.32220000  1.0 0.0420589953
H  H162  1  0.32220000  0.30010000  0.08920000  1.0 0.0420589953
H  H163  1  0.08920000  0.30010000  0.32220000  1.0 0.0420589953
H  H164  1  0.30010000  0.32220000  0.08920000  1.0 0.0420589953
H  H165  1  0.32220000  0.08920000  0.30010000  1.0 0.0420589953
H  H166  1  0.91080000  0.67780000  0.69990000  1.0 0.0420589953
H  H167  1  0.69990000  0.91080000  0.67780000  1.0 0.0420589953
H  H168  1  0.67780000  0.69990000  0.91080000  1.0 0.0420589953
C  C1  1  0.68498000  0.41566000  0.41566000  1.0 -0.5167630104
C  C2  1  0.41566000  0.41566000  0.68498000  1.0 -0.5167630104
C  C3  1  0.41566000  0.68498000  0.41566000  1.0 -0.5167630104
C  C4  1  0.31502000  0.58434000  0.58434000  1.0 -0.5167630104
C  C5  1  0.58434000  0.31502000  0.58434000  1.0 -0.5167630104
C  C6  1  0.58434000  0.58434000  0.31502000  1.0 -0.5167630104
C  C7  1  0.81804000  0.52703000  0.52703000  1.0 0.0420589953
C  C8  1  0.52703000  0.52703000  0.81804000  1.0 0.0420589953
C  C9  1  0.52703000  0.81804000  0.52703000  1.0 0.0420589953
C  C10  1  0.18196000  0.47297000  0.47297000  1.0 0.0420589953
C  C11  1  0.47297000  0.18196000  0.47297000  1.0 0.0420589953
C  C12  1  0.47297000  0.47297000  0.18196000  1.0 0.0420589953
C  C13  1  0.88145000  0.49400000  0.58395000  1.0 0.5287249713
C  C14  1  0.49400000  0.58395000  0.88145000  1.0 0.5287249713
C  C15  1  0.58395000  0.88145000  0.49400000  1.0 0.5287249713
C  C16  1  0.11855000  0.41605000  0.50600000  1.0 0.5287249713
C  C17  1  0.50600000  0.11855000  0.41605000  1.0 0.5287249713
C  C18  1  0.41605000  0.50600000  0.11855000  1.0 0.5287249713
C  C19  1  0.11855000  0.50600000  0.41605000  1.0 0.5287249713
C  C20  1  0.50600000  0.41605000  0.11855000  1.0 0.5287249713
C  C21  1  0.41605000  0.11855000  0.50600000  1.0 0.5287249713
C  C22  1  0.88145000  0.58395000  0.49400000  1.0 0.5287249713
C  C23  1  0.49400000  0.88145000  0.58395000  1.0 0.5287249713
C  C24  1  0.58395000  0.49400000  0.88145000  1.0 0.5287249713
C  C25  1  0.83030000  0.62050000  0.62050000  1.0 -0.3947686028
C  C26  1  0.62050000  0.62050000  0.83030000  1.0 -0.3947686028
C  C27  1  0.62050000  0.83030000  0.62050000  1.0 -0.3947686028
C  C28  1  0.16970000  0.37950000  0.37950000  1.0 -0.3947686028
C  C29  1  0.37950000  0.16970000  0.37950000  1.0 -0.3947686028
C  C30  1  0.37950000  0.37950000  0.16970000  1.0 -0.3947686028
C  C31  1  0.31258000  0.00141000  0.00141000  1.0 0.047131702
C  C32  1  0.00141000  0.00141000  0.31258000  1.0 0.047131702
C  C33  1  0.00141000  0.31258000  0.00141000  1.0 0.047131702
C  C34  1  0.68742000  0.99859000  0.99859000  1.0 0.047131702
C  C35  1  0.99859000  0.68742000  0.99859000  1.0 0.047131702
C  C36  1  0.99859000  0.99859000  0.68742000  1.0 0.047131702
C  C37  1  0.30682000  0.99137000  0.90261000  1.0 0.5391701637
C  C38  1  0.99137000  0.90261000  0.30682000  1.0 0.5391701637
C  C39  1  0.90261000  0.30682000  0.99137000  1.0 0.5391701637
C  C40  1  0.69318000  0.09739000  0.00863000  1.0 0.5391701637
C  C41  1  0.00863000  0.69318000  0.09739000  1.0 0.5391701637
C  C42  1  0.09739000  0.00863000  0.69318000  1.0 0.5391701637
C  C43  1  0.69318000  0.00863000  0.09739000  1.0 0.5391701637
C  C44  1  0.00863000  0.09739000  0.69318000  1.0 0.5391701637
C  C45  1  0.09739000  0.69318000  0.00863000  1.0 0.5391701637
C  C46  1  0.30682000  0.90261000  0.99137000  1.0 0.5391701637
C  C47  1  0.99137000  0.30682000  0.90261000  1.0 0.5391701637
C  C48  1  0.90261000  0.99137000  0.30682000  1.0 0.5391701637
C  C49  1  0.42626000  0.12517000  0.12517000  1.0 -0.4095587702
C  C50  1  0.12517000  0.12517000  0.42626000  1.0 -0.4095587702
C  C51  1  0.12517000  0.42626000  0.12517000  1.0 -0.4095587702
C  C52  1  0.57374000  0.87483000  0.87483000  1.0 -0.4095587702
C  C53  1  0.87483000  0.57374000  0.87483000  1.0 -0.4095587702
C  C54  1  0.87483000  0.87483000  0.57374000  1.0 -0.4095587702
C  C55  1  0.20286000  0.97857000  0.97857000  1.0 -0.5113449019
C  C56  1  0.97857000  0.97857000  0.20286000  1.0 -0.5113449019
C  C57  1  0.97857000  0.20286000  0.97857000  1.0 -0.5113449019
C  C58  1  0.79714000  0.02143000  0.02143000  1.0 -0.5113449019
C  C59  1  0.02143000  0.79714000  0.02143000  1.0 -0.5113449019
C  C60  1  0.02143000  0.02143000  0.79714000  1.0 -0.5113449019
O  O1  1  0.99455000  0.57964000  0.67909000  1.0 -0.5742794694
O  O2  1  0.57964000  0.67909000  0.99455000  1.0 -0.5742794694
O  O3  1  0.67909000  0.99455000  0.57964000  1.0 -0.5742794694
O  O4  1  0.00545000  0.32091000  0.42036000  1.0 -0.5742794694
O  O5  1  0.42036000  0.00545000  0.32091000  1.0 -0.5742794694
O  O6  1  0.32091000  0.42036000  0.00545000  1.0 -0.5742794694
O  O7  1  0.00545000  0.42036000  0.32091000  1.0 -0.5742794694
O  O8  1  0.42036000  0.32091000  0.00545000  1.0 -0.5742794694
O  O9  1  0.32091000  0.00545000  0.42036000  1.0 -0.5742794694
O  O10  1  0.99455000  0.67909000  0.57964000  1.0 -0.5742794694
O  O11  1  0.57964000  0.99455000  0.67909000  1.0 -0.5742794694
O  O12  1  0.67909000  0.57964000  0.99455000  1.0 -0.5742794694
O  O13  1  0.21173000  0.89532000  0.79321000  1.0 -0.6239588978
O  O14  1  0.89532000  0.79321000  0.21173000  1.0 -0.6239588978
O  O15  1  0.79321000  0.21173000  0.89532000  1.0 -0.6239588978
O  O16  1  0.78827000  0.20679000  0.10468000  1.0 -0.6239588978
O  O17  1  0.10468000  0.78827000  0.20679000  1.0 -0.6239588978
O  O18  1  0.20679000  0.10468000  0.78827000  1.0 -0.6239588978
O  O19  1  0.78827000  0.10468000  0.20679000  1.0 -0.6239588978
O  O20  1  0.10468000  0.20679000  0.78827000  1.0 -0.6239588978
O  O21  1  0.20679000  0.78827000  0.10468000  1.0 -0.6239588978
O  O22  1  0.21173000  0.79321000  0.89532000  1.0 -0.6239588978
O  O23  1  0.89532000  0.21173000  0.79321000  1.0 -0.6239588978
O  O24  1  0.79321000  0.89532000  0.21173000  1.0 -0.6239588978
O  O25  1  0.82351000  0.38996000  0.54055000  1.0 -0.5167630104
O  O26  1  0.38996000  0.54055000  0.82351000  1.0 -0.5167630104
O  O27  1  0.54055000  0.82351000  0.38996000  1.0 -0.5167630104
O  O28  1  0.17649000  0.45945000  0.61004000  1.0 -0.5167630104
O  O29  1  0.61004000  0.17649000  0.45945000  1.0 -0.5167630104
O  O30  1  0.45945000  0.61004000  0.17649000  1.0 -0.5167630104
O  O31  1  0.17649000  0.61004000  0.45945000  1.0 -0.5167630104
O  O32  1  0.61004000  0.45945000  0.17649000  1.0 -0.5167630104
O  O33  1  0.45945000  0.17649000  0.61004000  1.0 -0.5167630104
O  O34  1  0.82351000  0.54055000  0.38996000  1.0 -0.5167630104
O  O35  1  0.38996000  0.82351000  0.54055000  1.0 -0.5167630104
O  O36  1  0.54055000  0.38996000  0.82351000  1.0 -0.5167630104
O  O37  1  0.48923000  0.25288000  0.88955000  1.0 -0.7433961751
O  O38  1  0.25288000  0.88955000  0.48923000  1.0 -0.7433961751
O  O39  1  0.88955000  0.48923000  0.25288000  1.0 -0.7433961751
O  O40  1  0.51077000  0.11045000  0.74712000  1.0 -0.7433961751
O  O41  1  0.74712000  0.51077000  0.11045000  1.0 -0.7433961751
O  O42  1  0.11045000  0.74712000  0.51077000  1.0 -0.7433961751
O  O43  1  0.51077000  0.74712000  0.11045000  1.0 -0.7433961751
O  O44  1  0.74712000  0.11045000  0.51077000  1.0 -0.7433961751
O  O45  1  0.11045000  0.51077000  0.74712000  1.0 -0.7433961751
O  O46  1  0.48923000  0.88955000  0.25288000  1.0 -0.7433961751
O  O47  1  0.25288000  0.48923000  0.88955000  1.0 -0.7433961751
O  O48  1  0.88955000  0.25288000  0.48923000  1.0 -0.7433961751
O  O49  1  0.39268000  0.07566000  0.92992000  1.0 -0.5859210215
O  O50  1  0.07566000  0.92992000  0.39268000  1.0 -0.5859210215
O  O51  1  0.92992000  0.39268000  0.07566000  1.0 -0.5859210215
O  O52  1  0.60732000  0.07008000  0.92434000  1.0 -0.5859210215
O  O53  1  0.92434000  0.60732000  0.07008000  1.0 -0.5859210215
O  O54  1  0.07008000  0.92434000  0.60732000  1.0 -0.5859210215
O  O55  1  0.60732000  0.92434000  0.07008000  1.0 -0.5859210215
O  O56  1  0.92434000  0.07008000  0.60732000  1.0 -0.5859210215
O  O57  1  0.07008000  0.60732000  0.92434000  1.0 -0.5859210215
O  O58  1  0.39268000  0.92992000  0.07566000  1.0 -0.5859210215
O  O59  1  0.07566000  0.39268000  0.92992000  1.0 -0.5859210215
O  O60  1  0.92992000  0.07566000  0.39268000  1.0 -0.5859210215
