# DDEC6 charges by PACMAN v1.1 (https://github.com/mtap-research/PACMAN-charge/)
data_NICZAA_ASR_pacman
_symmetry_space_group_name_H-M   'P 1'
_cell_length_a   11.95800000
_cell_length_b   11.95800000
_cell_length_c   25.03500000
_cell_angle_alpha   90.00000000
_cell_angle_beta   90.00000000
_cell_angle_gamma   120.00000000
_symmetry_Int_Tables_number   1
_chemical_formula_structural   CdH42(C7N3)6
_chemical_formula_sum   'Cd3 H126 C126 N54'
_cell_volume   3100.24007330
_cell_formula_units_Z   3
loop_
 _symmetry_equiv_pos_site_id
 _symmetry_equiv_pos_as_xyz
  1  'x, y, z'
loop_
 _atom_site_type_symbol
 _atom_site_label
 _atom_site_symmetry_multiplicity
 _atom_site_fract_x
 _atom_site_fract_y
 _atom_site_fract_z
 _atom_site_occupancy
 _atom_site_charge
Cd  Cd1  1  0.00000000  0.00000000  0.00000000  1.0 0.6369931013
Cd  Cd2  1  0.66666667  0.33333333  0.33333333  1.0 0.6344741793
Cd  Cd3  1  0.33333333  0.66666667  0.66666667  1.0 0.6369931013
H  H1  1  0.21566000  0.16099000  0.12126000  1.0 0.0596839921
H  H2  1  0.78434000  0.83901000  0.87874000  1.0 0.0596839921
H  H3  1  0.83901000  0.05467000  0.12126000  1.0 0.0596839921
H  H4  1  0.16099000  0.94533000  0.87874000  1.0 0.0596839921
H  H5  1  0.94533000  0.78434000  0.12126000  1.0 0.0596839921
H  H6  1  0.05467000  0.21566000  0.87874000  1.0 0.0596839921
H  H7  1  0.16099000  0.21567000  0.87874000  1.0 0.0596839921
H  H8  1  0.83901000  0.78433000  0.12126000  1.0 0.0596839921
H  H9  1  0.05467000  0.83901000  0.87874000  1.0 0.0596839921
H  H10  1  0.94533000  0.16099000  0.12126000  1.0 0.0596839921
H  H11  1  0.78433000  0.94533000  0.87874000  1.0 0.0596839921
H  H12  1  0.21567000  0.05467000  0.12126000  1.0 0.0596839921
H  H13  1  0.88233000  0.49432000  0.45460000  1.0 0.0596839921
H  H14  1  0.45101000  0.17235000  0.21207000  1.0 0.0596839921
H  H15  1  0.50568000  0.38801000  0.45460000  1.0 0.0596839921
H  H16  1  0.82765000  0.27866000  0.21207000  1.0 0.0596839921
H  H17  1  0.61199000  0.11767000  0.45460000  1.0 0.0596839921
H  H18  1  0.72134000  0.54899000  0.21207000  1.0 0.0596839921
H  H19  1  0.82766000  0.54900000  0.21207000  1.0 0.0596839921
H  H20  1  0.50567000  0.11766000  0.45460000  1.0 0.0596839921
H  H21  1  0.72134000  0.17234000  0.21207000  1.0 0.0596839921
H  H22  1  0.61199000  0.49433000  0.45460000  1.0 0.0596839921
H  H23  1  0.45100000  0.27866000  0.21207000  1.0 0.0596839921
H  H24  1  0.88234000  0.38801000  0.45460000  1.0 0.0596839921
H  H25  1  0.54899000  0.82765000  0.78793000  1.0 0.0596839921
H  H26  1  0.11767000  0.50568000  0.54540000  1.0 0.0596839921
H  H27  1  0.17235000  0.72134000  0.78793000  1.0 0.0596839921
H  H28  1  0.49432000  0.61199000  0.54540000  1.0 0.0596839921
H  H29  1  0.27866000  0.45101000  0.78793000  1.0 0.0596839921
H  H30  1  0.38801000  0.88233000  0.54540000  1.0 0.0596839921
H  H31  1  0.49433000  0.88234000  0.54540000  1.0 0.0596839921
H  H32  1  0.17234000  0.45100000  0.78793000  1.0 0.0596839921
H  H33  1  0.38801000  0.50567000  0.54540000  1.0 0.0596839921
H  H34  1  0.27866000  0.82766000  0.78793000  1.0 0.0596839921
H  H35  1  0.11766000  0.61199000  0.54540000  1.0 0.0596839921
H  H36  1  0.54900000  0.72134000  0.78793000  1.0 0.0596839921
H  H37  1  0.21851000  0.32104000  0.99023000  1.0 0.0719270101
H  H38  1  0.78149000  0.67896000  0.00977000  1.0 0.0719270101
H  H39  1  0.67896000  0.89746000  0.99023000  1.0 0.0719270101
H  H40  1  0.32104000  0.10254000  0.00977000  1.0 0.0719270101
H  H41  1  0.10254000  0.78149000  0.99023000  1.0 0.0719270101
H  H42  1  0.89746000  0.21851000  0.00977000  1.0 0.0719270101
H  H43  1  0.32101000  0.21829000  0.00966000  1.0 0.0719270101
H  H44  1  0.67899000  0.78171000  0.99034000  1.0 0.0719270101
H  H45  1  0.89727000  0.67899000  0.00966000  1.0 0.0719270101
H  H46  1  0.10273000  0.32101000  0.99034000  1.0 0.0719270101
H  H47  1  0.78171000  0.10273000  0.00966000  1.0 0.0719270101
H  H48  1  0.21829000  0.89727000  0.99034000  1.0 0.0719270101
H  H49  1  0.88517000  0.65438000  0.32357000  1.0 0.0719270101
H  H50  1  0.44816000  0.01229000  0.34310000  1.0 0.0719270101
H  H51  1  0.34562000  0.23080000  0.32357000  1.0 0.0719270101
H  H52  1  0.98771000  0.43587000  0.34310000  1.0 0.0719270101
H  H53  1  0.76920000  0.11483000  0.32357000  1.0 0.0719270101
H  H54  1  0.56413000  0.55184000  0.34310000  1.0 0.0719270101
H  H55  1  0.98768000  0.55162000  0.34300000  1.0 0.0719270101
H  H56  1  0.34565000  0.11504000  0.32367000  1.0 0.0719270101
H  H57  1  0.56394000  0.01232000  0.34300000  1.0 0.0719270101
H  H58  1  0.76939000  0.65435000  0.32367000  1.0 0.0719270101
H  H59  1  0.44838000  0.43606000  0.34300000  1.0 0.0719270101
H  H60  1  0.88496000  0.23061000  0.32367000  1.0 0.0719270101
H  H61  1  0.55184000  0.98771000  0.65690000  1.0 0.0719270101
H  H62  1  0.11483000  0.34562000  0.67643000  1.0 0.0719270101
H  H63  1  0.01229000  0.56413000  0.65690000  1.0 0.0719270101
H  H64  1  0.65438000  0.76920000  0.67643000  1.0 0.0719270101
H  H65  1  0.43587000  0.44816000  0.65690000  1.0 0.0719270101
H  H66  1  0.23080000  0.88517000  0.67643000  1.0 0.0719270101
H  H67  1  0.65435000  0.88496000  0.67633000  1.0 0.0719270101
H  H68  1  0.01232000  0.44838000  0.65700000  1.0 0.0719270101
H  H69  1  0.23061000  0.34565000  0.67633000  1.0 0.0719270101
H  H70  1  0.43606000  0.98768000  0.65700000  1.0 0.0719270101
H  H71  1  0.11504000  0.76939000  0.67633000  1.0 0.0719270101
H  H72  1  0.55162000  0.56394000  0.65700000  1.0 0.0719270101
H  H73  1  0.25074000  0.50193000  0.06063000  1.0 0.1076490418
H  H74  1  0.74926000  0.49807000  0.93937000  1.0 0.1076490418
H  H75  1  0.49807000  0.74881000  0.06063000  1.0 0.1076490418
H  H76  1  0.50193000  0.25119000  0.93937000  1.0 0.1076490418
H  H77  1  0.25119000  0.74926000  0.06063000  1.0 0.1076490418
H  H78  1  0.74881000  0.25074000  0.93937000  1.0 0.1076490418
H  H79  1  0.91741000  0.83527000  0.39397000  1.0 0.1076490418
H  H80  1  0.41592000  0.83140000  0.27270000  1.0 0.1076490418
H  H81  1  0.16473000  0.08214000  0.39397000  1.0 0.1076490418
H  H82  1  0.16860000  0.58452000  0.27270000  1.0 0.1076490418
H  H83  1  0.91786000  0.08259000  0.39397000  1.0 0.1076490418
H  H84  1  0.41548000  0.58408000  0.27270000  1.0 0.1076490418
H  H85  1  0.58408000  0.16860000  0.72730000  1.0 0.1076490418
H  H86  1  0.08259000  0.16473000  0.60603000  1.0 0.1076490418
H  H87  1  0.83140000  0.41548000  0.72730000  1.0 0.1076490418
H  H88  1  0.83527000  0.91786000  0.60603000  1.0 0.1076490418
H  H89  1  0.58452000  0.41592000  0.72730000  1.0 0.1076490418
H  H90  1  0.08214000  0.91741000  0.60603000  1.0 0.1076490418
H  H91  1  0.24444000  0.37463000  0.17965000  1.0 0.0116268807
H  H92  1  0.75556000  0.62537000  0.82035000  1.0 0.0116268807
H  H93  1  0.62537000  0.86981000  0.17965000  1.0 0.0116268807
H  H94  1  0.37463000  0.13019000  0.82035000  1.0 0.0116268807
H  H95  1  0.13019000  0.75556000  0.17965000  1.0 0.0116268807
H  H96  1  0.86981000  0.24444000  0.82035000  1.0 0.0116268807
H  H97  1  0.37463000  0.24444000  0.82034000  1.0 0.0116268807
H  H98  1  0.62537000  0.75556000  0.17966000  1.0 0.0116268807
H  H99  1  0.86981000  0.62537000  0.82034000  1.0 0.0116268807
H  H100  1  0.13019000  0.37463000  0.17966000  1.0 0.0116268807
H  H101  1  0.75556000  0.13019000  0.82034000  1.0 0.0116268807
H  H102  1  0.24444000  0.86981000  0.17966000  1.0 0.0116268807
H  H103  1  0.91110000  0.70796000  0.51299000  1.0 0.0116268807
H  H104  1  0.42223000  0.95870000  0.15368000  1.0 0.0116268807
H  H105  1  0.29204000  0.20314000  0.51299000  1.0 0.0116268807
H  H106  1  0.04130000  0.46353000  0.15368000  1.0 0.0116268807
H  H107  1  0.79686000  0.08890000  0.51299000  1.0 0.0116268807
H  H108  1  0.53647000  0.57777000  0.15368000  1.0 0.0116268807
H  H109  1  0.04130000  0.57777000  0.15368000  1.0 0.0116268807
H  H110  1  0.29204000  0.08889000  0.51299000  1.0 0.0116268807
H  H111  1  0.53648000  0.95870000  0.15368000  1.0 0.0116268807
H  H112  1  0.79685000  0.70796000  0.51299000  1.0 0.0116268807
H  H113  1  0.42223000  0.46352000  0.15368000  1.0 0.0116268807
H  H114  1  0.91111000  0.20315000  0.51299000  1.0 0.0116268807
H  H115  1  0.57777000  0.04130000  0.84632000  1.0 0.0116268807
H  H116  1  0.08890000  0.29204000  0.48701000  1.0 0.0116268807
H  H117  1  0.95870000  0.53647000  0.84632000  1.0 0.0116268807
H  H118  1  0.70796000  0.79686000  0.48701000  1.0 0.0116268807
H  H119  1  0.46353000  0.42223000  0.84632000  1.0 0.0116268807
H  H120  1  0.20314000  0.91110000  0.48701000  1.0 0.0116268807
H  H121  1  0.70796000  0.91111000  0.48701000  1.0 0.0116268807
H  H122  1  0.95870000  0.42223000  0.84632000  1.0 0.0116268807
H  H123  1  0.20315000  0.29204000  0.48701000  1.0 0.0116268807
H  H124  1  0.46352000  0.04130000  0.84632000  1.0 0.0116268807
H  H125  1  0.08889000  0.79685000  0.48701000  1.0 0.0116268807
H  H126  1  0.57777000  0.53648000  0.84632000  1.0 0.0116268807
C  C1  1  0.11150000  0.22305000  0.09705000  1.0 0.1957177813
C  C2  1  0.88850000  0.77695000  0.90295000  1.0 0.194664087
C  C3  1  0.77695000  0.88846000  0.09705000  1.0 0.1957177813
C  C4  1  0.22305000  0.11154000  0.90295000  1.0 0.194664087
C  C5  1  0.11154000  0.88850000  0.09705000  1.0 0.194664087
C  C6  1  0.88846000  0.11150000  0.90295000  1.0 0.194664087
C  C7  1  0.77817000  0.55638000  0.43039000  1.0 0.1957177813
C  C8  1  0.55516000  0.11029000  0.23628000  1.0 0.1957177813
C  C9  1  0.44362000  0.22179000  0.43039000  1.0 0.1957177813
C  C10  1  0.88971000  0.44488000  0.23628000  1.0 0.1957177813
C  C11  1  0.77821000  0.22183000  0.43039000  1.0 0.1957177813
C  C12  1  0.55512000  0.44484000  0.23628000  1.0 0.1957177813
C  C13  1  0.44484000  0.88971000  0.76372000  1.0 0.194664087
C  C14  1  0.22183000  0.44362000  0.56961000  1.0 0.1957177813
C  C15  1  0.11029000  0.55512000  0.76372000  1.0 0.194664087
C  C16  1  0.55638000  0.77821000  0.56961000  1.0 0.194664087
C  C17  1  0.44488000  0.55516000  0.76372000  1.0 0.194664087
C  C18  1  0.22179000  0.77817000  0.56961000  1.0 0.194664087
C  C19  1  0.15343000  0.30641000  0.02370000  1.0 -0.1093533574
C  C20  1  0.84657000  0.69359000  0.97630000  1.0 -0.1093533574
C  C21  1  0.69359000  0.84702000  0.02370000  1.0 -0.1093533574
C  C22  1  0.30641000  0.15298000  0.97630000  1.0 -0.1093533574
C  C23  1  0.15298000  0.84657000  0.02370000  1.0 -0.1093533574
C  C24  1  0.84702000  0.15343000  0.97630000  1.0 -0.1093533574
C  C25  1  0.82010000  0.63974000  0.35703000  1.0 -0.1093533574
C  C26  1  0.51324000  0.02692000  0.30963000  1.0 -0.1093533574
C  C27  1  0.36026000  0.18035000  0.35703000  1.0 -0.1093533574
C  C28  1  0.97308000  0.48631000  0.30963000  1.0 -0.1093533574
C  C29  1  0.81965000  0.17990000  0.35703000  1.0 -0.1093533574
C  C30  1  0.51369000  0.48676000  0.30963000  1.0 -0.1093533574
C  C31  1  0.48676000  0.97308000  0.69037000  1.0 -0.1093533574
C  C32  1  0.17990000  0.36026000  0.64297000  1.0 -0.1093533574
C  C33  1  0.02692000  0.51369000  0.69037000  1.0 -0.1093533574
C  C34  1  0.63974000  0.81965000  0.64297000  1.0 -0.1093533574
C  C35  1  0.48631000  0.51324000  0.69037000  1.0 -0.1093533574
C  C36  1  0.18035000  0.82010000  0.64297000  1.0 -0.1093533574
C  C37  1  0.19660000  0.39399000  0.06934000  1.0 -0.1324076716
C  C38  1  0.80340000  0.60601000  0.93066000  1.0 -0.1324076716
C  C39  1  0.60601000  0.80261000  0.06934000  1.0 -0.1324076716
C  C40  1  0.39399000  0.19739000  0.93066000  1.0 -0.1324076716
C  C41  1  0.19739000  0.80340000  0.06934000  1.0 -0.1324076716
C  C42  1  0.80261000  0.19660000  0.93066000  1.0 -0.1324076716
C  C43  1  0.86327000  0.72732000  0.40267000  1.0 -0.1324076716
C  C44  1  0.47007000  0.93935000  0.26399000  1.0 -0.1324076716
C  C45  1  0.27268000  0.13594000  0.40267000  1.0 -0.1324076716
C  C46  1  0.06065000  0.53072000  0.26399000  1.0 -0.1324076716
C  C47  1  0.86406000  0.13673000  0.40267000  1.0 -0.1324076716
C  C48  1  0.46928000  0.52993000  0.26399000  1.0 -0.1324076716
C  C49  1  0.52993000  0.06065000  0.73601000  1.0 -0.1324076716
C  C50  1  0.13673000  0.27268000  0.59733000  1.0 -0.1324076716
C  C51  1  0.93935000  0.46928000  0.73601000  1.0 -0.1324076716
C  C52  1  0.72732000  0.86406000  0.59733000  1.0 -0.1324076716
C  C53  1  0.53072000  0.47007000  0.73601000  1.0 -0.1324076716
C  C54  1  0.13594000  0.86327000  0.59733000  1.0 -0.1324076716
C  C55  1  0.67029000  0.45954000  0.17497000  1.0 -0.0511455466
C  C56  1  0.32971000  0.54046000  0.82503000  1.0 -0.0511455466
C  C57  1  0.54046000  0.21075000  0.17497000  1.0 -0.0511455466
C  C58  1  0.45954000  0.78925000  0.82503000  1.0 -0.0511455466
C  C59  1  0.78925000  0.32971000  0.17497000  1.0 -0.0511455466
C  C60  1  0.21075000  0.67029000  0.82503000  1.0 -0.0511455466
C  C61  1  0.45952000  0.67026000  0.82502000  1.0 -0.0511455466
C  C62  1  0.54048000  0.32974000  0.17498000  1.0 -0.0511455466
C  C63  1  0.21074000  0.54048000  0.82502000  1.0 -0.0511455466
C  C64  1  0.78926000  0.45952000  0.17498000  1.0 -0.0511455466
C  C65  1  0.32974000  0.78926000  0.82502000  1.0 -0.0511455466
C  C66  1  0.67026000  0.21074000  0.17498000  1.0 -0.0511455466
C  C67  1  0.33695000  0.79287000  0.50831000  1.0 -0.0511455466
C  C68  1  0.99638000  0.87380000  0.15836000  1.0 -0.0511455466
C  C69  1  0.20713000  0.54408000  0.50831000  1.0 -0.0511455466
C  C70  1  0.12620000  0.12259000  0.15836000  1.0 -0.0511455466
C  C71  1  0.45592000  0.66305000  0.50831000  1.0 -0.0511455466
C  C72  1  0.87741000  0.00362000  0.15836000  1.0 -0.0511455466
C  C73  1  0.12619000  0.00359000  0.15835000  1.0 -0.0511455466
C  C74  1  0.20714000  0.66307000  0.50831000  1.0 -0.0511455466
C  C75  1  0.87740000  0.87381000  0.15835000  1.0 -0.0511455466
C  C76  1  0.45593000  0.79286000  0.50831000  1.0 -0.0511455466
C  C77  1  0.99641000  0.12260000  0.15835000  1.0 -0.0511455466
C  C78  1  0.33693000  0.54407000  0.50831000  1.0 -0.0511455466
C  C79  1  0.00362000  0.12620000  0.84164000  1.0 -0.0511455466
C  C80  1  0.66305000  0.20713000  0.49169000  1.0 -0.0511455466
C  C81  1  0.87380000  0.87741000  0.84164000  1.0 -0.0511455466
C  C82  1  0.79287000  0.45592000  0.49169000  1.0 -0.0511455466
C  C83  1  0.12259000  0.99638000  0.84164000  1.0 -0.0511455466
C  C84  1  0.54408000  0.33695000  0.49169000  1.0 -0.0511455466
C  C85  1  0.79286000  0.33693000  0.49169000  1.0 -0.0511455466
C  C86  1  0.87381000  0.99641000  0.84165000  1.0 -0.0511455466
C  C87  1  0.54407000  0.20714000  0.49169000  1.0 -0.0511455466
C  C88  1  0.12260000  0.12619000  0.84165000  1.0 -0.0511455466
C  C89  1  0.66307000  0.45593000  0.49169000  1.0 -0.0511455466
C  C90  1  0.00359000  0.87740000  0.84165000  1.0 -0.0511455466
C  C91  1  0.88346000  0.60116000  0.16149000  1.0 -0.0903852494
C  C92  1  0.11654000  0.39884000  0.83851000  1.0 -0.0903852494
C  C93  1  0.39884000  0.28229000  0.16149000  1.0 -0.0903852494
C  C94  1  0.60116000  0.71771000  0.83851000  1.0 -0.0903852494
C  C95  1  0.71771000  0.11654000  0.16149000  1.0 -0.0903852494
C  C96  1  0.28229000  0.88346000  0.83851000  1.0 -0.0903852494
C  C97  1  0.60115000  0.88344000  0.83851000  1.0 -0.0903852494
C  C98  1  0.39885000  0.11656000  0.16149000  1.0 -0.0903852494
C  C99  1  0.28229000  0.39885000  0.83851000  1.0 -0.0903852494
C  C100  1  0.71771000  0.60115000  0.16149000  1.0 -0.0903852494
C  C101  1  0.11656000  0.71771000  0.83851000  1.0 -0.0903852494
C  C102  1  0.88344000  0.28229000  0.16149000  1.0 -0.0903852494
C  C103  1  0.55012000  0.93449000  0.49482000  1.0 -0.0903852494
C  C104  1  0.78321000  0.73217000  0.17185000  1.0 -0.0903852494
C  C105  1  0.06551000  0.61563000  0.49482000  1.0 -0.0903852494
C  C106  1  0.26783000  0.05104000  0.17185000  1.0 -0.0903852494
C  C107  1  0.38437000  0.44988000  0.49482000  1.0 -0.0903852494
C  C108  1  0.94896000  0.21679000  0.17185000  1.0 -0.0903852494
C  C109  1  0.26782000  0.21678000  0.17184000  1.0 -0.0903852494
C  C110  1  0.06551000  0.44989000  0.49482000  1.0 -0.0903852494
C  C111  1  0.94896000  0.73218000  0.17184000  1.0 -0.0903852494
C  C112  1  0.38438000  0.93449000  0.49482000  1.0 -0.0903852494
C  C113  1  0.78322000  0.05104000  0.17184000  1.0 -0.0903852494
C  C114  1  0.55011000  0.61562000  0.49482000  1.0 -0.0903852494
C  C115  1  0.21679000  0.26783000  0.82815000  1.0 -0.0903852494
C  C116  1  0.44988000  0.06551000  0.50518000  1.0 -0.0903852494
C  C117  1  0.73217000  0.94896000  0.82815000  1.0 -0.0903852494
C  C118  1  0.93449000  0.38437000  0.50518000  1.0 -0.0903852494
C  C119  1  0.05104000  0.78321000  0.82815000  1.0 -0.0903852494
C  C120  1  0.61563000  0.55012000  0.50518000  1.0 -0.0903852494
C  C121  1  0.93449000  0.55011000  0.50518000  1.0 -0.0903852494
C  C122  1  0.73218000  0.78322000  0.82816000  1.0 -0.0903852494
C  C123  1  0.61562000  0.06551000  0.50518000  1.0 -0.0903852494
C  C124  1  0.05104000  0.26782000  0.82816000  1.0 -0.0903852494
C  C125  1  0.44989000  0.38438000  0.50518000  1.0 -0.0903852494
C  C126  1  0.21678000  0.94896000  0.82816000  1.0 -0.0903852494
N  N1  1  0.09053000  0.18084000  0.04908000  1.0 -0.3404307553
N  N2  1  0.90947000  0.81916000  0.95092000  1.0 -0.3404307553
N  N3  1  0.81916000  0.90969000  0.04908000  1.0 -0.3404307553
N  N4  1  0.18084000  0.09031000  0.95092000  1.0 -0.3404307553
N  N5  1  0.09031000  0.90947000  0.04908000  1.0 -0.3404307553
N  N6  1  0.90969000  0.09053000  0.95092000  1.0 -0.3404307553
N  N7  1  0.75719000  0.51417000  0.38241000  1.0 -0.3404307553
N  N8  1  0.57614000  0.15249000  0.28425000  1.0 -0.3404307553
N  N9  1  0.48583000  0.24302000  0.38241000  1.0 -0.3404307553
N  N10  1  0.84751000  0.42365000  0.28425000  1.0 -0.3404307553
N  N11  1  0.75698000  0.24281000  0.38241000  1.0 -0.3404307553
N  N12  1  0.57635000  0.42386000  0.28425000  1.0 -0.3404307553
N  N13  1  0.42386000  0.84751000  0.71575000  1.0 -0.3404307553
N  N14  1  0.24281000  0.48583000  0.61759000  1.0 -0.3404307553
N  N15  1  0.15249000  0.57635000  0.71575000  1.0 -0.3404307553
N  N16  1  0.51417000  0.75698000  0.61759000  1.0 -0.3404307553
N  N17  1  0.42365000  0.57614000  0.71575000  1.0 -0.3404307553
N  N18  1  0.24302000  0.75719000  0.61759000  1.0 -0.3404307553
N  N19  1  0.51068000  0.30999000  0.09872000  1.0 0.0859886712
N  N20  1  0.48932000  0.69001000  0.90128000  1.0 0.0842184272
N  N21  1  0.69001000  0.20069000  0.09872000  1.0 0.0859886712
N  N22  1  0.30999000  0.79931000  0.90128000  1.0 0.0842184272
N  N23  1  0.79931000  0.48932000  0.09872000  1.0 0.0842184272
N  N24  1  0.20069000  0.51068000  0.90128000  1.0 0.0859886712
N  N25  1  0.30999000  0.51068000  0.90127000  1.0 0.0842184272
N  N26  1  0.69001000  0.48932000  0.09873000  1.0 0.0842184272
N  N27  1  0.20069000  0.69001000  0.90127000  1.0 0.0842184272
N  N28  1  0.79931000  0.30999000  0.09873000  1.0 0.0842184272
N  N29  1  0.48932000  0.79931000  0.90127000  1.0 0.0842184272
N  N30  1  0.51068000  0.20069000  0.09873000  1.0 0.0842184272
N  N31  1  0.17734000  0.64332000  0.43205000  1.0 0.0859886712
N  N32  1  0.15599000  0.02335000  0.23461000  1.0 0.0859886712
N  N33  1  0.35668000  0.53402000  0.43205000  1.0 0.0859886712
N  N34  1  0.97665000  0.13265000  0.23461000  1.0 0.0842184272
N  N35  1  0.46598000  0.82266000  0.43205000  1.0 0.0842184272
N  N36  1  0.86735000  0.84401000  0.23461000  1.0 0.0842184272
N  N37  1  0.97666000  0.84401000  0.23460000  1.0 0.0842184272
N  N38  1  0.35667000  0.82266000  0.43206000  1.0 0.0842184272
N  N39  1  0.86735000  0.02334000  0.23460000  1.0 0.0859886712
N  N40  1  0.46598000  0.64333000  0.43206000  1.0 0.0842184272
N  N41  1  0.15599000  0.13265000  0.23460000  1.0 0.0859886712
N  N42  1  0.17734000  0.53402000  0.43206000  1.0 0.0859886712
N  N43  1  0.84401000  0.97665000  0.76539000  1.0 0.0842184272
N  N44  1  0.82266000  0.35668000  0.56795000  1.0 0.0842184272
N  N45  1  0.02335000  0.86735000  0.76539000  1.0 0.0859886712
N  N46  1  0.64332000  0.46598000  0.56795000  1.0 0.0859886712
N  N47  1  0.13265000  0.15599000  0.76539000  1.0 0.0859886712
N  N48  1  0.53402000  0.17734000  0.56795000  1.0 0.0859886712
N  N49  1  0.64333000  0.17734000  0.56794000  1.0 0.0859886712
N  N50  1  0.02334000  0.15599000  0.76540000  1.0 0.0859886712
N  N51  1  0.53402000  0.35667000  0.56794000  1.0 0.0842184272
N  N52  1  0.13265000  0.97666000  0.76540000  1.0 0.0842184272
N  N53  1  0.82266000  0.46598000  0.56794000  1.0 0.0842184272
N  N54  1  0.84401000  0.86735000  0.76540000  1.0 0.0842184272
