# DDEC6 charges by PACMAN v1.1 (https://github.com/mtap-research/PACMAN-charge/)
data_NICZAA_ion_pacman
_symmetry_space_group_name_H-M   'P 1'
_cell_length_a   10.83070000
_cell_length_b   10.83070000
_cell_length_c   10.83070000
_cell_angle_alpha   67.01460000
_cell_angle_beta   67.01460000
_cell_angle_gamma   67.01460000
_symmetry_Int_Tables_number   1
_chemical_formula_structural   CdH60C54(N9F)2
_chemical_formula_sum   'Cd1 H60 C54 N18 F2'
_cell_volume   1033.42000390
_cell_formula_units_Z   1
loop_
 _symmetry_equiv_pos_site_id
 _symmetry_equiv_pos_as_xyz
  1  'x, y, z'
loop_
 _atom_site_type_symbol
 _atom_site_label
 _atom_site_symmetry_multiplicity
 _atom_site_fract_x
 _atom_site_fract_y
 _atom_site_fract_z
 _atom_site_occupancy
 _atom_site_charge
Cd  Cd1  1  0.00000000  0.00000000  0.00000000  1.0 0.6479787328
H  H1  1  0.22280000  0.18450000  0.98030000  1.0 0.0942019173
H  H2  1  0.18450000  0.98030000  0.22280000  1.0 0.0942019173
H  H3  1  0.98030000  0.22280000  0.18450000  1.0 0.0942019173
H  H4  1  0.77720000  0.01970000  0.81550000  1.0 0.0942019173
H  H5  1  0.18450000  0.22280000  0.98030000  1.0 0.0942019173
H  H6  1  0.98030000  0.18450000  0.22280000  1.0 0.0942019173
H  H7  1  0.81550000  0.01970000  0.77720000  1.0 0.0942019173
H  H8  1  0.01970000  0.77720000  0.81550000  1.0 0.0942019173
H  H9  1  0.77720000  0.81550000  0.01970000  1.0 0.0942019173
H  H10  1  0.22280000  0.98030000  0.18450000  1.0 0.0942019173
H  H11  1  0.81550000  0.77720000  0.01970000  1.0 0.0942019173
H  H12  1  0.01970000  0.81550000  0.77720000  1.0 0.0942019173
H  H13  1  0.11670000  0.18490000  0.66900000  1.0 0.0676716354
H  H14  1  0.18490000  0.66900000  0.11670000  1.0 0.0676716354
H  H15  1  0.66900000  0.11670000  0.18490000  1.0 0.0676716354
H  H16  1  0.88330000  0.33100000  0.81510000  1.0 0.0676716354
H  H17  1  0.18490000  0.11670000  0.66900000  1.0 0.0676716354
H  H18  1  0.66900000  0.18490000  0.11670000  1.0 0.0676716354
H  H19  1  0.81510000  0.33100000  0.88330000  1.0 0.0676716354
H  H20  1  0.33100000  0.88330000  0.81510000  1.0 0.0676716354
H  H21  1  0.88330000  0.81510000  0.33100000  1.0 0.0676716354
H  H22  1  0.11670000  0.66900000  0.18490000  1.0 0.0676716354
H  H23  1  0.81510000  0.88330000  0.33100000  1.0 0.0676716354
H  H24  1  0.33100000  0.81510000  0.88330000  1.0 0.0676716354
H  H25  1  0.25420000  0.35710000  0.56990000  1.0 0.0151121479
H  H26  1  0.35710000  0.56990000  0.25420000  1.0 0.0151121479
H  H27  1  0.56990000  0.25420000  0.35710000  1.0 0.0151121479
H  H28  1  0.74580000  0.43010000  0.64290000  1.0 0.0151121479
H  H29  1  0.35710000  0.25420000  0.56990000  1.0 0.0151121479
H  H30  1  0.56990000  0.35710000  0.25420000  1.0 0.0151121479
H  H31  1  0.64290000  0.43010000  0.74580000  1.0 0.0141012022
H  H32  1  0.43010000  0.74580000  0.64290000  1.0 0.0151121479
H  H33  1  0.74580000  0.64290000  0.43010000  1.0 0.0151121479
H  H34  1  0.25420000  0.56990000  0.35710000  1.0 0.0141012022
H  H35  1  0.64290000  0.74580000  0.43010000  1.0 0.0141012022
H  H36  1  0.43010000  0.64290000  0.74580000  1.0 0.0151121479
H  H37  1  0.24420000  0.49020000  0.80440000  1.0 0.0676716354
H  H38  1  0.49020000  0.80440000  0.24420000  1.0 0.0676716354
H  H39  1  0.80440000  0.24420000  0.49020000  1.0 0.0676716354
H  H40  1  0.75580000  0.19560000  0.50980000  1.0 0.0676716354
H  H41  1  0.49020000  0.24420000  0.80440000  1.0 0.0676716354
H  H42  1  0.80440000  0.49020000  0.24420000  1.0 0.0676716354
H  H43  1  0.50980000  0.19560000  0.75580000  1.0 0.0676716354
H  H44  1  0.19560000  0.75580000  0.50980000  1.0 0.0676716354
H  H45  1  0.75580000  0.50980000  0.19560000  1.0 0.0676716354
H  H46  1  0.24420000  0.80440000  0.49020000  1.0 0.0676716354
H  H47  1  0.50980000  0.75580000  0.19560000  1.0 0.0676716354
H  H48  1  0.19560000  0.50980000  0.75580000  1.0 0.0676716354
H  H49  1  0.37250000  0.36000000  0.84410000  1.0 0.1153197945
H  H50  1  0.36000000  0.84410000  0.37250000  1.0 0.1153197945
H  H51  1  0.84410000  0.37250000  0.36000000  1.0 0.1153197945
H  H52  1  0.62750000  0.15590000  0.64000000  1.0 0.1153197945
H  H53  1  0.36000000  0.37250000  0.84410000  1.0 0.1153197945
H  H54  1  0.84410000  0.36000000  0.37250000  1.0 0.1153197945
H  H55  1  0.64000000  0.15590000  0.62750000  1.0 0.1153197945
H  H56  1  0.15590000  0.62750000  0.64000000  1.0 0.1153197945
H  H57  1  0.62750000  0.64000000  0.15590000  1.0 0.1153197945
H  H58  1  0.37250000  0.84410000  0.36000000  1.0 0.1153197945
H  H59  1  0.64000000  0.62750000  0.15590000  1.0 0.1153197945
H  H60  1  0.15590000  0.64000000  0.62750000  1.0 0.1153197945
C  C1  1  0.20820000  0.20820000  0.89200000  1.0 -0.0511999398
C  C2  1  0.20820000  0.89200000  0.20820000  1.0 -0.0511999398
C  C3  1  0.89200000  0.20820000  0.20820000  1.0 -0.0511999398
C  C4  1  0.79180000  0.10800000  0.79180000  1.0 -0.0511999398
C  C5  1  0.10800000  0.79180000  0.79180000  1.0 -0.0511999398
C  C6  1  0.79180000  0.79180000  0.10800000  1.0 -0.0511999398
C  C7  1  0.15470000  0.20740000  0.72040000  1.0 -0.027823842
C  C8  1  0.20740000  0.72040000  0.15470000  1.0 -0.027823842
C  C9  1  0.72040000  0.15470000  0.20740000  1.0 -0.027823842
C  C10  1  0.84530000  0.27960000  0.79260000  1.0 -0.027823842
C  C11  1  0.20740000  0.15470000  0.72040000  1.0 -0.027823842
C  C12  1  0.72040000  0.20740000  0.15470000  1.0 -0.027823842
C  C13  1  0.79260000  0.27960000  0.84530000  1.0 -0.027823842
C  C14  1  0.27960000  0.84530000  0.79260000  1.0 -0.027823842
C  C15  1  0.84530000  0.79260000  0.27960000  1.0 -0.027823842
C  C16  1  0.15470000  0.72040000  0.20740000  1.0 -0.027823842
C  C17  1  0.79260000  0.84530000  0.27960000  1.0 -0.027823842
C  C18  1  0.27960000  0.79260000  0.84530000  1.0 -0.027823842
C  C19  1  0.22660000  0.30550000  0.66500000  1.0 -0.0437582959
C  C20  1  0.30550000  0.66500000  0.22660000  1.0 -0.0437582959
C  C21  1  0.66500000  0.22660000  0.30550000  1.0 -0.0437582959
C  C22  1  0.77340000  0.33500000  0.69450000  1.0 -0.0437582959
C  C23  1  0.30550000  0.22660000  0.66500000  1.0 -0.0437582959
C  C24  1  0.66500000  0.30550000  0.22660000  1.0 -0.0437582959
C  C25  1  0.69450000  0.33500000  0.77340000  1.0 -0.0437582959
C  C26  1  0.33500000  0.77340000  0.69450000  1.0 -0.0437582959
C  C27  1  0.77340000  0.69450000  0.33500000  1.0 -0.0437582959
C  C28  1  0.22660000  0.66500000  0.30550000  1.0 -0.0437582959
C  C29  1  0.69450000  0.77340000  0.33500000  1.0 -0.0437582959
C  C30  1  0.33500000  0.69450000  0.77340000  1.0 -0.0437582959
C  C31  1  0.31700000  0.40840000  0.77590000  1.0 -0.1082498507
C  C32  1  0.40840000  0.77590000  0.31700000  1.0 -0.1082498507
C  C33  1  0.77590000  0.31700000  0.40840000  1.0 -0.1082498507
C  C34  1  0.68300000  0.22410000  0.59160000  1.0 -0.1082498507
C  C35  1  0.40840000  0.31700000  0.77590000  1.0 -0.1082498507
C  C36  1  0.77590000  0.40840000  0.31700000  1.0 -0.1082498507
C  C37  1  0.59160000  0.22410000  0.68300000  1.0 -0.1082498507
C  C38  1  0.22410000  0.68300000  0.59160000  1.0 -0.1082498507
C  C39  1  0.68300000  0.59160000  0.22410000  1.0 -0.1082498507
C  C40  1  0.31700000  0.77590000  0.40840000  1.0 -0.1082498507
C  C41  1  0.59160000  0.68300000  0.22410000  1.0 -0.1082498507
C  C42  1  0.22410000  0.59160000  0.68300000  1.0 -0.1082498507
C  C43  1  0.41100000  0.45720000  0.63250000  1.0 0.0041343109
C  C44  1  0.45720000  0.63250000  0.41100000  1.0 0.0041343109
C  C45  1  0.63250000  0.41100000  0.45720000  1.0 0.0041343109
C  C46  1  0.58900000  0.36750000  0.54280000  1.0 0.0041343109
C  C47  1  0.45720000  0.41100000  0.63250000  1.0 0.0041343109
C  C48  1  0.63250000  0.45720000  0.41100000  1.0 0.0041343109
C  C49  1  0.54280000  0.36750000  0.58900000  1.0 0.0041343109
C  C50  1  0.36750000  0.58900000  0.54280000  1.0 0.0041343109
C  C51  1  0.58900000  0.54280000  0.36750000  1.0 0.0041343109
C  C52  1  0.41100000  0.63250000  0.45720000  1.0 0.0041343109
C  C53  1  0.54280000  0.58900000  0.36750000  1.0 0.0041343109
C  C54  1  0.36750000  0.54280000  0.58900000  1.0 0.0041343109
N  N1  1  0.14505000  0.14505000  0.86200000  1.0 -0.3175158005
N  N2  1  0.14505000  0.86200000  0.14505000  1.0 -0.3175158005
N  N3  1  0.86200000  0.14505000  0.14505000  1.0 -0.3175158005
N  N4  1  0.85495000  0.13800000  0.85495000  1.0 -0.3175158005
N  N5  1  0.13800000  0.85495000  0.85495000  1.0 -0.3175158005
N  N6  1  0.85495000  0.85495000  0.13800000  1.0 -0.3175158005
N  N7  1  0.24960000  0.31270000  0.77760000  1.0 0.057255425
N  N8  1  0.31270000  0.77760000  0.24960000  1.0 0.057255425
N  N9  1  0.77760000  0.24960000  0.31270000  1.0 0.057255425
N  N10  1  0.75040000  0.22240000  0.68730000  1.0 0.057255425
N  N11  1  0.31270000  0.24960000  0.77760000  1.0 0.057255425
N  N12  1  0.77760000  0.31270000  0.24960000  1.0 0.057255425
N  N13  1  0.68730000  0.22240000  0.75040000  1.0 0.057255425
N  N14  1  0.22240000  0.75040000  0.68730000  1.0 0.057255425
N  N15  1  0.75040000  0.68730000  0.22240000  1.0 0.057255425
N  N16  1  0.24960000  0.77760000  0.31270000  1.0 0.057255425
N  N17  1  0.68730000  0.75040000  0.22240000  1.0 0.057255425
N  N18  1  0.22240000  0.68730000  0.75040000  1.0 0.057255425
F  F1  1  0.19473000  0.19473000  0.19473000  1.0 -0.6666654846
F  F2  1  0.80527000  0.80527000  0.80527000  1.0 -0.6644045017
