# DDEC6 charges by PACMAN v1.1 (https://github.com/mtap-research/PACMAN-charge/)
data_NIDFUE_ASR_pacman
_symmetry_space_group_name_H-M   'P 1'
_cell_length_a   9.91210000
_cell_length_b   10.67980000
_cell_length_c   12.78920000
_cell_angle_alpha   78.91900000
_cell_angle_beta   72.79600000
_cell_angle_gamma   85.03500000
_symmetry_Int_Tables_number   1
_chemical_formula_structural   DyH3C13S2Br3O7
_chemical_formula_sum   'Dy2 H6 C26 S4 Br6 O14'
_cell_volume   1268.53203269
_cell_formula_units_Z   2
loop_
 _symmetry_equiv_pos_site_id
 _symmetry_equiv_pos_as_xyz
  1  'x, y, z'
loop_
 _atom_site_type_symbol
 _atom_site_label
 _atom_site_symmetry_multiplicity
 _atom_site_fract_x
 _atom_site_fract_y
 _atom_site_fract_z
 _atom_site_occupancy
 _atom_site_charge
Dy  Dy1  1  0.27466000  0.81563000  0.33238000  1.0 1.9602027846
Dy  Dy2  1  0.72534000  0.18437000  0.66762000  1.0 1.9602027846
H  H1  1  0.31200000  0.49820000  0.12590000  1.0 0.1627572192
H  H2  1  0.44810000  0.58230000  0.09920000  1.0 0.1723777069
H  H3  1  0.46400000  0.42990000  0.11760000  1.0 0.1500394357
H  H4  1  0.68800000  0.50180000  0.87410000  1.0 0.1627572192
H  H5  1  0.55190000  0.41770000  0.90080000  1.0 0.1723777069
H  H6  1  0.53600000  0.57010000  0.88240000  1.0 0.1500394357
C  C1  1  0.61380000  0.90510000  0.48040000  1.0 -0.1604663419
C  C2  1  0.08700000  0.59710000  0.50920000  1.0 0.2515296055
C  C3  1  0.39680000  0.90810000  0.06840000  1.0 0.2812342742
C  C4  1  0.05230000  0.59130000  0.40020000  1.0 0.2618060423
C  C5  1  0.03430000  0.50530000  0.60140000  1.0 -0.1690537767
C  C6  1  0.42880000  0.92350000  0.95190000  1.0 -0.1781146513
C  C7  1  0.47170000  0.99210000  0.11810000  1.0 0.2686697705
C  C8  1  0.49020000  0.88990000  0.45320000  1.0 0.2812342742
C  C9  1  0.36900000  0.99030000  0.47500000  1.0 0.2812342742
C  C10  1  0.52640000  0.39880000  0.31920000  1.0 -0.0483882303
C  C11  1  0.40270000  0.50260000  0.14080000  1.0 -0.5272434936
C  C12  1  0.51320000  0.40190000  0.26930000  1.0 -0.1297802912
C  C13  1  0.49600000  0.49600000  0.44900000  1.0 -0.0930321054
C  C14  1  0.38620000  0.09490000  0.51960000  1.0 -0.1604663419
C  C15  1  0.91300000  0.40290000  0.49080000  1.0 0.2515296055
C  C16  1  0.60320000  0.09190000  0.93160000  1.0 0.2812342742
C  C17  1  0.94770000  0.40870000  0.59980000  1.0 0.2618060423
C  C18  1  0.96570000  0.49470000  0.39860000  1.0 -0.1690537767
C  C19  1  0.57120000  0.07650000  0.04810000  1.0 -0.1781146513
C  C20  1  0.52830000  0.00790000  0.88190000  1.0 0.2686697705
C  C21  1  0.50980000  0.11010000  0.54680000  1.0 0.2812342742
C  C22  1  0.63100000  0.00970000  0.52500000  1.0 0.2812342742
C  C23  1  0.47360000  0.60120000  0.68080000  1.0 -0.0483882303
C  C24  1  0.59730000  0.49740000  0.85920000  1.0 -0.5272434936
C  C25  1  0.48680000  0.59810000  0.73070000  1.0 -0.1297802912
C  C26  1  0.50400000  0.50400000  0.55100000  1.0 -0.0930321054
S  S1  1  0.37440000  0.49770000  0.28380000  1.0 0.3202770663
S  S2  1  0.39020000  0.49720000  0.34130000  1.0 0.2812342742
S  S3  1  0.62560000  0.50230000  0.71620000  1.0 0.3202770663
S  S4  1  0.60980000  0.50280000  0.65870000  1.0 0.2859292341
Br  Br1  1  0.07625000  0.51103000  0.73562000  1.0 0.0304751334
Br  Br2  1  0.76354000  0.78246000  0.45063000  1.0 -0.0063877908
Br  Br3  1  0.33274000  0.82473000  0.89088000  1.0 0.0224262079
Br  Br4  1  0.92375000  0.48897000  0.26438000  1.0 0.0304751334
Br  Br5  1  0.23646000  0.21754000  0.54937000  1.0 -0.0024004062
Br  Br6  1  0.66726000  0.17527000  0.10912000  1.0 0.0224262079
O  O1  1  0.40710000  0.63170000  0.29260000  1.0 -0.3777366715
O  O2  1  0.46690000  0.79940000  0.41300000  1.0 -0.4628199624
O  O3  1  0.43710000  0.97320000  0.22270000  1.0 -0.5402987289
O  O4  1  0.16230000  0.68850000  0.50390000  1.0 -0.5044017719
O  O5  1  0.26170000  0.96850000  0.44910000  1.0 -0.5098046605
O  O6  1  0.10470000  0.67650000  0.32030000  1.0 -0.5098046605
O  O7  1  0.31200000  0.83160000  0.13710000  1.0 -0.5098046605
O  O8  1  0.59290000  0.36830000  0.70740000  1.0 -0.3777366715
O  O9  1  0.53310000  0.20060000  0.58700000  1.0 -0.4628199624
O  O10  1  0.56290000  0.02680000  0.77730000  1.0 -0.5402987289
O  O11  1  0.83770000  0.31150000  0.49610000  1.0 -0.5098046605
O  O12  1  0.73830000  0.03150000  0.55090000  1.0 -0.5098046605
O  O13  1  0.89530000  0.32350000  0.67970000  1.0 -0.5098046605
O  O14  1  0.68800000  0.16840000  0.86290000  1.0 -0.5098046605
