# DDEC6 charges by PACMAN v1.1 (https://github.com/mtap-research/PACMAN-charge/)
data_NIDGAL_FSR_pacman
_symmetry_space_group_name_H-M   'P 1'
_cell_length_a   9.94340000
_cell_length_b   10.62960000
_cell_length_c   12.78800000
_cell_angle_alpha   79.60600000
_cell_angle_beta   72.88600000
_cell_angle_gamma   86.08600000
_symmetry_Int_Tables_number   1
_chemical_formula_structural   HoH6C14S3Br3O8
_chemical_formula_sum   'Ho2 H12 C28 S6 Br6 O16'
_cell_volume   1270.40847427
_cell_formula_units_Z   2
loop_
 _symmetry_equiv_pos_site_id
 _symmetry_equiv_pos_as_xyz
  1  'x, y, z'
loop_
 _atom_site_type_symbol
 _atom_site_label
 _atom_site_symmetry_multiplicity
 _atom_site_fract_x
 _atom_site_fract_y
 _atom_site_fract_z
 _atom_site_occupancy
 _atom_site_charge
Ho  Ho1  1  0.72679000  0.18286000  0.66988000  1.0 1.9722735082
Ho  Ho2  1  0.27321000  0.81714000  0.33012000  1.0 1.9722735082
H  H1  1  0.86870000  0.71710000  0.69670000  1.0 0.1477542316
H  H2  1  0.83150000  0.78860000  0.80190000  1.0 0.1772901112
H  H3  1  0.74460000  0.82230000  0.71290000  1.0 0.1772901112
H  H4  1  0.14350000  0.79240000  0.68140000  1.0 0.1772901112
H  H5  1  0.16800000  0.93820000  0.68640000  1.0 0.1702343692
H  H6  1  0.05930000  0.85330000  0.78830000  1.0 0.1702343692
H  H7  1  0.13130000  0.28290000  0.30330000  1.0 0.1477542316
H  H8  1  0.16850000  0.21140000  0.19810000  1.0 0.1772901112
H  H9  1  0.25540000  0.17770000  0.28710000  1.0 0.1772901112
H  H10  1  0.85650000  0.20760000  0.31860000  1.0 0.1772901112
H  H11  1  0.83200000  0.06180000  0.31360000  1.0 0.1702343692
H  H12  1  0.94070000  0.14670000  0.21170000  1.0 0.1702343692
C  C1  1  0.42390000  0.92720000  0.95240000  1.0 -0.1633772458
C  C2  1  0.52660000  0.00980000  0.88190000  1.0 0.2799342249
C  C3  1  0.60640000  0.08990000  0.93180000  1.0 0.2900920902
C  C4  1  0.61110000  0.90440000  0.48000000  1.0 -0.1731081064
C  C5  1  0.62910000  0.00830000  0.52640000  1.0 0.269846115
C  C6  1  0.51030000  0.11010000  0.54800000  1.0 0.2799342249
C  C7  1  0.03740000  0.50620000  0.60050000  1.0 -0.1731081064
C  C8  1  0.94980000  0.40870000  0.59920000  1.0 0.269846115
C  C9  1  0.91190000  0.40220000  0.49250000  1.0 0.2546854709
C  C10  1  0.83740000  0.79830000  0.72300000  1.0 -0.5541641022
C  C11  1  0.09830000  0.87040000  0.70730000  1.0 -0.5423450674
C  C12  1  0.48930000  0.59510000  0.73070000  1.0 -0.3918133781
C  C13  1  0.61400000  0.48800000  0.87100000  1.0 -0.0909580941
C  C14  1  0.67500000  0.46100000  0.90200000  1.0 0.0774118287
C  C15  1  0.57610000  0.07280000  0.04760000  1.0 -0.1633772458
C  C16  1  0.47340000  0.99020000  0.11810000  1.0 0.2799342249
C  C17  1  0.39360000  0.91010000  0.06820000  1.0 0.2900920902
C  C18  1  0.38890000  0.09560000  0.52000000  1.0 -0.1731081064
C  C19  1  0.37090000  0.99170000  0.47360000  1.0 0.269846115
C  C20  1  0.48970000  0.88990000  0.45200000  1.0 0.2799342249
C  C21  1  0.96260000  0.49380000  0.39950000  1.0 -0.1757152732
C  C22  1  0.05020000  0.59130000  0.40080000  1.0 0.269846115
C  C23  1  0.08810000  0.59780000  0.50750000  1.0 0.2546854709
C  C24  1  0.16260000  0.20170000  0.27700000  1.0 -0.5541641022
C  C25  1  0.90170000  0.12960000  0.29270000  1.0 -0.5423450674
C  C26  1  0.51070000  0.40490000  0.26930000  1.0 -0.3847765829
C  C27  1  0.38600000  0.51200000  0.12900000  1.0 -0.0909580941
C  C28  1  0.32500000  0.53900000  0.09800000  1.0 0.0774118287
S  S1  1  0.96039000  0.92006000  0.64561000  1.0 0.7003693675
S  S2  1  0.63580000  0.49560000  0.72950000  1.0 0.2589772885
S  S3  1  0.61240000  0.50050000  0.65070000  1.0 0.2799342249
S  S4  1  0.03961000  0.07994000  0.35439000  1.0 0.7003693675
S  S5  1  0.36420000  0.50440000  0.27050000  1.0 0.2589772885
S  S6  1  0.38760000  0.49950000  0.34930000  1.0 0.269846115
Br  Br1  1  0.32163000  0.83318000  0.88944000  1.0 0.0604007878
Br  Br2  1  0.75895000  0.78185000  0.45044000  1.0 0.0075593699
Br  Br3  1  0.08408000  0.51311000  0.73215000  1.0 0.0650668536
Br  Br4  1  0.67837000  0.16682000  0.11056000  1.0 0.0604007878
Br  Br5  1  0.24105000  0.21815000  0.54956000  1.0 0.0075593699
Br  Br6  1  0.91592000  0.48689000  0.26785000  1.0 0.0650668536
O  O1  1  0.90080000  0.04140000  0.69370000  1.0 -0.6640076245
O  O2  1  0.59920000  0.36640000  0.71230000  1.0 -0.3918133781
O  O3  1  0.56130000  0.02750000  0.77800000  1.0 -0.4852769877
O  O4  1  0.69480000  0.16450000  0.86340000  1.0 -0.460451221
O  O5  1  0.73730000  0.03030000  0.55320000  1.0 -0.5423450674
O  O6  1  0.53510000  0.20020000  0.58970000  1.0 -0.460451221
O  O7  1  0.89910000  0.32300000  0.67970000  1.0 -0.4733720179
O  O8  1  0.83590000  0.30910000  0.49820000  1.0 -0.5170039143
O  O9  1  0.09920000  0.95860000  0.30630000  1.0 -0.6640076245
O  O10  1  0.40080000  0.63360000  0.28770000  1.0 -0.3918133781
O  O11  1  0.43870000  0.97250000  0.22200000  1.0 -0.4852769877
O  O12  1  0.30520000  0.83550000  0.13660000  1.0 -0.460451221
O  O13  1  0.26270000  0.96970000  0.44680000  1.0 -0.5423450674
O  O14  1  0.46490000  0.79980000  0.41030000  1.0 -0.460451221
O  O15  1  0.10090000  0.67700000  0.32030000  1.0 -0.4733720179
O  O16  1  0.16410000  0.69090000  0.50180000  1.0 -0.5170039143
