# DDEC6 charges by PACMAN v1.1 (https://github.com/mtap-research/PACMAN-charge/)
data_NIFPEA_FSR_pacman
_symmetry_space_group_name_H-M   'P 1'
_cell_length_a   14.53520000
_cell_length_b   14.53520000
_cell_length_c   14.53520000
_cell_angle_alpha   109.47100000
_cell_angle_beta   109.47100000
_cell_angle_gamma   109.47100000
_symmetry_Int_Tables_number   1
_chemical_formula_structural   ZnH16(C2N)4
_chemical_formula_sum   'Zn6 H96 C48 N24'
_cell_volume   2363.98486967
_cell_formula_units_Z   6
loop_
 _symmetry_equiv_pos_site_id
 _symmetry_equiv_pos_as_xyz
  1  'x, y, z'
loop_
 _atom_site_type_symbol
 _atom_site_label
 _atom_site_symmetry_multiplicity
 _atom_site_fract_x
 _atom_site_fract_y
 _atom_site_fract_z
 _atom_site_occupancy
 _atom_site_charge
Zn  Zn1  1  0.25000000  0.75000000  0.50000000  1.0 0.6153199933
Zn  Zn2  1  0.75000000  0.25000000  0.50000000  1.0 0.6153199933
Zn  Zn3  1  0.50000000  0.25000000  0.75000000  1.0 0.6153199933
Zn  Zn4  1  0.50000000  0.75000000  0.25000000  1.0 0.6144083999
Zn  Zn5  1  0.75000000  0.50000000  0.25000000  1.0 0.6153199933
Zn  Zn6  1  0.25000000  0.50000000  0.75000000  1.0 0.6144083999
H  H1  1  0.47550000  0.89740000  0.74570000  1.0 0.1282392442
H  H2  1  0.30280000  0.07600000  0.54800000  1.0 0.060309024
H  H3  1  0.20610000  0.96790000  0.52680000  1.0 0.060309024
H  H4  1  0.27430000  0.95620000  0.46410000  1.0 0.0678872392
H  H5  1  0.15170000  0.72980000  0.25430000  1.0 0.1282392442
H  H6  1  0.52800000  0.75480000  0.45200000  1.0 0.060309024
H  H7  1  0.44110000  0.67930000  0.47320000  1.0 0.060309024
H  H8  1  0.49210000  0.81020000  0.53590000  1.0 0.0678872392
H  H9  1  0.84830000  0.10260000  0.57810000  1.0 0.1282392442
H  H10  1  0.47200000  0.92400000  0.22680000  1.0 0.060309024
H  H11  1  0.55890000  0.03210000  0.23820000  1.0 0.060309024
H  H12  1  0.50790000  0.04380000  0.31810000  1.0 0.0678872392
H  H13  1  0.52450000  0.27020000  0.42190000  1.0 0.1282392442
H  H14  1  0.69720000  0.24520000  0.77320000  1.0 0.060309024
H  H15  1  0.79390000  0.32070000  0.76180000  1.0 0.060309024
H  H16  1  0.72570000  0.18980000  0.68190000  1.0 0.0678872392
H  H17  1  0.74570000  0.47550000  0.89740000  1.0 0.1282392442
H  H18  1  0.54800000  0.30280000  0.07600000  1.0 0.060309024
H  H19  1  0.52680000  0.20610000  0.96790000  1.0 0.060309024
H  H20  1  0.46410000  0.27430000  0.95620000  1.0 0.0678872392
H  H21  1  0.25430000  0.15170000  0.72980000  1.0 0.1282392442
H  H22  1  0.45200000  0.52800000  0.75480000  1.0 0.060309024
H  H23  1  0.47320000  0.44110000  0.67930000  1.0 0.060309024
H  H24  1  0.53590000  0.49210000  0.81020000  1.0 0.0678872392
H  H25  1  0.57810000  0.84830000  0.10260000  1.0 0.1282392442
H  H26  1  0.22680000  0.47200000  0.92400000  1.0 0.060309024
H  H27  1  0.23820000  0.55890000  0.03210000  1.0 0.060309024
H  H28  1  0.31810000  0.50790000  0.04380000  1.0 0.0678872392
H  H29  1  0.42190000  0.52450000  0.27020000  1.0 0.1282392442
H  H30  1  0.77320000  0.69720000  0.24520000  1.0 0.060309024
H  H31  1  0.76180000  0.79390000  0.32070000  1.0 0.060309024
H  H32  1  0.68190000  0.72570000  0.18980000  1.0 0.0678872392
H  H33  1  0.89740000  0.74570000  0.47550000  1.0 0.1282392442
H  H34  1  0.07600000  0.54800000  0.30280000  1.0 0.060309024
H  H35  1  0.96790000  0.52680000  0.20610000  1.0 0.060309024
H  H36  1  0.95620000  0.46410000  0.27430000  1.0 0.0678872392
H  H37  1  0.72980000  0.25430000  0.15170000  1.0 0.1282392442
H  H38  1  0.75480000  0.45200000  0.52800000  1.0 0.060309024
H  H39  1  0.67930000  0.47320000  0.44110000  1.0 0.060309024
H  H40  1  0.81020000  0.53590000  0.49210000  1.0 0.0678872392
H  H41  1  0.10260000  0.57810000  0.84830000  1.0 0.1282392442
H  H42  1  0.92400000  0.22680000  0.47200000  1.0 0.060309024
H  H43  1  0.03210000  0.23820000  0.55890000  1.0 0.060309024
H  H44  1  0.04380000  0.31810000  0.50790000  1.0 0.0678872392
H  H45  1  0.27020000  0.42190000  0.52450000  1.0 0.1282392442
H  H46  1  0.24520000  0.77320000  0.69720000  1.0 0.060309024
H  H47  1  0.32070000  0.76180000  0.79390000  1.0 0.060309024
H  H48  1  0.18980000  0.68190000  0.72570000  1.0 0.0678872392
H  H49  1  0.89740000  0.47550000  0.74570000  1.0 0.1282392442
H  H50  1  0.07600000  0.30280000  0.54800000  1.0 0.060309024
H  H51  1  0.96790000  0.20610000  0.52680000  1.0 0.060309024
H  H52  1  0.95620000  0.27430000  0.46410000  1.0 0.0678872392
H  H53  1  0.72980000  0.15170000  0.25430000  1.0 0.1282392442
H  H54  1  0.75480000  0.52800000  0.45200000  1.0 0.060309024
H  H55  1  0.67930000  0.44110000  0.47320000  1.0 0.060309024
H  H56  1  0.81020000  0.49210000  0.53590000  1.0 0.0678872392
H  H57  1  0.10260000  0.84830000  0.57810000  1.0 0.1282392442
H  H58  1  0.92400000  0.47200000  0.22680000  1.0 0.060309024
H  H59  1  0.03210000  0.55890000  0.23820000  1.0 0.060309024
H  H60  1  0.04380000  0.50790000  0.31810000  1.0 0.0678872392
H  H61  1  0.27020000  0.52450000  0.42190000  1.0 0.1282392442
H  H62  1  0.24520000  0.69720000  0.77320000  1.0 0.060309024
H  H63  1  0.32070000  0.79390000  0.76180000  1.0 0.060309024
H  H64  1  0.18980000  0.72570000  0.68190000  1.0 0.0678872392
H  H65  1  0.47550000  0.74570000  0.89740000  1.0 0.1282392442
H  H66  1  0.30280000  0.54800000  0.07600000  1.0 0.060309024
H  H67  1  0.20610000  0.52680000  0.96790000  1.0 0.060309024
H  H68  1  0.27430000  0.46410000  0.95620000  1.0 0.0678872392
H  H69  1  0.15170000  0.25430000  0.72980000  1.0 0.1282392442
H  H70  1  0.52800000  0.45200000  0.75480000  1.0 0.060309024
H  H71  1  0.44110000  0.47320000  0.67930000  1.0 0.060309024
H  H72  1  0.49210000  0.53590000  0.81020000  1.0 0.0678872392
H  H73  1  0.84830000  0.57810000  0.10260000  1.0 0.1282392442
H  H74  1  0.47200000  0.22680000  0.92400000  1.0 0.060309024
H  H75  1  0.55890000  0.23820000  0.03210000  1.0 0.060309024
H  H76  1  0.50790000  0.31810000  0.04380000  1.0 0.0678872392
H  H77  1  0.52450000  0.42190000  0.27020000  1.0 0.1282392442
H  H78  1  0.69720000  0.77320000  0.24520000  1.0 0.060309024
H  H79  1  0.79390000  0.76180000  0.32070000  1.0 0.060309024
H  H80  1  0.72570000  0.68190000  0.18980000  1.0 0.0678872392
H  H81  1  0.74570000  0.89740000  0.47550000  1.0 0.1282392442
H  H82  1  0.54800000  0.07600000  0.30280000  1.0 0.060309024
H  H83  1  0.52680000  0.96790000  0.20610000  1.0 0.060309024
H  H84  1  0.46410000  0.95620000  0.27430000  1.0 0.0678872392
H  H85  1  0.25430000  0.72980000  0.15170000  1.0 0.1282392442
H  H86  1  0.45200000  0.75480000  0.52800000  1.0 0.060309024
H  H87  1  0.47320000  0.67930000  0.44110000  1.0 0.060309024
H  H88  1  0.53590000  0.81020000  0.49210000  1.0 0.0678872392
H  H89  1  0.57810000  0.10260000  0.84830000  1.0 0.1282392442
H  H90  1  0.22680000  0.92400000  0.47200000  1.0 0.060309024
H  H91  1  0.23820000  0.03210000  0.55890000  1.0 0.060309024
H  H92  1  0.31810000  0.04380000  0.50790000  1.0 0.0678872392
H  H93  1  0.42190000  0.27020000  0.52450000  1.0 0.1282392442
H  H94  1  0.77320000  0.24520000  0.69720000  1.0 0.060309024
H  H95  1  0.76180000  0.32070000  0.79390000  1.0 0.060309024
H  H96  1  0.68190000  0.18980000  0.72570000  1.0 0.0678872392
C  C1  1  0.45400000  0.94320000  0.72320000  1.0 -0.0762668034
C  C2  1  0.22000000  0.73080000  0.27680000  1.0 -0.0762668034
C  C3  1  0.78000000  0.05680000  0.51080000  1.0 -0.0762668034
C  C4  1  0.54600000  0.26920000  0.48920000  1.0 -0.0762668034
C  C5  1  0.72320000  0.45400000  0.94320000  1.0 -0.0762668034
C  C6  1  0.27680000  0.22000000  0.73080000  1.0 -0.0762668034
C  C7  1  0.51080000  0.78000000  0.05680000  1.0 -0.0762668034
C  C8  1  0.48920000  0.54600000  0.26920000  1.0 -0.0762668034
C  C9  1  0.94320000  0.72320000  0.45400000  1.0 -0.0762668034
C  C10  1  0.73080000  0.27680000  0.22000000  1.0 -0.0762668034
C  C11  1  0.05680000  0.51080000  0.78000000  1.0 -0.0762668034
C  C12  1  0.26920000  0.48920000  0.54600000  1.0 -0.0762668034
C  C13  1  0.94320000  0.45400000  0.72320000  1.0 -0.0762668034
C  C14  1  0.73080000  0.22000000  0.27680000  1.0 -0.0762668034
C  C15  1  0.05680000  0.78000000  0.51080000  1.0 -0.0762668034
C  C16  1  0.26920000  0.54600000  0.48920000  1.0 -0.0762668034
C  C17  1  0.45400000  0.72320000  0.94320000  1.0 -0.0762668034
C  C18  1  0.22000000  0.27680000  0.73080000  1.0 -0.0762668034
C  C19  1  0.78000000  0.51080000  0.05680000  1.0 -0.0762668034
C  C20  1  0.54600000  0.48920000  0.26920000  1.0 -0.0762668034
C  C21  1  0.72320000  0.94320000  0.45400000  1.0 -0.0762668034
C  C22  1  0.27680000  0.73080000  0.22000000  1.0 -0.0762668034
C  C23  1  0.51080000  0.05680000  0.78000000  1.0 -0.0762668034
C  C24  1  0.48920000  0.26920000  0.54600000  1.0 -0.0762668034
C  C25  1  0.36178000  0.00000000  0.62782000  1.0 0.2574992262
C  C26  1  0.27880000  0.00000000  0.53320000  1.0 -0.3786134633
C  C27  1  0.37218000  0.73396000  0.37218000  1.0 0.2574992262
C  C28  1  0.46680000  0.74560000  0.46680000  1.0 -0.3786134633
C  C29  1  0.62782000  0.00000000  0.36178000  1.0 0.2574992262
C  C30  1  0.53320000  0.00000000  0.27880000  1.0 -0.3786134633
C  C31  1  0.63822000  0.26604000  0.63822000  1.0 0.2574992262
C  C32  1  0.72120000  0.25440000  0.72120000  1.0 -0.3786134633
C  C33  1  0.62782000  0.36178000  0.00000000  1.0 0.2574992262
C  C34  1  0.53320000  0.27880000  0.00000000  1.0 -0.3786134633
C  C35  1  0.37218000  0.37218000  0.73396000  1.0 0.2574992262
C  C36  1  0.46680000  0.46680000  0.74560000  1.0 -0.3786134633
C  C37  1  0.36178000  0.62782000  0.00000000  1.0 0.2543084882
C  C38  1  0.27880000  0.53320000  0.00000000  1.0 -0.3786134633
C  C39  1  0.63822000  0.63822000  0.26604000  1.0 0.2574992262
C  C40  1  0.72120000  0.72120000  0.25440000  1.0 -0.3786134633
C  C41  1  0.00000000  0.62782000  0.36178000  1.0 0.2574992262
C  C42  1  0.00000000  0.53320000  0.27880000  1.0 -0.3786134633
C  C43  1  0.73396000  0.37218000  0.37218000  1.0 0.2574992262
C  C44  1  0.74560000  0.46680000  0.46680000  1.0 -0.3786134633
C  C45  1  0.00000000  0.36178000  0.62782000  1.0 0.2574992262
C  C46  1  0.00000000  0.27880000  0.53320000  1.0 -0.3786134633
C  C47  1  0.26604000  0.63822000  0.63822000  1.0 0.2543084882
C  C48  1  0.25440000  0.72120000  0.72120000  1.0 -0.3786134633
N  N1  1  0.35865000  0.90663000  0.62630000  1.0 -0.3334087469
N  N2  1  0.28033000  0.73235000  0.37370000  1.0 -0.3334087469
N  N3  1  0.71967000  0.09337000  0.45202000  1.0 -0.3334087469
N  N4  1  0.64135000  0.26765000  0.54798000  1.0 -0.3334087469
N  N5  1  0.62630000  0.35865000  0.90663000  1.0 -0.3334087469
N  N6  1  0.37370000  0.28033000  0.73235000  1.0 -0.3334087469
N  N7  1  0.45202000  0.71967000  0.09337000  1.0 -0.3334087469
N  N8  1  0.54798000  0.64135000  0.26765000  1.0 -0.3334087469
N  N9  1  0.90663000  0.62630000  0.35865000  1.0 -0.3334087469
N  N10  1  0.73235000  0.37370000  0.28033000  1.0 -0.3334087469
N  N11  1  0.09337000  0.45202000  0.71967000  1.0 -0.3334087469
N  N12  1  0.26765000  0.54798000  0.64135000  1.0 -0.3334087469
N  N13  1  0.90663000  0.35865000  0.62630000  1.0 -0.3334087469
N  N14  1  0.73235000  0.28033000  0.37370000  1.0 -0.3334087469
N  N15  1  0.09337000  0.71967000  0.45202000  1.0 -0.3334087469
N  N16  1  0.26765000  0.64135000  0.54798000  1.0 -0.3334087469
N  N17  1  0.35865000  0.62630000  0.90663000  1.0 -0.3334087469
N  N18  1  0.28033000  0.37370000  0.73235000  1.0 -0.3334087469
N  N19  1  0.71967000  0.45202000  0.09337000  1.0 -0.3334087469
N  N20  1  0.64135000  0.54798000  0.26765000  1.0 -0.3334087469
N  N21  1  0.62630000  0.90663000  0.35865000  1.0 -0.3334087469
N  N22  1  0.37370000  0.73235000  0.28033000  1.0 -0.3334087469
N  N23  1  0.45202000  0.09337000  0.71967000  1.0 -0.3334087469
N  N24  1  0.54798000  0.26765000  0.64135000  1.0 -0.3334087469
