# DDEC6 charges by PACMAN v1.1 (https://github.com/mtap-research/PACMAN-charge/)
data_NIGHOA_ion_pacman
_symmetry_space_group_name_H-M   'P 1'
_cell_length_a   12.28000000
_cell_length_b   12.55300000
_cell_length_c   19.49000000
_cell_angle_alpha   90.00000000
_cell_angle_beta   92.17000000
_cell_angle_gamma   90.00000000
_symmetry_Int_Tables_number   1
_chemical_formula_structural   CuH25C20N10(ClO4)2
_chemical_formula_sum   'Cu4 H100 C80 N40 Cl8 O32'
_cell_volume   3002.24535409
_cell_formula_units_Z   4
loop_
 _symmetry_equiv_pos_site_id
 _symmetry_equiv_pos_as_xyz
  1  'x, y, z'
loop_
 _atom_site_type_symbol
 _atom_site_label
 _atom_site_symmetry_multiplicity
 _atom_site_fract_x
 _atom_site_fract_y
 _atom_site_fract_z
 _atom_site_occupancy
 _atom_site_charge
Cu  Cu1  1  0.23520000  0.11174000  0.75487000  1.0 0.5927292962
Cu  Cu2  1  0.26480000  0.61174000  0.24513000  1.0 0.5927292962
Cu  Cu3  1  0.76480000  0.88826000  0.24513000  1.0 0.5927292962
Cu  Cu4  1  0.73520000  0.38826000  0.75487000  1.0 0.5927292962
H  H1  1  0.44870000  0.15200000  0.83320000  1.0 0.1396258731
H  H2  1  0.05130000  0.65200000  0.16680000  1.0 0.1396258731
H  H3  1  0.55130000  0.84800000  0.16680000  1.0 0.1396258731
H  H4  1  0.94870000  0.34800000  0.83320000  1.0 0.1396258731
H  H5  1  0.57100000  0.17610000  0.92000000  1.0 0.1211624976
H  H6  1  0.92900000  0.67610000  0.08000000  1.0 0.1211624976
H  H7  1  0.42900000  0.82390000  0.08000000  1.0 0.1211624976
H  H8  1  0.07100000  0.32390000  0.92000000  1.0 0.1211624976
H  H9  1  0.35470000  0.96290000  0.87170000  1.0 0.1096667252
H  H10  1  0.14530000  0.46290000  0.12830000  1.0 0.1096667252
H  H11  1  0.64530000  0.03710000  0.12830000  1.0 0.1096667252
H  H12  1  0.85470000  0.53710000  0.87170000  1.0 0.1096667252
H  H13  1  0.47550000  0.92240000  0.95940000  1.0 0.1211624976
H  H14  1  0.02450000  0.42240000  0.04060000  1.0 0.1211624976
H  H15  1  0.52450000  0.07760000  0.04060000  1.0 0.1211624976
H  H16  1  0.97550000  0.57760000  0.95940000  1.0 0.1211624976
H  H17  1  0.59320000  0.97300000  0.96520000  1.0 0.1096667252
H  H18  1  0.90680000  0.47300000  0.03480000  1.0 0.1096667252
H  H19  1  0.40680000  0.02700000  0.03480000  1.0 0.1096667252
H  H20  1  0.09320000  0.52700000  0.96520000  1.0 0.1096667252
H  H21  1  0.03930000  0.95070000  0.75400000  1.0 0.1096667252
H  H22  1  0.46070000  0.45070000  0.24600000  1.0 0.1096667252
H  H23  1  0.96070000  0.04930000  0.24600000  1.0 0.1096667252
H  H24  1  0.53930000  0.54930000  0.75400000  1.0 0.1096667252
H  H25  1  0.90010000  0.92630000  0.86260000  1.0 0.1096667252
H  H26  1  0.59990000  0.42630000  0.13740000  1.0 0.1096667252
H  H27  1  0.09990000  0.07370000  0.13740000  1.0 0.1096667252
H  H28  1  0.40010000  0.57370000  0.86260000  1.0 0.1096667252
H  H29  1  0.15240000  0.12440000  0.90860000  1.0 0.1096667252
H  H30  1  0.34760000  0.62440000  0.09140000  1.0 0.1096667252
H  H31  1  0.84760000  0.87560000  0.09140000  1.0 0.1096667252
H  H32  1  0.65240000  0.37560000  0.90860000  1.0 0.1096667252
H  H33  1  0.01130000  0.10110000  0.99350000  1.0 0.1211624976
H  H34  1  0.48870000  0.60110000  0.00650000  1.0 0.1211624976
H  H35  1  0.98870000  0.89890000  0.00650000  1.0 0.1211624976
H  H36  1  0.51130000  0.39890000  0.99350000  1.0 0.1211624976
H  H37  1  0.94720000  0.01980000  0.96560000  1.0 0.1096667252
H  H38  1  0.55280000  0.51980000  0.03440000  1.0 0.1096667252
H  H39  1  0.05280000  0.98020000  0.03440000  1.0 0.1096667252
H  H40  1  0.44720000  0.48020000  0.96560000  1.0 0.1096667252
H  H41  1  0.01060000  0.21870000  0.69870000  1.0 0.1211624976
H  H42  1  0.48940000  0.71870000  0.30130000  1.0 0.1211624976
H  H43  1  0.98940000  0.78130000  0.30130000  1.0 0.1211624976
H  H44  1  0.51060000  0.28130000  0.69870000  1.0 0.1211624976
H  H45  1  0.89620000  0.13220000  0.59940000  1.0 0.1211624976
H  H46  1  0.60380000  0.63220000  0.40060000  1.0 0.1211624976
H  H47  1  0.10380000  0.86780000  0.40060000  1.0 0.1211624976
H  H48  1  0.39620000  0.36780000  0.59940000  1.0 0.1211624976
H  H49  1  0.17480000  0.97040000  0.61970000  1.0 0.1096667252
H  H50  1  0.32520000  0.47040000  0.38030000  1.0 0.1096667252
H  H51  1  0.82520000  0.02960000  0.38030000  1.0 0.1096667252
H  H52  1  0.67480000  0.52960000  0.61970000  1.0 0.1096667252
H  H53  1  0.02060000  0.89650000  0.52820000  1.0 0.1096667252
H  H54  1  0.47940000  0.39650000  0.47180000  1.0 0.1096667252
H  H55  1  0.97940000  0.10350000  0.47180000  1.0 0.1096667252
H  H56  1  0.52060000  0.60350000  0.52820000  1.0 0.1096667252
H  H57  1  0.91550000  0.95370000  0.53270000  1.0 0.1096667252
H  H58  1  0.58450000  0.45370000  0.46730000  1.0 0.1096667252
H  H59  1  0.08450000  0.04630000  0.46730000  1.0 0.1096667252
H  H60  1  0.41550000  0.54630000  0.53270000  1.0 0.1096667252
H  H61  1  0.68000000  0.84380000  0.40080000  1.0 0.1096667252
H  H62  1  0.82000000  0.34380000  0.59920000  1.0 0.1096667252
H  H63  1  0.32000000  0.15620000  0.59920000  1.0 0.1096667252
H  H64  1  0.18000000  0.65620000  0.40080000  1.0 0.1096667252
H  H65  1  0.50440000  0.94640000  0.44630000  1.0 0.1211624976
H  H66  1  0.99560000  0.44640000  0.55370000  1.0 0.1211624976
H  H67  1  0.49560000  0.05360000  0.55370000  1.0 0.1211624976
H  H68  1  0.00440000  0.55360000  0.44630000  1.0 0.1211624976
H  H69  1  0.54980000  0.04590000  0.25380000  1.0 0.0980072868
H  H70  1  0.95020000  0.54590000  0.74620000  1.0 0.0980072868
H  H71  1  0.45020000  0.95410000  0.74620000  1.0 0.0980072868
H  H72  1  0.04980000  0.45410000  0.25380000  1.0 0.0980072868
H  H73  1  0.40060000  0.11630000  0.31540000  1.0 0.1211624976
H  H74  1  0.09940000  0.61630000  0.68460000  1.0 0.1211624976
H  H75  1  0.59940000  0.88370000  0.68460000  1.0 0.1211624976
H  H76  1  0.90060000  0.38370000  0.31540000  1.0 0.1211624976
H  H77  1  0.41950000  0.12430000  0.40110000  1.0 0.1211624976
H  H78  1  0.08050000  0.62430000  0.59890000  1.0 0.1211624976
H  H79  1  0.58050000  0.87570000  0.59890000  1.0 0.1211624976
H  H80  1  0.91950000  0.37570000  0.40110000  1.0 0.1211624976
H  H81  1  0.30140000  0.98500000  0.38800000  1.0 0.1258647773
H  H82  1  0.19860000  0.48500000  0.61200000  1.0 0.1258647773
H  H83  1  0.69860000  0.01500000  0.61200000  1.0 0.1258647773
H  H84  1  0.80140000  0.51500000  0.38800000  1.0 0.1258647773
H  H85  1  0.23240000  0.07450000  0.34860000  1.0 0.1211624976
H  H86  1  0.26760000  0.57450000  0.65140000  1.0 0.1211624976
H  H87  1  0.76760000  0.92550000  0.65140000  1.0 0.1211624976
H  H88  1  0.73240000  0.42550000  0.34860000  1.0 0.1211624976
H  H89  1  0.27850000  0.05310000  0.21040000  1.0 0.0846252847
H  H90  1  0.22150000  0.55310000  0.78960000  1.0 0.0846252847
H  H91  1  0.72150000  0.94690000  0.78960000  1.0 0.0846252847
H  H92  1  0.77850000  0.44690000  0.21040000  1.0 0.0846252847
H  H93  1  0.24320000  0.35310000  0.84780000  1.0 0.1211624976
H  H94  1  0.25680000  0.85310000  0.15220000  1.0 0.1211624976
H  H95  1  0.75680000  0.64690000  0.15220000  1.0 0.1211624976
H  H96  1  0.74320000  0.14690000  0.84780000  1.0 0.1211624976
H  H97  1  0.20390000  0.30430000  0.64560000  1.0 0.0980072868
H  H98  1  0.29610000  0.80430000  0.35440000  1.0 0.0980072868
H  H99  1  0.79610000  0.69570000  0.35440000  1.0 0.0980072868
H  H100  1  0.70390000  0.19570000  0.64560000  1.0 0.0980072868
C  C1  1  0.42570000  0.18960000  0.84460000  1.0 -0.0433355266
C  C2  1  0.07430000  0.68960000  0.15540000  1.0 -0.0433355266
C  C3  1  0.57430000  0.81040000  0.15540000  1.0 -0.0433355266
C  C4  1  0.92570000  0.31040000  0.84460000  1.0 -0.0433355266
C  C5  1  0.49400000  0.15290000  0.89660000  1.0 -0.1299915256
C  C6  1  0.00600000  0.65290000  0.10340000  1.0 -0.1299915256
C  C7  1  0.50600000  0.84710000  0.10340000  1.0 -0.1299915256
C  C8  1  0.99400000  0.34710000  0.89660000  1.0 -0.1299915256
C  C9  1  0.36610000  0.03440000  0.87650000  1.0 0.0216630883
C  C10  1  0.13390000  0.53440000  0.12350000  1.0 0.0216630883
C  C11  1  0.63390000  0.96560000  0.12350000  1.0 0.0216630883
C  C12  1  0.86610000  0.46560000  0.87650000  1.0 0.0216630883
C  C13  1  0.51550000  0.98230000  0.96540000  1.0 -0.1423856657
C  C14  1  0.98450000  0.48230000  0.03460000  1.0 -0.1423856657
C  C15  1  0.48450000  0.01770000  0.03460000  1.0 -0.1423856657
C  C16  1  0.01550000  0.51770000  0.96540000  1.0 -0.1423856657
C  C17  1  0.03580000  0.98680000  0.80310000  1.0 -0.0489452879
C  C18  1  0.46420000  0.48680000  0.19690000  1.0 -0.0489452879
C  C19  1  0.96420000  0.01320000  0.19690000  1.0 -0.0489452879
C  C20  1  0.53580000  0.51320000  0.80310000  1.0 -0.0489452879
C  C21  1  0.97490000  0.97130000  0.85820000  1.0 -0.0792404242
C  C22  1  0.52510000  0.47130000  0.14180000  1.0 -0.0792404242
C  C23  1  0.02510000  0.02870000  0.14180000  1.0 -0.0748475235
C  C24  1  0.47490000  0.52870000  0.85820000  1.0 -0.0792404242
C  C25  1  0.10530000  0.08550000  0.88290000  1.0 0.0846252847
C  C26  1  0.39470000  0.58550000  0.11710000  1.0 0.087834709
C  C27  1  0.89470000  0.91450000  0.11710000  1.0 0.087834709
C  C28  1  0.60530000  0.41450000  0.88290000  1.0 0.087834709
C  C29  1  0.98050000  0.04810000  0.97950000  1.0 -0.0792404242
C  C30  1  0.51950000  0.54810000  0.02050000  1.0 -0.0792404242
C  C31  1  0.01950000  0.95190000  0.02050000  1.0 -0.0792404242
C  C32  1  0.48050000  0.45190000  0.97950000  1.0 -0.0792404242
C  C33  1  0.02890000  0.15790000  0.67050000  1.0 -0.0566461612
C  C34  1  0.47110000  0.65790000  0.32950000  1.0 -0.0566461612
C  C35  1  0.97110000  0.84210000  0.32950000  1.0 -0.0566461612
C  C36  1  0.52890000  0.34210000  0.67050000  1.0 -0.0566461612
C  C37  1  0.96830000  0.11950000  0.61740000  1.0 -0.1098997364
C  C38  1  0.53170000  0.61950000  0.38260000  1.0 -0.1098997364
C  C39  1  0.03170000  0.88050000  0.38260000  1.0 -0.1098997364
C  C40  1  0.46830000  0.38050000  0.61740000  1.0 -0.1098997364
C  C41  1  0.11810000  0.02700000  0.62880000  1.0 0.087834709
C  C42  1  0.38190000  0.52700000  0.37120000  1.0 0.0980072868
C  C43  1  0.88190000  0.97300000  0.37120000  1.0 0.0980072868
C  C44  1  0.61810000  0.47300000  0.62880000  1.0 0.0980072868
C  C45  1  0.99040000  0.96970000  0.53310000  1.0 -0.1299915256
C  C46  1  0.50960000  0.46970000  0.46690000  1.0 -0.1299915256
C  C47  1  0.00960000  0.03030000  0.46690000  1.0 -0.1299915256
C  C48  1  0.49040000  0.53030000  0.53310000  1.0 -0.1299915256
C  C49  1  0.62860000  0.89380000  0.37650000  1.0 -0.0489452879
C  C50  1  0.87140000  0.39380000  0.62350000  1.0 -0.0489452879
C  C51  1  0.37140000  0.10620000  0.62350000  1.0 -0.0489452879
C  C52  1  0.12860000  0.60620000  0.37650000  1.0 -0.0489452879
C  C53  1  0.54050000  0.94300000  0.40100000  1.0 -0.1098997364
C  C54  1  0.95950000  0.44300000  0.59900000  1.0 -0.1098997364
C  C55  1  0.45950000  0.05700000  0.59900000  1.0 -0.1098997364
C  C56  1  0.04050000  0.55700000  0.40100000  1.0 -0.1098997364
C  C57  1  0.56500000  0.99660000  0.29670000  1.0 0.087834709
C  C58  1  0.93500000  0.49660000  0.70330000  1.0 0.087834709
C  C59  1  0.43500000  0.00340000  0.70330000  1.0 0.087834709
C  C60  1  0.06500000  0.50340000  0.29670000  1.0 0.087834709
C  C61  1  0.40860000  0.08160000  0.35310000  1.0 -0.1169681274
C  C62  1  0.09140000  0.58160000  0.64690000  1.0 -0.1169681274
C  C63  1  0.59140000  0.91840000  0.64690000  1.0 -0.1169681274
C  C64  1  0.90860000  0.41840000  0.35310000  1.0 -0.1169681274
C  C65  1  0.29970000  0.02370000  0.35500000  1.0 -0.1299915256
C  C66  1  0.20030000  0.52370000  0.64500000  1.0 -0.1299915256
C  C67  1  0.70030000  0.97630000  0.64500000  1.0 -0.1299915256
C  C68  1  0.79970000  0.47630000  0.35500000  1.0 -0.1299915256
C  C69  1  0.27500000  0.96310000  0.23040000  1.0 -0.0930457752
C  C70  1  0.22500000  0.46310000  0.76960000  1.0 -0.0930457752
C  C71  1  0.72500000  0.03690000  0.76960000  1.0 -0.0930457752
C  C72  1  0.77500000  0.53690000  0.23040000  1.0 -0.0930457752
C  C73  1  0.23370000  0.36620000  0.79860000  1.0 -0.0489452879
C  C74  1  0.26630000  0.86620000  0.20140000  1.0 -0.0489452879
C  C75  1  0.76630000  0.63380000  0.20140000  1.0 -0.0489452879
C  C76  1  0.73370000  0.13380000  0.79860000  1.0 -0.0489452879
C  C77  1  0.21320000  0.33910000  0.69010000  1.0 0.0736761388
C  C78  1  0.28680000  0.83910000  0.30990000  1.0 0.0736761388
C  C79  1  0.78680000  0.66090000  0.30990000  1.0 0.0736761388
C  C80  1  0.71320000  0.16090000  0.69010000  1.0 0.0736761388
N  N1  1  0.34600000  0.11200000  0.83270000  1.0 -0.2822843328
N  N2  1  0.15400000  0.61200000  0.16730000  1.0 -0.2822843328
N  N3  1  0.65400000  0.88800000  0.16730000  1.0 -0.2822843328
N  N4  1  0.84600000  0.38800000  0.83270000  1.0 -0.2822843328
N  N5  1  0.45770000  0.05460000  0.91440000  1.0 0.0216630883
N  N6  1  0.04230000  0.55460000  0.08560000  1.0 0.0262767731
N  N7  1  0.54230000  0.94540000  0.08560000  1.0 0.0216630883
N  N8  1  0.95770000  0.44540000  0.91440000  1.0 0.0262767731
N  N9  1  0.11940000  0.05770000  0.81810000  1.0 -0.2822843328
N  N10  1  0.38060000  0.55770000  0.18190000  1.0 -0.2822843328
N  N11  1  0.88060000  0.94230000  0.18190000  1.0 -0.2822843328
N  N12  1  0.61940000  0.44230000  0.81810000  1.0 -0.2822843328
N  N13  1  0.01920000  0.03630000  0.90840000  1.0 0.0262767731
N  N14  1  0.48080000  0.53630000  0.09160000  1.0 0.0262767731
N  N15  1  0.98080000  0.96370000  0.09160000  1.0 0.0262767731
N  N16  1  0.51920000  0.46370000  0.90840000  1.0 0.0262767731
N  N17  1  0.12410000  0.09960000  0.67730000  1.0 -0.2822843328
N  N18  1  0.37590000  0.59960000  0.32270000  1.0 -0.2822843328
N  N19  1  0.87590000  0.90040000  0.32270000  1.0 -0.2822843328
N  N20  1  0.62410000  0.40040000  0.67730000  1.0 -0.2822843328
N  N21  1  0.02430000  0.03390000  0.59180000  1.0 0.0402398068
N  N22  1  0.47570000  0.53390000  0.40820000  1.0 0.0402398068
N  N23  1  0.97570000  0.96610000  0.40820000  1.0 0.0402398068
N  N24  1  0.52430000  0.46610000  0.59180000  1.0 0.0402398068
N  N25  1  0.64360000  0.92770000  0.31010000  1.0 -0.2822843328
N  N26  1  0.85640000  0.42770000  0.68990000  1.0 -0.2822843328
N  N27  1  0.35640000  0.07230000  0.68990000  1.0 -0.2822843328
N  N28  1  0.14360000  0.57230000  0.31010000  1.0 -0.2822843328
N  N29  1  0.50110000  0.00880000  0.34990000  1.0 0.0402398068
N  N30  1  0.99890000  0.50880000  0.65010000  1.0 0.0402398068
N  N31  1  0.49890000  0.99120000  0.65010000  1.0 0.0402398068
N  N32  1  0.00110000  0.49120000  0.34990000  1.0 0.0402398068
N  N33  1  0.28720000  0.94440000  0.30020000  1.0 0.0216630883
N  N34  1  0.21280000  0.44440000  0.69980000  1.0 0.0216630883
N  N35  1  0.71280000  0.05560000  0.69980000  1.0 0.0216630883
N  N36  1  0.78720000  0.55560000  0.30020000  1.0 0.0216630883
N  N37  1  0.22720000  0.28720000  0.74890000  1.0 -0.3071001437
N  N38  1  0.27280000  0.78720000  0.25110000  1.0 -0.3071001437
N  N39  1  0.77280000  0.71280000  0.25110000  1.0 -0.3071001437
N  N40  1  0.72720000  0.21280000  0.74890000  1.0 -0.3071001437
Cl  Cl1  1  0.20180000  0.29050000  0.46647000  1.0 1.1881463189
Cl  Cl2  1  0.29820000  0.79050000  0.53353000  1.0 1.1881463189
Cl  Cl3  1  0.79820000  0.70950000  0.53353000  1.0 1.1881463189
Cl  Cl4  1  0.70180000  0.20950000  0.46647000  1.0 1.1881463189
Cl  Cl5  1  0.24570000  0.24680000  0.04530000  1.0 1.2086562771
Cl  Cl6  1  0.25430000  0.74680000  0.95470000  1.0 1.2086562771
Cl  Cl7  1  0.75430000  0.75320000  0.95470000  1.0 1.2086562771
Cl  Cl8  1  0.74570000  0.25320000  0.04530000  1.0 1.2086562771
O  O1  1  0.09370000  0.29420000  0.45710000  1.0 -0.417683069
O  O2  1  0.23800000  0.30170000  0.40200000  1.0 -0.4050463181
O  O3  1  0.24260000  0.37630000  0.50160000  1.0 -0.4589840512
O  O4  1  0.23250000  0.19510000  0.48930000  1.0 -0.4299751859
O  O5  1  0.40630000  0.79420000  0.54290000  1.0 -0.417683069
O  O6  1  0.26200000  0.80170000  0.59800000  1.0 -0.4040457945
O  O7  1  0.25740000  0.87630000  0.49840000  1.0 -0.4589840512
O  O8  1  0.26750000  0.69510000  0.51070000  1.0 -0.4299751859
O  O9  1  0.90630000  0.70580000  0.54290000  1.0 -0.417683069
O  O10  1  0.76200000  0.69830000  0.59800000  1.0 -0.4040457945
O  O11  1  0.75740000  0.62370000  0.49840000  1.0 -0.4589840512
O  O12  1  0.76750000  0.80490000  0.51070000  1.0 -0.4299751859
O  O13  1  0.59370000  0.20580000  0.45710000  1.0 -0.417683069
O  O14  1  0.73800000  0.19830000  0.40200000  1.0 -0.4040457945
O  O15  1  0.74260000  0.12370000  0.50160000  1.0 -0.4589840512
O  O16  1  0.73250000  0.30490000  0.48930000  1.0 -0.4299751859
O  O17  1  0.24220000  0.13720000  0.04430000  1.0 -0.4717022296
O  O18  1  0.23660000  0.29000000  0.98040000  1.0 -0.4803697135
O  O19  1  0.15190000  0.27140000  0.07780000  1.0 -0.4481965121
O  O20  1  0.33810000  0.28530000  0.07700000  1.0 -0.4481965121
O  O21  1  0.25780000  0.63720000  0.95570000  1.0 -0.4717022296
O  O22  1  0.26340000  0.79000000  0.01960000  1.0 -0.4803697135
O  O23  1  0.34810000  0.77140000  0.92220000  1.0 -0.4481965121
O  O24  1  0.16190000  0.78530000  0.92300000  1.0 -0.4481965121
O  O25  1  0.75780000  0.86280000  0.95570000  1.0 -0.4717022296
O  O26  1  0.76340000  0.71000000  0.01960000  1.0 -0.4803697135
O  O27  1  0.84810000  0.72860000  0.92220000  1.0 -0.4481965121
O  O28  1  0.66190000  0.71470000  0.92300000  1.0 -0.4481965121
O  O29  1  0.74220000  0.36280000  0.04430000  1.0 -0.4717022296
O  O30  1  0.73660000  0.21000000  0.98040000  1.0 -0.4803697135
O  O31  1  0.65190000  0.22860000  0.07780000  1.0 -0.4481965121
O  O32  1  0.83810000  0.21470000  0.07700000  1.0 -0.4481965121
