# DDEC6 charges by PACMAN v1.1 (https://github.com/mtap-research/PACMAN-charge/)
data_NIJKEZ_ASR_pacman
_symmetry_space_group_name_H-M   'P 1'
_cell_length_a   8.33740000
_cell_length_b   28.98470000
_cell_length_c   18.80630000
_cell_angle_alpha   90.00000000
_cell_angle_beta   94.26100000
_cell_angle_gamma   90.00000000
_symmetry_Int_Tables_number   1
_chemical_formula_structural   Co3H54C82(N7O6)2
_chemical_formula_sum   'Co6 H108 C164 N28 O24'
_cell_volume   4532.11299097
_cell_formula_units_Z   2
loop_
 _symmetry_equiv_pos_site_id
 _symmetry_equiv_pos_as_xyz
  1  'x, y, z'
loop_
 _atom_site_type_symbol
 _atom_site_label
 _atom_site_symmetry_multiplicity
 _atom_site_fract_x
 _atom_site_fract_y
 _atom_site_fract_z
 _atom_site_occupancy
 _atom_site_charge
Co  Co1  1  0.97402000  0.24481000  0.27515000  1.0 0.7890272957
Co  Co2  1  0.02598000  0.74481000  0.22485000  1.0 0.7890272957
Co  Co3  1  0.02598000  0.75519000  0.72485000  1.0 0.7890272957
Co  Co4  1  0.97402000  0.25519000  0.77515000  1.0 0.7890272957
Co  Co5  1  0.00000000  0.50000000  0.00000000  1.0 0.7986856919
Co  Co6  1  0.00000000  0.00000000  0.50000000  1.0 0.7986856919
H  H1  1  0.62180000  0.59390000  0.54560000  1.0 0.2756912333
H  H2  1  0.69070000  0.44070000  0.97240000  1.0 0.1189938459
H  H3  1  0.78640000  0.51700000  0.14140000  1.0 0.1189938459
H  H4  1  0.55570000  0.46960000  0.16480000  1.0 0.1282861644
H  H5  1  0.41570000  0.41450000  0.94880000  1.0 0.1282861644
H  H6  1  0.21290000  0.30200000  0.02780000  1.0 0.1386580837
H  H7  1  0.49030000  0.38380000  0.15760000  1.0 0.1386580837
H  H8  1  0.52520000  0.30320000  0.22140000  1.0 0.1386580837
H  H9  1  0.36540000  0.25930000  0.30180000  1.0 0.1282861644
H  H10  1  0.07030000  0.30150000  0.14420000  1.0 0.1282861644
H  H11  1  0.11900000  0.28570000  0.92210000  1.0 0.1189938459
H  H12  1  0.29470000  0.39770000  0.84300000  1.0 0.1189938459
H  H13  1  0.14680000  0.35500000  0.74910000  1.0 0.1282861644
H  H14  1  0.83820000  0.61280000  0.76790000  1.0 0.1120486383
H  H15  1  0.76720000  0.60720000  0.64800000  1.0 0.1120486383
H  H16  1  0.74800000  0.47070000  0.66530000  1.0 0.1120486383
H  H17  1  0.80580000  0.47670000  0.78670000  1.0 0.1189938459
H  H18  1  0.81410000  0.47060000  0.55750000  1.0 0.1282861644
H  H19  1  0.64210000  0.52070000  0.37190000  1.0 0.1282861644
H  H20  1  0.61300000  0.58640000  0.31610000  1.0 0.1120486383
H  H21  1  0.46160000  0.63980000  0.25000000  1.0 0.1120486383
H  H22  1  0.25060000  0.67640000  0.42360000  1.0 0.1282861644
H  H23  1  0.40140000  0.62330000  0.48990000  1.0 0.1120486383
H  H24  1  0.62960000  0.45240000  0.33690000  1.0 0.1120486383
H  H25  1  0.68420000  0.38160000  0.28750000  1.0 0.1120486383
H  H26  1  0.00180000  0.35490000  0.45000000  1.0 0.1189938459
H  H27  1  0.94730000  0.42490000  0.50040000  1.0 0.1120486383
H  H28  1  0.37820000  0.09390000  0.95440000  1.0 0.2756912333
H  H29  1  0.30930000  0.94070000  0.52760000  1.0 0.1189938459
H  H30  1  0.21360000  0.01700000  0.35860000  1.0 0.1189938459
H  H31  1  0.44430000  0.96960000  0.33520000  1.0 0.1282861644
H  H32  1  0.58430000  0.91450000  0.55120000  1.0 0.1282861644
H  H33  1  0.78710000  0.80200000  0.47220000  1.0 0.1386580837
H  H34  1  0.50970000  0.88380000  0.34240000  1.0 0.1386580837
H  H35  1  0.47480000  0.80320000  0.27860000  1.0 0.1386580837
H  H36  1  0.63460000  0.75930000  0.19820000  1.0 0.1282861644
H  H37  1  0.92970000  0.80150000  0.35580000  1.0 0.1282861644
H  H38  1  0.88100000  0.78570000  0.57790000  1.0 0.1189938459
H  H39  1  0.70530000  0.89770000  0.65700000  1.0 0.1189938459
H  H40  1  0.85320000  0.85500000  0.75090000  1.0 0.1282861644
H  H41  1  0.16180000  0.11280000  0.73210000  1.0 0.1120486383
H  H42  1  0.23280000  0.10720000  0.85200000  1.0 0.1120486383
H  H43  1  0.25200000  0.97070000  0.83470000  1.0 0.1120486383
H  H44  1  0.19420000  0.97670000  0.71330000  1.0 0.1189938459
H  H45  1  0.18590000  0.97060000  0.94250000  1.0 0.1282861644
H  H46  1  0.35790000  0.02070000  0.12810000  1.0 0.1282861644
H  H47  1  0.38700000  0.08640000  0.18390000  1.0 0.1120486383
H  H48  1  0.53840000  0.13980000  0.25000000  1.0 0.1120486383
H  H49  1  0.74940000  0.17640000  0.07640000  1.0 0.1282861644
H  H50  1  0.59860000  0.12330000  0.01010000  1.0 0.1120486383
H  H51  1  0.37040000  0.95240000  0.16310000  1.0 0.1120486383
H  H52  1  0.31580000  0.88160000  0.21250000  1.0 0.1120486383
H  H53  1  0.99820000  0.85490000  0.05000000  1.0 0.1189938459
H  H54  1  0.05270000  0.92490000  0.99960000  1.0 0.1120486383
H  H55  1  0.37820000  0.40610000  0.45440000  1.0 0.2756912333
H  H56  1  0.30930000  0.55930000  0.02760000  1.0 0.1189938459
H  H57  1  0.21360000  0.48300000  0.85860000  1.0 0.1189938459
H  H58  1  0.44430000  0.53040000  0.83520000  1.0 0.1282861644
H  H59  1  0.58430000  0.58550000  0.05120000  1.0 0.1282861644
H  H60  1  0.78710000  0.69800000  0.97220000  1.0 0.1386580837
H  H61  1  0.50970000  0.61620000  0.84240000  1.0 0.1386580837
H  H62  1  0.47480000  0.69680000  0.77860000  1.0 0.1386580837
H  H63  1  0.63460000  0.74070000  0.69820000  1.0 0.1282861644
H  H64  1  0.92970000  0.69850000  0.85580000  1.0 0.1282861644
H  H65  1  0.88100000  0.71430000  0.07790000  1.0 0.1189938459
H  H66  1  0.70530000  0.60230000  0.15700000  1.0 0.1189938459
H  H67  1  0.85320000  0.64500000  0.25090000  1.0 0.1282861644
H  H68  1  0.16180000  0.38720000  0.23210000  1.0 0.1120486383
H  H69  1  0.23280000  0.39280000  0.35200000  1.0 0.1120486383
H  H70  1  0.25200000  0.52930000  0.33470000  1.0 0.1120486383
H  H71  1  0.19420000  0.52330000  0.21330000  1.0 0.1189938459
H  H72  1  0.18590000  0.52940000  0.44250000  1.0 0.1282861644
H  H73  1  0.35790000  0.47930000  0.62810000  1.0 0.1282861644
H  H74  1  0.38700000  0.41360000  0.68390000  1.0 0.1120486383
H  H75  1  0.53840000  0.36020000  0.75000000  1.0 0.1120486383
H  H76  1  0.74940000  0.32360000  0.57640000  1.0 0.1282861644
H  H77  1  0.59860000  0.37670000  0.51010000  1.0 0.1120486383
H  H78  1  0.37040000  0.54760000  0.66310000  1.0 0.1120486383
H  H79  1  0.31580000  0.61840000  0.71250000  1.0 0.1120486383
H  H80  1  0.99820000  0.64510000  0.55000000  1.0 0.1189938459
H  H81  1  0.05270000  0.57510000  0.49960000  1.0 0.1120486383
H  H82  1  0.62180000  0.90610000  0.04560000  1.0 0.2756912333
H  H83  1  0.69070000  0.05930000  0.47240000  1.0 0.1189938459
H  H84  1  0.78640000  0.98300000  0.64140000  1.0 0.1189938459
H  H85  1  0.55570000  0.03040000  0.66480000  1.0 0.1282861644
H  H86  1  0.41570000  0.08550000  0.44880000  1.0 0.1282861644
H  H87  1  0.21290000  0.19800000  0.52780000  1.0 0.1386580837
H  H88  1  0.49030000  0.11620000  0.65760000  1.0 0.1386580837
H  H89  1  0.52520000  0.19680000  0.72140000  1.0 0.1386580837
H  H90  1  0.36540000  0.24070000  0.80180000  1.0 0.1282861644
H  H91  1  0.07030000  0.19850000  0.64420000  1.0 0.1282861644
H  H92  1  0.11900000  0.21430000  0.42210000  1.0 0.1189938459
H  H93  1  0.29470000  0.10230000  0.34300000  1.0 0.1189938459
H  H94  1  0.14680000  0.14500000  0.24910000  1.0 0.1282861644
H  H95  1  0.83820000  0.88720000  0.26790000  1.0 0.1120486383
H  H96  1  0.76720000  0.89280000  0.14800000  1.0 0.1120486383
H  H97  1  0.74800000  0.02930000  0.16530000  1.0 0.1120486383
H  H98  1  0.80580000  0.02330000  0.28670000  1.0 0.1189938459
H  H99  1  0.81410000  0.02940000  0.05750000  1.0 0.1282861644
H  H100  1  0.64210000  0.97930000  0.87190000  1.0 0.1282861644
H  H101  1  0.61300000  0.91360000  0.81610000  1.0 0.1120486383
H  H102  1  0.46160000  0.86020000  0.75000000  1.0 0.1120486383
H  H103  1  0.25060000  0.82360000  0.92360000  1.0 0.1282861644
H  H104  1  0.40140000  0.87670000  0.98990000  1.0 0.1120486383
H  H105  1  0.62960000  0.04760000  0.83690000  1.0 0.1120486383
H  H106  1  0.68420000  0.11840000  0.78750000  1.0 0.1120486383
H  H107  1  0.00180000  0.14510000  0.95000000  1.0 0.1189938459
H  H108  1  0.94730000  0.07510000  0.00040000  1.0 0.1120486383
C  C1  1  0.68690000  0.45371000  0.01750000  1.0 0.1189938459
C  C2  1  0.73820000  0.49525000  0.11030000  1.0 -0.0533339794
C  C3  1  0.88820000  0.31680000  0.32950000  1.0 0.5480044824
C  C4  1  0.61060000  0.46948000  0.12350000  1.0 -0.1095155459
C  C5  1  0.47030000  0.40468000  0.05440000  1.0 0.2112809882
C  C6  1  0.39960000  0.39501000  0.98700000  1.0 -0.2702120583
C  C7  1  0.30530000  0.35616000  0.97740000  1.0 0.1997422498
C  C8  1  0.27710000  0.32809000  0.03430000  1.0 -0.2509173531
C  C9  1  0.34500000  0.33923000  0.10030000  1.0 0.2112809882
C  C10  1  0.44360000  0.37709000  0.11240000  1.0 -0.2419618409
C  C11  1  0.41520000  0.29753000  0.21550000  1.0 -0.0942596647
C  C12  1  0.32550000  0.27373000  0.26000000  1.0 -0.0359329939
C  C13  1  0.16290000  0.29645000  0.17390000  1.0 0.1120486383
C  C14  1  0.14620000  0.30827000  0.88990000  1.0 0.1120486383
C  C15  1  0.24290000  0.36960000  0.84810000  1.0 -0.1095155459
C  C16  1  0.16060000  0.34580000  0.79650000  1.0 -0.0255545791
C  C17  1  0.88640000  0.54848000  0.86740000  1.0 0.5480044824
C  C18  1  0.83430000  0.54528000  0.79010000  1.0 -0.0199307514
C  C19  1  0.82000000  0.58380000  0.74760000  1.0 -0.1095155459
C  C20  1  0.77920000  0.58039000  0.67510000  1.0 -0.1539048034
C  C21  1  0.75600000  0.53842000  0.64230000  1.0 0.0230575946
C  C22  1  0.76610000  0.49965000  0.68560000  1.0 -0.1602278802
C  C23  1  0.80270000  0.50319000  0.75870000  1.0 -0.1095155459
C  C24  1  0.72400000  0.53407000  0.56460000  1.0 0.1797733005
C  C25  1  0.76570000  0.49456000  0.53090000  1.0 -0.2419618409
C  C26  1  0.73820000  0.48968000  0.45980000  1.0 0.1015060168
C  C27  1  0.66290000  0.52423000  0.42090000  1.0 -0.2509173531
C  C28  1  0.61790000  0.56381000  0.45310000  1.0 0.1797733005
C  C29  1  0.52820000  0.59983000  0.41060000  1.0 0.0286504884
C  C30  1  0.54050000  0.60480000  0.33850000  1.0 -0.168353543
C  C31  1  0.44810000  0.63640000  0.29840000  1.0 -0.1095155459
C  C32  1  0.32340000  0.65800000  0.40150000  1.0 -0.0971556086
C  C33  1  0.41550000  0.62655000  0.44150000  1.0 -0.1602278802
C  C34  1  0.33720000  0.66257000  0.32990000  1.0 -0.0029999252
C  C35  1  0.22820000  0.69465000  0.28650000  1.0 0.5419277428
C  C36  1  0.77970000  0.44585000  0.42500000  1.0 0.0693226453
C  C37  1  0.70400000  0.43272000  0.36050000  1.0 -0.1762928891
C  C38  1  0.73810000  0.39034000  0.33050000  1.0 -0.1095155459
C  C39  1  0.84950000  0.36148000  0.36320000  1.0 -0.0147627139
C  C40  1  0.92640000  0.37447000  0.42700000  1.0 -0.1095155459
C  C41  1  0.89290000  0.41638000  0.45750000  1.0 -0.168353543
C  C42  1  0.31310000  0.95371000  0.48250000  1.0 0.1120486383
C  C43  1  0.26180000  0.99525000  0.38970000  1.0 -0.0533339794
C  C44  1  0.11180000  0.81680000  0.17050000  1.0 0.5419277428
C  C45  1  0.38940000  0.96948000  0.37650000  1.0 -0.1095155459
C  C46  1  0.52970000  0.90468000  0.44560000  1.0 0.2112809882
C  C47  1  0.60040000  0.89501000  0.51300000  1.0 -0.2702120583
C  C48  1  0.69470000  0.85616000  0.52260000  1.0 0.1997422498
C  C49  1  0.72290000  0.82809000  0.46570000  1.0 -0.2509173531
C  C50  1  0.65500000  0.83923000  0.39970000  1.0 0.2112809882
C  C51  1  0.55640000  0.87709000  0.38760000  1.0 -0.2419618409
C  C52  1  0.58480000  0.79753000  0.28450000  1.0 -0.0942596647
C  C53  1  0.67450000  0.77373000  0.24000000  1.0 -0.0359329939
C  C54  1  0.83710000  0.79645000  0.32610000  1.0 0.1120486383
C  C55  1  0.85380000  0.80827000  0.61010000  1.0 0.1120486383
C  C56  1  0.75710000  0.86960000  0.65190000  1.0 -0.1095155459
C  C57  1  0.83940000  0.84580000  0.70350000  1.0 -0.0255545791
C  C58  1  0.11360000  0.04848000  0.63260000  1.0 0.5480044824
C  C59  1  0.16570000  0.04528000  0.70990000  1.0 -0.0255545791
C  C60  1  0.18000000  0.08380000  0.75240000  1.0 -0.1095155459
C  C61  1  0.22080000  0.08039000  0.82490000  1.0 -0.1539048034
C  C62  1  0.24400000  0.03842000  0.85770000  1.0 0.0230575946
C  C63  1  0.23390000  0.99965000  0.81440000  1.0 -0.1602278802
C  C64  1  0.19730000  0.00319000  0.74130000  1.0 -0.1095155459
C  C65  1  0.27600000  0.03407000  0.93540000  1.0 0.1797733005
C  C66  1  0.23430000  0.99456000  0.96910000  1.0 -0.2419618409
C  C67  1  0.26180000  0.98968000  0.04020000  1.0 0.1015060168
C  C68  1  0.33710000  0.02423000  0.07910000  1.0 -0.2509173531
C  C69  1  0.38210000  0.06381000  0.04690000  1.0 0.1797733005
C  C70  1  0.47180000  0.09983000  0.08940000  1.0 0.0286504884
C  C71  1  0.45950000  0.10480000  0.16150000  1.0 -0.168353543
C  C72  1  0.55190000  0.13640000  0.20160000  1.0 -0.1095155459
C  C73  1  0.67660000  0.15800000  0.09850000  1.0 -0.0971556086
C  C74  1  0.58450000  0.12655000  0.05850000  1.0 -0.1602278802
C  C75  1  0.66280000  0.16257000  0.17010000  1.0 -0.0029999252
C  C76  1  0.77180000  0.19465000  0.21350000  1.0 0.5419277428
C  C77  1  0.22030000  0.94585000  0.07500000  1.0 0.0693226453
C  C78  1  0.29600000  0.93272000  0.13950000  1.0 -0.1762928891
C  C79  1  0.26190000  0.89034000  0.16950000  1.0 -0.1095155459
C  C80  1  0.15050000  0.86148000  0.13680000  1.0 -0.0199307514
C  C81  1  0.07360000  0.87447000  0.07300000  1.0 -0.1095155459
C  C82  1  0.10710000  0.91638000  0.04250000  1.0 -0.168353543
C  C83  1  0.31310000  0.54629000  0.98250000  1.0 0.1120486383
C  C84  1  0.26180000  0.50475000  0.88970000  1.0 -0.0533339794
C  C85  1  0.11180000  0.68320000  0.67050000  1.0 0.5419277428
C  C86  1  0.38940000  0.53052000  0.87650000  1.0 -0.1095155459
C  C87  1  0.52970000  0.59532000  0.94560000  1.0 0.2112809882
C  C88  1  0.60040000  0.60499000  0.01300000  1.0 -0.2702120583
C  C89  1  0.69470000  0.64384000  0.02260000  1.0 0.1997422498
C  C90  1  0.72290000  0.67191000  0.96570000  1.0 -0.2509173531
C  C91  1  0.65500000  0.66077000  0.89970000  1.0 0.2112809882
C  C92  1  0.55640000  0.62291000  0.88760000  1.0 -0.2419618409
C  C93  1  0.58480000  0.70247000  0.78450000  1.0 -0.0942596647
C  C94  1  0.67450000  0.72627000  0.74000000  1.0 -0.0359329939
C  C95  1  0.83710000  0.70355000  0.82610000  1.0 0.1120486383
C  C96  1  0.85380000  0.69173000  0.11010000  1.0 0.1120486383
C  C97  1  0.75710000  0.63040000  0.15190000  1.0 -0.1095155459
C  C98  1  0.83940000  0.65420000  0.20350000  1.0 -0.0255545791
C  C99  1  0.11360000  0.45152000  0.13260000  1.0 0.5480044824
C  C100  1  0.16570000  0.45472000  0.20990000  1.0 -0.0255545791
C  C101  1  0.18000000  0.41620000  0.25240000  1.0 -0.1095155459
C  C102  1  0.22080000  0.41961000  0.32490000  1.0 -0.1539048034
C  C103  1  0.24400000  0.46158000  0.35770000  1.0 0.0230575946
C  C104  1  0.23390000  0.50035000  0.31440000  1.0 -0.1602278802
C  C105  1  0.19730000  0.49681000  0.24130000  1.0 -0.1095155459
C  C106  1  0.27600000  0.46593000  0.43540000  1.0 0.1797733005
C  C107  1  0.23430000  0.50544000  0.46910000  1.0 -0.2419618409
C  C108  1  0.26180000  0.51032000  0.54020000  1.0 0.1015060168
C  C109  1  0.33710000  0.47577000  0.57910000  1.0 -0.2509173531
C  C110  1  0.38210000  0.43619000  0.54690000  1.0 0.1797733005
C  C111  1  0.47180000  0.40017000  0.58940000  1.0 0.0286504884
C  C112  1  0.45950000  0.39520000  0.66150000  1.0 -0.168353543
C  C113  1  0.55190000  0.36360000  0.70160000  1.0 -0.1095155459
C  C114  1  0.67660000  0.34200000  0.59850000  1.0 -0.0971556086
C  C115  1  0.58450000  0.37345000  0.55850000  1.0 -0.1602278802
C  C116  1  0.66280000  0.33743000  0.67010000  1.0 -0.0029999252
C  C117  1  0.77180000  0.30535000  0.71350000  1.0 0.5419277428
C  C118  1  0.22030000  0.55415000  0.57500000  1.0 0.0693226453
C  C119  1  0.29600000  0.56728000  0.63950000  1.0 -0.1762928891
C  C120  1  0.26190000  0.60966000  0.66950000  1.0 -0.1095155459
C  C121  1  0.15050000  0.63852000  0.63680000  1.0 -0.0199307514
C  C122  1  0.07360000  0.62553000  0.57300000  1.0 -0.1095155459
C  C123  1  0.10710000  0.58362000  0.54250000  1.0 -0.168353543
C  C124  1  0.68690000  0.04629000  0.51750000  1.0 0.1120486383
C  C125  1  0.73820000  0.00475000  0.61030000  1.0 -0.0533339794
C  C126  1  0.88820000  0.18320000  0.82950000  1.0 0.5419277428
C  C127  1  0.61060000  0.03052000  0.62350000  1.0 -0.1095155459
C  C128  1  0.47030000  0.09532000  0.55440000  1.0 0.2112809882
C  C129  1  0.39960000  0.10499000  0.48700000  1.0 -0.2702120583
C  C130  1  0.30530000  0.14384000  0.47740000  1.0 0.1997422498
C  C131  1  0.27710000  0.17191000  0.53430000  1.0 -0.2509173531
C  C132  1  0.34500000  0.16077000  0.60030000  1.0 0.2112809882
C  C133  1  0.44360000  0.12291000  0.61240000  1.0 -0.2419618409
C  C134  1  0.41520000  0.20247000  0.71550000  1.0 -0.0942596647
C  C135  1  0.32550000  0.22627000  0.76000000  1.0 -0.0359329939
C  C136  1  0.16290000  0.20355000  0.67390000  1.0 0.1120486383
C  C137  1  0.14620000  0.19173000  0.38990000  1.0 0.1120486383
C  C138  1  0.24290000  0.13040000  0.34810000  1.0 -0.1095155459
C  C139  1  0.16060000  0.15420000  0.29650000  1.0 -0.0255545791
C  C140  1  0.88640000  0.95152000  0.36740000  1.0 0.5480044824
C  C141  1  0.83430000  0.95472000  0.29010000  1.0 -0.0199307514
C  C142  1  0.82000000  0.91620000  0.24760000  1.0 -0.1095155459
C  C143  1  0.77920000  0.91961000  0.17510000  1.0 -0.1539048034
C  C144  1  0.75600000  0.96158000  0.14230000  1.0 0.0230575946
C  C145  1  0.76610000  0.00035000  0.18560000  1.0 -0.1602278802
C  C146  1  0.80270000  0.99681000  0.25870000  1.0 -0.1095155459
C  C147  1  0.72400000  0.96593000  0.06460000  1.0 0.1797733005
C  C148  1  0.76570000  0.00544000  0.03090000  1.0 -0.2419618409
C  C149  1  0.73820000  0.01032000  0.95980000  1.0 0.1015060168
C  C150  1  0.66290000  0.97577000  0.92090000  1.0 -0.2509173531
C  C151  1  0.61790000  0.93619000  0.95310000  1.0 0.1797733005
C  C152  1  0.52820000  0.90017000  0.91060000  1.0 0.0286504884
C  C153  1  0.54050000  0.89520000  0.83850000  1.0 -0.168353543
C  C154  1  0.44810000  0.86360000  0.79840000  1.0 -0.1095155459
C  C155  1  0.32340000  0.84200000  0.90150000  1.0 -0.0971556086
C  C156  1  0.41550000  0.87345000  0.94150000  1.0 -0.1602278802
C  C157  1  0.33720000  0.83743000  0.82990000  1.0 -0.0029999252
C  C158  1  0.22820000  0.80535000  0.78650000  1.0 0.5419277428
C  C159  1  0.77970000  0.05415000  0.92500000  1.0 0.0693226453
C  C160  1  0.70400000  0.06728000  0.86050000  1.0 -0.1762928891
C  C161  1  0.73810000  0.10966000  0.83050000  1.0 -0.1095155459
C  C162  1  0.84950000  0.13852000  0.86320000  1.0 -0.0147627139
C  C163  1  0.92640000  0.12553000  0.92700000  1.0 -0.1095155459
C  C164  1  0.89290000  0.08362000  0.95750000  1.0 -0.168353543
N  N1  1  0.78770000  0.48490000  0.04381000  1.0 -0.2903871316
N  N2  1  0.57670000  0.44263000  0.06363000  1.0 0.0073911517
N  N3  1  0.23650000  0.34555000  0.90860000  1.0 0.0073911517
N  N4  1  0.10110000  0.30705000  0.82245000  1.0 -0.2702120583
N  N5  1  0.31130000  0.31150000  0.16026000  1.0 -0.0029999252
N  N6  1  0.16660000  0.27391000  0.23427000  1.0 -0.2962114293
N  N7  1  0.64900000  0.56889000  0.52500000  1.0 -0.2776978168
N  N8  1  0.21230000  0.98490000  0.45619000  1.0 -0.2903871316
N  N9  1  0.42330000  0.94263000  0.43637000  1.0 0.0073911517
N  N10  1  0.76350000  0.84555000  0.59140000  1.0 0.0073911517
N  N11  1  0.89890000  0.80705000  0.67755000  1.0 -0.2702120583
N  N12  1  0.68870000  0.81150000  0.33974000  1.0 -0.0029999252
N  N13  1  0.83340000  0.77391000  0.26573000  1.0 -0.2962114293
N  N14  1  0.35100000  0.06889000  0.97500000  1.0 -0.2776978168
N  N15  1  0.21230000  0.51510000  0.95619000  1.0 -0.2903871316
N  N16  1  0.42330000  0.55737000  0.93637000  1.0 0.0073911517
N  N17  1  0.76350000  0.65445000  0.09140000  1.0 0.0073911517
N  N18  1  0.89890000  0.69295000  0.17755000  1.0 -0.2702120583
N  N19  1  0.68870000  0.68850000  0.83974000  1.0 -0.0029999252
N  N20  1  0.83340000  0.72609000  0.76573000  1.0 -0.2962114293
N  N21  1  0.35100000  0.43111000  0.47500000  1.0 -0.2776978168
N  N22  1  0.78770000  0.01510000  0.54381000  1.0 -0.2903871316
N  N23  1  0.57670000  0.05737000  0.56363000  1.0 0.0073911517
N  N24  1  0.23650000  0.15445000  0.40860000  1.0 0.0073911517
N  N25  1  0.10110000  0.19295000  0.32245000  1.0 -0.2702120583
N  N26  1  0.31130000  0.18850000  0.66026000  1.0 -0.0029999252
N  N27  1  0.16660000  0.22609000  0.73427000  1.0 -0.2962114293
N  N28  1  0.64900000  0.93111000  0.02500000  1.0 -0.2776978168
O  O1  1  0.93540000  0.58680000  0.89120000  1.0 -0.5747332949
O  O2  1  0.87830000  0.51212000  0.90300000  1.0 -0.5877775777
O  O3  1  0.11010000  0.71199000  0.31557000  1.0 -0.5405891317
O  O4  1  0.24860000  0.70312000  0.22259000  1.0 -0.530821659
O  O5  1  0.83800000  0.30746000  0.26565000  1.0 -0.5405891317
O  O6  1  0.97500000  0.28748000  0.36448000  1.0 -0.5478718955
O  O7  1  0.06460000  0.08680000  0.60880000  1.0 -0.5747332949
O  O8  1  0.12170000  0.01212000  0.59700000  1.0 -0.5877775777
O  O9  1  0.88990000  0.21199000  0.18443000  1.0 -0.5405891317
O  O10  1  0.75140000  0.20312000  0.27741000  1.0 -0.530821659
O  O11  1  0.16200000  0.80746000  0.23435000  1.0 -0.5405891317
O  O12  1  0.02500000  0.78748000  0.13552000  1.0 -0.5478718955
O  O13  1  0.06460000  0.41320000  0.10880000  1.0 -0.5747332949
O  O14  1  0.12170000  0.48788000  0.09700000  1.0 -0.5877775777
O  O15  1  0.88990000  0.28801000  0.68443000  1.0 -0.5405891317
O  O16  1  0.75140000  0.29688000  0.77741000  1.0 -0.530821659
O  O17  1  0.16200000  0.69254000  0.73435000  1.0 -0.5405891317
O  O18  1  0.02500000  0.71252000  0.63552000  1.0 -0.5478718955
O  O19  1  0.93540000  0.91320000  0.39120000  1.0 -0.5747332949
O  O20  1  0.87830000  0.98788000  0.40300000  1.0 -0.5877775777
O  O21  1  0.11010000  0.78801000  0.81557000  1.0 -0.5405891317
O  O22  1  0.24860000  0.79688000  0.72259000  1.0 -0.530821659
O  O23  1  0.83800000  0.19254000  0.76565000  1.0 -0.5405891317
O  O24  1  0.97500000  0.21252000  0.86448000  1.0 -0.5478718955
