# DDEC6 charges by PACMAN v1.1 (https://github.com/mtap-research/PACMAN-charge/)
data_NIJMOL_FSR_pacman
_symmetry_space_group_name_H-M   'P 1'
_cell_length_a   12.34880000
_cell_length_b   12.57540000
_cell_length_c   14.18960000
_cell_angle_alpha   106.01600000
_cell_angle_beta   103.86400000
_cell_angle_gamma   99.01800000
_symmetry_Int_Tables_number   1
_chemical_formula_structural   Li2CoH26C29N3O10
_chemical_formula_sum   'Li4 Co2 H52 C58 N6 O20'
_cell_volume   1996.78769170
_cell_formula_units_Z   2
loop_
 _symmetry_equiv_pos_site_id
 _symmetry_equiv_pos_as_xyz
  1  'x, y, z'
loop_
 _atom_site_type_symbol
 _atom_site_label
 _atom_site_symmetry_multiplicity
 _atom_site_fract_x
 _atom_site_fract_y
 _atom_site_fract_z
 _atom_site_occupancy
 _atom_site_charge
Li  Li1  1  0.78590000  0.67520000  0.78690000  1.0 0.7930720201
Li  Li2  1  0.56540000  0.95650000  0.93980000  1.0 0.8038908592
Li  Li3  1  0.21410000  0.32480000  0.21310000  1.0 0.7930720201
Li  Li4  1  0.43460000  0.04350000  0.06020000  1.0 0.8038908592
Co  Co1  1  0.57266000  0.69952000  0.85828000  1.0 0.9657094529
Co  Co2  1  0.42734000  0.30048000  0.14172000  1.0 0.9657094529
H  H1  1  0.46190000  0.61710000  0.08030000  1.0 0.1407250775
H  H2  1  0.28060000  0.67850000  0.28130000  1.0 0.1190619867
H  H3  1  0.36720000  0.91390000  0.15270000  1.0 0.1190619867
H  H4  1  0.18870000  0.66666667  0.42090000  1.0 0.1190619867
H  H5  1  0.38510000  0.98190000  0.49780000  1.0 0.1190619867
H  H6  1  0.48860000  0.96520000  0.64980000  1.0 0.1190619867
H  H7  1  0.30130000  0.64400000  0.56660000  1.0 0.1094276854
H  H8  1  0.10160000  0.78360000  0.11980000  1.0 0.1094276854
H  H9  1  0.09050000  0.11050000  0.22240000  1.0 0.1190619867
H  H10  1  0.91020000  0.06960000  0.10820000  1.0 0.1094276854
H  H11  1  0.92230000  0.74270000  0.00350000  1.0 0.1190619867
H  H12  1  0.97980000  0.65410000  0.69000000  1.0 0.0892452648
H  H13  1  0.13080000  0.75820000  0.94330000  1.0 0.1407250775
H  H14  1  0.25060000  0.78020000  0.92330000  1.0 0.1407250775
H  H15  1  0.19340000  0.65890000  0.92160000  1.0 0.1407250775
H  H16  1  0.15450000  0.69090000  0.66890000  1.0 0.1190619867
H  H17  1  0.22130000  0.61950000  0.72620000  1.0 0.147000817
H  H18  1  0.26170000  0.75280000  0.76560000  1.0 0.147000817
H  H19  1  0.29000000  0.01280000  0.23280000  1.0 0.1298354616
H  H20  1  0.23530000  0.04050000  0.32280000  1.0 0.1190619867
H  H21  1  0.14980000  0.76880000  0.30530000  1.0 0.1094276854
H  H22  1  0.15370000  0.89350000  0.36930000  1.0 0.1190619867
H  H23  1  0.75840000  0.60610000  0.56480000  1.0 0.1031155413
H  H24  1  0.59260000  0.78610000  0.53410000  1.0 0.1094276854
H  H25  1  0.53240000  0.70570000  0.42070000  1.0 0.1190619867
H  H26  1  0.65760000  0.78020000  0.45120000  1.0 0.1094276854
H  H27  1  0.53810000  0.38290000  0.91970000  1.0 0.1407250775
H  H28  1  0.71940000  0.32150000  0.71870000  1.0 0.1190619867
H  H29  1  0.63280000  0.08610000  0.84730000  1.0 0.1190619867
H  H30  1  0.81130000  0.33333333  0.57910000  1.0 0.1190619867
H  H31  1  0.61490000  0.01810000  0.50220000  1.0 0.1190619867
H  H32  1  0.51140000  0.03480000  0.35020000  1.0 0.1190619867
H  H33  1  0.69870000  0.35600000  0.43340000  1.0 0.1094276854
H  H34  1  0.89840000  0.21640000  0.88020000  1.0 0.1094276854
H  H35  1  0.90950000  0.88950000  0.77760000  1.0 0.1190619867
H  H36  1  0.08980000  0.93040000  0.89180000  1.0 0.1094276854
H  H37  1  0.07770000  0.25730000  0.99650000  1.0 0.1190619867
H  H38  1  0.02020000  0.34590000  0.31000000  1.0 0.0892452648
H  H39  1  0.86920000  0.24180000  0.05670000  1.0 0.1407250775
H  H40  1  0.74940000  0.21980000  0.07670000  1.0 0.1407250775
H  H41  1  0.80660000  0.34110000  0.07840000  1.0 0.1407250775
H  H42  1  0.84550000  0.30910000  0.33110000  1.0 0.1190619867
H  H43  1  0.77870000  0.38050000  0.27380000  1.0 0.147000817
H  H44  1  0.73830000  0.24720000  0.23440000  1.0 0.147000817
H  H45  1  0.71000000  0.98720000  0.76720000  1.0 0.1298354616
H  H46  1  0.76470000  0.95950000  0.67720000  1.0 0.1190619867
H  H47  1  0.85020000  0.23120000  0.69470000  1.0 0.1094276854
H  H48  1  0.84630000  0.10650000  0.63070000  1.0 0.1190619867
H  H49  1  0.24160000  0.39390000  0.43520000  1.0 0.1031155413
H  H50  1  0.40740000  0.21390000  0.46590000  1.0 0.1094276854
H  H51  1  0.46760000  0.29430000  0.57930000  1.0 0.1190619867
H  H52  1  0.34240000  0.21980000  0.54880000  1.0 0.1094276854
C  C1  1  0.47120000  0.80220000  0.02690000  1.0 0.6093614748
C  C2  1  0.42060000  0.76990000  0.10420000  1.0 -0.0182547882
C  C3  1  0.42400000  0.66450000  0.11610000  1.0 -0.131963546
C  C4  1  0.37040000  0.63070000  0.18200000  1.0 -0.0052550838
C  C5  1  0.31690000  0.70290000  0.23800000  1.0 -0.2157902369
C  C6  1  0.36810000  0.84320000  0.16100000  1.0 -0.2157902369
C  C7  1  0.31670000  0.81180000  0.23040000  1.0 0.1790170273
C  C8  1  0.27430000  0.82660000  0.44430000  1.0 0.1094276854
C  C9  1  0.24990000  0.72590000  0.46600000  1.0 -0.1589903483
C  C10  1  0.36620000  0.91520000  0.51300000  1.0 -0.1589903483
C  C11  1  0.42940000  0.90470000  0.60340000  1.0 -0.1003664347
C  C12  1  0.31610000  0.71300000  0.55450000  1.0 -0.1003664347
C  C13  1  0.11580000  0.95170000  0.18420000  1.0 0.1190619867
C  C14  1  0.06350000  0.84140000  0.11770000  1.0 -0.1539708922
C  C15  1  0.05670000  0.03610000  0.17900000  1.0 -0.1589903483
C  C16  1  0.36650000  0.51350000  0.19010000  1.0 0.5889476886
C  C17  1  0.77650000  0.87520000  0.97490000  1.0 0.6093614748
C  C18  1  0.89570000  0.90090000  0.04410000  1.0 -0.0374940397
C  C19  1  0.94830000  0.01170000  0.11030000  1.0 -0.0925690016
C  C20  1  0.95530000  0.81670000  0.04810000  1.0 -0.0925690016
C  C21  1  0.46990000  0.79220000  0.72300000  1.0 0.5754118314
C  C22  1  0.40420000  0.80300000  0.62490000  1.0 -0.0349797295
C  C23  1  0.01030000  0.67390000  0.76080000  1.0 0.262105619
C  C24  1  0.17900000  0.72560000  0.90530000  1.0 -0.3028140912
C  C25  1  0.19620000  0.68910000  0.73470000  1.0 -0.3178197989
C  C26  1  0.23360000  0.98150000  0.26130000  1.0 -0.1718249867
C  C27  1  0.20090000  0.84180000  0.34910000  1.0 -0.1762653912
C  C28  1  0.71270000  0.65770000  0.57550000  1.0 0.3172921887
C  C29  1  0.60430000  0.73710000  0.47410000  1.0 -0.1442708994
C  C30  1  0.52880000  0.19780000  0.97310000  1.0 0.6093614748
C  C31  1  0.57940000  0.23010000  0.89580000  1.0 -0.0182547882
C  C32  1  0.57600000  0.33550000  0.88390000  1.0 -0.131963546
C  C33  1  0.62960000  0.36930000  0.81800000  1.0 -0.0052550838
C  C34  1  0.68310000  0.29710000  0.76200000  1.0 -0.2157902369
C  C35  1  0.63190000  0.15680000  0.83900000  1.0 -0.2157902369
C  C36  1  0.68330000  0.18820000  0.76960000  1.0 0.1790170273
C  C37  1  0.72570000  0.17340000  0.55570000  1.0 0.1094276854
C  C38  1  0.75010000  0.27410000  0.53400000  1.0 -0.1589903483
C  C39  1  0.63380000  0.08480000  0.48700000  1.0 -0.1589903483
C  C40  1  0.57060000  0.09530000  0.39660000  1.0 -0.1003664347
C  C41  1  0.68390000  0.28700000  0.44550000  1.0 -0.1003664347
C  C42  1  0.88420000  0.04830000  0.81580000  1.0 0.1190619867
C  C43  1  0.93650000  0.15860000  0.88230000  1.0 -0.1539708922
C  C44  1  0.94330000  0.96390000  0.82100000  1.0 -0.1589903483
C  C45  1  0.63350000  0.48650000  0.80990000  1.0 0.5889476886
C  C46  1  0.22350000  0.12480000  0.02510000  1.0 0.6093614748
C  C47  1  0.10430000  0.09910000  0.95590000  1.0 -0.0374940397
C  C48  1  0.05170000  0.98830000  0.88970000  1.0 -0.0925690016
C  C49  1  0.04470000  0.18330000  0.95190000  1.0 -0.0925690016
C  C50  1  0.53010000  0.20780000  0.27700000  1.0 0.5754118314
C  C51  1  0.59580000  0.19700000  0.37510000  1.0 -0.0349797295
C  C52  1  0.98970000  0.32610000  0.23920000  1.0 0.262105619
C  C53  1  0.82100000  0.27440000  0.09470000  1.0 -0.3028140912
C  C54  1  0.80380000  0.31090000  0.26530000  1.0 -0.3178197989
C  C55  1  0.76640000  0.01850000  0.73870000  1.0 -0.1718249867
C  C56  1  0.79910000  0.15820000  0.65090000  1.0 -0.1762653912
C  C57  1  0.28730000  0.34230000  0.42450000  1.0 0.3172921887
C  C58  1  0.39570000  0.26290000  0.52590000  1.0 -0.1442708994
N  N1  1  0.26730000  0.88590000  0.29040000  1.0 -0.1190232435
N  N2  1  0.12360000  0.69530000  0.79900000  1.0 0.0383064946
N  N3  1  0.64420000  0.65730000  0.49580000  1.0 -0.2711685548
N  N4  1  0.73270000  0.11410000  0.70960000  1.0 -0.1190232435
N  N5  1  0.87640000  0.30470000  0.20100000  1.0 0.0383064946
N  N6  1  0.35580000  0.34270000  0.50420000  1.0 -0.2711685548
O  O1  1  0.73841000  0.77455000  0.90582000  1.0 -0.6763295481
O  O2  1  0.71920000  0.94690000  0.98824000  1.0 -0.6150206575
O  O3  1  0.94400000  0.67820000  0.81080000  1.0 -0.4920931408
O  O4  1  0.43090000  0.45973000  0.15039000  1.0 -0.5440266976
O  O5  1  0.29820000  0.47400000  0.23100000  1.0 -0.6602942297
O  O6  1  0.51020000  0.72711000  0.97562000  1.0 -0.565890635
O  O7  1  0.47091000  0.89798000  0.01594000  1.0 -0.7066998133
O  O8  1  0.73110000  0.71230000  0.66390000  1.0 -0.4780698666
O  O9  1  0.47130000  0.69220000  0.72602000  1.0 -0.5535544405
O  O10  1  0.51970000  0.87960000  0.79765000  1.0 -0.6448055157
O  O11  1  0.26159000  0.22545000  0.09418000  1.0 -0.6763295481
O  O12  1  0.28080000  0.05310000  0.01176000  1.0 -0.6150206575
O  O13  1  0.05600000  0.32180000  0.18920000  1.0 -0.4920931408
O  O14  1  0.56910000  0.54027000  0.84961000  1.0 -0.5440266976
O  O15  1  0.70180000  0.52600000  0.76900000  1.0 -0.6602942297
O  O16  1  0.48980000  0.27289000  0.02438000  1.0 -0.565890635
O  O17  1  0.52909000  0.10202000  0.98406000  1.0 -0.7066998133
O  O18  1  0.26890000  0.28770000  0.33610000  1.0 -0.4780698666
O  O19  1  0.52870000  0.30780000  0.27398000  1.0 -0.5535544405
O  O20  1  0.48030000  0.12040000  0.20235000  1.0 -0.6448055157
