# DDEC6 charges by PACMAN v1.1 (https://github.com/mtap-research/PACMAN-charge/)
data_NIJZIP_ASR_pacman
_symmetry_space_group_name_H-M   'P 1'
_cell_length_a   15.09100000
_cell_length_b   15.09100000
_cell_length_c   14.71000000
_cell_angle_alpha   90.00000000
_cell_angle_beta   90.00000000
_cell_angle_gamma   120.00000000
_symmetry_Int_Tables_number   1
_chemical_formula_structural   NdCu(C4O5)2
_chemical_formula_sum   'Nd6 Cu6 C48 O60'
_cell_volume   2901.21118174
_cell_formula_units_Z   6
loop_
 _symmetry_equiv_pos_site_id
 _symmetry_equiv_pos_as_xyz
  1  'x, y, z'
loop_
 _atom_site_type_symbol
 _atom_site_label
 _atom_site_symmetry_multiplicity
 _atom_site_fract_x
 _atom_site_fract_y
 _atom_site_fract_z
 _atom_site_occupancy
 _atom_site_charge
Nd  Nd1  1  0.33400000  0.66700000  0.00000000  1.0 1.9728748483
Nd  Nd2  1  0.66700000  0.33400000  0.00000000  1.0 2.0691693706
Nd  Nd3  1  0.66600000  0.33300000  0.00000000  1.0 2.0691693706
Nd  Nd4  1  0.66600000  0.33300000  0.50000000  1.0 2.0691693706
Nd  Nd5  1  0.33300000  0.66600000  0.50000000  1.0 1.9728748483
Nd  Nd6  1  0.66700000  0.33400000  0.50000000  1.0 2.0691693706
Cu  Cu1  1  0.00000000  0.50000000  0.25000000  1.0 0.9410260899
Cu  Cu2  1  0.50000000  0.00000000  0.25000000  1.0 0.9410260899
Cu  Cu3  1  0.00000000  0.50000000  0.75000000  1.0 0.9410260899
Cu  Cu4  1  0.50000000  0.50000000  0.25000000  1.0 0.9410260899
Cu  Cu5  1  0.50000000  0.00000000  0.75000000  1.0 0.9410260899
Cu  Cu6  1  0.50000000  0.50000000  0.75000000  1.0 0.9410260899
C  C1  1  0.14440000  0.41300000  0.04900000  1.0 0.0390444455
C  C2  1  0.73140000  0.14440000  0.04900000  1.0 0.0195446541
C  C3  1  0.14440000  0.73140000  0.95100000  1.0 0.0390444455
C  C4  1  0.58700000  0.73140000  0.04900000  1.0 0.0390444455
C  C5  1  0.41300000  0.14440000  0.95100000  1.0 0.0195446541
C  C6  1  0.85560000  0.58700000  0.04900000  1.0 0.0195446541
C  C7  1  0.26860000  0.41300000  0.95100000  1.0 0.0390444455
C  C8  1  0.26860000  0.85560000  0.04900000  1.0 0.0390444455
C  C9  1  0.85560000  0.26860000  0.95100000  1.0 0.0195446541
C  C10  1  0.41300000  0.26860000  0.04900000  1.0 0.0195446541
C  C11  1  0.58700000  0.85560000  0.95100000  1.0 0.0390444455
C  C12  1  0.73140000  0.58700000  0.95100000  1.0 0.0195446541
C  C13  1  0.85560000  0.58700000  0.45100000  1.0 0.0195446541
C  C14  1  0.26860000  0.85560000  0.45100000  1.0 0.0390444455
C  C15  1  0.85560000  0.26860000  0.54900000  1.0 0.0195446541
C  C16  1  0.41300000  0.26860000  0.45100000  1.0 0.0195446541
C  C17  1  0.58700000  0.85560000  0.54900000  1.0 0.0390444455
C  C18  1  0.14440000  0.41300000  0.45100000  1.0 0.0390444455
C  C19  1  0.73140000  0.58700000  0.54900000  1.0 0.0195446541
C  C20  1  0.73140000  0.14440000  0.45100000  1.0 0.0195446541
C  C21  1  0.14440000  0.73140000  0.54900000  1.0 0.0390444455
C  C22  1  0.58700000  0.73140000  0.45100000  1.0 0.0390444455
C  C23  1  0.41300000  0.14440000  0.54900000  1.0 0.0195446541
C  C24  1  0.26860000  0.41300000  0.54900000  1.0 0.0390444455
C  C25  1  0.12830000  0.48520000  0.10940000  1.0 0.5871111088
C  C26  1  0.64310000  0.12830000  0.10940000  1.0 0.5989250126
C  C27  1  0.12830000  0.64310000  0.89060000  1.0 0.5871111088
C  C28  1  0.51480000  0.64310000  0.10940000  1.0 0.5871111088
C  C29  1  0.48520000  0.12830000  0.89060000  1.0 0.5989250126
C  C30  1  0.87170000  0.51480000  0.10940000  1.0 0.5989250126
C  C31  1  0.35690000  0.48520000  0.89060000  1.0 0.5871111088
C  C32  1  0.35690000  0.87170000  0.10940000  1.0 0.5871111088
C  C33  1  0.87170000  0.35690000  0.89060000  1.0 0.5989250126
C  C34  1  0.48520000  0.35690000  0.10940000  1.0 0.5989250126
C  C35  1  0.51480000  0.87170000  0.89060000  1.0 0.5871111088
C  C36  1  0.64310000  0.51480000  0.89060000  1.0 0.5989250126
C  C37  1  0.87170000  0.51480000  0.39060000  1.0 0.5989250126
C  C38  1  0.35690000  0.87170000  0.39060000  1.0 0.5871111088
C  C39  1  0.87170000  0.35690000  0.60940000  1.0 0.5989250126
C  C40  1  0.48520000  0.35690000  0.39060000  1.0 0.5989250126
C  C41  1  0.51480000  0.87170000  0.60940000  1.0 0.5871111088
C  C42  1  0.12830000  0.48520000  0.39060000  1.0 0.5871111088
C  C43  1  0.64310000  0.51480000  0.60940000  1.0 0.5989250126
C  C44  1  0.64310000  0.12830000  0.39060000  1.0 0.5989250126
C  C45  1  0.12830000  0.64310000  0.60940000  1.0 0.5871111088
C  C46  1  0.51480000  0.64310000  0.39060000  1.0 0.5871111088
C  C47  1  0.48520000  0.12830000  0.60940000  1.0 0.5989250126
C  C48  1  0.35690000  0.48520000  0.60940000  1.0 0.5871111088
O  O1  1  0.23680000  0.47380000  0.00000000  1.0 -0.2298727351
O  O2  1  0.76310000  0.23690000  0.00000000  1.0 -0.527079127
O  O3  1  0.23690000  0.76310000  0.00000000  1.0 -0.2298727351
O  O4  1  0.52620000  0.76320000  0.00000000  1.0 -0.2298727351
O  O5  1  0.47380000  0.23680000  0.00000000  1.0 -0.527079127
O  O6  1  0.76320000  0.52620000  0.00000000  1.0 -0.527079127
O  O7  1  0.76320000  0.52620000  0.50000000  1.0 -0.527079127
O  O8  1  0.23690000  0.76310000  0.50000000  1.0 -0.2298727351
O  O9  1  0.76310000  0.23690000  0.50000000  1.0 -0.527079127
O  O10  1  0.47380000  0.23680000  0.50000000  1.0 -0.527079127
O  O11  1  0.52620000  0.76320000  0.50000000  1.0 -0.2298727351
O  O12  1  0.23680000  0.47380000  0.50000000  1.0 -0.2298727351
O  O13  1  0.19360000  0.57850000  0.10920000  1.0 -0.6203041889
O  O14  1  0.61510000  0.19360000  0.10920000  1.0 -0.7539167123
O  O15  1  0.19360000  0.61510000  0.89080000  1.0 -0.6203041889
O  O16  1  0.42150000  0.61510000  0.10920000  1.0 -0.6203041889
O  O17  1  0.57850000  0.19360000  0.89080000  1.0 -0.7539167123
O  O18  1  0.80640000  0.42150000  0.10920000  1.0 -0.7539167123
O  O19  1  0.38490000  0.57850000  0.89080000  1.0 -0.6203041889
O  O20  1  0.38490000  0.80640000  0.10920000  1.0 -0.6203041889
O  O21  1  0.80640000  0.38490000  0.89080000  1.0 -0.7539167123
O  O22  1  0.57850000  0.38490000  0.10920000  1.0 -0.7553779798
O  O23  1  0.42150000  0.80640000  0.89080000  1.0 -0.6203041889
O  O24  1  0.61510000  0.42150000  0.89080000  1.0 -0.7553779798
O  O25  1  0.80640000  0.42150000  0.39080000  1.0 -0.7553779798
O  O26  1  0.38490000  0.80640000  0.39080000  1.0 -0.6203041889
O  O27  1  0.80640000  0.38490000  0.60920000  1.0 -0.7539167123
O  O28  1  0.57850000  0.38490000  0.39080000  1.0 -0.7553779798
O  O29  1  0.42150000  0.80640000  0.60920000  1.0 -0.6203041889
O  O30  1  0.19360000  0.57850000  0.39080000  1.0 -0.6203041889
O  O31  1  0.61510000  0.42150000  0.60920000  1.0 -0.7553779798
O  O32  1  0.61510000  0.19360000  0.39080000  1.0 -0.7539167123
O  O33  1  0.19360000  0.61510000  0.60920000  1.0 -0.6203041889
O  O34  1  0.42150000  0.61510000  0.39080000  1.0 -0.6203041889
O  O35  1  0.57850000  0.19360000  0.60920000  1.0 -0.7539167123
O  O36  1  0.38490000  0.57850000  0.60920000  1.0 -0.6203041889
O  O37  1  0.04970000  0.44320000  0.15750000  1.0 -0.5062200295
O  O38  1  0.60650000  0.04970000  0.15750000  1.0 -0.4741481411
O  O39  1  0.04970000  0.60650000  0.84250000  1.0 -0.5062200295
O  O40  1  0.55680000  0.60650000  0.15750000  1.0 -0.5062200295
O  O41  1  0.44320000  0.04970000  0.84250000  1.0 -0.4741481411
O  O42  1  0.95030000  0.55680000  0.15750000  1.0 -0.4741481411
O  O43  1  0.39350000  0.44320000  0.84250000  1.0 -0.5062200295
O  O44  1  0.39350000  0.95030000  0.15750000  1.0 -0.5062200295
O  O45  1  0.95030000  0.39350000  0.84250000  1.0 -0.4741481411
O  O46  1  0.44320000  0.39350000  0.15750000  1.0 -0.4741481411
O  O47  1  0.55680000  0.95030000  0.84250000  1.0 -0.5062200295
O  O48  1  0.60650000  0.55680000  0.84250000  1.0 -0.4741481411
O  O49  1  0.95030000  0.55680000  0.34250000  1.0 -0.4741481411
O  O50  1  0.39350000  0.95030000  0.34250000  1.0 -0.5062200295
O  O51  1  0.95030000  0.39350000  0.65750000  1.0 -0.4741481411
O  O52  1  0.44320000  0.39350000  0.34250000  1.0 -0.4741481411
O  O53  1  0.55680000  0.95030000  0.65750000  1.0 -0.5062200295
O  O54  1  0.04970000  0.44320000  0.34250000  1.0 -0.5062200295
O  O55  1  0.60650000  0.55680000  0.65750000  1.0 -0.4741481411
O  O56  1  0.60650000  0.04970000  0.34250000  1.0 -0.4741481411
O  O57  1  0.04970000  0.60650000  0.65750000  1.0 -0.5062200295
O  O58  1  0.55680000  0.60650000  0.34250000  1.0 -0.5062200295
O  O59  1  0.44320000  0.04970000  0.65750000  1.0 -0.4741481411
O  O60  1  0.39350000  0.44320000  0.65750000  1.0 -0.5062200295
