# DDEC6 charges by PACMAN v1.1 (https://github.com/mtap-research/PACMAN-charge/)
data_NIJZIP01_FSR_pacman
_symmetry_space_group_name_H-M   'P 1'
_cell_length_a   15.06450000
_cell_length_b   15.06450000
_cell_length_c   14.75100000
_cell_angle_alpha   90.00000000
_cell_angle_beta   90.00000000
_cell_angle_gamma   120.00000000
_symmetry_Int_Tables_number   1
_chemical_formula_structural   Nd2Cu3H24(C4O5)6
_chemical_formula_sum   'Nd4 Cu6 H48 C48 O60'
_cell_volume   2899.08893396
_cell_formula_units_Z   2
loop_
 _symmetry_equiv_pos_site_id
 _symmetry_equiv_pos_as_xyz
  1  'x, y, z'
loop_
 _atom_site_type_symbol
 _atom_site_label
 _atom_site_symmetry_multiplicity
 _atom_site_fract_x
 _atom_site_fract_y
 _atom_site_fract_z
 _atom_site_occupancy
 _atom_site_charge
Nd  Nd1  1  0.66666667  0.33333333  0.75000000  1.0 1.9479916586
Nd  Nd2  1  0.33333333  0.66666667  0.75000000  1.0 1.9479916586
Nd  Nd3  1  0.66666667  0.33333333  0.25000000  1.0 1.9479916586
Nd  Nd4  1  0.33333333  0.66666667  0.25000000  1.0 1.9479916586
Cu  Cu1  1  0.50000000  0.00000000  0.00000000  1.0 0.9085398608
Cu  Cu2  1  0.00000000  0.50000000  0.00000000  1.0 0.9085398608
Cu  Cu3  1  0.50000000  0.50000000  0.00000000  1.0 0.9085398608
Cu  Cu4  1  0.50000000  0.00000000  0.50000000  1.0 0.9085398608
Cu  Cu5  1  0.50000000  0.50000000  0.50000000  1.0 0.9085398608
Cu  Cu6  1  0.00000000  0.50000000  0.50000000  1.0 0.9085398608
H  H1  1  0.21180000  0.36440000  0.16270000  1.0 0.1374324373
H  H2  1  0.63560000  0.84740000  0.16270000  1.0 0.1374324373
H  H3  1  0.15260000  0.78820000  0.16270000  1.0 0.1374324373
H  H4  1  0.36440000  0.15260000  0.16270000  1.0 0.1374324373
H  H5  1  0.84740000  0.21180000  0.16270000  1.0 0.1374324373
H  H6  1  0.15260000  0.36440000  0.66270000  1.0 0.1374324373
H  H7  1  0.21180000  0.84740000  0.66270000  1.0 0.1374324373
H  H8  1  0.36440000  0.21180000  0.66270000  1.0 0.1374324373
H  H9  1  0.84740000  0.63560000  0.66270000  1.0 0.1374324373
H  H10  1  0.78820000  0.15260000  0.66270000  1.0 0.1374324373
H  H11  1  0.21180000  0.36440000  0.83730000  1.0 0.1374324373
H  H12  1  0.36440000  0.21180000  0.33730000  1.0 0.1374324373
H  H13  1  0.78820000  0.63560000  0.83730000  1.0 0.1374324373
H  H14  1  0.36440000  0.15260000  0.83730000  1.0 0.1374324373
H  H15  1  0.84740000  0.21180000  0.83730000  1.0 0.1374324373
H  H16  1  0.63560000  0.84740000  0.83730000  1.0 0.1374324373
H  H17  1  0.15260000  0.78820000  0.83730000  1.0 0.1374324373
H  H18  1  0.84740000  0.63560000  0.33730000  1.0 0.1374324373
H  H19  1  0.78820000  0.15260000  0.33730000  1.0 0.1374324373
H  H20  1  0.63560000  0.78820000  0.33730000  1.0 0.1374324373
H  H21  1  0.15260000  0.36440000  0.33730000  1.0 0.1374324373
H  H22  1  0.21180000  0.84740000  0.33730000  1.0 0.1374324373
H  H23  1  0.78820000  0.63560000  0.16270000  1.0 0.1374324373
H  H24  1  0.63560000  0.78820000  0.66270000  1.0 0.1374324373
H  H25  1  0.28900000  0.37730000  0.24030000  1.0 0.1243078348
H  H26  1  0.62270000  0.91170000  0.24030000  1.0 0.1243078348
H  H27  1  0.08830000  0.71100000  0.24030000  1.0 0.1243078348
H  H28  1  0.37730000  0.08830000  0.24030000  1.0 0.1243078348
H  H29  1  0.91170000  0.28900000  0.24030000  1.0 0.1243078348
H  H30  1  0.08830000  0.37730000  0.74030000  1.0 0.1243078348
H  H31  1  0.28900000  0.91170000  0.74030000  1.0 0.1243078348
H  H32  1  0.37730000  0.28900000  0.74030000  1.0 0.1243078348
H  H33  1  0.91170000  0.62270000  0.74030000  1.0 0.1243078348
H  H34  1  0.71100000  0.08830000  0.74030000  1.0 0.1243078348
H  H35  1  0.28900000  0.37730000  0.75970000  1.0 0.1243078348
H  H36  1  0.37730000  0.28900000  0.25970000  1.0 0.1243078348
H  H37  1  0.71100000  0.62270000  0.75970000  1.0 0.1243078348
H  H38  1  0.37730000  0.08830000  0.75970000  1.0 0.1243078348
H  H39  1  0.91170000  0.28900000  0.75970000  1.0 0.1243078348
H  H40  1  0.62270000  0.91170000  0.75970000  1.0 0.1243078348
H  H41  1  0.08830000  0.71100000  0.75970000  1.0 0.1243078348
H  H42  1  0.91170000  0.62270000  0.25970000  1.0 0.1243078348
H  H43  1  0.71100000  0.08830000  0.25970000  1.0 0.1243078348
H  H44  1  0.62270000  0.71100000  0.25970000  1.0 0.1243078348
H  H45  1  0.08830000  0.37730000  0.25970000  1.0 0.1243078348
H  H46  1  0.28900000  0.91170000  0.25970000  1.0 0.1243078348
H  H47  1  0.71100000  0.62270000  0.24030000  1.0 0.1243078348
H  H48  1  0.62270000  0.71100000  0.74030000  1.0 0.1243078348
C  C1  1  0.87220000  0.51580000  0.63990000  1.0 0.6321543622
C  C2  1  0.48420000  0.35640000  0.63990000  1.0 0.6321543622
C  C3  1  0.64360000  0.12780000  0.63990000  1.0 0.6321543622
C  C4  1  0.51580000  0.64360000  0.63990000  1.0 0.6321543622
C  C5  1  0.35640000  0.87220000  0.63990000  1.0 0.6321543622
C  C6  1  0.64360000  0.51580000  0.13990000  1.0 0.6321543622
C  C7  1  0.87220000  0.35640000  0.13990000  1.0 0.6321543622
C  C8  1  0.51580000  0.87220000  0.13990000  1.0 0.6321543622
C  C9  1  0.35640000  0.48420000  0.13990000  1.0 0.6321543622
C  C10  1  0.12780000  0.64360000  0.13990000  1.0 0.6321543622
C  C11  1  0.87220000  0.51580000  0.36010000  1.0 0.6321543622
C  C12  1  0.51580000  0.87220000  0.86010000  1.0 0.6321543622
C  C13  1  0.12780000  0.48420000  0.36010000  1.0 0.6321543622
C  C14  1  0.51580000  0.64360000  0.36010000  1.0 0.6321543622
C  C15  1  0.35640000  0.87220000  0.36010000  1.0 0.6321543622
C  C16  1  0.48420000  0.35640000  0.36010000  1.0 0.6321543622
C  C17  1  0.64360000  0.12780000  0.36010000  1.0 0.6321543622
C  C18  1  0.35640000  0.48420000  0.86010000  1.0 0.6321543622
C  C19  1  0.12780000  0.64360000  0.86010000  1.0 0.6321543622
C  C20  1  0.48420000  0.12780000  0.86010000  1.0 0.6321543622
C  C21  1  0.64360000  0.51580000  0.86010000  1.0 0.6321543622
C  C22  1  0.87220000  0.35640000  0.86010000  1.0 0.6321543622
C  C23  1  0.12780000  0.48420000  0.63990000  1.0 0.6321543622
C  C24  1  0.48420000  0.12780000  0.13990000  1.0 0.6321543622
C  C25  1  0.14600000  0.41410000  0.30040000  1.0 -0.1691030308
C  C26  1  0.58590000  0.73190000  0.30040000  1.0 -0.1691030308
C  C27  1  0.26810000  0.85400000  0.30040000  1.0 -0.1691030308
C  C28  1  0.41410000  0.26810000  0.30040000  1.0 -0.1691030308
C  C29  1  0.73190000  0.14600000  0.30040000  1.0 -0.1691030308
C  C30  1  0.26810000  0.41410000  0.80040000  1.0 -0.1691030308
C  C31  1  0.14600000  0.73190000  0.80040000  1.0 -0.1691030308
C  C32  1  0.41410000  0.14600000  0.80040000  1.0 -0.1691030308
C  C33  1  0.73190000  0.58590000  0.80040000  1.0 -0.1691030308
C  C34  1  0.85400000  0.26810000  0.80040000  1.0 -0.1691030308
C  C35  1  0.14600000  0.41410000  0.69960000  1.0 -0.1691030308
C  C36  1  0.41410000  0.14600000  0.19960000  1.0 -0.1691030308
C  C37  1  0.85400000  0.58590000  0.69960000  1.0 -0.1691030308
C  C38  1  0.41410000  0.26810000  0.69960000  1.0 -0.1691030308
C  C39  1  0.73190000  0.14600000  0.69960000  1.0 -0.1691030308
C  C40  1  0.58590000  0.73190000  0.69960000  1.0 -0.1691030308
C  C41  1  0.26810000  0.85400000  0.69960000  1.0 -0.1691030308
C  C42  1  0.73190000  0.58590000  0.19960000  1.0 -0.1691030308
C  C43  1  0.85400000  0.26810000  0.19960000  1.0 -0.1691030308
C  C44  1  0.58590000  0.85400000  0.19960000  1.0 -0.1691030308
C  C45  1  0.26810000  0.41410000  0.19960000  1.0 -0.1691030308
C  C46  1  0.14600000  0.73190000  0.19960000  1.0 -0.1691030308
C  C47  1  0.85400000  0.58590000  0.30040000  1.0 -0.1691030308
C  C48  1  0.58590000  0.85400000  0.80040000  1.0 -0.1691030308
O  O1  1  0.80750000  0.42190000  0.64110000  1.0 -0.6215950952
O  O2  1  0.57810000  0.38560000  0.64110000  1.0 -0.6215950952
O  O3  1  0.61440000  0.19250000  0.64110000  1.0 -0.6215950952
O  O4  1  0.42190000  0.61440000  0.64110000  1.0 -0.6215950952
O  O5  1  0.38560000  0.80750000  0.64110000  1.0 -0.6215950952
O  O6  1  0.61440000  0.42190000  0.14110000  1.0 -0.6215950952
O  O7  1  0.80750000  0.38560000  0.14110000  1.0 -0.6215950952
O  O8  1  0.42190000  0.80750000  0.14110000  1.0 -0.6215950952
O  O9  1  0.38560000  0.57810000  0.14110000  1.0 -0.6215950952
O  O10  1  0.19250000  0.61440000  0.14110000  1.0 -0.6215950952
O  O11  1  0.80750000  0.42190000  0.35890000  1.0 -0.6215950952
O  O12  1  0.42190000  0.80750000  0.85890000  1.0 -0.6215950952
O  O13  1  0.19250000  0.57810000  0.35890000  1.0 -0.6215950952
O  O14  1  0.42190000  0.61440000  0.35890000  1.0 -0.6215950952
O  O15  1  0.38560000  0.80750000  0.35890000  1.0 -0.6215950952
O  O16  1  0.57810000  0.38560000  0.35890000  1.0 -0.6215950952
O  O17  1  0.61440000  0.19250000  0.35890000  1.0 -0.6215950952
O  O18  1  0.38560000  0.57810000  0.85890000  1.0 -0.6215950952
O  O19  1  0.19250000  0.61440000  0.85890000  1.0 -0.6215950952
O  O20  1  0.57810000  0.19250000  0.85890000  1.0 -0.6215950952
O  O21  1  0.61440000  0.42190000  0.85890000  1.0 -0.6215950952
O  O22  1  0.80750000  0.38560000  0.85890000  1.0 -0.6215950952
O  O23  1  0.19250000  0.57810000  0.64110000  1.0 -0.6215950952
O  O24  1  0.57810000  0.19250000  0.14110000  1.0 -0.6215950952
O  O25  1  0.95100000  0.55810000  0.59240000  1.0 -0.5441896127
O  O26  1  0.44190000  0.39290000  0.59240000  1.0 -0.5441896127
O  O27  1  0.60710000  0.04900000  0.59240000  1.0 -0.5441896127
O  O28  1  0.55810000  0.60710000  0.59240000  1.0 -0.5441896127
O  O29  1  0.39290000  0.95100000  0.59240000  1.0 -0.5441896127
O  O30  1  0.60710000  0.55810000  0.09240000  1.0 -0.5441896127
O  O31  1  0.95100000  0.39290000  0.09240000  1.0 -0.5441896127
O  O32  1  0.55810000  0.95100000  0.09240000  1.0 -0.5441896127
O  O33  1  0.39290000  0.44190000  0.09240000  1.0 -0.5441896127
O  O34  1  0.04900000  0.60710000  0.09240000  1.0 -0.5441896127
O  O35  1  0.95100000  0.55810000  0.40760000  1.0 -0.5441896127
O  O36  1  0.55810000  0.95100000  0.90760000  1.0 -0.5441896127
O  O37  1  0.04900000  0.44190000  0.40760000  1.0 -0.5441896127
O  O38  1  0.55810000  0.60710000  0.40760000  1.0 -0.5441896127
O  O39  1  0.39290000  0.95100000  0.40760000  1.0 -0.5441896127
O  O40  1  0.44190000  0.39290000  0.40760000  1.0 -0.5441896127
O  O41  1  0.60710000  0.04900000  0.40760000  1.0 -0.5441896127
O  O42  1  0.39290000  0.44190000  0.90760000  1.0 -0.5441896127
O  O43  1  0.04900000  0.60710000  0.90760000  1.0 -0.5441896127
O  O44  1  0.44190000  0.04900000  0.90760000  1.0 -0.5441896127
O  O45  1  0.60710000  0.55810000  0.90760000  1.0 -0.5441896127
O  O46  1  0.95100000  0.39290000  0.90760000  1.0 -0.5441896127
O  O47  1  0.04900000  0.44190000  0.59240000  1.0 -0.5441896127
O  O48  1  0.44190000  0.04900000  0.09240000  1.0 -0.5441896127
O  O49  1  0.23625000  0.47250000  0.25000000  1.0 -0.2216142745
O  O50  1  0.52750000  0.76375000  0.25000000  1.0 -0.2216142745
O  O51  1  0.23625000  0.76375000  0.25000000  1.0 -0.2216142745
O  O52  1  0.47250000  0.23625000  0.25000000  1.0 -0.2216142745
O  O53  1  0.76375000  0.23625000  0.25000000  1.0 -0.2216142745
O  O54  1  0.23625000  0.47250000  0.75000000  1.0 -0.2216142745
O  O55  1  0.23625000  0.76375000  0.75000000  1.0 -0.2216142745
O  O56  1  0.47250000  0.23625000  0.75000000  1.0 -0.2216142745
O  O57  1  0.76375000  0.52750000  0.75000000  1.0 -0.2216142745
O  O58  1  0.76375000  0.23625000  0.75000000  1.0 -0.2216142745
O  O59  1  0.52750000  0.76375000  0.75000000  1.0 -0.2216142745
O  O60  1  0.76375000  0.52750000  0.25000000  1.0 -0.2216142745
