# DDEC6 charges by PACMAN v1.1 (https://github.com/mtap-research/PACMAN-charge/)
data_NIKCOB_FSR_pacman
_symmetry_space_group_name_H-M   'P 1'
_cell_length_a   14.20580000
_cell_length_b   14.20580000
_cell_length_c   12.51400000
_cell_angle_alpha   74.90900000
_cell_angle_beta   105.09100000
_cell_angle_gamma   67.94390000
_symmetry_Int_Tables_number   1
_chemical_formula_structural   CaH12C16S2N2O11
_chemical_formula_sum   'Ca4 H48 C64 S8 N8 O44'
_cell_volume   2070.99162514
_cell_formula_units_Z   4
loop_
 _symmetry_equiv_pos_site_id
 _symmetry_equiv_pos_as_xyz
  1  'x, y, z'
loop_
 _atom_site_type_symbol
 _atom_site_label
 _atom_site_symmetry_multiplicity
 _atom_site_fract_x
 _atom_site_fract_y
 _atom_site_fract_z
 _atom_site_occupancy
 _atom_site_charge
Ca  Ca1  1  0.07885000  0.91267000  0.42633000  1.0 1.3630877747
Ca  Ca2  1  0.91267000  0.07885000  0.07367000  1.0 1.3630877747
Ca  Ca3  1  0.92115000  0.08733000  0.57367000  1.0 1.3630877747
Ca  Ca4  1  0.08733000  0.92115000  0.92633000  1.0 1.3630877747
H  H1  1  0.36850000  0.51110000  0.79930000  1.0 0.1024254649
H  H2  1  0.51110000  0.36850000  0.70070000  1.0 0.1024254649
H  H3  1  0.63150000  0.48890000  0.20070000  1.0 0.1024254649
H  H4  1  0.48890000  0.63150000  0.29930000  1.0 0.1024254649
H  H5  1  0.25960000  0.41840000  0.05510000  1.0 0.1090885135
H  H6  1  0.41840000  0.25960000  0.44490000  1.0 0.1090885135
H  H7  1  0.74040000  0.58160000  0.94490000  1.0 0.1090885135
H  H8  1  0.58160000  0.74040000  0.55510000  1.0 0.1090885135
H  H9  1  0.55320000  0.39100000  0.93620000  1.0 0.1385160028
H  H10  1  0.39100000  0.55320000  0.56380000  1.0 0.1385160028
H  H11  1  0.44680000  0.60900000  0.06380000  1.0 0.1385160028
H  H12  1  0.60900000  0.44680000  0.43620000  1.0 0.1385160028
H  H13  1  0.44170000  0.30610000  0.19380000  1.0 0.1315296753
H  H14  1  0.30610000  0.44170000  0.30620000  1.0 0.1315296753
H  H15  1  0.55830000  0.69390000  0.80620000  1.0 0.1315296753
H  H16  1  0.69390000  0.55830000  0.69380000  1.0 0.1315296753
H  H17  1  0.62850000  0.24390000  0.24150000  1.0 0.2910416107
H  H18  1  0.24390000  0.62850000  0.25850000  1.0 0.2910416107
H  H19  1  0.37150000  0.75610000  0.75850000  1.0 0.2910416107
H  H20  1  0.75610000  0.37150000  0.74150000  1.0 0.2910416107
H  H21  1  0.14180000  0.28980000  0.47240000  1.0 0.2910416107
H  H22  1  0.28980000  0.14180000  0.02760000  1.0 0.2910416107
H  H23  1  0.85820000  0.71020000  0.52760000  1.0 0.2910416107
H  H24  1  0.71020000  0.85820000  0.97240000  1.0 0.2910416107
H  H25  1  0.17390000  0.43770000  0.48730000  1.0 0.1315296753
H  H26  1  0.43770000  0.17390000  0.01270000  1.0 0.1315296753
H  H27  1  0.82610000  0.56230000  0.51270000  1.0 0.1315296753
H  H28  1  0.56230000  0.82610000  0.98730000  1.0 0.1315296753
H  H29  1  0.19080000  0.54580000  0.59640000  1.0 0.1090885135
H  H30  1  0.54580000  0.19080000  0.90360000  1.0 0.1090885135
H  H31  1  0.80920000  0.45420000  0.40360000  1.0 0.1090885135
H  H32  1  0.45420000  0.80920000  0.09640000  1.0 0.1090885135
H  H33  1  0.06200000  0.29320000  0.71240000  1.0 0.1385160028
H  H34  1  0.29320000  0.06200000  0.78760000  1.0 0.1385160028
H  H35  1  0.93800000  0.70680000  0.28760000  1.0 0.1385160028
H  H36  1  0.70680000  0.93800000  0.21240000  1.0 0.1385160028
H  H37  1  0.08280000  0.39960000  0.82310000  1.0 0.1090885135
H  H38  1  0.39960000  0.08280000  0.67690000  1.0 0.1090885135
H  H39  1  0.91720000  0.60040000  0.17690000  1.0 0.1090885135
H  H40  1  0.60040000  0.91720000  0.32310000  1.0 0.1090885135
H  H41  1  0.18760000  0.03120000  0.36640000  1.0 0.3463621749
H  H42  1  0.03120000  0.18760000  0.13360000  1.0 0.3463621749
H  H43  1  0.81240000  0.96880000  0.63360000  1.0 0.3463621749
H  H44  1  0.96880000  0.81240000  0.86640000  1.0 0.3463621749
H  H45  1  0.24530000  0.96010000  0.32030000  1.0 0.3463621749
H  H46  1  0.96010000  0.24530000  0.17970000  1.0 0.3463621749
H  H47  1  0.75470000  0.03990000  0.67970000  1.0 0.3463621749
H  H48  1  0.03990000  0.75470000  0.82030000  1.0 0.3463621749
C  C1  1  0.38430000  0.46810000  0.87810000  1.0 -0.1401861114
C  C2  1  0.46810000  0.38430000  0.62190000  1.0 -0.1401861114
C  C3  1  0.61570000  0.53190000  0.12190000  1.0 -0.1401861114
C  C4  1  0.53190000  0.61570000  0.37810000  1.0 -0.1401861114
C  C5  1  0.29740000  0.47460000  0.91430000  1.0 -0.1401861114
C  C6  1  0.47460000  0.29740000  0.58570000  1.0 -0.1401861114
C  C7  1  0.70260000  0.52540000  0.08570000  1.0 -0.1401861114
C  C8  1  0.52540000  0.70260000  0.41430000  1.0 -0.1401861114
C  C9  1  0.31780000  0.41360000  0.03200000  1.0 -0.0865221382
C  C10  1  0.41360000  0.31780000  0.46800000  1.0 -0.0865221382
C  C11  1  0.68220000  0.58640000  0.96800000  1.0 -0.0865221382
C  C12  1  0.58640000  0.68220000  0.53200000  1.0 -0.0865221382
C  C13  1  0.49510000  0.39690000  0.95990000  1.0 -0.1813464747
C  C14  1  0.39690000  0.49510000  0.54010000  1.0 -0.1813464747
C  C15  1  0.50490000  0.60310000  0.04010000  1.0 -0.1813464747
C  C16  1  0.60310000  0.50490000  0.45990000  1.0 -0.1813464747
C  C17  1  0.51530000  0.33510000  0.07780000  1.0 0.2511417283
C  C18  1  0.33510000  0.51530000  0.42220000  1.0 0.2511417283
C  C19  1  0.48470000  0.66490000  0.92220000  1.0 0.2511417283
C  C20  1  0.66490000  0.48470000  0.57780000  1.0 0.2511417283
C  C21  1  0.42660000  0.34540000  0.11400000  1.0 -0.2006149576
C  C22  1  0.34540000  0.42660000  0.38600000  1.0 -0.2006149576
C  C23  1  0.57340000  0.65460000  0.88600000  1.0 -0.2006149576
C  C24  1  0.65460000  0.57340000  0.61400000  1.0 -0.2006149576
C  C25  1  0.71900000  0.21160000  0.15520000  1.0 0.3626027121
C  C26  1  0.21160000  0.71900000  0.34480000  1.0 0.3626027121
C  C27  1  0.28100000  0.78840000  0.84480000  1.0 0.3626027121
C  C28  1  0.78840000  0.28100000  0.65520000  1.0 0.3626027121
C  C29  1  0.81690000  0.12750000  0.27860000  1.0 0.4926274433
C  C30  1  0.12750000  0.81690000  0.22140000  1.0 0.4926274433
C  C31  1  0.18310000  0.87250000  0.72140000  1.0 0.4926274433
C  C32  1  0.87250000  0.18310000  0.77860000  1.0 0.4926274433
C  C33  1  0.05870000  0.22390000  0.52580000  1.0 0.3735594167
C  C34  1  0.22390000  0.05870000  0.97420000  1.0 0.3735594167
C  C35  1  0.94130000  0.77610000  0.47420000  1.0 0.3735594167
C  C36  1  0.77610000  0.94130000  0.02580000  1.0 0.3735594167
C  C37  1  0.15540000  0.43040000  0.55400000  1.0 -0.2006149576
C  C38  1  0.43040000  0.15540000  0.94600000  1.0 -0.2006149576
C  C39  1  0.84460000  0.56960000  0.44600000  1.0 -0.2006149576
C  C40  1  0.56960000  0.84460000  0.05400000  1.0 -0.2006149576
C  C41  1  0.11670000  0.35410000  0.58970000  1.0 0.2511417283
C  C42  1  0.35410000  0.11670000  0.91030000  1.0 0.2511417283
C  C43  1  0.88330000  0.64590000  0.41030000  1.0 0.2511417283
C  C44  1  0.64590000  0.88330000  0.08970000  1.0 0.2511417283
C  C45  1  0.16590000  0.49490000  0.61940000  1.0 -0.1082963855
C  C46  1  0.49490000  0.16590000  0.88060000  1.0 -0.1082963855
C  C47  1  0.83410000  0.50510000  0.38060000  1.0 -0.1082963855
C  C48  1  0.50510000  0.83410000  0.11940000  1.0 -0.1082963855
C  C49  1  0.07640000  0.15600000  0.44680000  1.0 0.4695736184
C  C50  1  0.15600000  0.07640000  0.05320000  1.0 0.4695736184
C  C51  1  0.92360000  0.84400000  0.55320000  1.0 0.4695736184
C  C52  1  0.84400000  0.92360000  0.94680000  1.0 0.4695736184
C  C53  1  0.13870000  0.48150000  0.71930000  1.0 -0.1401861114
C  C54  1  0.48150000  0.13870000  0.78070000  1.0 -0.1346191452
C  C55  1  0.86130000  0.51850000  0.28070000  1.0 -0.1346191452
C  C56  1  0.51850000  0.86130000  0.21930000  1.0 -0.1346191452
C  C57  1  0.08830000  0.34270000  0.68980000  1.0 -0.1813464747
C  C58  1  0.34270000  0.08830000  0.81020000  1.0 -0.1813464747
C  C59  1  0.91170000  0.65730000  0.31020000  1.0 -0.1813464747
C  C60  1  0.65730000  0.91170000  0.18980000  1.0 -0.1813464747
C  C61  1  0.10030000  0.40690000  0.75590000  1.0 -0.0964013362
C  C62  1  0.40690000  0.10030000  0.74410000  1.0 -0.0964013362
C  C63  1  0.89970000  0.59310000  0.24410000  1.0 -0.0964013362
C  C64  1  0.59310000  0.89970000  0.25590000  1.0 -0.0964013362
S  S1  1  0.15720000  0.55540000  0.81400000  1.0 0.2910416107
S  S2  1  0.55540000  0.15720000  0.68600000  1.0 0.2839427008
S  S3  1  0.84280000  0.44460000  0.18600000  1.0 0.2839427008
S  S4  1  0.44460000  0.84280000  0.31400000  1.0 0.2839427008
S  S5  1  0.16730000  0.57290000  0.77600000  1.0 0.322825232
S  S6  1  0.57290000  0.16730000  0.72400000  1.0 0.322825232
S  S7  1  0.83270000  0.42710000  0.22400000  1.0 0.322825232
S  S8  1  0.42710000  0.83270000  0.27600000  1.0 0.322825232
N  N1  1  0.62320000  0.26040000  0.16830000  1.0 -0.3471522094
N  N2  1  0.26040000  0.62320000  0.33170000  1.0 -0.3471522094
N  N3  1  0.37680000  0.73960000  0.83170000  1.0 -0.3471522094
N  N4  1  0.73960000  0.37680000  0.66830000  1.0 -0.3471522094
N  N5  1  0.10980000  0.28840000  0.52190000  1.0 -0.3768995391
N  N6  1  0.28840000  0.10980000  0.97810000  1.0 -0.3768995391
N  N7  1  0.89020000  0.71160000  0.47810000  1.0 -0.3768995391
N  N8  1  0.71160000  0.89020000  0.02190000  1.0 -0.3768995391
O  O1  1  0.90050000  0.06090000  0.26970000  1.0 -0.6002973453
O  O2  1  0.06090000  0.90050000  0.23030000  1.0 -0.6002973453
O  O3  1  0.09950000  0.93910000  0.73030000  1.0 -0.6002973453
O  O4  1  0.93910000  0.09950000  0.76970000  1.0 -0.6002973453
O  O5  1  0.73130000  0.22690000  0.05830000  1.0 -0.4957973794
O  O6  1  0.22690000  0.73130000  0.44170000  1.0 -0.4957973794
O  O7  1  0.26870000  0.77310000  0.94170000  1.0 -0.4957973794
O  O8  1  0.77310000  0.26870000  0.55830000  1.0 -0.4957973794
O  O9  1  0.80140000  0.13600000  0.37070000  1.0 -0.5600024001
O  O10  1  0.13600000  0.80140000  0.12930000  1.0 -0.5600024001
O  O11  1  0.19860000  0.86400000  0.62930000  1.0 -0.5600024001
O  O12  1  0.86400000  0.19860000  0.87070000  1.0 -0.5600024001
O  O13  1  0.14630000  0.65910000  0.73790000  1.0 0.006579485
O  O14  1  0.65910000  0.14630000  0.76210000  1.0 0.006579485
O  O15  1  0.85370000  0.34090000  0.26210000  1.0 0.006579485
O  O16  1  0.34090000  0.85370000  0.23790000  1.0 0.006579485
O  O17  1  0.08520000  0.55840000  0.88020000  1.0 -0.116561471
O  O18  1  0.55840000  0.08520000  0.61980000  1.0 -0.116561471
O  O19  1  0.91480000  0.44160000  0.11980000  1.0 -0.116561471
O  O20  1  0.44160000  0.91480000  0.38020000  1.0 -0.116561471
O  O21  1  0.12700000  0.17480000  0.38050000  1.0 -0.5331984149
O  O22  1  0.17480000  0.12700000  0.11950000  1.0 -0.5331984149
O  O23  1  0.87300000  0.82520000  0.61950000  1.0 -0.5331984149
O  O24  1  0.82520000  0.87300000  0.88050000  1.0 -0.5331984149
O  O25  1  0.00490000  0.21370000  0.58740000  1.0 -0.477870612
O  O26  1  0.21370000  0.00490000  0.91260000  1.0 -0.477870612
O  O27  1  0.99510000  0.78630000  0.41260000  1.0 -0.477870612
O  O28  1  0.78630000  0.99510000  0.08740000  1.0 -0.477870612
O  O29  1  0.03830000  0.08790000  0.45840000  1.0 -0.6080169962
O  O30  1  0.08790000  0.03830000  0.04160000  1.0 -0.6080169962
O  O31  1  0.96170000  0.91210000  0.54160000  1.0 -0.6080169962
O  O32  1  0.91210000  0.96170000  0.95840000  1.0 -0.6080169962
O  O33  1  0.20900000  0.97020000  0.37840000  1.0 -0.72568184
O  O34  1  0.97020000  0.20900000  0.12160000  1.0 -0.72568184
O  O35  1  0.79100000  0.02980000  0.62160000  1.0 -0.72568184
O  O36  1  0.02980000  0.79100000  0.87840000  1.0 -0.72568184
O  O37  1  0.17050000  0.66650000  0.69600000  1.0 -0.1082963855
O  O38  1  0.66650000  0.17050000  0.80400000  1.0 -0.1082963855
O  O39  1  0.82950000  0.33350000  0.30400000  1.0 -0.1082963855
O  O40  1  0.33350000  0.82950000  0.19600000  1.0 -0.1082963855
O  O41  1  0.09070000  0.59270000  0.83700000  1.0 -0.0021460727
O  O42  1  0.59270000  0.09070000  0.66300000  1.0 -0.0021460727
O  O43  1  0.90930000  0.40730000  0.16300000  1.0 -0.0021460727
O  O44  1  0.40730000  0.90930000  0.33700000  1.0 -0.0021460727
