# DDEC6 charges by PACMAN v1.1 (https://github.com/mtap-research/PACMAN-charge/)
data_NIKHAS_ASR_pacman
_symmetry_space_group_name_H-M   'P 1'
_cell_length_a   16.49780000
_cell_length_b   16.49780000
_cell_length_c   11.63600000
_cell_angle_alpha   84.96830000
_cell_angle_beta   95.03170000
_cell_angle_gamma   61.07460000
_symmetry_Int_Tables_number   1
_chemical_formula_structural   Zn2H49C52N2(ClO5)2
_chemical_formula_sum   'Zn4 H98 C104 N4 Cl4 O20'
_cell_volume   2730.35637491
_cell_formula_units_Z   2
loop_
 _symmetry_equiv_pos_site_id
 _symmetry_equiv_pos_as_xyz
  1  'x, y, z'
loop_
 _atom_site_type_symbol
 _atom_site_label
 _atom_site_symmetry_multiplicity
 _atom_site_fract_x
 _atom_site_fract_y
 _atom_site_fract_z
 _atom_site_occupancy
 _atom_site_charge
Zn  Zn1  1  0.62816000  0.65208000  0.60118000  1.0 0.8029450026
Zn  Zn2  1  0.65208000  0.62816000  0.89882000  1.0 0.8029450026
Zn  Zn3  1  0.37184000  0.34792000  0.39882000  1.0 0.8029450026
Zn  Zn4  1  0.34792000  0.37184000  0.10118000  1.0 0.8029450026
H  H1  1  0.37650000  0.81970000  0.90130000  1.0 0.120751692
H  H2  1  0.81970000  0.37650000  0.59870000  1.0 0.120751692
H  H3  1  0.21360000  0.90080000  0.90040000  1.0 0.1107013869
H  H4  1  0.90080000  0.21360000  0.59960000  1.0 0.1107013869
H  H5  1  0.17310000  0.84910000  0.57680000  1.0 0.120751692
H  H6  1  0.84910000  0.17310000  0.92320000  1.0 0.120751692
H  H7  1  0.33340000  0.77280000  0.57410000  1.0 0.120751692
H  H8  1  0.77280000  0.33340000  0.92590000  1.0 0.120751692
H  H9  1  0.06280000  0.11420000  0.91440000  1.0 0.1107013869
H  H10  1  0.11420000  0.06280000  0.58560000  1.0 0.1107013869
H  H11  1  0.14630000  0.19430000  0.91550000  1.0 0.1107013869
H  H12  1  0.19430000  0.14630000  0.58450000  1.0 0.1107013869
H  H13  1  0.21200000  0.21200000  0.75000000  1.0 0.101546486
H  H14  1  0.16330000  0.73710000  0.88060000  1.0 0.1107013869
H  H15  1  0.73710000  0.16330000  0.61940000  1.0 0.1107013869
H  H16  1  0.23640000  0.57720000  0.86700000  1.0 0.101546486
H  H17  1  0.57720000  0.23640000  0.63300000  1.0 0.101546486
H  H18  1  0.18940000  0.52560000  0.70830000  1.0 0.0817484562
H  H19  1  0.52560000  0.18940000  0.79170000  1.0 0.0817484562
H  H20  1  0.07470000  0.63250000  0.55970000  1.0 0.120751692
H  H21  1  0.63250000  0.07470000  0.94030000  1.0 0.120751692
H  H22  1  0.99790000  0.79410000  0.57220000  1.0 0.1107013869
H  H23  1  0.79410000  0.99790000  0.92780000  1.0 0.1107013869
H  H24  1  0.78770000  0.94790000  0.59960000  1.0 0.120751692
H  H25  1  0.94790000  0.78770000  0.90040000  1.0 0.120751692
H  H26  1  0.70780000  0.86520000  0.59760000  1.0 0.1107013869
H  H27  1  0.86520000  0.70780000  0.90240000  1.0 0.1107013869
H  H28  1  0.67160000  0.43880000  0.34930000  1.0 0.1383342069
H  H29  1  0.43880000  0.67160000  0.15070000  1.0 0.1383342069
H  H30  1  0.71330000  0.50130000  0.39650000  1.0 0.1383342069
H  H31  1  0.50130000  0.71330000  0.10350000  1.0 0.1383342069
H  H32  1  0.63860000  0.54040000  0.28000000  1.0 0.0880484876
H  H33  1  0.54040000  0.63860000  0.22000000  1.0 0.0880484876
H  H34  1  0.39000000  0.63600000  0.42390000  1.0 0.120751692
H  H35  1  0.63600000  0.39000000  0.07610000  1.0 0.120751692
H  H36  1  0.44820000  0.54480000  0.52030000  1.0 0.120751692
H  H37  1  0.54480000  0.44820000  0.97970000  1.0 0.120751692
H  H38  1  0.38400000  0.54340000  0.41010000  1.0 0.1888469902
H  H39  1  0.54340000  0.38400000  0.08990000  1.0 0.1888469902
H  H40  1  0.56840000  0.49200000  0.22980000  1.0 0.0585467524
H  H41  1  0.49200000  0.56840000  0.27020000  1.0 0.0585467524
H  H42  1  0.49920000  0.45420000  0.25030000  1.0 0.0817484562
H  H43  1  0.45420000  0.49920000  0.24970000  1.0 0.0817484562
H  H44  1  0.46020000  0.55840000  0.19380000  1.0 0.0585467524
H  H45  1  0.55840000  0.46020000  0.30620000  1.0 0.0585467524
H  H46  1  0.63680000  0.69500000  0.38980000  1.0 0.2539908138
H  H47  1  0.69500000  0.63680000  0.11020000  1.0 0.2539908138
H  H48  1  0.56700000  0.77560000  0.41980000  1.0 0.2010280785
H  H49  1  0.77560000  0.56700000  0.08020000  1.0 0.2010280785
H  H50  1  0.62350000  0.18030000  0.09870000  1.0 0.120751692
H  H51  1  0.18030000  0.62350000  0.40130000  1.0 0.120751692
H  H52  1  0.78640000  0.09920000  0.09960000  1.0 0.1107013869
H  H53  1  0.09920000  0.78640000  0.40040000  1.0 0.1107013869
H  H54  1  0.82690000  0.15090000  0.42320000  1.0 0.120751692
H  H55  1  0.15090000  0.82690000  0.07680000  1.0 0.120751692
H  H56  1  0.66666667  0.22720000  0.42590000  1.0 0.120751692
H  H57  1  0.22720000  0.66666667  0.07410000  1.0 0.120751692
H  H58  1  0.93720000  0.88580000  0.08560000  1.0 0.1107013869
H  H59  1  0.88580000  0.93720000  0.41440000  1.0 0.1107013869
H  H60  1  0.85370000  0.80570000  0.08450000  1.0 0.1107013869
H  H61  1  0.80570000  0.85370000  0.41550000  1.0 0.1107013869
H  H62  1  0.78800000  0.78800000  0.25000000  1.0 0.101546486
H  H63  1  0.83670000  0.26290000  0.11940000  1.0 0.1107013869
H  H64  1  0.26290000  0.83670000  0.38060000  1.0 0.1107013869
H  H65  1  0.76360000  0.42280000  0.13300000  1.0 0.101546486
H  H66  1  0.42280000  0.76360000  0.36700000  1.0 0.101546486
H  H67  1  0.81060000  0.47440000  0.29170000  1.0 0.0817484562
H  H68  1  0.47440000  0.81060000  0.20830000  1.0 0.0817484562
H  H69  1  0.92530000  0.36750000  0.44030000  1.0 0.120751692
H  H70  1  0.36750000  0.92530000  0.05970000  1.0 0.120751692
H  H71  1  0.00210000  0.20590000  0.42780000  1.0 0.1107013869
H  H72  1  0.20590000  0.00210000  0.07220000  1.0 0.1107013869
H  H73  1  0.21230000  0.05210000  0.40040000  1.0 0.120751692
H  H74  1  0.05210000  0.21230000  0.09960000  1.0 0.120751692
H  H75  1  0.29220000  0.13480000  0.40240000  1.0 0.1107013869
H  H76  1  0.13480000  0.29220000  0.09760000  1.0 0.1107013869
H  H77  1  0.32840000  0.56120000  0.65070000  1.0 0.1383342069
H  H78  1  0.56120000  0.32840000  0.84930000  1.0 0.1383342069
H  H79  1  0.28670000  0.49870000  0.60350000  1.0 0.1383342069
H  H80  1  0.49870000  0.28670000  0.89650000  1.0 0.1383342069
H  H81  1  0.36140000  0.45960000  0.72000000  1.0 0.0880484876
H  H82  1  0.45960000  0.36140000  0.78000000  1.0 0.0880484876
H  H83  1  0.61000000  0.36400000  0.57610000  1.0 0.120751692
H  H84  1  0.36400000  0.61000000  0.92390000  1.0 0.120751692
H  H85  1  0.55180000  0.45520000  0.47970000  1.0 0.120751692
H  H86  1  0.45520000  0.55180000  0.02030000  1.0 0.120751692
H  H87  1  0.61600000  0.45660000  0.58990000  1.0 0.1888469902
H  H88  1  0.45660000  0.61600000  0.91010000  1.0 0.1888469902
H  H89  1  0.43160000  0.50800000  0.77020000  1.0 0.0585467524
H  H90  1  0.50800000  0.43160000  0.72980000  1.0 0.0585467524
H  H91  1  0.50080000  0.54580000  0.74970000  1.0 0.0817484562
H  H92  1  0.54580000  0.50080000  0.75030000  1.0 0.0817484562
H  H93  1  0.53980000  0.44160000  0.80620000  1.0 0.0585467524
H  H94  1  0.44160000  0.53980000  0.69380000  1.0 0.0585467524
H  H95  1  0.36320000  0.30500000  0.61020000  1.0 0.2539908138
H  H96  1  0.30500000  0.36320000  0.88980000  1.0 0.2539908138
H  H97  1  0.43300000  0.22440000  0.58020000  1.0 0.2010280785
H  H98  1  0.22440000  0.43300000  0.91980000  1.0 0.2010280785
C  C1  1  0.47558000  0.73398000  0.73760000  1.0 0.5625987199
C  C2  1  0.73398000  0.47558000  0.76240000  1.0 0.5625987199
C  C3  1  0.37174000  0.78774000  0.73840000  1.0 -0.0313703234
C  C4  1  0.78774000  0.37174000  0.76160000  1.0 -0.0313703234
C  C5  1  0.33560000  0.82560000  0.83430000  1.0 -0.1011917793
C  C6  1  0.82560000  0.33560000  0.66570000  1.0 -0.1011917793
C  C7  1  0.23815000  0.87335000  0.83410000  1.0 -0.1526017738
C  C8  1  0.87335000  0.23815000  0.66590000  1.0 -0.1526017738
C  C9  1  0.17814000  0.88074000  0.73920000  1.0 0.0715866697
C  C10  1  0.88074000  0.17814000  0.76080000  1.0 0.0715866697
C  C11  1  0.21410000  0.84350000  0.64330000  1.0 -0.1388817929
C  C12  1  0.84350000  0.21410000  0.85670000  1.0 -0.1388817929
C  C13  1  0.30960000  0.79780000  0.64200000  1.0 -0.1011917793
C  C14  1  0.79780000  0.30960000  0.85800000  1.0 -0.1011917793
C  C15  1  0.07450000  0.93190000  0.74150000  1.0 -0.0170403731
C  C16  1  0.93190000  0.07450000  0.75850000  1.0 -0.0170403731
C  C17  1  0.02710000  0.02710000  0.75000000  1.0 -0.0170403731
C  C18  1  0.07970000  0.07970000  0.75000000  1.0 0.0715866697
C  C19  1  0.09008000  0.12008000  0.84770000  1.0 -0.1526017738
C  C20  1  0.12008000  0.09008000  0.65230000  1.0 -0.1526017738
C  C21  1  0.13920000  0.16820000  0.84830000  1.0 -0.0901090841
C  C22  1  0.16820000  0.13920000  0.65170000  1.0 -0.0901090841
C  C23  1  0.17850000  0.17850000  0.75000000  1.0 -0.1062349518
C  C24  1  0.02466000  0.88226000  0.74200000  1.0 -0.0170403731
C  C25  1  0.88226000  0.02466000  0.75800000  1.0 -0.0170403731
C  C26  1  0.07359000  0.78079000  0.72980000  1.0 0.0715866697
C  C27  1  0.78079000  0.07359000  0.77020000  1.0 0.0715866697
C  C28  1  0.14420000  0.71640000  0.81530000  1.0 -0.1388817929
C  C29  1  0.71640000  0.14420000  0.68470000  1.0 -0.1388817929
C  C30  1  0.18790000  0.62110000  0.80730000  1.0 -0.1173016655
C  C31  1  0.62110000  0.18790000  0.69270000  1.0 -0.1173016655
C  C32  1  0.16050000  0.59070000  0.71300000  1.0 -0.1062349518
C  C33  1  0.59070000  0.16050000  0.78700000  1.0 -0.1062349518
C  C34  1  0.09180000  0.65400000  0.62570000  1.0 -0.0901090841
C  C35  1  0.65400000  0.09180000  0.87430000  1.0 -0.0901090841
C  C36  1  0.04622000  0.75042000  0.63230000  1.0 -0.1567781868
C  C37  1  0.75042000  0.04622000  0.86770000  1.0 -0.1567781868
C  C38  1  0.92930000  0.92930000  0.75000000  1.0 -0.0170403731
C  C39  1  0.87650000  0.87650000  0.75000000  1.0 0.0817484562
C  C40  1  0.80433000  0.89833000  0.66110000  1.0 -0.1526017738
C  C41  1  0.89833000  0.80433000  0.83890000  1.0 -0.1526017738
C  C42  1  0.75623000  0.84963000  0.66020000  1.0 -0.1011917793
C  C43  1  0.84963000  0.75623000  0.83980000  1.0 -0.1011917793
C  C44  1  0.77800000  0.77800000  0.75000000  1.0 -0.0313703234
C  C45  1  0.72530000  0.72530000  0.75000000  1.0 0.6034186927
C  C46  1  0.57940000  0.54520000  0.42840000  1.0 0.3429001915
C  C47  1  0.54520000  0.57940000  0.07160000  1.0 0.3452291337
C  C48  1  0.65750000  0.50270000  0.35700000  1.0 -0.5759244117
C  C49  1  0.50270000  0.65750000  0.14300000  1.0 -0.5759244117
C  C50  1  0.42520000  0.56740000  0.43700000  1.0 -0.4458813521
C  C51  1  0.56740000  0.42520000  0.06300000  1.0 -0.4458813521
C  C52  1  0.50779000  0.50779000  0.25000000  1.0 -0.1842973682
C  C53  1  0.52442000  0.26602000  0.26240000  1.0 0.5625987199
C  C54  1  0.26602000  0.52442000  0.23760000  1.0 0.5625987199
C  C55  1  0.62826000  0.21226000  0.26160000  1.0 -0.0313703234
C  C56  1  0.21226000  0.62826000  0.23840000  1.0 -0.0313703234
C  C57  1  0.66440000  0.17440000  0.16570000  1.0 -0.1011917793
C  C58  1  0.17440000  0.66440000  0.33430000  1.0 -0.1011917793
C  C59  1  0.76185000  0.12665000  0.16590000  1.0 -0.1526017738
C  C60  1  0.12665000  0.76185000  0.33410000  1.0 -0.1526017738
C  C61  1  0.82186000  0.11926000  0.26080000  1.0 0.0715866697
C  C62  1  0.11926000  0.82186000  0.23920000  1.0 0.0715866697
C  C63  1  0.78590000  0.15650000  0.35670000  1.0 -0.1388817929
C  C64  1  0.15650000  0.78590000  0.14330000  1.0 -0.1388817929
C  C65  1  0.69040000  0.20220000  0.35800000  1.0 -0.1011917793
C  C66  1  0.20220000  0.69040000  0.14200000  1.0 -0.1011917793
C  C67  1  0.92550000  0.06810000  0.25850000  1.0 -0.0170403731
C  C68  1  0.06810000  0.92550000  0.24150000  1.0 -0.0170403731
C  C69  1  0.97290000  0.97290000  0.25000000  1.0 -0.0170403731
C  C70  1  0.92030000  0.92030000  0.25000000  1.0 0.0715866697
C  C71  1  0.90992000  0.87992000  0.15230000  1.0 -0.1526017738
C  C72  1  0.87992000  0.90992000  0.34770000  1.0 -0.1526017738
C  C73  1  0.86080000  0.83180000  0.15170000  1.0 -0.0901090841
C  C74  1  0.83180000  0.86080000  0.34830000  1.0 -0.0901090841
C  C75  1  0.82150000  0.82150000  0.25000000  1.0 -0.1062349518
C  C76  1  0.97534000  0.11774000  0.25800000  1.0 -0.0170403731
C  C77  1  0.11774000  0.97534000  0.24200000  1.0 -0.0170403731
C  C78  1  0.92641000  0.21921000  0.27020000  1.0 0.0715866697
C  C79  1  0.21921000  0.92641000  0.22980000  1.0 0.0715866697
C  C80  1  0.85580000  0.28360000  0.18470000  1.0 -0.1388817929
C  C81  1  0.28360000  0.85580000  0.31530000  1.0 -0.1388817929
C  C82  1  0.81210000  0.37890000  0.19270000  1.0 -0.1173016655
C  C83  1  0.37890000  0.81210000  0.30730000  1.0 -0.1173016655
C  C84  1  0.83950000  0.40930000  0.28700000  1.0 -0.1062349518
C  C85  1  0.40930000  0.83950000  0.21300000  1.0 -0.1062349518
C  C86  1  0.90820000  0.34600000  0.37430000  1.0 -0.0901090841
C  C87  1  0.34600000  0.90820000  0.12570000  1.0 -0.0901090841
C  C88  1  0.95378000  0.24958000  0.36770000  1.0 -0.1567781868
C  C89  1  0.24958000  0.95378000  0.13230000  1.0 -0.1567781868
C  C90  1  0.07070000  0.07070000  0.25000000  1.0 -0.0170403731
C  C91  1  0.12350000  0.12350000  0.25000000  1.0 0.0817484562
C  C92  1  0.19567000  0.10167000  0.33890000  1.0 -0.1526017738
C  C93  1  0.10167000  0.19567000  0.16110000  1.0 -0.1526017738
C  C94  1  0.24377000  0.15037000  0.33980000  1.0 -0.1011917793
C  C95  1  0.15037000  0.24377000  0.16020000  1.0 -0.1011917793
C  C96  1  0.22200000  0.22200000  0.25000000  1.0 -0.0313703234
C  C97  1  0.27470000  0.27470000  0.25000000  1.0 0.6034186927
C  C98  1  0.42060000  0.45480000  0.57160000  1.0 0.3429001915
C  C99  1  0.45480000  0.42060000  0.92840000  1.0 0.3429001915
C  C100  1  0.34250000  0.49730000  0.64300000  1.0 -0.5759244117
C  C101  1  0.49730000  0.34250000  0.85700000  1.0 -0.5759244117
C  C102  1  0.57480000  0.43260000  0.56300000  1.0 -0.4458813521
C  C103  1  0.43260000  0.57480000  0.93700000  1.0 -0.4458813521
C  C104  1  0.49221000  0.49221000  0.75000000  1.0 -0.1842973682
N  N1  1  0.50570000  0.53390000  0.37080000  1.0 -0.1388817929
N  N2  1  0.53390000  0.50570000  0.12920000  1.0 -0.1388817929
N  N3  1  0.49430000  0.46610000  0.62920000  1.0 -0.1388817929
N  N4  1  0.46610000  0.49430000  0.87080000  1.0 -0.1388817929
Cl  Cl1  1  0.62467000  0.64967000  0.41030000  1.0 0.1259835211
Cl  Cl2  1  0.64967000  0.62467000  0.08970000  1.0 0.120751692
Cl  Cl3  1  0.37533000  0.35033000  0.58970000  1.0 0.1259835211
Cl  Cl4  1  0.35033000  0.37533000  0.91030000  1.0 0.1259835211
O  O1  1  0.67342000  0.73602000  0.65670000  1.0 -0.5606543573
O  O2  1  0.73602000  0.67342000  0.84330000  1.0 -0.5606543573
O  O3  1  0.50356000  0.70076000  0.64820000  1.0 -0.5334794226
O  O4  1  0.70076000  0.50356000  0.85180000  1.0 -0.5334794226
O  O5  1  0.52687000  0.72667000  0.82880000  1.0 -0.5376916083
O  O6  1  0.72667000  0.52687000  0.67120000  1.0 -0.5376916083
O  O7  1  0.58060000  0.56440000  0.52440000  1.0 -0.4232144284
O  O8  1  0.56440000  0.58060000  0.97560000  1.0 -0.4232144284
O  O9  1  0.61220000  0.72200000  0.44550000  1.0 -0.2473677027
O  O10  1  0.72200000  0.61220000  0.05450000  1.0 -0.2473677027
O  O11  1  0.32658000  0.26398000  0.34330000  1.0 -0.5606543573
O  O12  1  0.26398000  0.32658000  0.15670000  1.0 -0.5606543573
O  O13  1  0.49644000  0.29924000  0.35180000  1.0 -0.5334794226
O  O14  1  0.29924000  0.49644000  0.14820000  1.0 -0.5334794226
O  O15  1  0.47313000  0.27333000  0.17120000  1.0 -0.5376916083
O  O16  1  0.27333000  0.47313000  0.32880000  1.0 -0.5376916083
O  O17  1  0.41940000  0.43560000  0.47560000  1.0 -0.4232144284
O  O18  1  0.43560000  0.41940000  0.02440000  1.0 -0.4232144284
O  O19  1  0.38780000  0.27800000  0.55450000  1.0 -0.2473677027
O  O20  1  0.27800000  0.38780000  0.94550000  1.0 -0.2473677027
