# DDEC6 charges by PACMAN v1.1 (https://github.com/mtap-research/PACMAN-charge/)
data_NIKVEL_FSR_pacman
_symmetry_space_group_name_H-M   'P 1'
_cell_length_a   27.06830000
_cell_length_b   27.06830000
_cell_length_c   27.06830000
_cell_angle_alpha   60.00000000
_cell_angle_beta   60.00000000
_cell_angle_gamma   60.00000000
_symmetry_Int_Tables_number   1
_chemical_formula_structural   Zr3C10(NO4)4
_chemical_formula_sum   'Zr36 C120 N48 O192'
_cell_volume   14023.87220882
_cell_formula_units_Z   12
loop_
 _symmetry_equiv_pos_site_id
 _symmetry_equiv_pos_as_xyz
  1  'x, y, z'
loop_
 _atom_site_type_symbol
 _atom_site_label
 _atom_site_symmetry_multiplicity
 _atom_site_fract_x
 _atom_site_fract_y
 _atom_site_fract_z
 _atom_site_occupancy
 _atom_site_charge
Zr  Zr1  1  0.88417000  0.54723000  0.02137000  1.0 2.6005085679
Zr  Zr2  1  0.02137000  0.54723000  0.88417000  1.0 2.6005085679
Zr  Zr3  1  0.54723000  0.88417000  0.54723000  1.0 2.6005085679
Zr  Zr4  1  0.54723000  0.02137000  0.54723000  1.0 2.605206606
Zr  Zr5  1  0.54723000  0.02137000  0.88417000  1.0 2.6005085679
Zr  Zr6  1  0.54723000  0.88417000  0.02137000  1.0 2.5929173204
Zr  Zr7  1  0.88417000  0.54723000  0.54723000  1.0 2.6005085679
Zr  Zr8  1  0.02137000  0.54723000  0.54723000  1.0 2.6005085679
Zr  Zr9  1  0.02137000  0.88417000  0.54723000  1.0 2.605206606
Zr  Zr10  1  0.88417000  0.02137000  0.54723000  1.0 2.605206606
Zr  Zr11  1  0.54723000  0.54723000  0.88417000  1.0 2.6005085679
Zr  Zr12  1  0.54723000  0.54723000  0.02137000  1.0 2.6005085679
Zr  Zr13  1  0.11583000  0.45277000  0.97863000  1.0 2.6005085679
Zr  Zr14  1  0.97863000  0.45277000  0.11583000  1.0 2.5929173204
Zr  Zr15  1  0.45277000  0.97863000  0.45277000  1.0 2.6005085679
Zr  Zr16  1  0.45277000  0.11583000  0.45277000  1.0 2.5929173204
Zr  Zr17  1  0.45277000  0.45277000  0.11583000  1.0 2.6005085679
Zr  Zr18  1  0.45277000  0.45277000  0.97863000  1.0 2.5929173204
Zr  Zr19  1  0.11583000  0.97863000  0.45277000  1.0 2.5929173204
Zr  Zr20  1  0.97863000  0.11583000  0.45277000  1.0 2.6005085679
Zr  Zr21  1  0.97863000  0.45277000  0.45277000  1.0 2.5929173204
Zr  Zr22  1  0.11583000  0.45277000  0.45277000  1.0 2.6005085679
Zr  Zr23  1  0.45277000  0.97863000  0.11583000  1.0 2.5929173204
Zr  Zr24  1  0.45277000  0.11583000  0.97863000  1.0 2.605206606
Zr  Zr25  1  0.00000000  0.59406000  0.00000000  1.0 2.312009256
Zr  Zr26  1  0.00000000  0.40594000  0.00000000  1.0 2.312009256
Zr  Zr27  1  0.59406000  0.00000000  0.40594000  1.0 2.312009256
Zr  Zr28  1  0.40594000  0.00000000  0.59406000  1.0 2.312009256
Zr  Zr29  1  0.59406000  0.00000000  0.00000000  1.0 2.312009256
Zr  Zr30  1  0.40594000  0.00000000  0.00000000  1.0 2.312009256
Zr  Zr31  1  0.00000000  0.40594000  0.59406000  1.0 2.312009256
Zr  Zr32  1  0.00000000  0.59406000  0.40594000  1.0 2.312009256
Zr  Zr33  1  0.00000000  0.00000000  0.59406000  1.0 2.312009256
Zr  Zr34  1  0.00000000  0.00000000  0.40594000  1.0 2.3150874349
Zr  Zr35  1  0.40594000  0.59406000  0.00000000  1.0 2.312009256
Zr  Zr36  1  0.59406000  0.40594000  0.00000000  1.0 2.312009256
C  C1  1  0.02831000  0.67643000  0.86943000  1.0 0.6909837621
C  C2  1  0.02504000  0.74172000  0.82706000  1.0 0.1143193814
C  C3  1  0.86943000  0.42583000  0.02831000  1.0 0.6909837621
C  C4  1  0.82706000  0.40618000  0.02504000  1.0 0.1179003102
C  C5  1  0.67643000  0.02831000  0.42583000  1.0 0.6909837621
C  C6  1  0.74172000  0.02504000  0.40618000  1.0 0.1179003102
C  C7  1  0.42583000  0.86943000  0.67643000  1.0 0.6909837621
C  C8  1  0.40618000  0.82706000  0.74172000  1.0 0.1179003102
C  C9  1  0.67643000  0.86943000  0.02831000  1.0 0.6909837621
C  C10  1  0.74172000  0.82706000  0.02504000  1.0 0.1179003102
C  C11  1  0.42583000  0.02831000  0.86943000  1.0 0.6909837621
C  C12  1  0.40618000  0.02504000  0.82706000  1.0 0.1179003102
C  C13  1  0.02831000  0.42583000  0.67643000  1.0 0.6909837621
C  C14  1  0.02504000  0.40618000  0.74172000  1.0 0.1179003102
C  C15  1  0.86943000  0.67643000  0.42583000  1.0 0.6909837621
C  C16  1  0.82706000  0.74172000  0.40618000  1.0 0.1179003102
C  C17  1  0.86943000  0.02831000  0.67643000  1.0 0.6909837621
C  C18  1  0.82706000  0.02504000  0.74172000  1.0 0.1179003102
C  C19  1  0.02831000  0.86943000  0.42583000  1.0 0.6909837621
C  C20  1  0.02504000  0.82706000  0.40618000  1.0 0.1179003102
C  C21  1  0.42583000  0.67643000  0.02831000  1.0 0.6909837621
C  C22  1  0.40618000  0.74172000  0.02504000  1.0 0.1179003102
C  C23  1  0.67643000  0.42583000  0.86943000  1.0 0.6909837621
C  C24  1  0.74172000  0.40618000  0.82706000  1.0 0.1179003102
C  C25  1  0.97169000  0.57417000  0.13057000  1.0 0.6909837621
C  C26  1  0.97496000  0.59382000  0.17294000  1.0 0.1179003102
C  C27  1  0.13057000  0.32357000  0.97169000  1.0 0.6909837621
C  C28  1  0.17294000  0.25828000  0.97496000  1.0 0.1179003102
C  C29  1  0.32357000  0.13057000  0.57417000  1.0 0.6909837621
C  C30  1  0.25828000  0.17294000  0.59382000  1.0 0.1179003102
C  C31  1  0.57417000  0.97169000  0.32357000  1.0 0.6909837621
C  C32  1  0.59382000  0.97496000  0.25828000  1.0 0.1179003102
C  C33  1  0.32357000  0.57417000  0.97169000  1.0 0.6909837621
C  C34  1  0.25828000  0.59382000  0.97496000  1.0 0.1143193814
C  C35  1  0.57417000  0.32357000  0.13057000  1.0 0.6909837621
C  C36  1  0.59382000  0.25828000  0.17294000  1.0 0.1179003102
C  C37  1  0.97169000  0.13057000  0.32357000  1.0 0.6909837621
C  C38  1  0.97496000  0.17294000  0.25828000  1.0 0.1179003102
C  C39  1  0.13057000  0.97169000  0.57417000  1.0 0.6909837621
C  C40  1  0.17294000  0.97496000  0.59382000  1.0 0.1179003102
C  C41  1  0.13057000  0.57417000  0.32357000  1.0 0.6909837621
C  C42  1  0.17294000  0.59382000  0.25828000  1.0 0.1179003102
C  C43  1  0.97169000  0.32357000  0.57417000  1.0 0.6909837621
C  C44  1  0.97496000  0.25828000  0.59382000  1.0 0.1179003102
C  C45  1  0.57417000  0.13057000  0.97169000  1.0 0.6909837621
C  C46  1  0.59382000  0.17294000  0.97496000  1.0 0.1179003102
C  C47  1  0.32357000  0.97169000  0.13057000  1.0 0.6909837621
C  C48  1  0.25828000  0.97496000  0.17294000  1.0 0.1179003102
C  C49  1  0.97169000  0.32357000  0.13057000  1.0 0.6909837621
C  C50  1  0.97496000  0.25828000  0.17294000  1.0 0.1179003102
C  C51  1  0.13057000  0.57417000  0.97169000  1.0 0.6909837621
C  C52  1  0.17294000  0.59382000  0.97496000  1.0 0.1179003102
C  C53  1  0.32357000  0.97169000  0.57417000  1.0 0.6909837621
C  C54  1  0.25828000  0.97496000  0.59382000  1.0 0.1179003102
C  C55  1  0.57417000  0.13057000  0.32357000  1.0 0.6909837621
C  C56  1  0.59382000  0.17294000  0.25828000  1.0 0.1179003102
C  C57  1  0.32357000  0.13057000  0.97169000  1.0 0.6909837621
C  C58  1  0.25828000  0.17294000  0.97496000  1.0 0.1179003102
C  C59  1  0.57417000  0.97169000  0.13057000  1.0 0.6909837621
C  C60  1  0.59382000  0.97496000  0.17294000  1.0 0.1179003102
C  C61  1  0.97169000  0.57417000  0.32357000  1.0 0.6909837621
C  C62  1  0.97496000  0.59382000  0.25828000  1.0 0.1179003102
C  C63  1  0.13057000  0.32357000  0.57417000  1.0 0.6909837621
C  C64  1  0.17294000  0.25828000  0.59382000  1.0 0.1179003102
C  C65  1  0.13057000  0.97169000  0.32357000  1.0 0.6909837621
C  C66  1  0.17294000  0.97496000  0.25828000  1.0 0.1179003102
C  C67  1  0.97169000  0.13057000  0.57417000  1.0 0.6909837621
C  C68  1  0.97496000  0.17294000  0.59382000  1.0 0.1179003102
C  C69  1  0.57417000  0.32357000  0.97169000  1.0 0.6909837621
C  C70  1  0.59382000  0.25828000  0.97496000  1.0 0.1179003102
C  C71  1  0.32357000  0.57417000  0.13057000  1.0 0.6909837621
C  C72  1  0.25828000  0.59382000  0.17294000  1.0 0.1179003102
C  C73  1  0.02831000  0.42583000  0.86943000  1.0 0.6909837621
C  C74  1  0.02504000  0.40618000  0.82706000  1.0 0.1179003102
C  C75  1  0.86943000  0.67643000  0.02831000  1.0 0.6909837621
C  C76  1  0.82706000  0.74172000  0.02504000  1.0 0.1179003102
C  C77  1  0.67643000  0.86943000  0.42583000  1.0 0.6909837621
C  C78  1  0.74172000  0.82706000  0.40618000  1.0 0.1179003102
C  C79  1  0.42583000  0.02831000  0.67643000  1.0 0.6909837621
C  C80  1  0.40618000  0.02504000  0.74172000  1.0 0.1179003102
C  C81  1  0.67643000  0.42583000  0.02831000  1.0 0.6909837621
C  C82  1  0.74172000  0.40618000  0.02504000  1.0 0.1179003102
C  C83  1  0.42583000  0.67643000  0.86943000  1.0 0.6909837621
C  C84  1  0.40618000  0.74172000  0.82706000  1.0 0.1179003102
C  C85  1  0.02831000  0.86943000  0.67643000  1.0 0.6909837621
C  C86  1  0.02504000  0.82706000  0.74172000  1.0 0.1143193814
C  C87  1  0.86943000  0.02831000  0.42583000  1.0 0.6909837621
C  C88  1  0.82706000  0.02504000  0.40618000  1.0 0.1179003102
C  C89  1  0.86943000  0.42583000  0.67643000  1.0 0.6909837621
C  C90  1  0.82706000  0.40618000  0.74172000  1.0 0.1179003102
C  C91  1  0.02831000  0.67643000  0.42583000  1.0 0.6909837621
C  C92  1  0.02504000  0.74172000  0.40618000  1.0 0.1179003102
C  C93  1  0.42583000  0.86943000  0.02831000  1.0 0.6909837621
C  C94  1  0.40618000  0.82706000  0.02504000  1.0 0.1179003102
C  C95  1  0.67643000  0.02831000  0.86943000  1.0 0.6909837621
C  C96  1  0.74172000  0.02504000  0.82706000  1.0 0.1179003102
C  C97  1  0.03374000  0.76510000  0.76510000  1.0 -0.0083427649
C  C98  1  0.76510000  0.43606000  0.03374000  1.0 -0.0083427649
C  C99  1  0.76510000  0.03374000  0.43606000  1.0 -0.0083427649
C  C100  1  0.43606000  0.76510000  0.76510000  1.0 -0.0083427649
C  C101  1  0.76510000  0.76510000  0.03374000  1.0 -0.0083427649
C  C102  1  0.43606000  0.03374000  0.76510000  1.0 -0.0083427649
C  C103  1  0.03374000  0.43606000  0.76510000  1.0 -0.0083427649
C  C104  1  0.76510000  0.76510000  0.43606000  1.0 -0.0083427649
C  C105  1  0.76510000  0.03374000  0.76510000  1.0 -0.0083427649
C  C106  1  0.03374000  0.76510000  0.43606000  1.0 -0.0083427649
C  C107  1  0.43606000  0.76510000  0.03374000  1.0 -0.0083427649
C  C108  1  0.76510000  0.43606000  0.76510000  1.0 -0.0083427649
C  C109  1  0.96626000  0.56394000  0.23490000  1.0 -0.0083427649
C  C110  1  0.23490000  0.23490000  0.96626000  1.0 -0.0083427649
C  C111  1  0.23490000  0.23490000  0.56394000  1.0 -0.0083427649
C  C112  1  0.56394000  0.96626000  0.23490000  1.0 -0.0083427649
C  C113  1  0.23490000  0.56394000  0.96626000  1.0 -0.0083427649
C  C114  1  0.56394000  0.23490000  0.23490000  1.0 -0.0083427649
C  C115  1  0.96626000  0.23490000  0.23490000  1.0 -0.0083427649
C  C116  1  0.23490000  0.96626000  0.56394000  1.0 -0.0083427649
C  C117  1  0.23490000  0.56394000  0.23490000  1.0 -0.0083427649
C  C118  1  0.96626000  0.23490000  0.56394000  1.0 -0.0083427649
C  C119  1  0.56394000  0.23490000  0.96626000  1.0 -0.0083427649
C  C120  1  0.23490000  0.96626000  0.23490000  1.0 -0.0083427649
N  N1  1  0.01170000  0.78976000  0.83862000  1.0 -0.0583775656
N  N2  1  0.83862000  0.35992000  0.01170000  1.0 -0.0520118608
N  N3  1  0.78976000  0.01170000  0.35992000  1.0 -0.0520118608
N  N4  1  0.35992000  0.83862000  0.78976000  1.0 -0.0520118608
N  N5  1  0.78976000  0.83862000  0.01170000  1.0 -0.0520118608
N  N6  1  0.35992000  0.01170000  0.83862000  1.0 -0.0583775656
N  N7  1  0.01170000  0.35992000  0.78976000  1.0 -0.0520118608
N  N8  1  0.83862000  0.78976000  0.35992000  1.0 -0.0583775656
N  N9  1  0.83862000  0.01170000  0.78976000  1.0 -0.0520118608
N  N10  1  0.01170000  0.83862000  0.35992000  1.0 -0.0520118608
N  N11  1  0.35992000  0.78976000  0.01170000  1.0 -0.0583775656
N  N12  1  0.78976000  0.35992000  0.83862000  1.0 -0.0583775656
N  N13  1  0.98830000  0.64008000  0.16138000  1.0 -0.0654825595
N  N14  1  0.16138000  0.21024000  0.98830000  1.0 -0.0583775656
N  N15  1  0.21024000  0.16138000  0.64008000  1.0 -0.0583775656
N  N16  1  0.64008000  0.98830000  0.21024000  1.0 -0.0520118608
N  N17  1  0.21024000  0.64008000  0.98830000  1.0 -0.0520118608
N  N18  1  0.64008000  0.21024000  0.16138000  1.0 -0.0520118608
N  N19  1  0.98830000  0.16138000  0.21024000  1.0 -0.0583775656
N  N20  1  0.16138000  0.98830000  0.64008000  1.0 -0.0583775656
N  N21  1  0.16138000  0.64008000  0.21024000  1.0 -0.0583775656
N  N22  1  0.98830000  0.21024000  0.64008000  1.0 -0.0583775656
N  N23  1  0.64008000  0.16138000  0.98830000  1.0 -0.0583775656
N  N24  1  0.21024000  0.98830000  0.16138000  1.0 -0.0583775656
N  N25  1  0.98830000  0.21024000  0.16138000  1.0 -0.0583775656
N  N26  1  0.16138000  0.64008000  0.98830000  1.0 -0.0583775656
N  N27  1  0.21024000  0.98830000  0.64008000  1.0 -0.0583775656
N  N28  1  0.64008000  0.16138000  0.21024000  1.0 -0.0520118608
N  N29  1  0.21024000  0.16138000  0.98830000  1.0 -0.0520118608
N  N30  1  0.64008000  0.98830000  0.16138000  1.0 -0.0583775656
N  N31  1  0.98830000  0.64008000  0.21024000  1.0 -0.0583775656
N  N32  1  0.16138000  0.21024000  0.64008000  1.0 -0.0583775656
N  N33  1  0.16138000  0.98830000  0.21024000  1.0 -0.0583775656
N  N34  1  0.98830000  0.16138000  0.64008000  1.0 -0.0583775656
N  N35  1  0.64008000  0.21024000  0.98830000  1.0 -0.0520118608
N  N36  1  0.21024000  0.64008000  0.16138000  1.0 -0.0520118608
N  N37  1  0.01170000  0.35992000  0.83862000  1.0 -0.0583775656
N  N38  1  0.83862000  0.78976000  0.01170000  1.0 -0.0520118608
N  N39  1  0.78976000  0.83862000  0.35992000  1.0 -0.0520118608
N  N40  1  0.35992000  0.01170000  0.78976000  1.0 -0.0520118608
N  N41  1  0.78976000  0.35992000  0.01170000  1.0 -0.0583775656
N  N42  1  0.35992000  0.78976000  0.83862000  1.0 -0.0583775656
N  N43  1  0.01170000  0.83862000  0.78976000  1.0 -0.0583775656
N  N44  1  0.83862000  0.01170000  0.35992000  1.0 -0.0520118608
N  N45  1  0.83862000  0.35992000  0.78976000  1.0 -0.0520118608
N  N46  1  0.01170000  0.78976000  0.35992000  1.0 -0.0583775656
N  N47  1  0.35992000  0.83862000  0.01170000  1.0 -0.0583775656
N  N48  1  0.78976000  0.01170000  0.83862000  1.0 -0.0583775656
O  O1  1  0.85588000  0.63306000  0.03878000  1.0 -0.4786520032
O  O2  1  0.01487000  0.66933000  0.92307000  1.0 -0.4681774628
O  O3  1  0.03878000  0.47228000  0.85588000  1.0 -0.4786520032
O  O4  1  0.92307000  0.39273000  0.01487000  1.0 -0.4681774628
O  O5  1  0.63306000  0.85588000  0.47228000  1.0 -0.4786520032
O  O6  1  0.66933000  0.01487000  0.39273000  1.0 -0.4681774628
O  O7  1  0.47228000  0.03878000  0.63306000  1.0 -0.4786520032
O  O8  1  0.39273000  0.92307000  0.66933000  1.0 -0.4681774628
O  O9  1  0.63306000  0.03878000  0.85588000  1.0 -0.4786520032
O  O10  1  0.66933000  0.92307000  0.01487000  1.0 -0.4681774628
O  O11  1  0.47228000  0.85588000  0.03878000  1.0 -0.4786520032
O  O12  1  0.39273000  0.01487000  0.92307000  1.0 -0.4681774628
O  O13  1  0.85588000  0.47228000  0.63306000  1.0 -0.4786520032
O  O14  1  0.01487000  0.39273000  0.66933000  1.0 -0.4644748207
O  O15  1  0.03878000  0.63306000  0.47228000  1.0 -0.4786520032
O  O16  1  0.92307000  0.66933000  0.39273000  1.0 -0.4681774628
O  O17  1  0.03878000  0.85588000  0.63306000  1.0 -0.4786520032
O  O18  1  0.92307000  0.01487000  0.66933000  1.0 -0.4644748207
O  O19  1  0.85588000  0.03878000  0.47228000  1.0 -0.4786520032
O  O20  1  0.01487000  0.92307000  0.39273000  1.0 -0.4644748207
O  O21  1  0.47228000  0.63306000  0.85588000  1.0 -0.4786520032
O  O22  1  0.39273000  0.66933000  0.01487000  1.0 -0.4644748207
O  O23  1  0.63306000  0.47228000  0.03878000  1.0 -0.4786520032
O  O24  1  0.66933000  0.39273000  0.92307000  1.0 -0.4681774628
O  O25  1  0.14412000  0.52772000  0.96122000  1.0 -0.4786520032
O  O26  1  0.98513000  0.60727000  0.07693000  1.0 -0.4681774628
O  O27  1  0.96122000  0.36694000  0.14412000  1.0 -0.4681774628
O  O28  1  0.07693000  0.33067000  0.98513000  1.0 -0.4644748207
O  O29  1  0.36694000  0.96122000  0.52772000  1.0 -0.4786520032
O  O30  1  0.33067000  0.07693000  0.60727000  1.0 -0.4644748207
O  O31  1  0.52772000  0.14412000  0.36694000  1.0 -0.4786520032
O  O32  1  0.60727000  0.98513000  0.33067000  1.0 -0.4644748207
O  O33  1  0.36694000  0.52772000  0.14412000  1.0 -0.4786520032
O  O34  1  0.33067000  0.60727000  0.98513000  1.0 -0.4681774628
O  O35  1  0.52772000  0.36694000  0.96122000  1.0 -0.4786520032
O  O36  1  0.60727000  0.33067000  0.07693000  1.0 -0.4681774628
O  O37  1  0.14412000  0.96122000  0.36694000  1.0 -0.4786520032
O  O38  1  0.98513000  0.07693000  0.33067000  1.0 -0.4681774628
O  O39  1  0.96122000  0.14412000  0.52772000  1.0 -0.4786520032
O  O40  1  0.07693000  0.98513000  0.60727000  1.0 -0.4644748207
O  O41  1  0.96122000  0.52772000  0.36694000  1.0 -0.4786520032
O  O42  1  0.07693000  0.60727000  0.33067000  1.0 -0.4681774628
O  O43  1  0.14412000  0.36694000  0.52772000  1.0 -0.4786520032
O  O44  1  0.98513000  0.33067000  0.60727000  1.0 -0.4681774628
O  O45  1  0.52772000  0.96122000  0.14412000  1.0 -0.4681774628
O  O46  1  0.60727000  0.07693000  0.98513000  1.0 -0.4681774628
O  O47  1  0.36694000  0.14412000  0.96122000  1.0 -0.4681774628
O  O48  1  0.33067000  0.98513000  0.07693000  1.0 -0.4644748207
O  O49  1  0.14412000  0.36694000  0.96122000  1.0 -0.4786520032
O  O50  1  0.98513000  0.33067000  0.07693000  1.0 -0.4644748207
O  O51  1  0.96122000  0.52772000  0.14412000  1.0 -0.4786520032
O  O52  1  0.07693000  0.60727000  0.98513000  1.0 -0.4644748207
O  O53  1  0.36694000  0.14412000  0.52772000  1.0 -0.4786520032
O  O54  1  0.33067000  0.98513000  0.60727000  1.0 -0.4644748207
O  O55  1  0.52772000  0.96122000  0.36694000  1.0 -0.4786520032
O  O56  1  0.60727000  0.07693000  0.33067000  1.0 -0.4681774628
O  O57  1  0.36694000  0.96122000  0.14412000  1.0 -0.4681774628
O  O58  1  0.33067000  0.07693000  0.98513000  1.0 -0.4681774628
O  O59  1  0.52772000  0.14412000  0.96122000  1.0 -0.4681774628
O  O60  1  0.60727000  0.98513000  0.07693000  1.0 -0.4644748207
O  O61  1  0.14412000  0.52772000  0.36694000  1.0 -0.4786520032
O  O62  1  0.98513000  0.60727000  0.33067000  1.0 -0.4681774628
O  O63  1  0.96122000  0.36694000  0.52772000  1.0 -0.4786520032
O  O64  1  0.07693000  0.33067000  0.60727000  1.0 -0.4644748207
O  O65  1  0.96122000  0.14412000  0.36694000  1.0 -0.4786520032
O  O66  1  0.07693000  0.98513000  0.33067000  1.0 -0.4681774628
O  O67  1  0.14412000  0.96122000  0.52772000  1.0 -0.4786520032
O  O68  1  0.98513000  0.07693000  0.60727000  1.0 -0.4644748207
O  O69  1  0.52772000  0.36694000  0.14412000  1.0 -0.4786520032
O  O70  1  0.60727000  0.33067000  0.98513000  1.0 -0.4681774628
O  O71  1  0.36694000  0.52772000  0.96122000  1.0 -0.4681774628
O  O72  1  0.33067000  0.60727000  0.07693000  1.0 -0.4681774628
O  O73  1  0.85588000  0.47228000  0.03878000  1.0 -0.4786520032
O  O74  1  0.01487000  0.39273000  0.92307000  1.0 -0.4681774628
O  O75  1  0.03878000  0.63306000  0.85588000  1.0 -0.4681774628
O  O76  1  0.92307000  0.66933000  0.01487000  1.0 -0.4681774628
O  O77  1  0.63306000  0.03878000  0.47228000  1.0 -0.4786520032
O  O78  1  0.66933000  0.92307000  0.39273000  1.0 -0.4644748207
O  O79  1  0.47228000  0.85588000  0.63306000  1.0 -0.4786520032
O  O80  1  0.39273000  0.01487000  0.66933000  1.0 -0.4644748207
O  O81  1  0.63306000  0.47228000  0.85588000  1.0 -0.4786520032
O  O82  1  0.66933000  0.39273000  0.01487000  1.0 -0.4644748207
O  O83  1  0.47228000  0.63306000  0.03878000  1.0 -0.4786520032
O  O84  1  0.39273000  0.66933000  0.92307000  1.0 -0.4644748207
O  O85  1  0.85588000  0.03878000  0.63306000  1.0 -0.4786520032
O  O86  1  0.01487000  0.92307000  0.66933000  1.0 -0.4644748207
O  O87  1  0.03878000  0.85588000  0.47228000  1.0 -0.4786520032
O  O88  1  0.92307000  0.01487000  0.39273000  1.0 -0.4644748207
O  O89  1  0.03878000  0.47228000  0.63306000  1.0 -0.4786520032
O  O90  1  0.92307000  0.39273000  0.66933000  1.0 -0.4681774628
O  O91  1  0.85588000  0.63306000  0.47228000  1.0 -0.4786520032
O  O92  1  0.01487000  0.66933000  0.39273000  1.0 -0.4644748207
O  O93  1  0.47228000  0.03878000  0.85588000  1.0 -0.4786520032
O  O94  1  0.39273000  0.92307000  0.01487000  1.0 -0.4644748207
O  O95  1  0.63306000  0.85588000  0.03878000  1.0 -0.4786520032
O  O96  1  0.66933000  0.01487000  0.92307000  1.0 -0.4681774628
O  O97  1  0.83843000  0.60457000  0.95243000  1.0 -0.7617123883
O  O98  1  0.80746000  0.54120000  0.11014000  1.0 -0.6894048033
O  O99  1  0.95243000  0.60457000  0.83843000  1.0 -0.7502819029
O  O100  1  0.11014000  0.54120000  0.80746000  1.0 -0.6691623291
O  O101  1  0.60457000  0.83843000  0.60457000  1.0 -0.7617123883
O  O102  1  0.54120000  0.80746000  0.54120000  1.0 -0.6809714762
O  O103  1  0.60457000  0.95243000  0.60457000  1.0 -0.7617123883
O  O104  1  0.54120000  0.11014000  0.54120000  1.0 -0.6691623291
O  O105  1  0.60457000  0.95243000  0.83843000  1.0 -0.7617123883
O  O106  1  0.54120000  0.11014000  0.80746000  1.0 -0.6894048033
O  O107  1  0.60457000  0.83843000  0.95243000  1.0 -0.7502819029
O  O108  1  0.54120000  0.80746000  0.11014000  1.0 -0.6691623291
O  O109  1  0.83843000  0.60457000  0.60457000  1.0 -0.7502819029
O  O110  1  0.80746000  0.54120000  0.54120000  1.0 -0.6894048033
O  O111  1  0.95243000  0.60457000  0.60457000  1.0 -0.7617123883
O  O112  1  0.11014000  0.54120000  0.54120000  1.0 -0.6894048033
O  O113  1  0.95243000  0.83843000  0.60457000  1.0 -0.7502819029
O  O114  1  0.11014000  0.80746000  0.54120000  1.0 -0.6894048033
O  O115  1  0.83843000  0.95243000  0.60457000  1.0 -0.7502819029
O  O116  1  0.80746000  0.11014000  0.54120000  1.0 -0.6691623291
O  O117  1  0.60457000  0.60457000  0.83843000  1.0 -0.7502819029
O  O118  1  0.54120000  0.54120000  0.80746000  1.0 -0.6691623291
O  O119  1  0.60457000  0.60457000  0.95243000  1.0 -0.7617123883
O  O120  1  0.54120000  0.54120000  0.11014000  1.0 -0.6627114244
O  O121  1  0.16157000  0.39543000  0.04757000  1.0 -0.7502819029
O  O122  1  0.19254000  0.45880000  0.88986000  1.0 -0.6691623291
O  O123  1  0.04757000  0.39543000  0.16157000  1.0 -0.7654402283
O  O124  1  0.88986000  0.45880000  0.19254000  1.0 -0.6627114244
O  O125  1  0.39543000  0.04757000  0.39543000  1.0 -0.7654402283
O  O126  1  0.45880000  0.88986000  0.45880000  1.0 -0.6809714762
O  O127  1  0.39543000  0.16157000  0.39543000  1.0 -0.7502819029
O  O128  1  0.45880000  0.19254000  0.45880000  1.0 -0.6894048033
O  O129  1  0.39543000  0.39543000  0.16157000  1.0 -0.7617123883
O  O130  1  0.45880000  0.45880000  0.19254000  1.0 -0.6809714762
O  O131  1  0.39543000  0.39543000  0.04757000  1.0 -0.7617123883
O  O132  1  0.45880000  0.45880000  0.88986000  1.0 -0.6627114244
O  O133  1  0.16157000  0.04757000  0.39543000  1.0 -0.7502819029
O  O134  1  0.19254000  0.88986000  0.45880000  1.0 -0.6691623291
O  O135  1  0.04757000  0.16157000  0.39543000  1.0 -0.7617123883
O  O136  1  0.88986000  0.19254000  0.45880000  1.0 -0.6894048033
O  O137  1  0.04757000  0.39543000  0.39543000  1.0 -0.7502819029
O  O138  1  0.88986000  0.45880000  0.45880000  1.0 -0.6809714762
O  O139  1  0.16157000  0.39543000  0.39543000  1.0 -0.7502819029
O  O140  1  0.19254000  0.45880000  0.45880000  1.0 -0.6894048033
O  O141  1  0.39543000  0.04757000  0.16157000  1.0 -0.7502819029
O  O142  1  0.45880000  0.88986000  0.19254000  1.0 -0.6691623291
O  O143  1  0.39543000  0.16157000  0.04757000  1.0 -0.7654402283
O  O144  1  0.45880000  0.19254000  0.88986000  1.0 -0.6691623291
O  O145  1  0.95590000  0.58948000  0.95590000  1.0 -0.9890609689
O  O146  1  0.95590000  0.49872000  0.95590000  1.0 -0.9969197539
O  O147  1  0.58948000  0.95590000  0.49872000  1.0 -0.9890609689
O  O148  1  0.49872000  0.95590000  0.58948000  1.0 -0.9890609689
O  O149  1  0.58948000  0.95590000  0.95590000  1.0 -0.9890609689
O  O150  1  0.49872000  0.95590000  0.95590000  1.0 -0.9890609689
O  O151  1  0.95590000  0.49872000  0.58948000  1.0 -0.9969197539
O  O152  1  0.95590000  0.58948000  0.49872000  1.0 -0.9890609689
O  O153  1  0.95590000  0.95590000  0.58948000  1.0 -0.9890609689
O  O154  1  0.95590000  0.95590000  0.49872000  1.0 -0.9890609689
O  O155  1  0.49872000  0.58948000  0.95590000  1.0 -0.9890609689
O  O156  1  0.58948000  0.49872000  0.95590000  1.0 -0.9969197539
O  O157  1  0.04410000  0.50128000  0.04410000  1.0 -0.9969197539
O  O158  1  0.04410000  0.41052000  0.04410000  1.0 -0.9890609689
O  O159  1  0.41052000  0.04410000  0.50128000  1.0 -0.9890609689
O  O160  1  0.50128000  0.04410000  0.41052000  1.0 -0.9969197539
O  O161  1  0.41052000  0.50128000  0.04410000  1.0 -0.9969197539
O  O162  1  0.50128000  0.41052000  0.04410000  1.0 -0.9890609689
O  O163  1  0.04410000  0.04410000  0.41052000  1.0 -0.9969197539
O  O164  1  0.04410000  0.04410000  0.50128000  1.0 -0.9890609689
O  O165  1  0.04410000  0.50128000  0.41052000  1.0 -0.9969197539
O  O166  1  0.04410000  0.41052000  0.50128000  1.0 -0.9890609689
O  O167  1  0.50128000  0.04410000  0.04410000  1.0 -0.9969197539
O  O168  1  0.41052000  0.04410000  0.04410000  1.0 -0.9890609689
O  O169  1  0.93501000  0.45635000  0.06499000  1.0 -0.9397057887
O  O170  1  0.06499000  0.54365000  0.93501000  1.0 -0.9458774356
O  O171  1  0.45635000  0.93501000  0.54365000  1.0 -0.9397057887
O  O172  1  0.54365000  0.06499000  0.45635000  1.0 -0.9397057887
O  O173  1  0.45635000  0.06499000  0.93501000  1.0 -0.9397057887
O  O174  1  0.54365000  0.93501000  0.06499000  1.0 -0.9397057887
O  O175  1  0.93501000  0.54365000  0.45635000  1.0 -0.9397057887
O  O176  1  0.06499000  0.45635000  0.54365000  1.0 -0.9397057887
O  O177  1  0.06499000  0.93501000  0.45635000  1.0 -0.9397057887
O  O178  1  0.93501000  0.06499000  0.54365000  1.0 -0.9397057887
O  O179  1  0.54365000  0.45635000  0.93501000  1.0 -0.9397057887
O  O180  1  0.45635000  0.54365000  0.06499000  1.0 -0.9345704344
O  O181  1  0.06499000  0.45635000  0.93501000  1.0 -0.9397057887
O  O182  1  0.93501000  0.54365000  0.06499000  1.0 -0.9345704344
O  O183  1  0.54365000  0.93501000  0.45635000  1.0 -0.9397057887
O  O184  1  0.45635000  0.06499000  0.54365000  1.0 -0.9397057887
O  O185  1  0.54365000  0.45635000  0.06499000  1.0 -0.9397057887
O  O186  1  0.45635000  0.54365000  0.93501000  1.0 -0.9397057887
O  O187  1  0.06499000  0.93501000  0.54365000  1.0 -0.9458774356
O  O188  1  0.93501000  0.06499000  0.45635000  1.0 -0.9397057887
O  O189  1  0.93501000  0.45635000  0.54365000  1.0 -0.9345704344
O  O190  1  0.06499000  0.54365000  0.45635000  1.0 -0.9397057887
O  O191  1  0.45635000  0.93501000  0.06499000  1.0 -0.9397057887
O  O192  1  0.54365000  0.06499000  0.93501000  1.0 -0.9397057887
