# DDEC6 charges by PACMAN v1.1 (https://github.com/mtap-research/PACMAN-charge/)
data_NIKVAH_FSR_pacman
_symmetry_space_group_name_H-M   'P 1'
_cell_length_a   19.58110000
_cell_length_b   19.58110000
_cell_length_c   19.58110000
_cell_angle_alpha   90.00000000
_cell_angle_beta   90.00000000
_cell_angle_gamma   90.00000000
_symmetry_Int_Tables_number   1
_chemical_formula_structural   Zr3C15(N3O8)2
_chemical_formula_sum   'Zr24 C120 N48 O128'
_cell_volume   7507.77512520
_cell_formula_units_Z   8
loop_
 _symmetry_equiv_pos_site_id
 _symmetry_equiv_pos_as_xyz
  1  'x, y, z'
loop_
 _atom_site_type_symbol
 _atom_site_label
 _atom_site_symmetry_multiplicity
 _atom_site_fract_x
 _atom_site_fract_y
 _atom_site_fract_z
 _atom_site_occupancy
 _atom_site_charge
Zr  Zr1  1  0.50760000  0.49237000  0.62271000  1.0 2.3625522876
Zr  Zr2  1  0.99240000  0.50763000  0.12271000  1.0 2.366130924
Zr  Zr3  1  0.49240000  0.99237000  0.87729000  1.0 2.366130924
Zr  Zr4  1  0.00760000  0.00763000  0.37729000  1.0 2.3625522876
Zr  Zr5  1  0.62271000  0.50760000  0.49237000  1.0 2.3625522876
Zr  Zr6  1  0.12271000  0.99240000  0.50763000  1.0 2.366130924
Zr  Zr7  1  0.87729000  0.49240000  0.99237000  1.0 2.3625522876
Zr  Zr8  1  0.37729000  0.00760000  0.00763000  1.0 2.3625522876
Zr  Zr9  1  0.49237000  0.62271000  0.50760000  1.0 2.3625522876
Zr  Zr10  1  0.50763000  0.12271000  0.99240000  1.0 2.3625522876
Zr  Zr11  1  0.99237000  0.87729000  0.49240000  1.0 2.3625522876
Zr  Zr12  1  0.00763000  0.37729000  0.00760000  1.0 2.3625522876
Zr  Zr13  1  0.49240000  0.50763000  0.37729000  1.0 2.3625522876
Zr  Zr14  1  0.00760000  0.49237000  0.87729000  1.0 2.366130924
Zr  Zr15  1  0.50760000  0.00763000  0.12271000  1.0 2.366130924
Zr  Zr16  1  0.99240000  0.99237000  0.62271000  1.0 2.3625522876
Zr  Zr17  1  0.37729000  0.49240000  0.50763000  1.0 2.3625522876
Zr  Zr18  1  0.87729000  0.00760000  0.49237000  1.0 2.366130924
Zr  Zr19  1  0.12271000  0.50760000  0.00763000  1.0 2.366130924
Zr  Zr20  1  0.62271000  0.99240000  0.99237000  1.0 2.3625522876
Zr  Zr21  1  0.50763000  0.37729000  0.49240000  1.0 2.3625522876
Zr  Zr22  1  0.49237000  0.87729000  0.00760000  1.0 2.366130924
Zr  Zr23  1  0.00763000  0.12271000  0.50760000  1.0 2.366130924
Zr  Zr24  1  0.99237000  0.62271000  0.99240000  1.0 2.3625522876
C  C1  1  0.66959000  0.49799000  0.64742000  1.0 0.6775826625
C  C2  1  0.73515000  0.49373000  0.68815000  1.0 0.0696387433
C  C3  1  0.86753000  0.48090000  0.82499000  1.0 0.6775826625
C  C4  1  0.82012000  0.48493000  0.76428000  1.0 0.0696387433
C  C5  1  0.74828000  0.48349000  0.75821000  1.0 -0.088888875
C  C6  1  0.83041000  0.50201000  0.14742000  1.0 0.6775826625
C  C7  1  0.76485000  0.50627000  0.18815000  1.0 0.0696387433
C  C8  1  0.63247000  0.51910000  0.32499000  1.0 0.6775826625
C  C9  1  0.67988000  0.51507000  0.26428000  1.0 0.0696387433
C  C10  1  0.75172000  0.51651000  0.25821000  1.0 -0.088888875
C  C11  1  0.33041000  0.99799000  0.85258000  1.0 0.6775826625
C  C12  1  0.26485000  0.99373000  0.81185000  1.0 0.0696387433
C  C13  1  0.13247000  0.98090000  0.67501000  1.0 0.6775826625
C  C14  1  0.17988000  0.98493000  0.73572000  1.0 0.0696387433
C  C15  1  0.25172000  0.98349000  0.74179000  1.0 -0.088888875
C  C16  1  0.16959000  0.00201000  0.35258000  1.0 0.6775826625
C  C17  1  0.23515000  0.00627000  0.31185000  1.0 0.0696387433
C  C18  1  0.36753000  0.01910000  0.17501000  1.0 0.6775826625
C  C19  1  0.32012000  0.01507000  0.23572000  1.0 0.0696387433
C  C20  1  0.24828000  0.01651000  0.24179000  1.0 -0.088888875
C  C21  1  0.64742000  0.66959000  0.49799000  1.0 0.6775826625
C  C22  1  0.68815000  0.73515000  0.49373000  1.0 0.0696387433
C  C23  1  0.82499000  0.86753000  0.48090000  1.0 0.6775826625
C  C24  1  0.76428000  0.82012000  0.48493000  1.0 0.0696387433
C  C25  1  0.75821000  0.74828000  0.48349000  1.0 -0.088888875
C  C26  1  0.14742000  0.83041000  0.50201000  1.0 0.6775826625
C  C27  1  0.18815000  0.76485000  0.50627000  1.0 0.0696387433
C  C28  1  0.32499000  0.63247000  0.51910000  1.0 0.6775826625
C  C29  1  0.26428000  0.67988000  0.51507000  1.0 0.0696387433
C  C30  1  0.25821000  0.75172000  0.51651000  1.0 -0.088888875
C  C31  1  0.85258000  0.33041000  0.99799000  1.0 0.6775826625
C  C32  1  0.81185000  0.26485000  0.99373000  1.0 0.0696387433
C  C33  1  0.67501000  0.13247000  0.98090000  1.0 0.6775826625
C  C34  1  0.73572000  0.17988000  0.98493000  1.0 0.0696387433
C  C35  1  0.74179000  0.25172000  0.98349000  1.0 -0.088888875
C  C36  1  0.35258000  0.16959000  0.00201000  1.0 0.6775826625
C  C37  1  0.31185000  0.23515000  0.00627000  1.0 0.0696387433
C  C38  1  0.17501000  0.36753000  0.01910000  1.0 0.6775826625
C  C39  1  0.23572000  0.32012000  0.01507000  1.0 0.0696387433
C  C40  1  0.24179000  0.24828000  0.01651000  1.0 -0.088888875
C  C41  1  0.49799000  0.64742000  0.66959000  1.0 0.6775826625
C  C42  1  0.49373000  0.68815000  0.73515000  1.0 0.0696387433
C  C43  1  0.48090000  0.82499000  0.86753000  1.0 0.6775826625
C  C44  1  0.48493000  0.76428000  0.82012000  1.0 0.0696387433
C  C45  1  0.48349000  0.75821000  0.74828000  1.0 -0.088888875
C  C46  1  0.50201000  0.14742000  0.83041000  1.0 0.6775826625
C  C47  1  0.50627000  0.18815000  0.76485000  1.0 0.0696387433
C  C48  1  0.51910000  0.32499000  0.63247000  1.0 0.6775826625
C  C49  1  0.51507000  0.26428000  0.67988000  1.0 0.0696387433
C  C50  1  0.51651000  0.25821000  0.75172000  1.0 -0.088888875
C  C51  1  0.99799000  0.85258000  0.33041000  1.0 0.6775826625
C  C52  1  0.99373000  0.81185000  0.26485000  1.0 0.0696387433
C  C53  1  0.98090000  0.67501000  0.13247000  1.0 0.6775826625
C  C54  1  0.98493000  0.73572000  0.17988000  1.0 0.0696387433
C  C55  1  0.98349000  0.74179000  0.25172000  1.0 -0.088888875
C  C56  1  0.00201000  0.35258000  0.16959000  1.0 0.6775826625
C  C57  1  0.00627000  0.31185000  0.23515000  1.0 0.0696387433
C  C58  1  0.01910000  0.17501000  0.36753000  1.0 0.6775826625
C  C59  1  0.01507000  0.23572000  0.32012000  1.0 0.0696387433
C  C60  1  0.01651000  0.24179000  0.24828000  1.0 -0.088888875
C  C61  1  0.33041000  0.50201000  0.35258000  1.0 0.6775826625
C  C62  1  0.26485000  0.50627000  0.31185000  1.0 0.0696387433
C  C63  1  0.13247000  0.51910000  0.17501000  1.0 0.6775826625
C  C64  1  0.17988000  0.51507000  0.23572000  1.0 0.0696387433
C  C65  1  0.25172000  0.51651000  0.24179000  1.0 -0.088888875
C  C66  1  0.16959000  0.49799000  0.85258000  1.0 0.6775826625
C  C67  1  0.23515000  0.49373000  0.81185000  1.0 0.0696387433
C  C68  1  0.36753000  0.48090000  0.67501000  1.0 0.6775826625
C  C69  1  0.32012000  0.48493000  0.73572000  1.0 0.0696387433
C  C70  1  0.24828000  0.48349000  0.74179000  1.0 -0.088888875
C  C71  1  0.66959000  0.00201000  0.14742000  1.0 0.6775826625
C  C72  1  0.73515000  0.00627000  0.18815000  1.0 0.0696387433
C  C73  1  0.86753000  0.01910000  0.32499000  1.0 0.6775826625
C  C74  1  0.82012000  0.01507000  0.26428000  1.0 0.0696387433
C  C75  1  0.74828000  0.01651000  0.25821000  1.0 -0.088888875
C  C76  1  0.83041000  0.99799000  0.64742000  1.0 0.6775826625
C  C77  1  0.76485000  0.99373000  0.68815000  1.0 0.0696387433
C  C78  1  0.63247000  0.98090000  0.82499000  1.0 0.6775826625
C  C79  1  0.67988000  0.98493000  0.76428000  1.0 0.0696387433
C  C80  1  0.75172000  0.98349000  0.75821000  1.0 -0.088888875
C  C81  1  0.35258000  0.33041000  0.50201000  1.0 0.6775826625
C  C82  1  0.31185000  0.26485000  0.50627000  1.0 0.0696387433
C  C83  1  0.17501000  0.13247000  0.51910000  1.0 0.6775826625
C  C84  1  0.23572000  0.17988000  0.51507000  1.0 0.0696387433
C  C85  1  0.24179000  0.25172000  0.51651000  1.0 -0.088888875
C  C86  1  0.85258000  0.16959000  0.49799000  1.0 0.6775826625
C  C87  1  0.81185000  0.23515000  0.49373000  1.0 0.0696387433
C  C88  1  0.67501000  0.36753000  0.48090000  1.0 0.6775826625
C  C89  1  0.73572000  0.32012000  0.48493000  1.0 0.0696387433
C  C90  1  0.74179000  0.24828000  0.48349000  1.0 -0.088888875
C  C91  1  0.14742000  0.66959000  0.00201000  1.0 0.6775826625
C  C92  1  0.18815000  0.73515000  0.00627000  1.0 0.0696387433
C  C93  1  0.32499000  0.86753000  0.01910000  1.0 0.6775826625
C  C94  1  0.26428000  0.82012000  0.01507000  1.0 0.0696387433
C  C95  1  0.25821000  0.74828000  0.01651000  1.0 -0.088888875
C  C96  1  0.64742000  0.83041000  0.99799000  1.0 0.6775826625
C  C97  1  0.68815000  0.76485000  0.99373000  1.0 0.0696387433
C  C98  1  0.82499000  0.63247000  0.98090000  1.0 0.6775826625
C  C99  1  0.76428000  0.67988000  0.98493000  1.0 0.0696387433
C  C100  1  0.75821000  0.75172000  0.98349000  1.0 -0.088888875
C  C101  1  0.50201000  0.35258000  0.33041000  1.0 0.6775826625
C  C102  1  0.50627000  0.31185000  0.26485000  1.0 0.0696387433
C  C103  1  0.51910000  0.17501000  0.13247000  1.0 0.6775826625
C  C104  1  0.51507000  0.23572000  0.17988000  1.0 0.0696387433
C  C105  1  0.51651000  0.24179000  0.25172000  1.0 -0.088888875
C  C106  1  0.49799000  0.85258000  0.16959000  1.0 0.6775826625
C  C107  1  0.49373000  0.81185000  0.23515000  1.0 0.0696387433
C  C108  1  0.48090000  0.67501000  0.36753000  1.0 0.6775826625
C  C109  1  0.48493000  0.73572000  0.32012000  1.0 0.0696387433
C  C110  1  0.48349000  0.74179000  0.24828000  1.0 -0.088888875
C  C111  1  0.00201000  0.14742000  0.66959000  1.0 0.6775826625
C  C112  1  0.00627000  0.18815000  0.73515000  1.0 0.0696387433
C  C113  1  0.01910000  0.32499000  0.86753000  1.0 0.6775826625
C  C114  1  0.01507000  0.26428000  0.82012000  1.0 0.0696387433
C  C115  1  0.01651000  0.25821000  0.74828000  1.0 -0.088888875
C  C116  1  0.99799000  0.64742000  0.83041000  1.0 0.6775826625
C  C117  1  0.99373000  0.68815000  0.76485000  1.0 0.0696387433
C  C118  1  0.98090000  0.82499000  0.63247000  1.0 0.6775826625
C  C119  1  0.98493000  0.76428000  0.67988000  1.0 0.0696387433
C  C120  1  0.98349000  0.75821000  0.75172000  1.0 -0.088888875
N  N1  1  0.79598000  0.50010000  0.65723000  1.0 -0.143022513
N  N2  1  0.84605000  0.49507000  0.70169000  1.0 -0.1039360936
N  N3  1  0.70402000  0.49990000  0.15723000  1.0 -0.143022513
N  N4  1  0.65395000  0.50493000  0.20169000  1.0 -0.1039360936
N  N5  1  0.20402000  0.00010000  0.84277000  1.0 -0.143022513
N  N6  1  0.15395000  0.99507000  0.79831000  1.0 -0.1039360936
N  N7  1  0.29598000  0.99990000  0.34277000  1.0 -0.143022513
N  N8  1  0.34605000  0.00493000  0.29831000  1.0 -0.1059691684
N  N9  1  0.65723000  0.79598000  0.50010000  1.0 -0.143022513
N  N10  1  0.70169000  0.84605000  0.49507000  1.0 -0.1039360936
N  N11  1  0.15723000  0.70402000  0.49990000  1.0 -0.143022513
N  N12  1  0.20169000  0.65395000  0.50493000  1.0 -0.1039360936
N  N13  1  0.84277000  0.20402000  0.00010000  1.0 -0.143022513
N  N14  1  0.79831000  0.15395000  0.99507000  1.0 -0.1039360936
N  N15  1  0.34277000  0.29598000  0.99990000  1.0 -0.143022513
N  N16  1  0.29831000  0.34605000  0.00493000  1.0 -0.1039360936
N  N17  1  0.50010000  0.65723000  0.79598000  1.0 -0.143022513
N  N18  1  0.49507000  0.70169000  0.84605000  1.0 -0.1059691684
N  N19  1  0.49990000  0.15723000  0.70402000  1.0 -0.143022513
N  N20  1  0.50493000  0.20169000  0.65395000  1.0 -0.1039360936
N  N21  1  0.00010000  0.84277000  0.20402000  1.0 -0.143022513
N  N22  1  0.99507000  0.79831000  0.15395000  1.0 -0.1039360936
N  N23  1  0.99990000  0.34277000  0.29598000  1.0 -0.143022513
N  N24  1  0.00493000  0.29831000  0.34605000  1.0 -0.1039360936
N  N25  1  0.20402000  0.49990000  0.34277000  1.0 -0.143022513
N  N26  1  0.15395000  0.50493000  0.29831000  1.0 -0.1059691684
N  N27  1  0.29598000  0.50010000  0.84277000  1.0 -0.143022513
N  N28  1  0.34605000  0.49507000  0.79831000  1.0 -0.1059691684
N  N29  1  0.79598000  0.99990000  0.15723000  1.0 -0.143022513
N  N30  1  0.84605000  0.00493000  0.20169000  1.0 -0.1059691684
N  N31  1  0.70402000  0.00010000  0.65723000  1.0 -0.143022513
N  N32  1  0.65395000  0.99507000  0.70169000  1.0 -0.1039360936
N  N33  1  0.34277000  0.20402000  0.49990000  1.0 -0.143022513
N  N34  1  0.29831000  0.15395000  0.50493000  1.0 -0.1059691684
N  N35  1  0.84277000  0.29598000  0.50010000  1.0 -0.143022513
N  N36  1  0.79831000  0.34605000  0.49507000  1.0 -0.1059691684
N  N37  1  0.15723000  0.79598000  0.99990000  1.0 -0.1453587339
N  N38  1  0.20169000  0.84605000  0.00493000  1.0 -0.1039360936
N  N39  1  0.65723000  0.70402000  0.00010000  1.0 -0.143022513
N  N40  1  0.70169000  0.65395000  0.99507000  1.0 -0.1039360936
N  N41  1  0.49990000  0.34277000  0.20402000  1.0 -0.143022513
N  N42  1  0.50493000  0.29831000  0.15395000  1.0 -0.1059691684
N  N43  1  0.50010000  0.84277000  0.29598000  1.0 -0.143022513
N  N44  1  0.49507000  0.79831000  0.34605000  1.0 -0.1059691684
N  N45  1  0.99990000  0.15723000  0.79598000  1.0 -0.143022513
N  N46  1  0.00493000  0.20169000  0.84605000  1.0 -0.1039360936
N  N47  1  0.00010000  0.65723000  0.70402000  1.0 -0.143022513
N  N48  1  0.99507000  0.70169000  0.65395000  1.0 -0.1039360936
O  O1  1  0.57201000  0.43553000  0.55293000  1.0 -1.040399575
O  O2  1  0.93042000  0.47940000  0.80520000  1.0 -0.5576855367
O  O3  1  0.60770000  0.50080000  0.66950000  1.0 -0.5356734906
O  O4  1  0.83983000  0.47910000  0.88413000  1.0 -0.5201579325
O  O5  1  0.68510000  0.49880000  0.58383000  1.0 -0.5201579325
O  O6  1  0.92799000  0.56447000  0.05293000  1.0 -1.0464860574
O  O7  1  0.56958000  0.52060000  0.30520000  1.0 -0.5576855367
O  O8  1  0.89230000  0.49920000  0.16950000  1.0 -0.5328483558
O  O9  1  0.66017000  0.52090000  0.38413000  1.0 -0.5201579325
O  O10  1  0.81490000  0.50120000  0.08383000  1.0 -0.5201579325
O  O11  1  0.42799000  0.93553000  0.94707000  1.0 -1.0464860574
O  O12  1  0.06958000  0.97940000  0.69480000  1.0 -0.5576855367
O  O13  1  0.39230000  0.00080000  0.83050000  1.0 -0.5328483558
O  O14  1  0.16017000  0.97910000  0.61587000  1.0 -0.5201579325
O  O15  1  0.31490000  0.99880000  0.91617000  1.0 -0.5201579325
O  O16  1  0.07201000  0.06447000  0.44707000  1.0 -1.040399575
O  O17  1  0.43042000  0.02060000  0.19480000  1.0 -0.5576855367
O  O18  1  0.10770000  0.99920000  0.33050000  1.0 -0.5356734906
O  O19  1  0.33983000  0.02090000  0.11587000  1.0 -0.5201579325
O  O20  1  0.18510000  0.00120000  0.41617000  1.0 -0.5201579325
O  O21  1  0.55293000  0.57201000  0.43553000  1.0 -1.040399575
O  O22  1  0.80520000  0.93042000  0.47940000  1.0 -0.5576855367
O  O23  1  0.66950000  0.60770000  0.50080000  1.0 -0.5356734906
O  O24  1  0.88413000  0.83983000  0.47910000  1.0 -0.5201579325
O  O25  1  0.58383000  0.68510000  0.49880000  1.0 -0.5201579325
O  O26  1  0.05293000  0.92799000  0.56447000  1.0 -1.0464860574
O  O27  1  0.30520000  0.56958000  0.52060000  1.0 -0.5576855367
O  O28  1  0.16950000  0.89230000  0.49920000  1.0 -0.5356734906
O  O29  1  0.38413000  0.66017000  0.52090000  1.0 -0.5201579325
O  O30  1  0.08383000  0.81490000  0.50120000  1.0 -0.5201579325
O  O31  1  0.94707000  0.42799000  0.93553000  1.0 -1.0464860574
O  O32  1  0.69480000  0.06958000  0.97940000  1.0 -0.5576855367
O  O33  1  0.83050000  0.39230000  0.00080000  1.0 -0.5328483558
O  O34  1  0.61587000  0.16017000  0.97910000  1.0 -0.5201579325
O  O35  1  0.91617000  0.31490000  0.99880000  1.0 -0.5201579325
O  O36  1  0.44707000  0.07201000  0.06447000  1.0 -1.040399575
O  O37  1  0.19480000  0.43042000  0.02060000  1.0 -0.5576855367
O  O38  1  0.33050000  0.10770000  0.99920000  1.0 -0.5356734906
O  O39  1  0.11587000  0.33983000  0.02090000  1.0 -0.5201579325
O  O40  1  0.41617000  0.18510000  0.00120000  1.0 -0.5201579325
O  O41  1  0.43553000  0.55293000  0.57201000  1.0 -1.040399575
O  O42  1  0.47940000  0.80520000  0.93042000  1.0 -0.5576855367
O  O43  1  0.50080000  0.66950000  0.60770000  1.0 -0.5356734906
O  O44  1  0.47910000  0.88413000  0.83983000  1.0 -0.5201579325
O  O45  1  0.49880000  0.58383000  0.68510000  1.0 -0.5201579325
O  O46  1  0.56447000  0.05293000  0.92799000  1.0 -1.0464860574
O  O47  1  0.52060000  0.30520000  0.56958000  1.0 -0.5576855367
O  O48  1  0.49920000  0.16950000  0.89230000  1.0 -0.5328483558
O  O49  1  0.52090000  0.38413000  0.66017000  1.0 -0.5201579325
O  O50  1  0.50120000  0.08383000  0.81490000  1.0 -0.5201579325
O  O51  1  0.93553000  0.94707000  0.42799000  1.0 -1.0464860574
O  O52  1  0.97940000  0.69480000  0.06958000  1.0 -0.5576855367
O  O53  1  0.00080000  0.83050000  0.39230000  1.0 -0.5328483558
O  O54  1  0.97910000  0.61587000  0.16017000  1.0 -0.5201579325
O  O55  1  0.99880000  0.91617000  0.31490000  1.0 -0.5201579325
O  O56  1  0.06447000  0.44707000  0.07201000  1.0 -1.040399575
O  O57  1  0.02060000  0.19480000  0.43042000  1.0 -0.5576855367
O  O58  1  0.99920000  0.33050000  0.10770000  1.0 -0.5328483558
O  O59  1  0.02090000  0.11587000  0.33983000  1.0 -0.5201579325
O  O60  1  0.00120000  0.41617000  0.18510000  1.0 -0.5201579325
O  O61  1  0.42799000  0.56447000  0.44707000  1.0 -1.040399575
O  O62  1  0.06958000  0.52060000  0.19480000  1.0 -0.5576855367
O  O63  1  0.39230000  0.49920000  0.33050000  1.0 -0.5328483558
O  O64  1  0.16017000  0.52090000  0.11587000  1.0 -0.5201579325
O  O65  1  0.31490000  0.50120000  0.41617000  1.0 -0.5201579325
O  O66  1  0.07201000  0.43553000  0.94707000  1.0 -1.040399575
O  O67  1  0.43042000  0.47940000  0.69480000  1.0 -0.5576855367
O  O68  1  0.10770000  0.50080000  0.83050000  1.0 -0.5356734906
O  O69  1  0.33983000  0.47910000  0.61587000  1.0 -0.5201579325
O  O70  1  0.18510000  0.49880000  0.91617000  1.0 -0.5328483558
O  O71  1  0.57201000  0.06447000  0.05293000  1.0 -1.040399575
O  O72  1  0.93042000  0.02060000  0.30520000  1.0 -0.5576855367
O  O73  1  0.60770000  0.99920000  0.16950000  1.0 -0.5356734906
O  O74  1  0.83983000  0.02090000  0.38413000  1.0 -0.5201579325
O  O75  1  0.68510000  0.00120000  0.08383000  1.0 -0.5201579325
O  O76  1  0.92799000  0.93553000  0.55293000  1.0 -1.040399575
O  O77  1  0.56958000  0.97940000  0.80520000  1.0 -0.5576855367
O  O78  1  0.89230000  0.00080000  0.66950000  1.0 -0.5356734906
O  O79  1  0.66017000  0.97910000  0.88413000  1.0 -0.5201579325
O  O80  1  0.81490000  0.99880000  0.58383000  1.0 -0.5201579325
O  O81  1  0.44707000  0.42799000  0.56447000  1.0 -1.040399575
O  O82  1  0.19480000  0.06958000  0.52060000  1.0 -0.5576855367
O  O83  1  0.33050000  0.39230000  0.49920000  1.0 -0.5328483558
O  O84  1  0.11587000  0.16017000  0.52090000  1.0 -0.5201579325
O  O85  1  0.41617000  0.31490000  0.50120000  1.0 -0.5201579325
O  O86  1  0.94707000  0.07201000  0.43553000  1.0 -1.040399575
O  O87  1  0.69480000  0.43042000  0.47940000  1.0 -0.5576855367
O  O88  1  0.83050000  0.10770000  0.50080000  1.0 -0.5328483558
O  O89  1  0.61587000  0.33983000  0.47910000  1.0 -0.5201579325
O  O90  1  0.91617000  0.18510000  0.49880000  1.0 -0.5201579325
O  O91  1  0.05293000  0.57201000  0.06447000  1.0 -1.040399575
O  O92  1  0.30520000  0.93042000  0.02060000  1.0 -0.5576855367
O  O93  1  0.16950000  0.60770000  0.99920000  1.0 -0.5356734906
O  O94  1  0.38413000  0.83983000  0.02090000  1.0 -0.5201579325
O  O95  1  0.08383000  0.68510000  0.00120000  1.0 -0.5201579325
O  O96  1  0.55293000  0.92799000  0.93553000  1.0 -1.040399575
O  O97  1  0.80520000  0.56958000  0.97940000  1.0 -0.5576855367
O  O98  1  0.66950000  0.89230000  0.00080000  1.0 -0.5356734906
O  O99  1  0.88413000  0.66017000  0.97910000  1.0 -0.5201579325
O  O100  1  0.58383000  0.81490000  0.99880000  1.0 -0.5201579325
O  O101  1  0.56447000  0.44707000  0.42799000  1.0 -1.040399575
O  O102  1  0.52060000  0.19480000  0.06958000  1.0 -0.5576855367
O  O103  1  0.49920000  0.33050000  0.39230000  1.0 -0.5328483558
O  O104  1  0.52090000  0.11587000  0.16017000  1.0 -0.5201579325
O  O105  1  0.50120000  0.41617000  0.31490000  1.0 -0.5201579325
O  O106  1  0.43553000  0.94707000  0.07201000  1.0 -1.040399575
O  O107  1  0.47940000  0.69480000  0.43042000  1.0 -0.5576855367
O  O108  1  0.50080000  0.83050000  0.10770000  1.0 -0.5356734906
O  O109  1  0.47910000  0.61587000  0.33983000  1.0 -0.5201579325
O  O110  1  0.49880000  0.91617000  0.18510000  1.0 -0.5201579325
O  O111  1  0.06447000  0.05293000  0.57201000  1.0 -1.040399575
O  O112  1  0.02060000  0.30520000  0.93042000  1.0 -0.5576855367
O  O113  1  0.99920000  0.16950000  0.60770000  1.0 -0.5328483558
O  O114  1  0.02090000  0.38413000  0.83983000  1.0 -0.5201579325
O  O115  1  0.00120000  0.08383000  0.68510000  1.0 -0.5201579325
O  O116  1  0.93553000  0.55293000  0.92799000  1.0 -1.040399575
O  O117  1  0.97940000  0.80520000  0.56958000  1.0 -0.5576855367
O  O118  1  0.00080000  0.66950000  0.89230000  1.0 -0.5356734906
O  O119  1  0.97910000  0.88413000  0.66017000  1.0 -0.5201579325
O  O120  1  0.99880000  0.58383000  0.81490000  1.0 -0.5201579325
O  O121  1  0.56580000  0.56580000  0.56580000  1.0 -1.040399575
O  O122  1  0.93420000  0.43420000  0.06580000  1.0 -1.040399575
O  O123  1  0.43420000  0.06580000  0.93420000  1.0 -1.040399575
O  O124  1  0.06580000  0.93420000  0.43420000  1.0 -1.040399575
O  O125  1  0.43420000  0.43420000  0.43420000  1.0 -1.040399575
O  O126  1  0.06580000  0.56580000  0.93420000  1.0 -1.040399575
O  O127  1  0.56580000  0.93420000  0.06580000  1.0 -1.040399575
O  O128  1  0.93420000  0.06580000  0.56580000  1.0 -1.040399575
