# DDEC6 charges by PACMAN v1.1 (https://github.com/mtap-research/PACMAN-charge/)
data_NILWAK_ASR_pacman
_symmetry_space_group_name_H-M   'P 1'
_cell_length_a   15.34300000
_cell_length_b   15.34300000
_cell_length_c   15.34300000
_cell_angle_alpha   60.00000000
_cell_angle_beta   60.00000000
_cell_angle_gamma   60.00000000
_symmetry_Int_Tables_number   1
_chemical_formula_structural   Gd3H12C24(O3F)4
_chemical_formula_sum   'Gd6 H24 C48 O24 F8'
_cell_volume   2553.97038658
_cell_formula_units_Z   2
loop_
 _symmetry_equiv_pos_site_id
 _symmetry_equiv_pos_as_xyz
  1  'x, y, z'
loop_
 _atom_site_type_symbol
 _atom_site_label
 _atom_site_symmetry_multiplicity
 _atom_site_fract_x
 _atom_site_fract_y
 _atom_site_fract_z
 _atom_site_occupancy
 _atom_site_charge
Gd  Gd1  1  0.37054000  0.62946000  0.62946000  1.0 2.1746636162
Gd  Gd2  1  0.62946000  0.37054000  0.37054000  1.0 2.1773997079
Gd  Gd3  1  0.62946000  0.37054000  0.62946000  1.0 2.1746636162
Gd  Gd4  1  0.37054000  0.62946000  0.37054000  1.0 2.1746636162
Gd  Gd5  1  0.62946000  0.62946000  0.37054000  1.0 2.1746636162
Gd  Gd6  1  0.37054000  0.37054000  0.62946000  1.0 2.1746636162
H  H1  1  0.36418000  0.63582000  0.92296000  1.0 0.1487189586
H  H2  1  0.63582000  0.36418000  0.07704000  1.0 0.1487189586
H  H3  1  0.92296000  0.07704000  0.36418000  1.0 0.1487189586
H  H4  1  0.07704000  0.92296000  0.63582000  1.0 0.1487189586
H  H5  1  0.92296000  0.36418000  0.63582000  1.0 0.1487189586
H  H6  1  0.07704000  0.63582000  0.36418000  1.0 0.1487189586
H  H7  1  0.36418000  0.92296000  0.07704000  1.0 0.1487189586
H  H8  1  0.63582000  0.07704000  0.92296000  1.0 0.1487189586
H  H9  1  0.63582000  0.92296000  0.36418000  1.0 0.1487189586
H  H10  1  0.36418000  0.07704000  0.63582000  1.0 0.1487189586
H  H11  1  0.07704000  0.36418000  0.92296000  1.0 0.1487189586
H  H12  1  0.92296000  0.63582000  0.07704000  1.0 0.1487189586
H  H13  1  0.63582000  0.36418000  0.92296000  1.0 0.1487189586
H  H14  1  0.36418000  0.63582000  0.07704000  1.0 0.1487189586
H  H15  1  0.07704000  0.92296000  0.36418000  1.0 0.1487189586
H  H16  1  0.92296000  0.07704000  0.63582000  1.0 0.1487189586
H  H17  1  0.07704000  0.63582000  0.92296000  1.0 0.1487189586
H  H18  1  0.92296000  0.36418000  0.07704000  1.0 0.1487189586
H  H19  1  0.63582000  0.07704000  0.36418000  1.0 0.1487189586
H  H20  1  0.36418000  0.92296000  0.63582000  1.0 0.1487189586
H  H21  1  0.36418000  0.07704000  0.92296000  1.0 0.1487189586
H  H22  1  0.63582000  0.92296000  0.07704000  1.0 0.1487189586
H  H23  1  0.92296000  0.63582000  0.36418000  1.0 0.1487189586
H  H24  1  0.07704000  0.36418000  0.63582000  1.0 0.1487189586
C  C1  1  0.50000000  0.50000000  0.90500000  1.0 -0.0809384293
C  C2  1  0.50000000  0.50000000  0.09500000  1.0 -0.0809384293
C  C3  1  0.90500000  0.09500000  0.50000000  1.0 -0.0809384293
C  C4  1  0.09500000  0.90500000  0.50000000  1.0 -0.0809384293
C  C5  1  0.90500000  0.50000000  0.50000000  1.0 -0.0809384293
C  C6  1  0.09500000  0.50000000  0.50000000  1.0 -0.0809384293
C  C7  1  0.50000000  0.90500000  0.09500000  1.0 -0.0809384293
C  C8  1  0.50000000  0.09500000  0.90500000  1.0 -0.0809384293
C  C9  1  0.50000000  0.90500000  0.50000000  1.0 -0.0809384293
C  C10  1  0.50000000  0.09500000  0.50000000  1.0 -0.0809384293
C  C11  1  0.09500000  0.50000000  0.90500000  1.0 -0.0809384293
C  C12  1  0.90500000  0.50000000  0.09500000  1.0 -0.0809384293
C  C13  1  0.50000000  0.50000000  0.81520000  1.0 0.6171970894
C  C14  1  0.50000000  0.50000000  0.18480000  1.0 0.6171970894
C  C15  1  0.81520000  0.18480000  0.50000000  1.0 0.6171970894
C  C16  1  0.18480000  0.81520000  0.50000000  1.0 0.6171970894
C  C17  1  0.81520000  0.50000000  0.50000000  1.0 0.6171970894
C  C18  1  0.18480000  0.50000000  0.50000000  1.0 0.6171970894
C  C19  1  0.50000000  0.81520000  0.18480000  1.0 0.6171970894
C  C20  1  0.50000000  0.18480000  0.81520000  1.0 0.6171970894
C  C21  1  0.50000000  0.81520000  0.50000000  1.0 0.6171970894
C  C22  1  0.50000000  0.18480000  0.50000000  1.0 0.6171970894
C  C23  1  0.18480000  0.50000000  0.81520000  1.0 0.6171970894
C  C24  1  0.81520000  0.50000000  0.18480000  1.0 0.6171970894
C  C25  1  0.41670000  0.58330000  0.95330000  1.0 -0.0596003803
C  C26  1  0.58330000  0.41670000  0.04670000  1.0 -0.0596003803
C  C27  1  0.95330000  0.04670000  0.41670000  1.0 -0.0596003803
C  C28  1  0.04670000  0.95330000  0.58330000  1.0 -0.0596003803
C  C29  1  0.95330000  0.41670000  0.58330000  1.0 -0.0596003803
C  C30  1  0.04670000  0.58330000  0.41670000  1.0 -0.0596003803
C  C31  1  0.41670000  0.95330000  0.04670000  1.0 -0.0596003803
C  C32  1  0.58330000  0.04670000  0.95330000  1.0 -0.0596003803
C  C33  1  0.58330000  0.95330000  0.41670000  1.0 -0.0596003803
C  C34  1  0.41670000  0.04670000  0.58330000  1.0 -0.0596003803
C  C35  1  0.04670000  0.41670000  0.95330000  1.0 -0.0596003803
C  C36  1  0.95330000  0.58330000  0.04670000  1.0 -0.0596003803
C  C37  1  0.58330000  0.41670000  0.95330000  1.0 -0.0596003803
C  C38  1  0.41670000  0.58330000  0.04670000  1.0 -0.0596003803
C  C39  1  0.04670000  0.95330000  0.41670000  1.0 -0.0596003803
C  C40  1  0.95330000  0.04670000  0.58330000  1.0 -0.0596003803
C  C41  1  0.04670000  0.58330000  0.95330000  1.0 -0.0596003803
C  C42  1  0.95330000  0.41670000  0.04670000  1.0 -0.0596003803
C  C43  1  0.58330000  0.04670000  0.41670000  1.0 -0.0596003803
C  C44  1  0.41670000  0.95330000  0.58330000  1.0 -0.0596003803
C  C45  1  0.41670000  0.04670000  0.95330000  1.0 -0.0596003803
C  C46  1  0.58330000  0.95330000  0.04670000  1.0 -0.0596003803
C  C47  1  0.95330000  0.58330000  0.41670000  1.0 -0.0596003803
C  C48  1  0.04670000  0.41670000  0.58330000  1.0 -0.0596003803
O  O1  1  0.42210000  0.57790000  0.77390000  1.0 -0.6466620882
O  O2  1  0.57790000  0.42210000  0.22610000  1.0 -0.6466620882
O  O3  1  0.77390000  0.22610000  0.42210000  1.0 -0.6466620882
O  O4  1  0.22610000  0.77390000  0.57790000  1.0 -0.6466620882
O  O5  1  0.77390000  0.42210000  0.57790000  1.0 -0.6466620882
O  O6  1  0.22610000  0.57790000  0.42210000  1.0 -0.6466620882
O  O7  1  0.42210000  0.77390000  0.22610000  1.0 -0.6466620882
O  O8  1  0.57790000  0.22610000  0.77390000  1.0 -0.6466620882
O  O9  1  0.57790000  0.77390000  0.42210000  1.0 -0.6466620882
O  O10  1  0.42210000  0.22610000  0.57790000  1.0 -0.6466620882
O  O11  1  0.22610000  0.42210000  0.77390000  1.0 -0.6466620882
O  O12  1  0.77390000  0.57790000  0.22610000  1.0 -0.6466620882
O  O13  1  0.57790000  0.42210000  0.77390000  1.0 -0.6466620882
O  O14  1  0.42210000  0.57790000  0.22610000  1.0 -0.6466620882
O  O15  1  0.22610000  0.77390000  0.42210000  1.0 -0.6466620882
O  O16  1  0.77390000  0.22610000  0.57790000  1.0 -0.6466620882
O  O17  1  0.22610000  0.57790000  0.77390000  1.0 -0.6466620882
O  O18  1  0.77390000  0.42210000  0.22610000  1.0 -0.6466620882
O  O19  1  0.57790000  0.22610000  0.42210000  1.0 -0.6466620882
O  O20  1  0.42210000  0.77390000  0.57790000  1.0 -0.6466620882
O  O21  1  0.42210000  0.22610000  0.77390000  1.0 -0.6466620882
O  O22  1  0.57790000  0.77390000  0.22610000  1.0 -0.6466620882
O  O23  1  0.77390000  0.57790000  0.42210000  1.0 -0.6466620882
O  O24  1  0.22610000  0.42210000  0.57790000  1.0 -0.6466620882
F  F1  1  0.32180000  0.55940000  0.55940000  1.0 -0.7669655551
F  F2  1  0.55940000  0.32180000  0.55940000  1.0 -0.7618077268
F  F3  1  0.55940000  0.55940000  0.32180000  1.0 -0.7618077268
F  F4  1  0.55940000  0.55940000  0.55940000  1.0 -0.7669655551
F  F5  1  0.67820000  0.44060000  0.44060000  1.0 -0.7618077268
F  F6  1  0.44060000  0.67820000  0.44060000  1.0 -0.7618077268
F  F7  1  0.44060000  0.44060000  0.44060000  1.0 -0.7618077268
F  F8  1  0.44060000  0.44060000  0.67820000  1.0 -0.7618077268
