# DDEC6 charges by PACMAN v1.1 (https://github.com/mtap-research/PACMAN-charge/)
data_NIMLII_FSR_pacman
_symmetry_space_group_name_H-M   'P 1'
_cell_length_a   9.72760000
_cell_length_b   16.61900000
_cell_length_c   23.14700000
_cell_angle_alpha   106.77800000
_cell_angle_beta   92.93500000
_cell_angle_gamma   89.17600000
_symmetry_Int_Tables_number   1
_chemical_formula_structural   Eu2C72(NO3)5
_chemical_formula_sum   'Eu4 C144 N10 O30'
_cell_volume   3578.01723967
_cell_formula_units_Z   2
loop_
 _symmetry_equiv_pos_site_id
 _symmetry_equiv_pos_as_xyz
  1  'x, y, z'
loop_
 _atom_site_type_symbol
 _atom_site_label
 _atom_site_symmetry_multiplicity
 _atom_site_fract_x
 _atom_site_fract_y
 _atom_site_fract_z
 _atom_site_occupancy
 _atom_site_charge
Eu  Eu1  1  0.05384000  0.42338000  0.82072000  1.0 2.14092663
Eu  Eu2  1  0.94616000  0.57662000  0.17928000  1.0 2.14092663
Eu  Eu3  1  0.57001000  0.43142000  0.82107000  1.0 2.1054163284
Eu  Eu4  1  0.42999000  0.56858000  0.17893000  1.0 2.1047647304
C  C1  1  0.11330000  0.72030000  0.00670000  1.0 -0.1582225778
C  C2  1  0.88670000  0.27970000  0.99330000  1.0 -0.1582225778
C  C3  1  0.22540000  0.23550000  0.90540000  1.0 0.05233468
C  C4  1  0.77460000  0.76450000  0.09460000  1.0 0.05233468
C  C5  1  0.71300000  0.06470000  0.75340000  1.0 -0.0269185957
C  C6  1  0.28700000  0.93530000  0.24660000  1.0 -0.0269185957
C  C7  1  0.22170000  0.83570000  0.87600000  1.0 0.0686144698
C  C8  1  0.77830000  0.16430000  0.12400000  1.0 0.0686144698
C  C9  1  0.48160000  0.16200000  0.90810000  1.0 -0.0269185957
C  C10  1  0.51840000  0.83800000  0.09190000  1.0 -0.0269185957
C  C11  1  0.89130000  0.69290000  0.94270000  1.0 0.0584542293
C  C12  1  0.10870000  0.30710000  0.05730000  1.0 0.0584542293
C  C13  1  0.95220000  0.15540000  0.80260000  1.0 0.0686144698
C  C14  1  0.04780000  0.84460000  0.19740000  1.0 0.0686144698
C  C15  1  0.47200000  0.24580000  0.90660000  1.0 0.0686144698
C  C16  1  0.52800000  0.75420000  0.09340000  1.0 0.0686144698
C  C17  1  0.19090000  0.72780000  0.35080000  1.0 -0.0804666332
C  C18  1  0.80910000  0.27220000  0.64920000  1.0 -0.0804666332
C  C19  1  0.84110000  0.02350000  0.74860000  1.0 0.0584542293
C  C20  1  0.15890000  0.97650000  0.25140000  1.0 0.0584542293
C  C21  1  0.05080000  0.57780000  0.94640000  1.0 0.2792589969
C  C22  1  0.94920000  0.42220000  0.05360000  1.0 0.2792589969
C  C23  1  0.37890000  0.72930000  0.89110000  1.0 0.0792149378
C  C24  1  0.62110000  0.27070000  0.10890000  1.0 0.0792149378
C  C25  1  0.20310000  0.14810000  0.69680000  1.0 0.0686144698
C  C26  1  0.79690000  0.85190000  0.30320000  1.0 0.0584542293
C  C27  1  0.64610000  0.85230000  0.72590000  1.0 -0.0104288969
C  C28  1  0.35390000  0.14770000  0.27410000  1.0 -0.0104288969
C  C29  1  0.61270000  0.73460000  0.77090000  1.0 -0.0269185957
C  C30  1  0.38730000  0.26540000  0.22910000  1.0 -0.0269185957
C  C31  1  0.38490000  0.02470000  0.90850000  1.0 0.0029338261
C  C32  1  0.61510000  0.97530000  0.09150000  1.0 0.0029338261
C  C33  1  0.24280000  0.00520000  0.99040000  1.0 0.1725220836
C  C34  1  0.75720000  0.99480000  0.00960000  1.0 0.1725220836
C  C35  1  0.16190000  0.95130000  0.01040000  1.0 -0.0804666332
C  C36  1  0.83810000  0.04870000  0.98960000  1.0 -0.0804666332
C  C37  1  0.14320000  0.96680000  0.07180000  1.0 0.0319844622
C  C38  1  0.85680000  0.03320000  0.92820000  1.0 0.0319844622
C  C39  1  0.20540000  0.03600000  0.11320000  1.0 0.0029338261
C  C40  1  0.79460000  0.96400000  0.88680000  1.0 -0.0011578978
C  C41  1  0.28620000  0.08990000  0.09310000  1.0 0.0405337538
C  C42  1  0.71380000  0.91010000  0.90690000  1.0 0.0405337538
C  C43  1  0.30500000  0.07450000  0.03180000  1.0 -0.103468423
C  C44  1  0.69500000  0.92550000  0.96820000  1.0 -0.103468423
C  C45  1  0.65270000  0.66210000  0.78510000  1.0 0.0584542293
C  C46  1  0.34730000  0.33790000  0.21490000  1.0 0.0584542293
C  C47  1  0.34220000  0.28200000  0.90500000  1.0 -0.0804666332
C  C48  1  0.65780000  0.71800000  0.09500000  1.0 -0.0804666332
C  C49  1  0.16050000  0.68870000  0.83630000  1.0 0.05233468
C  C50  1  0.83950000  0.31130000  0.16370000  1.0 0.05233468
C  C51  1  0.70790000  0.86760000  0.62540000  1.0 0.177928821
C  C52  1  0.29210000  0.13240000  0.37460000  1.0 0.177928821
C  C53  1  0.44810000  0.09680000  0.64010000  1.0 -0.0204967748
C  C54  1  0.55190000  0.90320000  0.35990000  1.0 -0.0204967748
C  C55  1  0.21540000  0.85020000  0.61230000  1.0 0.177928821
C  C56  1  0.78460000  0.14980000  0.38770000  1.0 0.177928821
C  C57  1  0.36590000  0.11670000  0.90910000  1.0 0.05233468
C  C58  1  0.63410000  0.88330000  0.09090000  1.0 0.05233468
C  C59  1  0.96090000  0.06900000  0.77360000  1.0 -0.0204967748
C  C60  1  0.03910000  0.93100000  0.22640000  1.0 -0.0204967748
C  C61  1  0.33650000  0.04260000  0.62690000  1.0 0.0686144698
C  C62  1  0.66350000  0.95740000  0.37310000  1.0 0.0686144698
C  C63  1  0.69310000  0.77080000  0.73680000  1.0 0.0686144698
C  C64  1  0.30690000  0.22920000  0.26320000  1.0 0.0584542293
C  C65  1  0.18010000  0.92750000  0.88340000  1.0 0.0091774736
C  C66  1  0.81990000  0.07250000  0.11660000  1.0 0.0091774736
C  C67  1  0.86140000  0.65820000  0.73070000  1.0 0.0901845123
C  C68  1  0.13860000  0.34180000  0.26930000  1.0 0.0901845123
C  C69  1  0.34760000  0.81440000  0.89980000  1.0 -0.049991281
C  C70  1  0.65240000  0.18560000  0.10020000  1.0 -0.049991281
C  C71  1  0.21070000  0.66780000  0.28930000  1.0 0.680109889
C  C72  1  0.78930000  0.33220000  0.71070000  1.0 0.680109889
C  C73  1  0.31560000  0.20110000  0.70970000  1.0 -0.0804666332
C  C74  1  0.68440000  0.79890000  0.29030000  1.0 -0.0804666332
C  C75  1  0.82440000  0.19730000  0.80850000  1.0 -0.0804666332
C  C76  1  0.17560000  0.80270000  0.19150000  1.0 -0.0804666332
C  C77  1  0.78040000  0.62440000  0.76660000  1.0 -0.103468423
C  C78  1  0.21960000  0.37560000  0.23340000  1.0 -0.103468423
C  C79  1  0.81560000  0.73120000  0.71510000  1.0 -0.0405394544
C  C80  1  0.18440000  0.26880000  0.28490000  1.0 -0.0405394544
C  C81  1  0.32380000  0.57500000  0.84790000  1.0 0.6859585352
C  C82  1  0.67620000  0.42500000  0.15210000  1.0 0.6859585352
C  C83  1  0.43990000  0.17620000  0.68110000  1.0 0.05233468
C  C84  1  0.56010000  0.82380000  0.31890000  1.0 0.05233468
C  C85  1  0.15320000  0.83890000  0.46490000  1.0 0.0792149378
C  C86  1  0.84680000  0.16110000  0.53510000  1.0 0.0792149378
C  C87  1  0.85840000  0.92970000  0.71820000  1.0 -0.0204967748
C  C88  1  0.14160000  0.07030000  0.28180000  1.0 -0.0204967748
C  C89  1  0.28690000  0.66700000  0.85880000  1.0 -0.0804666332
C  C90  1  0.71310000  0.33300000  0.14120000  1.0 -0.0804666332
C  C91  1  0.32660000  0.37020000  0.90050000  1.0 0.6631877727
C  C92  1  0.67340000  0.62980000  0.09950000  1.0 0.6631877727
C  C93  1  0.28130000  0.80270000  0.45160000  1.0 -0.0630133927
C  C94  1  0.71870000  0.19730000  0.54840000  1.0 -0.0630133927
C  C95  1  0.82050000  0.28940000  0.83740000  1.0 0.6701343961
C  C96  1  0.17950000  0.71060000  0.16260000  1.0 0.6701343961
C  C97  1  0.12460000  0.77910000  0.59090000  1.0 -0.0736999132
C  C98  1  0.87540000  0.22090000  0.40910000  1.0 -0.0804666332
C  C99  1  0.12940000  0.77300000  0.84470000  1.0 -0.0104288969
C  C100  1  0.87060000  0.22700000  0.15530000  1.0 -0.0104288969
C  C101  1  0.26350000  0.81610000  0.70440000  1.0 0.05233468
C  C102  1  0.73650000  0.18390000  0.29560000  1.0 0.05233468
C  C103  1  0.06220000  0.76180000  0.36670000  1.0 0.0584542293
C  C104  1  0.93780000  0.23820000  0.63330000  1.0 0.0584542293
C  C105  1  0.30400000  0.28610000  0.75360000  1.0 0.680109889
C  C106  1  0.69600000  0.71390000  0.24640000  1.0 0.680109889
C  C107  1  0.23590000  0.15310000  0.90740000  1.0 -0.0405394544
C  C108  1  0.76410000  0.84690000  0.09260000  1.0 -0.0405394544
C  C109  1  0.75690000  0.92020000  0.59480000  1.0 -0.1254152052
C  C110  1  0.24310000  0.07980000  0.40520000  1.0 -0.1254152052
C  C111  1  0.12730000  0.90400000  0.52680000  1.0 -0.0204967748
C  C112  1  0.87270000  0.09600000  0.47320000  1.0 -0.0204967748
C  C113  1  0.35380000  0.95480000  0.58210000  1.0 -0.0011578978
C  C114  1  0.64620000  0.04520000  0.41790000  1.0 -0.0011578978
C  C115  1  0.21390000  0.06770000  0.65450000  1.0 -0.0204967748
C  C116  1  0.78610000  0.93230000  0.34550000  1.0 -0.0204967748
C  C117  1  0.30030000  0.74580000  0.39500000  1.0 0.0792149378
C  C118  1  0.69970000  0.25420000  0.60500000  1.0 0.0792149378
C  C119  1  0.70660000  0.15270000  0.78320000  1.0 0.0686144698
C  C120  1  0.29340000  0.84730000  0.21680000  1.0 0.0686144698
C  C121  1  0.28310000  0.86910000  0.66790000  1.0 -0.1157731556
C  C122  1  0.71690000  0.13090000  0.33210000  1.0 -0.1157731556
C  C123  1  0.65350000  0.83140000  0.50000000  1.0 -0.0204967748
C  C124  1  0.34650000  0.16860000  0.50000000  1.0 -0.0204967748
C  C125  1  0.82940000  0.55110000  0.78630000  1.0 0.6701343961
C  C126  1  0.17060000  0.44890000  0.21370000  1.0 0.6701343961
C  C127  1  0.63280000  0.79620000  0.59440000  1.0 -0.0804666332
C  C128  1  0.36720000  0.20380000  0.40560000  1.0 -0.0736999132
C  C129  1  0.73040000  0.90060000  0.53250000  1.0 0.0584542293
C  C130  1  0.26960000  0.09940000  0.46750000  1.0 0.0584542293
C  C131  1  0.10960000  0.72800000  0.62900000  1.0 0.0686144698
C  C132  1  0.89040000  0.27200000  0.37100000  1.0 0.0686144698
C  C133  1  0.04190000  0.81690000  0.42240000  1.0 -0.0269185957
C  C134  1  0.95810000  0.18310000  0.57760000  1.0 -0.0204967748
C  C135  1  0.17750000  0.74630000  0.68500000  1.0 -0.0104288969
C  C136  1  0.82250000  0.25370000  0.31500000  1.0 -0.0104288969
C  C137  1  0.60650000  0.78040000  0.53140000  1.0 0.0792149378
C  C138  1  0.39350000  0.21960000  0.46860000  1.0 0.0792149378
C  C139  1  0.41330000  0.43020000  0.69380000  1.0 0.2375330634
C  C140  1  0.58670000  0.56980000  0.30620000  1.0 0.2375330634
C  C141  1  0.23700000  0.53610000  0.67890000  1.0 0.0901845123
C  C142  1  0.76300000  0.46390000  0.32110000  1.0 0.0901845123
C  C143  1  0.22400000  0.36990000  0.60640000  1.0 -0.2495854639
C  C144  1  0.77600000  0.63010000  0.39360000  1.0 -0.2357256107
N  N1  1  0.73270000  0.88520000  0.68870000  1.0 -0.0405394544
N  N2  1  0.26730000  0.11480000  0.31130000  1.0 -0.0405394544
N  N3  1  0.01660000  0.66000000  0.96610000  1.0 -0.0630133927
N  N4  1  0.98340000  0.34000000  0.03390000  1.0 -0.0630133927
N  N5  1  0.23190000  0.90230000  0.57420000  1.0 -0.0405394544
N  N6  1  0.76810000  0.09770000  0.42580000  1.0 -0.0405394544
N  N7  1  0.26290000  0.98950000  0.92850000  1.0 -0.049991281
N  N8  1  0.73710000  0.01050000  0.07150000  1.0 -0.049991281
N  N9  1  0.30400000  0.44570000  0.65910000  1.0 -0.0204967748
N  N10  1  0.69600000  0.55430000  0.34090000  1.0 -0.0204967748
O  O1  1  0.44760000  0.55830000  0.85700000  1.0 -0.6206399046
O  O2  1  0.55240000  0.44170000  0.14300000  1.0 -0.6206399046
O  O3  1  0.22830000  0.52210000  0.82910000  1.0 -0.7108089321
O  O4  1  0.77170000  0.47790000  0.17090000  1.0 -0.7108089321
O  O5  1  0.97620000  0.52500000  0.90980000  1.0 -0.5360651307
O  O6  1  0.02380000  0.47500000  0.09020000  1.0 -0.5360651307
O  O7  1  0.20950000  0.39990000  0.89750000  1.0 -0.643316894
O  O8  1  0.79050000  0.60010000  0.10250000  1.0 -0.6462212695
O  O9  1  0.95440000  0.52930000  0.77750000  1.0 -0.6462212695
O  O10  1  0.04560000  0.47070000  0.22250000  1.0 -0.6462212695
O  O11  1  0.33030000  0.64550000  0.27440000  1.0 -0.6622756414
O  O12  1  0.66970000  0.35450000  0.72560000  1.0 -0.6622756414
O  O13  1  0.10310000  0.64570000  0.25660000  1.0 -0.6906619065
O  O14  1  0.89690000  0.35430000  0.74340000  1.0 -0.6906619065
O  O15  1  0.74990000  0.51620000  0.81160000  1.0 -0.6462212695
O  O16  1  0.25010000  0.48380000  0.18840000  1.0 -0.6462212695
O  O17  1  0.43860000  0.41160000  0.90230000  1.0 -0.6206399046
O  O18  1  0.56140000  0.58840000  0.09770000  1.0 -0.6206399046
O  O19  1  0.93120000  0.32800000  0.85670000  1.0 -0.643316894
O  O20  1  0.06880000  0.67200000  0.14330000  1.0 -0.6462212695
O  O21  1  0.70410000  0.32390000  0.84140000  1.0 -0.643316894
O  O22  1  0.29590000  0.67610000  0.15860000  1.0 -0.643316894
O  O23  1  0.68540000  0.50170000  0.92130000  1.0 -0.0204967748
O  O24  1  0.31460000  0.49830000  0.07870000  1.0 -0.0204967748
O  O25  1  0.41080000  0.32670000  0.77430000  1.0 -0.6826722019
O  O26  1  0.58920000  0.67330000  0.22570000  1.0 -0.6826722019
O  O27  1  0.46230000  0.47780000  0.73500000  1.0 -0.4187153422
O  O28  1  0.53770000  0.52220000  0.26500000  1.0 -0.4187153422
O  O29  1  0.18450000  0.31220000  0.76630000  1.0 -0.6734744899
O  O30  1  0.81550000  0.68780000  0.23370000  1.0 -0.6734744899
