# DDEC6 charges by PACMAN v1.1 (https://github.com/mtap-research/PACMAN-charge/)
data_NIMQAC_ASR_pacman
_symmetry_space_group_name_H-M   'P 1'
_cell_length_a   12.35790000
_cell_length_b   12.35790000
_cell_length_c   7.93780000
_cell_angle_alpha   74.58990000
_cell_angle_beta   105.41000000
_cell_angle_gamma   92.53440000
_symmetry_Int_Tables_number   1
_chemical_formula_structural   CuH20C28(NO5)2
_chemical_formula_sum   'Cu2 H40 C56 N4 O20'
_cell_volume   1126.19187730
_cell_formula_units_Z   2
loop_
 _symmetry_equiv_pos_site_id
 _symmetry_equiv_pos_as_xyz
  1  'x, y, z'
loop_
 _atom_site_type_symbol
 _atom_site_label
 _atom_site_symmetry_multiplicity
 _atom_site_fract_x
 _atom_site_fract_y
 _atom_site_fract_z
 _atom_site_occupancy
 _atom_site_charge
Cu  Cu1  1  0.50000000  0.00000000  0.00000000  1.0 0.5592511974
Cu  Cu2  1  0.00000000  0.50000000  0.50000000  1.0 0.5592511974
H  H1  1  0.39220000  0.29960000  0.61110000  1.0 0.1006408266
H  H2  1  0.29960000  0.39220000  0.88890000  1.0 0.1006408266
H  H3  1  0.60780000  0.70040000  0.38890000  1.0 0.1006408266
H  H4  1  0.70040000  0.60780000  0.11110000  1.0 0.1006408266
H  H5  1  0.35460000  0.49080000  0.42110000  1.0 0.0622242473
H  H6  1  0.49080000  0.35460000  0.07890000  1.0 0.0622242473
H  H7  1  0.64540000  0.50920000  0.57890000  1.0 0.0622242473
H  H8  1  0.50920000  0.64540000  0.92110000  1.0 0.0622242473
H  H9  1  0.31690000  0.44790000  0.42040000  1.0 0.0436888121
H  H10  1  0.44790000  0.31690000  0.07960000  1.0 0.0436888121
H  H11  1  0.68310000  0.55210000  0.57960000  1.0 0.0436888121
H  H12  1  0.55210000  0.68310000  0.92040000  1.0 0.0436888121
H  H13  1  0.71970000  0.36870000  0.76160000  1.0 0.0536740988
H  H14  1  0.36870000  0.71970000  0.73840000  1.0 0.0536740988
H  H15  1  0.28030000  0.63130000  0.23840000  1.0 0.0536740988
H  H16  1  0.63130000  0.28030000  0.26160000  1.0 0.0536740988
H  H17  1  0.61930000  0.37810000  0.80950000  1.0 0.0739886619
H  H18  1  0.37810000  0.61930000  0.69050000  1.0 0.0739886619
H  H19  1  0.38070000  0.62190000  0.19050000  1.0 0.0739886619
H  H20  1  0.62190000  0.38070000  0.30950000  1.0 0.0739886619
H  H21  1  0.65040000  0.33100000  0.66370000  1.0 0.0907125108
H  H22  1  0.33100000  0.65040000  0.83630000  1.0 0.0907125108
H  H23  1  0.34960000  0.66900000  0.33630000  1.0 0.0907125108
H  H24  1  0.66900000  0.34960000  0.16370000  1.0 0.0907125108
H  H25  1  0.50530000  0.94810000  0.66080000  1.0 0.0794784704
H  H26  1  0.94810000  0.50530000  0.83920000  1.0 0.0794784704
H  H27  1  0.49470000  0.05190000  0.33920000  1.0 0.0794784704
H  H28  1  0.05190000  0.49470000  0.16080000  1.0 0.0794784704
H  H29  1  0.61080000  0.85000000  0.54960000  1.0 0.1006408266
H  H30  1  0.85000000  0.61080000  0.95040000  1.0 0.1006408266
H  H31  1  0.38920000  0.15000000  0.45040000  1.0 0.1006408266
H  H32  1  0.15000000  0.38920000  0.04960000  1.0 0.1006408266
H  H33  1  0.83000000  0.77880000  0.03640000  1.0 0.1210581742
H  H34  1  0.77880000  0.83000000  0.46360000  1.0 0.1210581742
H  H35  1  0.17000000  0.22120000  0.96360000  1.0 0.1210581742
H  H36  1  0.22120000  0.17000000  0.53640000  1.0 0.1210581742
H  H37  1  0.71560000  0.87720000  0.12980000  1.0 0.0794784704
H  H38  1  0.87720000  0.71560000  0.37020000  1.0 0.0794784704
H  H39  1  0.28440000  0.12280000  0.87020000  1.0 0.0794784704
H  H40  1  0.12280000  0.28440000  0.62980000  1.0 0.0794784704
C  C1  1  0.56410000  0.19010000  0.83300000  1.0 0.3074922643
C  C2  1  0.19010000  0.56410000  0.66700000  1.0 0.3074922643
C  C3  1  0.43590000  0.80990000  0.16700000  1.0 0.3074922643
C  C4  1  0.80990000  0.43590000  0.33300000  1.0 0.3074922643
C  C5  1  0.57020000  0.31180000  0.71200000  1.0 -0.0152509354
C  C6  1  0.31180000  0.57020000  0.78800000  1.0 -0.0152509354
C  C7  1  0.42980000  0.68820000  0.28800000  1.0 -0.0152509354
C  C8  1  0.68820000  0.42980000  0.21200000  1.0 -0.0152509354
C  C9  1  0.45260000  0.35100000  0.60600000  1.0 -0.0988574114
C  C10  1  0.35100000  0.45260000  0.89400000  1.0 -0.0988574114
C  C11  1  0.54740000  0.64900000  0.39400000  1.0 -0.0988574114
C  C12  1  0.64900000  0.54740000  0.10600000  1.0 -0.0988574114
C  C13  1  0.42970000  0.46670000  0.49100000  1.0 -0.0009912279
C  C14  1  0.46670000  0.42970000  0.00900000  1.0 -0.0009912279
C  C15  1  0.57030000  0.53330000  0.50900000  1.0 -0.0009912279
C  C16  1  0.53330000  0.57030000  0.99100000  1.0 -0.0009912279
C  C17  1  0.48370000  0.46450000  0.51340000  1.0 0.0622242473
C  C18  1  0.46450000  0.48370000  0.98660000  1.0 0.0622242473
C  C19  1  0.51630000  0.53550000  0.48660000  1.0 0.0622242473
C  C20  1  0.53550000  0.51630000  0.01340000  1.0 0.0622242473
C  C21  1  0.37730000  0.49930000  0.41560000  1.0 -0.1704699371
C  C22  1  0.49930000  0.37730000  0.08440000  1.0 -0.1704699371
C  C23  1  0.62270000  0.50070000  0.58440000  1.0 -0.1704699371
C  C24  1  0.50070000  0.62270000  0.91560000  1.0 -0.1704699371
C  C25  1  0.64460000  0.39280000  0.69130000  1.0 -0.1704699371
C  C26  1  0.39280000  0.64460000  0.80870000  1.0 -0.1704699371
C  C27  1  0.35540000  0.60720000  0.30870000  1.0 -0.1704699371
C  C28  1  0.60720000  0.35540000  0.19130000  1.0 -0.1704699371
C  C29  1  0.59600000  0.33000000  0.73100000  1.0 -0.0685483413
C  C30  1  0.33000000  0.59600000  0.76900000  1.0 -0.0685483413
C  C31  1  0.40400000  0.67000000  0.26900000  1.0 -0.0685483413
C  C32  1  0.67000000  0.40400000  0.23100000  1.0 -0.0685483413
C  C33  1  0.59390000  0.20390000  0.84500000  1.0 0.3206820868
C  C34  1  0.20390000  0.59390000  0.65500000  1.0 0.3206820868
C  C35  1  0.40610000  0.79610000  0.15500000  1.0 0.3206820868
C  C36  1  0.79610000  0.40610000  0.34500000  1.0 0.3206820868
C  C37  1  0.57180000  0.91260000  0.73790000  1.0 -0.0685483413
C  C38  1  0.91260000  0.57180000  0.76210000  1.0 -0.0685483413
C  C39  1  0.42820000  0.08740000  0.26210000  1.0 -0.0685483413
C  C40  1  0.08740000  0.42820000  0.23790000  1.0 -0.0685483413
C  C41  1  0.63490000  0.85370000  0.66930000  1.0 -0.269397571
C  C42  1  0.85370000  0.63490000  0.83070000  1.0 -0.269397571
C  C43  1  0.36510000  0.14630000  0.33070000  1.0 -0.269397571
C  C44  1  0.14630000  0.36510000  0.16930000  1.0 -0.269397571
C  C45  1  0.73300000  0.80140000  0.78040000  1.0 0.1210581742
C  C46  1  0.80140000  0.73300000  0.71960000  1.0 0.1210581742
C  C47  1  0.26700000  0.19860000  0.21960000  1.0 0.1210581742
C  C48  1  0.19860000  0.26700000  0.28040000  1.0 0.1210581742
C  C49  1  0.76340000  0.81200000  0.95600000  1.0 -0.1919771388
C  C50  1  0.81200000  0.76340000  0.54400000  1.0 -0.1919771388
C  C51  1  0.23660000  0.18800000  0.04400000  1.0 -0.1919771388
C  C52  1  0.18800000  0.23660000  0.45600000  1.0 -0.1919771388
C  C53  1  0.69410000  0.87190000  0.01080000  1.0 0.0230777159
C  C54  1  0.87190000  0.69410000  0.48920000  1.0 0.0230777159
C  C55  1  0.30590000  0.12810000  0.98920000  1.0 0.0230777159
C  C56  1  0.12810000  0.30590000  0.51080000  1.0 0.0230777159
N  N1  1  0.60030000  0.92150000  0.90570000  1.0 -0.3505143739
N  N2  1  0.92150000  0.60030000  0.59430000  1.0 -0.3505143739
N  N3  1  0.39970000  0.07850000  0.09430000  1.0 -0.3505143739
N  N4  1  0.07850000  0.39970000  0.40570000  1.0 -0.3505143739
O  O1  1  0.48610000  0.13290000  0.79200000  1.0 -0.1827315644
O  O2  1  0.13290000  0.48610000  0.70800000  1.0 -0.1827315644
O  O3  1  0.51390000  0.86710000  0.20800000  1.0 -0.1827315644
O  O4  1  0.86710000  0.51390000  0.29200000  1.0 -0.1827315644
O  O5  1  0.64790000  0.16670000  0.98400000  1.0 -0.0786585912
O  O6  1  0.16670000  0.64790000  0.51600000  1.0 -0.0786585912
O  O7  1  0.35210000  0.83330000  0.01600000  1.0 -0.0786585912
O  O8  1  0.83330000  0.35210000  0.48400000  1.0 -0.0786585912
O  O9  1  0.49570000  0.35530000  0.60900000  1.0 -0.063695951
O  O10  1  0.35530000  0.49570000  0.89100000  1.0 -0.063695951
O  O11  1  0.50430000  0.64470000  0.39100000  1.0 -0.063695951
O  O12  1  0.64470000  0.50430000  0.10900000  1.0 -0.063695951
O  O13  1  0.68620000  0.17180000  0.93100000  1.0 -0.1225317635
O  O14  1  0.17180000  0.68620000  0.56900000  1.0 -0.1269178681
O  O15  1  0.31380000  0.82820000  0.06900000  1.0 -0.1269178681
O  O16  1  0.82820000  0.31380000  0.43100000  1.0 -0.1225317635
O  O17  1  0.51260000  0.14520000  0.83400000  1.0 -0.063695951
O  O18  1  0.14520000  0.51260000  0.66600000  1.0 -0.063695951
O  O19  1  0.48740000  0.85480000  0.16600000  1.0 -0.0685483413
O  O20  1  0.85480000  0.48740000  0.33400000  1.0 -0.063695951
