# DDEC6 charges by PACMAN v1.1 (https://github.com/mtap-research/PACMAN-charge/)
data_NIMRIN_ASR_pacman
_symmetry_space_group_name_H-M   'P 1'
_cell_length_a   12.14190000
_cell_length_b   17.09790000
_cell_length_c   20.91270000
_cell_angle_alpha   89.33500000
_cell_angle_beta   100.92700000
_cell_angle_gamma   109.99400000
_symmetry_Int_Tables_number   1
_chemical_formula_structural   Cd2Fe2H36C62N4O13
_chemical_formula_sum   'Cd4 Fe4 H72 C124 N8 O26'
_cell_volume   3999.19304404
_cell_formula_units_Z   2
loop_
 _symmetry_equiv_pos_site_id
 _symmetry_equiv_pos_as_xyz
  1  'x, y, z'
loop_
 _atom_site_type_symbol
 _atom_site_label
 _atom_site_symmetry_multiplicity
 _atom_site_fract_x
 _atom_site_fract_y
 _atom_site_fract_z
 _atom_site_occupancy
 _atom_site_charge
Cd  Cd1  1  0.64127000  0.04294000  0.96403000  1.0 1.0337323072
Cd  Cd2  1  0.54514000  0.18391000  0.06847000  1.0 1.0372293714
Cd  Cd3  1  0.35873000  0.95706000  0.03597000  1.0 1.0337323072
Cd  Cd4  1  0.45486000  0.81609000  0.93153000  1.0 1.0372293714
Fe  Fe1  1  0.13508000  0.15666000  0.52043000  1.0 0.8375851038
Fe  Fe2  1  0.36747000  0.33695000  0.50776000  1.0 0.8871498528
Fe  Fe3  1  0.86492000  0.84334000  0.47957000  1.0 0.8375851038
Fe  Fe4  1  0.63253000  0.66305000  0.49224000  1.0 0.8871498528
H  H1  1  0.36070000  0.03660000  0.73120000  1.0 0.1131190284
H  H2  1  0.44100000  0.03880000  0.84080000  1.0 0.1298655782
H  H3  1  0.23210000  0.16240000  0.88570000  1.0 0.1298655782
H  H4  1  0.07400000  0.18130000  0.80030000  1.0 0.1298655782
H  H5  1  0.99490000  0.18320000  0.69270000  1.0 0.1370168003
H  H6  1  0.26400000  0.01800000  0.63720000  1.0 0.0844227197
H  H7  1  0.03690000  0.05760000  0.25320000  1.0 0.1198736932
H  H8  1  0.94630000  0.04880000  0.14520000  1.0 0.1298655782
H  H9  1  0.74330000  0.17720000  0.18680000  1.0 0.1298655782
H  H10  1  0.75900000  0.22320000  0.30040000  1.0 0.1198736932
H  H11  1  0.84200000  0.23210000  0.40850000  1.0 0.1298655782
H  H12  1  0.09980000  0.05840000  0.34740000  1.0 0.0906054133
H  H13  1  0.32190000  0.91350000  0.38970000  1.0 0.1298655782
H  H14  1  0.41320000  0.99980000  0.42450000  1.0 0.1131190284
H  H15  1  0.40850000  0.91270000  0.49680000  1.0 0.1131190284
H  H16  1  0.26720000  0.86750000  0.47680000  1.0 0.1298655782
H  H17  1  0.28950000  0.93500000  0.57250000  1.0 0.1198736932
H  H18  1  0.39250000  0.01600000  0.55630000  1.0 0.1198736932
H  H19  1  0.27130000  0.57440000  0.64120000  1.0 0.1131190284
H  H20  1  0.28400000  0.65670000  0.73030000  1.0 0.1131190284
H  H21  1  0.58620000  0.62030000  0.82010000  1.0 0.1298655782
H  H22  1  0.66110000  0.52680000  0.76850000  1.0 0.1198736932
H  H23  1  0.64530000  0.43650000  0.68460000  1.0 0.1298655782
H  H24  1  0.28940000  0.52520000  0.55870000  1.0 0.0966768312
H  H25  1  0.20760000  0.21250000  0.24980000  1.0 0.1198736932
H  H26  1  0.19850000  0.13230000  0.16010000  1.0 0.1298655782
H  H27  1  0.50660000  0.10100000  0.24320000  1.0 0.1298655782
H  H28  1  0.60020000  0.15230000  0.35640000  1.0 0.1131190284
H  H29  1  0.61160000  0.22630000  0.44850000  1.0 0.1298655782
H  H30  1  0.24220000  0.30260000  0.32130000  1.0 0.0906054133
H  H31  1  0.16450000  0.40340000  0.30920000  1.0 0.1198736932
H  H32  1  0.06750000  0.32270000  0.33030000  1.0 0.1298655782
H  H33  1  0.03660000  0.46220000  0.30580000  1.0 0.1198736932
H  H34  1  0.95420000  0.38910000  0.34130000  1.0 0.1198736932
H  H35  1  0.97270000  0.47550000  0.40730000  1.0 0.1298655782
H  H36  1  0.07960000  0.54190000  0.38090000  1.0 0.1370168003
H  H37  1  0.63930000  0.96340000  0.26880000  1.0 0.1131190284
H  H38  1  0.55900000  0.96120000  0.15920000  1.0 0.1298655782
H  H39  1  0.76790000  0.83760000  0.11430000  1.0 0.1298655782
H  H40  1  0.92600000  0.81870000  0.19970000  1.0 0.1298655782
H  H41  1  0.00510000  0.81680000  0.30730000  1.0 0.1370168003
H  H42  1  0.73600000  0.98200000  0.36280000  1.0 0.0844227197
H  H43  1  0.96310000  0.94240000  0.74680000  1.0 0.1198736932
H  H44  1  0.05370000  0.95120000  0.85480000  1.0 0.1298655782
H  H45  1  0.25670000  0.82280000  0.81320000  1.0 0.1298655782
H  H46  1  0.24100000  0.77680000  0.69960000  1.0 0.1198736932
H  H47  1  0.15800000  0.76790000  0.59150000  1.0 0.1298655782
H  H48  1  0.90020000  0.94160000  0.65260000  1.0 0.0906054133
H  H49  1  0.67810000  0.08650000  0.61030000  1.0 0.1298655782
H  H50  1  0.58680000  0.00020000  0.57550000  1.0 0.1131190284
H  H51  1  0.59150000  0.08730000  0.50320000  1.0 0.1131190284
H  H52  1  0.73280000  0.13250000  0.52320000  1.0 0.1298655782
H  H53  1  0.71050000  0.06500000  0.42750000  1.0 0.1198736932
H  H54  1  0.60750000  0.98400000  0.44370000  1.0 0.1198736932
H  H55  1  0.72870000  0.42560000  0.35880000  1.0 0.1131190284
H  H56  1  0.71600000  0.34330000  0.26970000  1.0 0.1131190284
H  H57  1  0.41380000  0.37970000  0.17990000  1.0 0.1298655782
H  H58  1  0.33890000  0.47320000  0.23150000  1.0 0.1198736932
H  H59  1  0.35470000  0.56350000  0.31540000  1.0 0.1298655782
H  H60  1  0.71060000  0.47480000  0.44130000  1.0 0.0966768312
H  H61  1  0.79240000  0.78750000  0.75020000  1.0 0.1198736932
H  H62  1  0.80150000  0.86770000  0.83990000  1.0 0.1298655782
H  H63  1  0.49340000  0.89900000  0.75680000  1.0 0.1298655782
H  H64  1  0.39980000  0.84770000  0.64360000  1.0 0.1131190284
H  H65  1  0.38840000  0.77370000  0.55150000  1.0 0.1370168003
H  H66  1  0.75780000  0.69740000  0.67870000  1.0 0.0906054133
H  H67  1  0.83550000  0.59660000  0.69080000  1.0 0.1198736932
H  H68  1  0.93250000  0.67730000  0.66970000  1.0 0.1298655782
H  H69  1  0.96340000  0.53780000  0.69420000  1.0 0.1198736932
H  H70  1  0.04580000  0.61090000  0.65870000  1.0 0.1198736932
H  H71  1  0.02730000  0.52450000  0.59270000  1.0 0.1298655782
H  H72  1  0.92040000  0.45810000  0.61910000  1.0 0.1370168003
C  C1  1  0.18990000  0.09620000  0.67161000  1.0 -0.1275848997
C  C2  1  0.24190000  0.09450000  0.74016000  1.0 0.0596871083
C  C3  1  0.33260000  0.06130000  0.76216000  1.0 -0.1493795691
C  C4  1  0.38180000  0.06350000  0.82740000  1.0 -0.1056009409
C  C5  1  0.34520000  0.10190000  0.87404000  1.0 -0.0201044501
C  C6  1  0.25630000  0.13540000  0.85440000  1.0 -0.1275848997
C  C7  1  0.20140000  0.12970000  0.78820000  1.0 0.0596871083
C  C8  1  0.10530000  0.16120000  0.76820000  1.0 -0.119795648
C  C9  1  0.05900000  0.16260000  0.70450000  1.0 -0.2062128065
C  C10  1  0.10280000  0.13430000  0.65420000  1.0 0.3230460309
C  C11  1  0.22290000  0.05540000  0.62278000  1.0 0.1131190284
C  C12  1  0.40170000  0.10900000  0.94450000  1.0 0.5812634351
C  C13  1  0.99770000  0.12940000  0.35751000  1.0 -0.140944506
C  C14  1  0.94580000  0.12310000  0.28931000  1.0 0.0596871083
C  C15  1  0.97730000  0.08220000  0.24075000  1.0 -0.1580712301
C  C16  1  0.92350000  0.07720000  0.17625000  1.0 -0.0900906501
C  C17  1  0.83580000  0.11320000  0.15499000  1.0 -0.0318246772
C  C18  1  0.80320000  0.15310000  0.20063000  1.0 -0.140944506
C  C19  1  0.85570000  0.15970000  0.26744000  1.0 0.0596871083
C  C20  1  0.81940000  0.19970000  0.31433000  1.0 -0.140944506
C  C21  1  0.86880000  0.20510000  0.37840000  1.0 -0.2220774448
C  C22  1  0.96040000  0.17110000  0.40222000  1.0 0.3230460309
C  C23  1  0.08390000  0.08970000  0.37950000  1.0 0.0338967266
C  C24  1  0.77380000  0.10040000  0.08570000  1.0 0.5812634351
C  C25  1  0.22330000  0.01270000  0.51360000  1.0 0.0906054133
C  C26  1  0.19680000  0.02590000  0.45490000  1.0 0.0906054133
C  C27  1  0.24150000  0.99950000  0.39850000  1.0 -0.2220774448
C  C28  1  0.33270000  0.95780000  0.42280000  1.0 -0.2062128065
C  C29  1  0.33200000  0.92260000  0.48280000  1.0 -0.1493795691
C  C30  1  0.31520000  0.97240000  0.53760000  1.0 -0.2465762374
C  C31  1  0.41580000  0.49190000  0.62049000  1.0 -0.1275848997
C  C32  1  0.42190000  0.54580000  0.67450000  1.0 0.0734393122
C  C33  1  0.33620000  0.58360000  0.67700000  1.0 -0.1580712301
C  C34  1  0.34420000  0.63310000  0.72990000  1.0 -0.1024306146
C  C35  1  0.44030000  0.64960000  0.78370000  1.0 -0.0201044501
C  C36  1  0.52270000  0.61130000  0.78350000  1.0 -0.140944506
C  C37  1  0.51540000  0.55900000  0.73020000  1.0 0.054196396
C  C38  1  0.59770000  0.51740000  0.73170000  1.0 -0.1275848997
C  C39  1  0.58870000  0.46400000  0.68180000  1.0 -0.2220774448
C  C40  1  0.49630000  0.44850000  0.62539000  1.0 0.3140204522
C  C41  1  0.32950000  0.48590000  0.56200000  1.0 0.0378557764
C  C42  1  0.44860000  0.70590000  0.83970000  1.0 0.5515386584
C  C43  1  0.37130000  0.25500000  0.36206000  1.0 -0.1275848997
C  C44  1  0.36260000  0.20510000  0.30407000  1.0 0.0596871083
C  C45  1  0.26870000  0.18970000  0.24950000  1.0 -0.1493795691
C  C46  1  0.26380000  0.14250000  0.19590000  1.0 -0.0843080235
C  C47  1  0.35280000  0.10920000  0.19290000  1.0 -0.0201044501
C  C48  1  0.44480000  0.12260000  0.24530000  1.0 -0.1493795691
C  C49  1  0.45000000  0.16770000  0.30230000  1.0 0.0596871083
C  C50  1  0.54200000  0.17760000  0.35770000  1.0 -0.1275848997
C  C51  1  0.54930000  0.22180000  0.41210000  1.0 -0.2035587457
C  C52  1  0.46540000  0.26190000  0.41617000  1.0 0.3230460309
C  C53  1  0.29190000  0.30070000  0.36180000  1.0 0.0906054133
C  C54  1  0.34720000  0.05980000  0.13370000  1.0 0.5649154904
C  C55  1  0.24480000  0.45780000  0.44600000  1.0 0.0966768312
C  C56  1  0.20040000  0.38600000  0.40760000  1.0 0.0596871083
C  C57  1  0.11670000  0.38170000  0.34310000  1.0 -0.231476111
C  C58  1  0.03610000  0.43020000  0.34560000  1.0 -0.1493795691
C  C59  1  0.05230000  0.48500000  0.39680000  1.0 -0.2220774448
C  C60  1  0.13550000  0.48540000  0.45950000  1.0 -0.2035587457
C  C61  1  0.18560000  0.41160000  0.46340000  1.0 0.0906054133
C  C62  1  0.24470000  0.06190000  0.45270000  1.0 0.1298655782
C  C63  1  0.81010000  0.90380000  0.32839000  1.0 -0.1275848997
C  C64  1  0.75810000  0.90550000  0.25984000  1.0 0.0596871083
C  C65  1  0.66740000  0.93870000  0.23784000  1.0 -0.1493795691
C  C66  1  0.61820000  0.93650000  0.17260000  1.0 -0.1056009409
C  C67  1  0.65480000  0.89810000  0.12596000  1.0 -0.0201044501
C  C68  1  0.74370000  0.86460000  0.14560000  1.0 -0.1275848997
C  C69  1  0.79860000  0.87030000  0.21180000  1.0 0.0596871083
C  C70  1  0.89470000  0.83880000  0.23180000  1.0 -0.119795648
C  C71  1  0.94100000  0.83740000  0.29550000  1.0 -0.2062128065
C  C72  1  0.89720000  0.86570000  0.34580000  1.0 0.3230460309
C  C73  1  0.77710000  0.94460000  0.37722000  1.0 0.1131190284
C  C74  1  0.59830000  0.89100000  0.05550000  1.0 0.5812634351
C  C75  1  0.00230000  0.87060000  0.64249000  1.0 -0.140944506
C  C76  1  0.05420000  0.87690000  0.71069000  1.0 0.0596871083
C  C77  1  0.02270000  0.91780000  0.75925000  1.0 -0.1580712301
C  C78  1  0.07650000  0.92280000  0.82375000  1.0 -0.0900906501
C  C79  1  0.16420000  0.88680000  0.84501000  1.0 -0.0318246772
C  C80  1  0.19680000  0.84690000  0.79937000  1.0 -0.140944506
C  C81  1  0.14430000  0.84030000  0.73256000  1.0 0.0596871083
C  C82  1  0.18060000  0.80030000  0.68567000  1.0 -0.140944506
C  C83  1  0.13120000  0.79490000  0.62160000  1.0 -0.2220774448
C  C84  1  0.03960000  0.82890000  0.59778000  1.0 0.3230460309
C  C85  1  0.91610000  0.91030000  0.62050000  1.0 0.0378557764
C  C86  1  0.22620000  0.89960000  0.91430000  1.0 0.5812634351
C  C87  1  0.77670000  0.98730000  0.48640000  1.0 0.0906054133
C  C88  1  0.80320000  0.97410000  0.54510000  1.0 0.0906054133
C  C89  1  0.75850000  0.00050000  0.60150000  1.0 -0.231476111
C  C90  1  0.66730000  0.04220000  0.57720000  1.0 -0.2062128065
C  C91  1  0.66800000  0.07740000  0.51720000  1.0 -0.1493795691
C  C92  1  0.68480000  0.02760000  0.46240000  1.0 -0.2465762374
C  C93  1  0.58420000  0.50810000  0.37951000  1.0 -0.1275848997
C  C94  1  0.57810000  0.45420000  0.32550000  1.0 0.0734393122
C  C95  1  0.66380000  0.41640000  0.32300000  1.0 -0.1580712301
C  C96  1  0.65580000  0.36690000  0.27010000  1.0 -0.1024306146
C  C97  1  0.55970000  0.35040000  0.21630000  1.0 -0.0201044501
C  C98  1  0.47730000  0.38870000  0.21650000  1.0 -0.140944506
C  C99  1  0.48460000  0.44100000  0.26980000  1.0 0.054196396
C  C100  1  0.40230000  0.48260000  0.26830000  1.0 -0.1275848997
C  C101  1  0.41130000  0.53600000  0.31820000  1.0 -0.2220774448
C  C102  1  0.50370000  0.55150000  0.37461000  1.0 0.3140204522
C  C103  1  0.67050000  0.51410000  0.43800000  1.0 0.0378557764
C  C104  1  0.55140000  0.29410000  0.16030000  1.0 0.5515386584
C  C105  1  0.62870000  0.74500000  0.63794000  1.0 -0.1275848997
C  C106  1  0.63740000  0.79490000  0.69593000  1.0 0.0596871083
C  C107  1  0.73130000  0.81030000  0.75050000  1.0 -0.1493795691
C  C108  1  0.73620000  0.85750000  0.80410000  1.0 -0.0843080235
C  C109  1  0.64720000  0.89080000  0.80710000  1.0 -0.0201044501
C  C110  1  0.55520000  0.87740000  0.75470000  1.0 -0.1493795691
C  C111  1  0.55000000  0.83230000  0.69770000  1.0 0.0596871083
C  C112  1  0.45800000  0.82240000  0.64230000  1.0 -0.1275848997
C  C113  1  0.45070000  0.77820000  0.58790000  1.0 -0.2035587457
C  C114  1  0.53460000  0.73810000  0.58383000  1.0 0.3230460309
C  C115  1  0.70810000  0.69930000  0.63820000  1.0 0.0906054133
C  C116  1  0.65280000  0.94020000  0.86630000  1.0 0.5657853606
C  C117  1  0.75520000  0.54220000  0.55400000  1.0 0.0966768312
C  C118  1  0.79960000  0.61400000  0.59240000  1.0 0.0596871083
C  C119  1  0.88330000  0.61830000  0.65690000  1.0 -0.231476111
C  C120  1  0.96390000  0.56980000  0.65440000  1.0 -0.1493795691
C  C121  1  0.94770000  0.51500000  0.60320000  1.0 -0.2220774448
C  C122  1  0.86450000  0.51460000  0.54050000  1.0 -0.1946636764
C  C123  1  0.81440000  0.58840000  0.53660000  1.0 0.0906054133
C  C124  1  0.75530000  0.93810000  0.54730000  1.0 0.1298655782
N  N1  1  0.20160000  0.06490000  0.56103000  1.0 -0.3075972078
N  N2  1  0.14180000  0.09240000  0.43821000  1.0 -0.1275848997
N  N3  1  0.30080000  0.43250000  0.51361000  1.0 -0.0900906501
N  N4  1  0.28200000  0.33940000  0.41167000  1.0 -0.2887902287
N  N5  1  0.79840000  0.93510000  0.43897000  1.0 -0.3075972078
N  N6  1  0.85820000  0.90760000  0.56179000  1.0 -0.119795648
N  N7  1  0.69920000  0.56750000  0.48639000  1.0 -0.0900906501
N  N8  1  0.71800000  0.66060000  0.58833000  1.0 -0.2887902287
O  O1  1  0.05540000  0.14180000  0.59366000  1.0 -0.4639677482
O  O2  1  0.00210000  0.17943000  0.46524000  1.0 -0.4835660932
O  O3  1  0.49420000  0.39640000  0.57942000  1.0 -0.4674521762
O  O4  1  0.48150000  0.30582000  0.47047000  1.0 -0.4639677482
O  O5  1  0.26490000  0.24850000  0.53616000  1.0 -0.7308964309
O  O6  1  0.46090000  0.06160000  0.96577000  1.0 -0.6340316412
O  O7  1  0.38950000  0.16050000  0.98203000  1.0 -0.5068400232
O  O8  1  0.80010000  0.05770000  0.04668000  1.0 -0.5068400232
O  O9  1  0.69110000  0.12980000  0.06614000  1.0 -0.5929073271
O  O10  1  0.53320000  0.72220000  0.88733000  1.0 -0.525708246
O  O11  1  0.36750000  0.73800000  0.83592000  1.0 -0.5635508177
O  O12  1  0.44520000  0.06281000  0.11717000  1.0 -0.5974120376
O  O13  1  0.25000000  0.01300000  0.10161000  1.0 -0.5021596727
O  O14  1  0.94460000  0.85820000  0.40634000  1.0 -0.4674521762
O  O15  1  0.99790000  0.82057000  0.53476000  1.0 -0.4854724286
O  O16  1  0.50580000  0.60360000  0.42058000  1.0 -0.4674521762
O  O17  1  0.51850000  0.69418000  0.52953000  1.0 -0.4639677482
O  O18  1  0.73510000  0.75150000  0.46384000  1.0 -0.7308964309
O  O19  1  0.53910000  0.93840000  0.03423000  1.0 -0.6340316412
O  O20  1  0.61050000  0.83950000  0.01797000  1.0 -0.5068400232
O  O21  1  0.19990000  0.94230000  0.95332000  1.0 -0.5068400232
O  O22  1  0.30890000  0.87020000  0.93386000  1.0 -0.5929073271
O  O23  1  0.46680000  0.27780000  0.11267000  1.0 -0.525708246
O  O24  1  0.63250000  0.26200000  0.16408000  1.0 -0.5635508177
O  O25  1  0.55480000  0.93719000  0.88283000  1.0 -0.5974120376
O  O26  1  0.75000000  0.98700000  0.89839000  1.0 -0.5021596727
