# DDEC6 charges by PACMAN v1.1 (https://github.com/mtap-research/PACMAN-charge/)
data_NIMXIS_ASR_pacman
_symmetry_space_group_name_H-M   'P 1'
_cell_length_a   12.93760000
_cell_length_b   12.93760000
_cell_length_c   14.16210000
_cell_angle_alpha   85.05810000
_cell_angle_beta   94.94190000
_cell_angle_gamma   90.40370000
_symmetry_Int_Tables_number   1
_chemical_formula_structural   Zn7C40(N2O15)2
_chemical_formula_sum   'Zn7 C40 N4 O30'
_cell_volume   2352.88188097
_cell_formula_units_Z   1
loop_
 _symmetry_equiv_pos_site_id
 _symmetry_equiv_pos_as_xyz
  1  'x, y, z'
loop_
 _atom_site_type_symbol
 _atom_site_label
 _atom_site_symmetry_multiplicity
 _atom_site_fract_x
 _atom_site_fract_y
 _atom_site_fract_z
 _atom_site_occupancy
 _atom_site_charge
Zn  Zn1  1  0.00000000  0.00000000  0.50000000  1.0 0.973616094
Zn  Zn2  1  0.16584000  0.83416000  0.49486000  1.0 0.9927219456
Zn  Zn3  1  0.83416000  0.16584000  0.50514000  1.0 0.9927219456
Zn  Zn4  1  0.18736000  0.98276000  0.66483000  1.0 0.9431353664
Zn  Zn5  1  0.98276000  0.18736000  0.33517000  1.0 0.9431353664
Zn  Zn6  1  0.81264000  0.01724000  0.33517000  1.0 0.9431353664
Zn  Zn7  1  0.01724000  0.81264000  0.66483000  1.0 0.9431353664
C  C1  1  0.81820000  0.89820000  0.60760000  1.0 0.6060072636
C  C2  1  0.89820000  0.81820000  0.39240000  1.0 0.6060072636
C  C3  1  0.18180000  0.10180000  0.39240000  1.0 0.6060072636
C  C4  1  0.10180000  0.18180000  0.60760000  1.0 0.6060072636
C  C5  1  0.53560000  0.85800000  0.52920000  1.0 0.0208913895
C  C6  1  0.85800000  0.53560000  0.47080000  1.0 0.0208913895
C  C7  1  0.46440000  0.14200000  0.47080000  1.0 0.0208913895
C  C8  1  0.14200000  0.46440000  0.52920000  1.0 0.0208913895
C  C9  1  0.64220000  0.86040000  0.53310000  1.0 0.0072329786
C  C10  1  0.86040000  0.64220000  0.46690000  1.0 0.0072329786
C  C11  1  0.35780000  0.13960000  0.46690000  1.0 0.0072329786
C  C12  1  0.13960000  0.35780000  0.53310000  1.0 0.0072329786
C  C13  1  0.54290000  0.93210000  0.67940000  1.0 -0.0891597042
C  C14  1  0.93210000  0.54290000  0.32060000  1.0 -0.0891597042
C  C15  1  0.45710000  0.06790000  0.32060000  1.0 -0.0891597042
C  C16  1  0.06790000  0.45710000  0.67940000  1.0 -0.0891597042
C  C17  1  0.48460000  0.89620000  0.60220000  1.0 -0.0404961131
C  C18  1  0.89620000  0.48460000  0.39780000  1.0 -0.0404961131
C  C19  1  0.51540000  0.10380000  0.39780000  1.0 -0.0404961131
C  C20  1  0.10380000  0.51540000  0.60220000  1.0 -0.0404961131
C  C21  1  0.64830000  0.93070000  0.68200000  1.0 0.046832197
C  C22  1  0.93070000  0.64830000  0.31800000  1.0 0.046832197
C  C23  1  0.35170000  0.06930000  0.31800000  1.0 0.046832197
C  C24  1  0.06930000  0.35170000  0.68200000  1.0 0.046832197
C  C25  1  0.70220000  0.89740000  0.60840000  1.0 -0.062095865
C  C26  1  0.89740000  0.70220000  0.39160000  1.0 -0.062095865
C  C27  1  0.29780000  0.10260000  0.39160000  1.0 -0.062095865
C  C28  1  0.10260000  0.29780000  0.60840000  1.0 -0.062095865
C  C29  1  0.06980000  0.93020000  0.82900000  1.0 0.6413843041
C  C30  1  0.93020000  0.06980000  0.17100000  1.0 0.6413843041
C  C31  1  0.03740000  0.96260000  0.91960000  1.0 -0.0470163947
C  C32  1  0.96260000  0.03740000  0.08040000  1.0 -0.0470163947
C  C33  1  0.08410000  0.04750000  0.95980000  1.0 0.0356546199
C  C34  1  0.04750000  0.08410000  0.04020000  1.0 0.0345489836
C  C35  1  0.91590000  0.95250000  0.04020000  1.0 0.0345489836
C  C36  1  0.95250000  0.91590000  0.95980000  1.0 0.0356546199
C  C37  1  0.36890000  0.90010000  0.59690000  1.0 0.6297335929
C  C38  1  0.90010000  0.36890000  0.40310000  1.0 0.6297335929
C  C39  1  0.63110000  0.09990000  0.40310000  1.0 0.6297335929
C  C40  1  0.09990000  0.63110000  0.59690000  1.0 0.6297335929
N  N1  1  0.70680000  0.96500000  0.76560000  1.0 0.4899444437
N  N2  1  0.96500000  0.70680000  0.23440000  1.0 0.4899444437
N  N3  1  0.29320000  0.03500000  0.23440000  1.0 0.4899444437
N  N4  1  0.03500000  0.29320000  0.76560000  1.0 0.4899444437
O  O1  1  0.86397000  0.81351000  0.63420000  1.0 -0.5041551286
O  O2  1  0.81351000  0.86397000  0.36580000  1.0 -0.5041551286
O  O3  1  0.13603000  0.18649000  0.36580000  1.0 -0.5041551286
O  O4  1  0.18649000  0.13603000  0.63420000  1.0 -0.5041551286
O  O5  1  0.31899000  0.85297000  0.53480000  1.0 -0.539149254
O  O6  1  0.85297000  0.31899000  0.46520000  1.0 -0.539149254
O  O7  1  0.68101000  0.14703000  0.46520000  1.0 -0.539149254
O  O8  1  0.14703000  0.68101000  0.53480000  1.0 -0.539149254
O  O9  1  0.14540000  0.97960000  0.79370000  1.0 -0.539149254
O  O10  1  0.97960000  0.14540000  0.20630000  1.0 -0.539149254
O  O11  1  0.85460000  0.02040000  0.20630000  1.0 -0.539149254
O  O12  1  0.02040000  0.85460000  0.79370000  1.0 -0.539149254
O  O13  1  0.33208000  0.95294000  0.65880000  1.0 -0.5282950693
O  O14  1  0.95294000  0.33208000  0.34120000  1.0 -0.5282950693
O  O15  1  0.66792000  0.04706000  0.34120000  1.0 -0.5282950693
O  O16  1  0.04706000  0.66792000  0.65880000  1.0 -0.5282950693
O  O17  1  0.09276000  0.90724000  0.58370000  1.0 -0.9852510387
O  O18  1  0.90724000  0.09276000  0.41630000  1.0 -0.9852510387
O  O19  1  0.79810000  0.96290000  0.77430000  1.0 -0.2355391675
O  O20  1  0.96290000  0.79810000  0.22570000  1.0 -0.2355391675
O  O21  1  0.20190000  0.03710000  0.22570000  1.0 -0.2344647342
O  O22  1  0.03710000  0.20190000  0.77430000  1.0 -0.2344647342
O  O23  1  0.66000000  0.99040000  0.82900000  1.0 -0.2465508723
O  O24  1  0.99040000  0.66000000  0.17100000  1.0 -0.2465508723
O  O25  1  0.34000000  0.00960000  0.17100000  1.0 -0.2465508723
O  O26  1  0.00960000  0.34000000  0.82900000  1.0 -0.2465508723
O  O27  1  0.85913000  0.97907000  0.57620000  1.0 -0.539149254
O  O28  1  0.97907000  0.85913000  0.42380000  1.0 -0.539149254
O  O29  1  0.14087000  0.02093000  0.42380000  1.0 -0.539149254
O  O30  1  0.02093000  0.14087000  0.57620000  1.0 -0.539149254
