# DDEC6 charges by PACMAN v1.1 (https://github.com/mtap-research/PACMAN-charge/)
data_NIMXAK_ASR_pacman
_symmetry_space_group_name_H-M   'P 1'
_cell_length_a   16.05410000
_cell_length_b   16.05410000
_cell_length_c   16.05410000
_cell_angle_alpha   108.74800000
_cell_angle_beta   108.74800000
_cell_angle_gamma   110.92800000
_symmetry_Int_Tables_number   1
_chemical_formula_structural   Ti2H6C12(N2O3)3
_chemical_formula_sum   'Ti8 H24 C48 N24 O36'
_cell_volume   3183.62887725
_cell_formula_units_Z   4
loop_
 _symmetry_equiv_pos_site_id
 _symmetry_equiv_pos_as_xyz
  1  'x, y, z'
loop_
 _atom_site_type_symbol
 _atom_site_label
 _atom_site_symmetry_multiplicity
 _atom_site_fract_x
 _atom_site_fract_y
 _atom_site_fract_z
 _atom_site_occupancy
 _atom_site_charge
Ti  Ti1  1  0.70830000  0.57400000  0.28230000  1.0 2.0131385138
Ti  Ti2  1  0.29170000  0.42600000  0.71770000  1.0 2.0131385138
Ti  Ti3  1  0.29170000  0.57400000  0.86570000  1.0 2.0131385138
Ti  Ti4  1  0.42600000  0.29170000  0.71770000  1.0 2.0131385138
Ti  Ti5  1  0.42600000  0.70830000  0.13430000  1.0 2.0131385138
Ti  Ti6  1  0.57400000  0.29170000  0.86570000  1.0 2.0131385138
Ti  Ti7  1  0.57400000  0.70830000  0.28230000  1.0 2.0131385138
Ti  Ti8  1  0.70830000  0.42600000  0.13430000  1.0 2.0131385138
H  H1  1  0.93430000  0.60725000  0.54155000  1.0 0.2018159813
H  H2  1  0.06570000  0.39275000  0.45845000  1.0 0.2018159813
H  H3  1  0.06570000  0.60725000  0.67295000  1.0 0.2018159813
H  H4  1  0.39275000  0.06570000  0.45845000  1.0 0.2018159813
H  H5  1  0.39275000  0.93430000  0.32705000  1.0 0.2018159813
H  H6  1  0.60725000  0.06570000  0.67295000  1.0 0.2018159813
H  H7  1  0.60725000  0.93430000  0.54155000  1.0 0.2018159813
H  H8  1  0.93430000  0.39275000  0.32705000  1.0 0.2018159813
H  H9  1  0.46235000  0.61536000  0.45917000  1.0 0.2182035314
H  H10  1  0.15619000  0.00318000  0.54083000  1.0 0.2182035314
H  H11  1  0.53765000  0.99682000  0.15301000  1.0 0.2182035314
H  H12  1  0.38464000  0.53765000  0.54083000  1.0 0.2182035314
H  H13  1  0.00318000  0.46235000  0.84699000  1.0 0.2182035314
H  H14  1  0.61536000  0.15619000  0.15301000  1.0 0.2182035314
H  H15  1  0.99682000  0.84381000  0.45917000  1.0 0.2182035314
H  H16  1  0.84381000  0.38464000  0.84699000  1.0 0.2182035314
H  H17  1  0.53765000  0.38464000  0.54083000  1.0 0.2182035314
H  H18  1  0.84381000  0.99682000  0.45917000  1.0 0.2182035314
H  H19  1  0.46235000  0.00318000  0.84699000  1.0 0.2182035314
H  H20  1  0.61536000  0.46235000  0.45917000  1.0 0.2182035314
H  H21  1  0.99682000  0.53765000  0.15301000  1.0 0.2182035314
H  H22  1  0.38464000  0.84381000  0.84699000  1.0 0.2182035314
H  H23  1  0.00318000  0.15619000  0.54083000  1.0 0.2182035314
H  H24  1  0.15619000  0.61536000  0.15301000  1.0 0.2182035314
C  C1  1  0.59630000  0.59630000  0.38800000  1.0 0.5473116896
C  C2  1  0.20830000  0.20830000  0.61200000  1.0 0.5473116896
C  C3  1  0.40370000  0.79170000  0.00000000  1.0 0.5473116896
C  C4  1  0.40370000  0.40370000  0.61200000  1.0 0.5473116896
C  C5  1  0.20830000  0.59630000  0.00000000  1.0 0.5473116896
C  C6  1  0.59630000  0.20830000  0.00000000  1.0 0.5473116896
C  C7  1  0.79170000  0.79170000  0.38800000  1.0 0.5473116896
C  C8  1  0.79170000  0.40370000  0.00000000  1.0 0.5473116896
C  C9  1  0.54340000  0.54340000  0.44500000  1.0 -0.0876561187
C  C10  1  0.09840000  0.09840000  0.55500000  1.0 -0.0876561187
C  C11  1  0.45660000  0.90160000  0.00000000  1.0 -0.0876561187
C  C12  1  0.45660000  0.45660000  0.55500000  1.0 -0.0845428595
C  C13  1  0.09840000  0.54340000  0.00000000  1.0 -0.0876561187
C  C14  1  0.54340000  0.09840000  0.00000000  1.0 -0.0876561187
C  C15  1  0.90160000  0.90160000  0.44500000  1.0 -0.0876561187
C  C16  1  0.90160000  0.45660000  0.00000000  1.0 -0.0876561187
C  C17  1  0.47717000  0.56548000  0.47413000  1.0 -0.0378774704
C  C18  1  0.09135000  0.00304000  0.52587000  1.0 -0.0378774704
C  C19  1  0.52283000  0.99696000  0.08831000  1.0 -0.0346847308
C  C20  1  0.43452000  0.52283000  0.52587000  1.0 -0.0378774704
C  C21  1  0.00304000  0.47717000  0.91169000  1.0 -0.0378774704
C  C22  1  0.56548000  0.09135000  0.08831000  1.0 -0.0378774704
C  C23  1  0.99696000  0.90865000  0.47413000  1.0 -0.0346847308
C  C24  1  0.90865000  0.43452000  0.91169000  1.0 -0.0346847308
C  C25  1  0.52283000  0.43452000  0.52587000  1.0 -0.0378774704
C  C26  1  0.90865000  0.99696000  0.47413000  1.0 -0.0378774704
C  C27  1  0.47717000  0.00304000  0.91169000  1.0 -0.0378774704
C  C28  1  0.56548000  0.47717000  0.47413000  1.0 -0.0378774704
C  C29  1  0.99696000  0.52283000  0.08831000  1.0 -0.0378774704
C  C30  1  0.43452000  0.90865000  0.91169000  1.0 -0.0378774704
C  C31  1  0.00304000  0.09135000  0.52587000  1.0 -0.0378774704
C  C32  1  0.09135000  0.56548000  0.08831000  1.0 -0.0378774704
C  C33  1  0.92650000  0.50000000  0.42650000  1.0 -0.1900829488
C  C34  1  0.07350000  0.50000000  0.57350000  1.0 -0.1900829488
C  C35  1  0.50000000  0.07350000  0.57350000  1.0 -0.1900829488
C  C36  1  0.50000000  0.92650000  0.42650000  1.0 -0.1900829488
C  C37  1  0.96333000  0.56514000  0.52847000  1.0 0.0165807044
C  C38  1  0.03667000  0.43486000  0.47153000  1.0 0.0165807044
C  C39  1  0.03667000  0.56514000  0.60181000  1.0 0.0165807044
C  C40  1  0.43486000  0.03667000  0.47153000  1.0 0.0165807044
C  C41  1  0.43486000  0.96333000  0.39819000  1.0 0.0165807044
C  C42  1  0.56514000  0.03667000  0.60181000  1.0 0.0165807044
C  C43  1  0.56514000  0.96333000  0.52847000  1.0 0.0165807044
C  C44  1  0.96333000  0.43486000  0.39819000  1.0 0.0165807044
C  C45  1  0.85070000  0.50000000  0.35070000  1.0 0.6085244676
C  C46  1  0.14930000  0.50000000  0.64930000  1.0 0.6085244676
C  C47  1  0.50000000  0.14930000  0.64930000  1.0 0.6085244676
C  C48  1  0.50000000  0.85070000  0.35070000  1.0 0.6085244676
N  N1  1  0.92348000  0.62294000  0.54642000  1.0 -0.1036974379
N  N2  1  0.07652000  0.37706000  0.45358000  1.0 -0.1036974379
N  N3  1  0.07652000  0.62294000  0.69946000  1.0 -0.1036974379
N  N4  1  0.37706000  0.07652000  0.45358000  1.0 -0.1036974379
N  N5  1  0.37706000  0.92348000  0.30054000  1.0 -0.1036974379
N  N6  1  0.62294000  0.07652000  0.69946000  1.0 -0.1036974379
N  N7  1  0.62294000  0.92348000  0.54642000  1.0 -0.1036974379
N  N8  1  0.92348000  0.37706000  0.30054000  1.0 -0.1036974379
N  N9  1  0.45652000  0.63497000  0.45329000  1.0 -0.0378774704
N  N10  1  0.18168000  0.00323000  0.54671000  1.0 -0.0378774704
N  N11  1  0.54348000  0.99677000  0.17845000  1.0 -0.0378774704
N  N12  1  0.36503000  0.54348000  0.54671000  1.0 -0.0378774704
N  N13  1  0.00323000  0.45652000  0.82155000  1.0 -0.0378774704
N  N14  1  0.63497000  0.18168000  0.17845000  1.0 -0.0378774704
N  N15  1  0.99677000  0.81832000  0.45329000  1.0 -0.0378774704
N  N16  1  0.81832000  0.36503000  0.82155000  1.0 -0.0378774704
N  N17  1  0.54348000  0.36503000  0.54671000  1.0 -0.0378774704
N  N18  1  0.81832000  0.99677000  0.45329000  1.0 -0.0378774704
N  N19  1  0.45652000  0.00323000  0.82155000  1.0 -0.0378774704
N  N20  1  0.63497000  0.45652000  0.45329000  1.0 -0.0378774704
N  N21  1  0.99677000  0.54348000  0.17845000  1.0 -0.0378774704
N  N22  1  0.36503000  0.81832000  0.82155000  1.0 -0.0378774704
N  N23  1  0.00323000  0.18168000  0.54671000  1.0 -0.0378774704
N  N24  1  0.18168000  0.63497000  0.17845000  1.0 -0.0378774704
O  O1  1  0.81110000  0.55800000  0.36910000  1.0 -0.6168346742
O  O2  1  0.18890000  0.44200000  0.63090000  1.0 -0.6168346742
O  O3  1  0.18890000  0.55800000  0.74690000  1.0 -0.6168346742
O  O4  1  0.44200000  0.18890000  0.63090000  1.0 -0.6168346742
O  O5  1  0.44200000  0.81110000  0.25310000  1.0 -0.6168346742
O  O6  1  0.55800000  0.18890000  0.74690000  1.0 -0.6168346742
O  O7  1  0.55800000  0.81110000  0.36910000  1.0 -0.6168346742
O  O8  1  0.81110000  0.44200000  0.25310000  1.0 -0.6168346742
O  O9  1  0.60840000  0.42650000  0.18190000  1.0 -0.9718691554
O  O10  1  0.24460000  0.42650000  0.81810000  1.0 -0.9718691554
O  O11  1  0.39160000  0.57350000  0.81810000  1.0 -0.9718691554
O  O12  1  0.57350000  0.39160000  0.81810000  1.0 -0.9718691554
O  O13  1  0.42650000  0.60840000  0.18190000  1.0 -0.9750085065
O  O14  1  0.42650000  0.24460000  0.81810000  1.0 -0.9718691554
O  O15  1  0.57350000  0.75540000  0.18190000  1.0 -0.9718691554
O  O16  1  0.75540000  0.57350000  0.18190000  1.0 -0.9718691554
O  O17  1  0.65270000  0.57100000  0.37010000  1.0 -0.5124370681
O  O18  1  0.20090000  0.28260000  0.62990000  1.0 -0.5124370681
O  O19  1  0.34730000  0.71740000  0.91830000  1.0 -0.5124370681
O  O20  1  0.42900000  0.34730000  0.62990000  1.0 -0.5124370681
O  O21  1  0.28260000  0.65270000  0.08170000  1.0 -0.5124370681
O  O22  1  0.57100000  0.20090000  0.91830000  1.0 -0.5124370681
O  O23  1  0.71740000  0.79910000  0.37010000  1.0 -0.5124370681
O  O24  1  0.79910000  0.42900000  0.08170000  1.0 -0.5124370681
O  O25  1  0.34730000  0.42900000  0.62990000  1.0 -0.5124370681
O  O26  1  0.79910000  0.71740000  0.37010000  1.0 -0.5124370681
O  O27  1  0.65270000  0.28260000  0.08170000  1.0 -0.5124370681
O  O28  1  0.57100000  0.65270000  0.37010000  1.0 -0.5124370681
O  O29  1  0.71740000  0.34730000  0.91830000  1.0 -0.5124370681
O  O30  1  0.42900000  0.79910000  0.08170000  1.0 -0.5124370681
O  O31  1  0.28260000  0.20090000  0.62990000  1.0 -0.5124370681
O  O32  1  0.20090000  0.57100000  0.91830000  1.0 -0.5124370681
O  O33  1  0.60740000  0.60740000  0.21480000  1.0 -0.9384546468
O  O34  1  0.39260000  0.39260000  0.78520000  1.0 -0.9384546468
O  O35  1  0.39260000  0.60740000  0.00000000  1.0 -0.9384546468
O  O36  1  0.60740000  0.39260000  0.00000000  1.0 -0.9384546468
