# DDEC6 charges by PACMAN v1.1 (https://github.com/mtap-research/PACMAN-charge/)
data_NINHOH_FSR_pacman
_symmetry_space_group_name_H-M   'P 1'
_cell_length_a   8.27282000
_cell_length_b   8.27282000
_cell_length_c   15.24900000
_cell_angle_alpha   88.81990000
_cell_angle_beta   91.18010000
_cell_angle_gamma   93.52660000
_symmetry_Int_Tables_number   1
_chemical_formula_structural   CdC2N2O
_chemical_formula_sum   'Cd4 C8 N8 O4'
_cell_volume   1041.24211781
_cell_formula_units_Z   4
loop_
 _symmetry_equiv_pos_site_id
 _symmetry_equiv_pos_as_xyz
  1  'x, y, z'
loop_
 _atom_site_type_symbol
 _atom_site_label
 _atom_site_symmetry_multiplicity
 _atom_site_fract_x
 _atom_site_fract_y
 _atom_site_fract_z
 _atom_site_occupancy
 _atom_site_charge
Cd  Cd1  1  0.00000000  0.50000000  0.50000000  1.0 1.2185849529
Cd  Cd2  1  0.50000000  0.00000000  0.00000000  1.0 1.2296496015
Cd  Cd3  1  0.51105000  0.51105000  0.75000000  1.0 0.3060273807
Cd  Cd4  1  0.48895000  0.48895000  0.25000000  1.0 0.3212718647
C  C1  1  0.71820000  0.52000000  0.66100000  1.0 0.2385048065
C  C2  1  0.52000000  0.71820000  0.83900000  1.0 0.2482100632
C  C3  1  0.28180000  0.48000000  0.33900000  1.0 0.232818028
C  C4  1  0.48000000  0.28180000  0.16100000  1.0 0.2385048065
C  C5  1  0.29920000  0.50520000  0.65880000  1.0 0.2385048065
C  C6  1  0.50520000  0.29920000  0.84120000  1.0 0.2482100632
C  C7  1  0.70080000  0.49480000  0.34120000  1.0 0.232818028
C  C8  1  0.49480000  0.70080000  0.15880000  1.0 0.2385048065
N  N1  1  0.81210000  0.52430000  0.60800000  1.0 -0.464683773
N  N2  1  0.52430000  0.81210000  0.89200000  1.0 -0.4700383364
N  N3  1  0.18790000  0.47570000  0.39200000  1.0 -0.4700383364
N  N4  1  0.47570000  0.18790000  0.10800000  1.0 -0.4700383364
N  N5  1  0.19990000  0.49970000  0.60740000  1.0 -0.45107227
N  N6  1  0.49970000  0.19990000  0.89260000  1.0 -0.45107227
N  N7  1  0.80010000  0.50030000  0.39260000  1.0 -0.45107227
N  N8  1  0.50030000  0.80010000  0.10740000  1.0 -0.45107227
O  O1  1  0.96020000  0.21640000  0.51360000  1.0 -0.3101752121
O  O2  1  0.21640000  0.96020000  0.98640000  1.0 -0.3229285497
O  O3  1  0.03980000  0.78360000  0.48640000  1.0 -0.3564890344
O  O4  1  0.78360000  0.03980000  0.01360000  1.0 -0.3229285497
