# DDEC6 charges by PACMAN v1.1 (https://github.com/mtap-research/PACMAN-charge/)
data_NIQNUZ_ASR_pacman
_symmetry_space_group_name_H-M   'P 1'
_cell_length_a   12.82630000
_cell_length_b   12.82630000
_cell_length_c   25.50290000
_cell_angle_alpha   74.91960000
_cell_angle_beta   105.08000000
_cell_angle_gamma   104.59600000
_symmetry_Int_Tables_number   1
_chemical_formula_structural   CeSiH33C30N3O10
_chemical_formula_sum   'Ce4 Si4 H132 C120 N12 O40'
_cell_volume   3834.38857522
_cell_formula_units_Z   4
loop_
 _symmetry_equiv_pos_site_id
 _symmetry_equiv_pos_as_xyz
  1  'x, y, z'
loop_
 _atom_site_type_symbol
 _atom_site_label
 _atom_site_symmetry_multiplicity
 _atom_site_fract_x
 _atom_site_fract_y
 _atom_site_fract_z
 _atom_site_occupancy
 _atom_site_charge
Ce  Ce1  1  0.83161000  0.49717000  0.47109000  1.0 1.8454763472
Ce  Ce2  1  0.49717000  0.83161000  0.02891000  1.0 1.8438847046
Ce  Ce3  1  0.16839000  0.50283000  0.52891000  1.0 1.8454763472
Ce  Ce4  1  0.50283000  0.16839000  0.97109000  1.0 1.8454763472
Si  Si1  1  0.91627000  0.74781000  0.77734000  1.0 1.0658344309
Si  Si2  1  0.74781000  0.91627000  0.72266000  1.0 1.0658344309
Si  Si3  1  0.08373000  0.25219000  0.22266000  1.0 1.0658344309
Si  Si4  1  0.25219000  0.08373000  0.27734000  1.0 1.0658344309
H  H1  1  0.81863000  0.76435000  0.66025000  1.0 0.1514867401
H  H2  1  0.84763000  0.71135000  0.58572000  1.0 0.1227955774
H  H3  1  0.12106000  0.60908000  0.68026000  1.0 0.1227955774
H  H4  1  0.08789000  0.65303000  0.75720000  1.0 0.1081658905
H  H5  1  0.99294000  0.96656000  0.79977000  1.0 0.1227955774
H  H6  1  0.14739000  0.06389000  0.84906000  1.0 0.1227955774
H  H7  1  0.26448000  0.78148000  0.91475000  1.0 0.1227955774
H  H8  1  0.11581000  0.68925000  0.85856000  1.0 0.1081658905
H  H9  1  0.92934000  0.63076000  0.89522000  1.0 0.1020232122
H  H10  1  0.83192000  0.47674000  0.94314000  1.0 0.1227955774
H  H11  1  0.61429000  0.43399000  0.80070000  1.0 0.1514867401
H  H12  1  0.72380000  0.58280000  0.75173000  1.0 0.1617164294
H  H13  1  0.69241000  0.55457000  0.56391000  1.0 0.0797215519
H  H14  1  0.51347000  0.28959000  0.64000000  1.0 0.1081658905
H  H15  1  0.61290000  0.26328000  0.62181000  1.0 0.0876167798
H  H16  1  0.51036000  0.30050000  0.57568000  1.0 0.1514867401
H  H17  1  0.53706000  0.41528000  0.66582000  1.0 0.0699527406
H  H18  1  0.55252000  0.53332000  0.62472000  1.0 0.0876167798
H  H19  1  0.65507000  0.49619000  0.67088000  1.0 0.0505492631
H  H20  1  0.75709000  0.44689000  0.61693000  1.0 0.0797215519
H  H21  1  0.51185000  0.60553000  0.55605000  1.0 0.0797215519
H  H22  1  0.52082000  0.53040000  0.51681000  1.0 0.0441804248
H  H23  1  0.61216000  0.63928000  0.52461000  1.0 0.0699527406
H  H24  1  0.53898000  0.55432000  0.63076000  1.0 0.0699527406
H  H25  1  0.66200000  0.54450000  0.66343000  1.0 0.0699527406
H  H26  1  0.57066000  0.43562000  0.65565000  1.0 0.0604039981
H  H27  1  0.61232000  0.54330000  0.52796000  1.0 0.0699527406
H  H28  1  0.71402000  0.44884000  0.68914000  1.0 0.0604039981
H  H29  1  0.79791000  0.44475000  0.65330000  1.0 0.0699527406
H  H30  1  0.68659000  0.35403000  0.65456000  1.0 0.0797215519
H  H31  1  0.63441000  0.55749000  0.66585000  1.0 0.0699527406
H  H32  1  0.53894000  0.55544000  0.61113000  1.0 0.0797215519
H  H33  1  0.65031000  0.64609000  0.60988000  1.0 0.0797215519
H  H34  1  0.76435000  0.81863000  0.83975000  1.0 0.1514867401
H  H35  1  0.71135000  0.84763000  0.91428000  1.0 0.1227955774
H  H36  1  0.60908000  0.12106000  0.81974000  1.0 0.1227955774
H  H37  1  0.65303000  0.08789000  0.74280000  1.0 0.1081658905
H  H38  1  0.96656000  0.99294000  0.70023000  1.0 0.1227955774
H  H39  1  0.06389000  0.14739000  0.65094000  1.0 0.1227955774
H  H40  1  0.78148000  0.26448000  0.58525000  1.0 0.1227955774
H  H41  1  0.68925000  0.11581000  0.64144000  1.0 0.1081658905
H  H42  1  0.63076000  0.92934000  0.60478000  1.0 0.1020232122
H  H43  1  0.47674000  0.83192000  0.55686000  1.0 0.1227955774
H  H44  1  0.43399000  0.61429000  0.69930000  1.0 0.1514867401
H  H45  1  0.58280000  0.72380000  0.74827000  1.0 0.1617164294
H  H46  1  0.55457000  0.69241000  0.93609000  1.0 0.0797215519
H  H47  1  0.28959000  0.51347000  0.86000000  1.0 0.1081658905
H  H48  1  0.26328000  0.61290000  0.87819000  1.0 0.0876167798
H  H49  1  0.30050000  0.51036000  0.92432000  1.0 0.1514867401
H  H50  1  0.41528000  0.53706000  0.83418000  1.0 0.0699527406
H  H51  1  0.53332000  0.55252000  0.87528000  1.0 0.0876167798
H  H52  1  0.49619000  0.65507000  0.82912000  1.0 0.0505492631
H  H53  1  0.44689000  0.75709000  0.88307000  1.0 0.0797215519
H  H54  1  0.60553000  0.51185000  0.94395000  1.0 0.0797215519
H  H55  1  0.53040000  0.52082000  0.98319000  1.0 0.0441804248
H  H56  1  0.63928000  0.61216000  0.97539000  1.0 0.0699527406
H  H57  1  0.55432000  0.53898000  0.86924000  1.0 0.0699527406
H  H58  1  0.54450000  0.66200000  0.83657000  1.0 0.0699527406
H  H59  1  0.43562000  0.57066000  0.84435000  1.0 0.0604039981
H  H60  1  0.54330000  0.61232000  0.97204000  1.0 0.0699527406
H  H61  1  0.44884000  0.71402000  0.81086000  1.0 0.0604039981
H  H62  1  0.44475000  0.79791000  0.84670000  1.0 0.0699527406
H  H63  1  0.35403000  0.68659000  0.84544000  1.0 0.0797215519
H  H64  1  0.55749000  0.63441000  0.83415000  1.0 0.0699527406
H  H65  1  0.55544000  0.53894000  0.88887000  1.0 0.0797215519
H  H66  1  0.64609000  0.65031000  0.89012000  1.0 0.0797215519
H  H67  1  0.18137000  0.23565000  0.33975000  1.0 0.1514867401
H  H68  1  0.15237000  0.28865000  0.41428000  1.0 0.1227955774
H  H69  1  0.87894000  0.39092000  0.31974000  1.0 0.1227955774
H  H70  1  0.91211000  0.34697000  0.24280000  1.0 0.1081658905
H  H71  1  0.00706000  0.03344000  0.20023000  1.0 0.1227955774
H  H72  1  0.85261000  0.93611000  0.15094000  1.0 0.1227955774
H  H73  1  0.73552000  0.21852000  0.08525000  1.0 0.1227955774
H  H74  1  0.88419000  0.31075000  0.14144000  1.0 0.1081658905
H  H75  1  0.07066000  0.36924000  0.10478000  1.0 0.1020232122
H  H76  1  0.16808000  0.52326000  0.05686000  1.0 0.1227955774
H  H77  1  0.38571000  0.56601000  0.19930000  1.0 0.1514867401
H  H78  1  0.27620000  0.41720000  0.24827000  1.0 0.1617164294
H  H79  1  0.30759000  0.44543000  0.43609000  1.0 0.0797215519
H  H80  1  0.48653000  0.71041000  0.36000000  1.0 0.1081658905
H  H81  1  0.38710000  0.73672000  0.37819000  1.0 0.0876167798
H  H82  1  0.48964000  0.69950000  0.42432000  1.0 0.1514867401
H  H83  1  0.46294000  0.58472000  0.33418000  1.0 0.0699527406
H  H84  1  0.44748000  0.46668000  0.37528000  1.0 0.0876167798
H  H85  1  0.34493000  0.50381000  0.32912000  1.0 0.0505492631
H  H86  1  0.24291000  0.55311000  0.38307000  1.0 0.0797215519
H  H87  1  0.48815000  0.39447000  0.44395000  1.0 0.0797215519
H  H88  1  0.47918000  0.46960000  0.48319000  1.0 0.0441804248
H  H89  1  0.38784000  0.36072000  0.47539000  1.0 0.0699527406
H  H90  1  0.46102000  0.44568000  0.36924000  1.0 0.0699527406
H  H91  1  0.33800000  0.45550000  0.33657000  1.0 0.0699527406
H  H92  1  0.42934000  0.56438000  0.34435000  1.0 0.0604039981
H  H93  1  0.38768000  0.45670000  0.47204000  1.0 0.0699527406
H  H94  1  0.28598000  0.55116000  0.31086000  1.0 0.0604039981
H  H95  1  0.20209000  0.55525000  0.34670000  1.0 0.0604039981
H  H96  1  0.31341000  0.64597000  0.34544000  1.0 0.0797215519
H  H97  1  0.36559000  0.44251000  0.33415000  1.0 0.0699527406
H  H98  1  0.46106000  0.44456000  0.38887000  1.0 0.0797215519
H  H99  1  0.34969000  0.35391000  0.39012000  1.0 0.0797215519
H  H100  1  0.23565000  0.18137000  0.16025000  1.0 0.1514867401
H  H101  1  0.28865000  0.15237000  0.08572000  1.0 0.1227955774
H  H102  1  0.39092000  0.87894000  0.18026000  1.0 0.1227955774
H  H103  1  0.34697000  0.91211000  0.25720000  1.0 0.1081658905
H  H104  1  0.03344000  0.00706000  0.29977000  1.0 0.1227955774
H  H105  1  0.93611000  0.85261000  0.34906000  1.0 0.1227955774
H  H106  1  0.21852000  0.73552000  0.41475000  1.0 0.1227955774
H  H107  1  0.31075000  0.88419000  0.35856000  1.0 0.1081658905
H  H108  1  0.36924000  0.07066000  0.39522000  1.0 0.1020232122
H  H109  1  0.52326000  0.16808000  0.44314000  1.0 0.1227955774
H  H110  1  0.56601000  0.38571000  0.30070000  1.0 0.1514867401
H  H111  1  0.41720000  0.27620000  0.25173000  1.0 0.1617164294
H  H112  1  0.44543000  0.30759000  0.06391000  1.0 0.0797215519
H  H113  1  0.71041000  0.48653000  0.14000000  1.0 0.1081658905
H  H114  1  0.73672000  0.38710000  0.12181000  1.0 0.0876167798
H  H115  1  0.69950000  0.48964000  0.07568000  1.0 0.1514867401
H  H116  1  0.58472000  0.46294000  0.16582000  1.0 0.0699527406
H  H117  1  0.46668000  0.44748000  0.12472000  1.0 0.0876167798
H  H118  1  0.50381000  0.34493000  0.17088000  1.0 0.0505492631
H  H119  1  0.55311000  0.24291000  0.11693000  1.0 0.0797215519
H  H120  1  0.39447000  0.48815000  0.05605000  1.0 0.0797215519
H  H121  1  0.46960000  0.47918000  0.01681000  1.0 0.0441804248
H  H122  1  0.36072000  0.38784000  0.02461000  1.0 0.0699527406
H  H123  1  0.44568000  0.46102000  0.13076000  1.0 0.0699527406
H  H124  1  0.45550000  0.33800000  0.16343000  1.0 0.0699527406
H  H125  1  0.56438000  0.42934000  0.15565000  1.0 0.0604039981
H  H126  1  0.45670000  0.38768000  0.02796000  1.0 0.0699527406
H  H127  1  0.55116000  0.28598000  0.18914000  1.0 0.0604039981
H  H128  1  0.55525000  0.20209000  0.15330000  1.0 0.0604039981
H  H129  1  0.64597000  0.31341000  0.15456000  1.0 0.0797215519
H  H130  1  0.44251000  0.36559000  0.16585000  1.0 0.0699527406
H  H131  1  0.44456000  0.46106000  0.11113000  1.0 0.0797215519
H  H132  1  0.35391000  0.34969000  0.10988000  1.0 0.0797215519
C  C1  1  0.95040000  0.71160000  0.71782000  1.0 -0.2402744276
C  C2  1  0.87920000  0.73040000  0.66507000  1.0 -0.1006276693
C  C3  1  0.89710000  0.69990000  0.62066000  1.0 -0.1868516524
C  C4  1  0.98580000  0.65280000  0.62644000  1.0 -0.006215965
C  C5  1  0.05770000  0.63830000  0.67650000  1.0 -0.0710043219
C  C6  1  0.03850000  0.66610000  0.72230000  1.0 -0.0826268513
C  C7  1  0.00250000  0.61750000  0.57730000  1.0 0.6115831863
C  C8  1  0.04020000  0.81860000  0.82216000  1.0 -0.2502075956
C  C9  1  0.05060000  0.92980000  0.82150000  1.0 -0.0612493195
C  C10  1  0.14140000  0.98760000  0.85130000  1.0 -0.1006276693
C  C11  1  0.22400000  0.93420000  0.88448000  1.0 0.0044141271
C  C12  1  0.21150000  0.82030000  0.88935000  1.0 -0.0884363829
C  C13  1  0.12170000  0.76530000  0.85690000  1.0 -0.1068754737
C  C14  1  0.32580000  0.99960000  0.91643000  1.0 0.6025792341
C  C15  1  0.84050000  0.62310000  0.81836000  1.0 -0.2502075956
C  C16  1  0.86660000  0.58940000  0.87510000  1.0 -0.0884363829
C  C17  1  0.80710000  0.49950000  0.90420000  1.0 -0.0884363829
C  C18  1  0.71190000  0.44190000  0.87755000  1.0 0.015391889
C  C19  1  0.67980000  0.47320000  0.82004000  1.0 -0.2003419418
C  C20  1  0.74510000  0.56270000  0.79100000  1.0 -0.1645594705
C  C21  1  0.64020000  0.35020000  0.90914000  1.0 0.4994590859
C  C22  1  0.68180000  0.47640000  0.57190000  1.0 0.2132545541
C  C23  1  0.55820000  0.31020000  0.61160000  1.0 -0.4691228066
C  C24  1  0.58780000  0.47080000  0.64500000  1.0 -0.0884363829
C  C25  1  0.70420000  0.46500000  0.58390000  1.0 0.2316936831
C  C26  1  0.56280000  0.57740000  0.54310000  1.0 -0.3565452118
C  C27  1  0.59720000  0.51220000  0.63830000  1.0 -0.1068754737
C  C28  1  0.65720000  0.49680000  0.55430000  1.0 0.2017027418
C  C29  1  0.72030000  0.43170000  0.65490000  1.0 -0.1782533322
C  C30  1  0.61860000  0.56940000  0.62520000  1.0 -0.1374881287
C  C31  1  0.71160000  0.95040000  0.78218000  1.0 -0.2402744276
C  C32  1  0.73040000  0.87920000  0.83493000  1.0 -0.1006276693
C  C33  1  0.69990000  0.89710000  0.87934000  1.0 -0.1868516524
C  C34  1  0.65280000  0.98580000  0.87356000  1.0 -0.006215965
C  C35  1  0.63830000  0.05770000  0.82350000  1.0 -0.0710043219
C  C36  1  0.66610000  0.03850000  0.77770000  1.0 -0.0826268513
C  C37  1  0.61750000  0.00250000  0.92270000  1.0 0.6115831863
C  C38  1  0.81860000  0.04020000  0.67784000  1.0 -0.2502075956
C  C39  1  0.92980000  0.05060000  0.67850000  1.0 -0.0612493195
C  C40  1  0.98760000  0.14140000  0.64870000  1.0 -0.1006276693
C  C41  1  0.93420000  0.22400000  0.61552000  1.0 0.0044141271
C  C42  1  0.82030000  0.21150000  0.61065000  1.0 -0.0884363829
C  C43  1  0.76530000  0.12170000  0.64310000  1.0 -0.1068754737
C  C44  1  0.99960000  0.32580000  0.58357000  1.0 0.6025792341
C  C45  1  0.62310000  0.84050000  0.68164000  1.0 -0.2502075956
C  C46  1  0.58940000  0.86660000  0.62490000  1.0 -0.0884363829
C  C47  1  0.49950000  0.80710000  0.59580000  1.0 -0.0884363829
C  C48  1  0.44190000  0.71190000  0.62245000  1.0 0.015391889
C  C49  1  0.47320000  0.67980000  0.67996000  1.0 -0.2003419418
C  C50  1  0.56270000  0.74510000  0.70900000  1.0 -0.1645594705
C  C51  1  0.35020000  0.64020000  0.59086000  1.0 0.4994590859
C  C52  1  0.47640000  0.68180000  0.92810000  1.0 0.2132545541
C  C53  1  0.31020000  0.55820000  0.88840000  1.0 -0.4691228066
C  C54  1  0.47080000  0.58780000  0.85500000  1.0 -0.0884363829
C  C55  1  0.46500000  0.70420000  0.91610000  1.0 0.2316936831
C  C56  1  0.57740000  0.56280000  0.95690000  1.0 -0.3565452118
C  C57  1  0.51220000  0.59720000  0.86170000  1.0 -0.1068754737
C  C58  1  0.49680000  0.65720000  0.94570000  1.0 0.2017027418
C  C59  1  0.43170000  0.72030000  0.84510000  1.0 -0.1782533322
C  C60  1  0.56940000  0.61860000  0.87480000  1.0 -0.1374881287
C  C61  1  0.04960000  0.28840000  0.28218000  1.0 -0.2402744276
C  C62  1  0.12080000  0.26960000  0.33493000  1.0 -0.1006276693
C  C63  1  0.10290000  0.30010000  0.37934000  1.0 -0.1868516524
C  C64  1  0.01420000  0.34720000  0.37356000  1.0 -0.006215965
C  C65  1  0.94230000  0.36170000  0.32350000  1.0 -0.0710043219
C  C66  1  0.96150000  0.33390000  0.27770000  1.0 -0.0826268513
C  C67  1  0.99750000  0.38250000  0.42270000  1.0 0.6115831863
C  C68  1  0.95980000  0.18140000  0.17784000  1.0 -0.2502075956
C  C69  1  0.94940000  0.07020000  0.17850000  1.0 -0.0612493195
C  C70  1  0.85860000  0.01240000  0.14870000  1.0 -0.1006276693
C  C71  1  0.77600000  0.06580000  0.11552000  1.0 0.0044141271
C  C72  1  0.78850000  0.17970000  0.11065000  1.0 -0.0884363829
C  C73  1  0.87830000  0.23470000  0.14310000  1.0 -0.1006276693
C  C74  1  0.67420000  0.00040000  0.08357000  1.0 0.6025792341
C  C75  1  0.15950000  0.37690000  0.18164000  1.0 -0.2502075956
C  C76  1  0.13340000  0.41060000  0.12490000  1.0 -0.0884363829
C  C77  1  0.19290000  0.50050000  0.09580000  1.0 -0.0884363829
C  C78  1  0.28810000  0.55810000  0.12245000  1.0 0.015391889
C  C79  1  0.32020000  0.52680000  0.17996000  1.0 -0.2003419418
C  C80  1  0.25490000  0.43730000  0.20900000  1.0 -0.1645594705
C  C81  1  0.35980000  0.64980000  0.09086000  1.0 0.4994590859
C  C82  1  0.31820000  0.52360000  0.42810000  1.0 0.2132545541
C  C83  1  0.44180000  0.68980000  0.38840000  1.0 -0.4691228066
C  C84  1  0.41220000  0.52920000  0.35500000  1.0 -0.0884363829
C  C85  1  0.29580000  0.53500000  0.41610000  1.0 0.2316936831
C  C86  1  0.43720000  0.42260000  0.45690000  1.0 -0.3565452118
C  C87  1  0.40280000  0.48780000  0.36170000  1.0 -0.1068754737
C  C88  1  0.34280000  0.50320000  0.44570000  1.0 0.2017027418
C  C89  1  0.27970000  0.56830000  0.34510000  1.0 -0.1782533322
C  C90  1  0.38140000  0.43060000  0.37480000  1.0 -0.1374881287
C  C91  1  0.28840000  0.04960000  0.21782000  1.0 -0.2402744276
C  C92  1  0.26960000  0.12080000  0.16507000  1.0 -0.1006276693
C  C93  1  0.30010000  0.10290000  0.12066000  1.0 -0.1868516524
C  C94  1  0.34720000  0.01420000  0.12644000  1.0 -0.006215965
C  C95  1  0.36170000  0.94230000  0.17650000  1.0 -0.0710043219
C  C96  1  0.33390000  0.96150000  0.22230000  1.0 -0.0826268513
C  C97  1  0.38250000  0.99750000  0.07730000  1.0 0.6115831863
C  C98  1  0.18140000  0.95980000  0.32216000  1.0 -0.2502075956
C  C99  1  0.07020000  0.94940000  0.32150000  1.0 -0.0612493195
C  C100  1  0.01240000  0.85860000  0.35130000  1.0 -0.1006276693
C  C101  1  0.06580000  0.77600000  0.38448000  1.0 0.0044141271
C  C102  1  0.17970000  0.78850000  0.38935000  1.0 -0.0884363829
C  C103  1  0.23470000  0.87830000  0.35690000  1.0 -0.1068754737
C  C104  1  0.00040000  0.67420000  0.41643000  1.0 0.6025792341
C  C105  1  0.37690000  0.15950000  0.31836000  1.0 -0.2502075956
C  C106  1  0.41060000  0.13340000  0.37510000  1.0 -0.0884363829
C  C107  1  0.50050000  0.19290000  0.40420000  1.0 -0.0884363829
C  C108  1  0.55810000  0.28810000  0.37755000  1.0 0.015391889
C  C109  1  0.52680000  0.32020000  0.32004000  1.0 -0.2003419418
C  C110  1  0.43730000  0.25490000  0.29100000  1.0 -0.1645594705
C  C111  1  0.64980000  0.35980000  0.40914000  1.0 0.4994590859
C  C112  1  0.52360000  0.31820000  0.07190000  1.0 0.2132545541
C  C113  1  0.68980000  0.44180000  0.11160000  1.0 -0.4691228066
C  C114  1  0.52920000  0.41220000  0.14500000  1.0 -0.0884363829
C  C115  1  0.53500000  0.29580000  0.08390000  1.0 0.2316936831
C  C116  1  0.42260000  0.43720000  0.04310000  1.0 -0.3565452118
C  C117  1  0.48780000  0.40280000  0.13830000  1.0 -0.1068754737
C  C118  1  0.50320000  0.34280000  0.05430000  1.0 0.2017027418
C  C119  1  0.56830000  0.27970000  0.15490000  1.0 -0.1782533322
C  C120  1  0.43060000  0.38140000  0.12520000  1.0 -0.1374881287
N  N1  1  0.61400000  0.42500000  0.60780000  1.0 0.1698370594
N  N2  1  0.62550000  0.51530000  0.58880000  1.0 0.0604039981
N  N3  1  0.66570000  0.49810000  0.60930000  1.0 0.0699527406
N  N4  1  0.42500000  0.61400000  0.89220000  1.0 0.1698370594
N  N5  1  0.51530000  0.62550000  0.91120000  1.0 0.0604039981
N  N6  1  0.49810000  0.66570000  0.89070000  1.0 0.0699527406
N  N7  1  0.38600000  0.57500000  0.39220000  1.0 0.1698370594
N  N8  1  0.37450000  0.48470000  0.41120000  1.0 0.0604039981
N  N9  1  0.33430000  0.50190000  0.39070000  1.0 0.0699527406
N  N10  1  0.57500000  0.38600000  0.10780000  1.0 0.1698370594
N  N11  1  0.48470000  0.37450000  0.08880000  1.0 0.0604039981
N  N12  1  0.50190000  0.33430000  0.10930000  1.0 0.0699527406
O  O1  1  0.92268000  0.61852000  0.53527000  1.0 -0.6639915327
O  O2  1  0.09062000  0.58942000  0.58174000  1.0 -0.5787088741
O  O3  1  0.34000000  0.10260000  0.90270000  1.0 -0.5787088741
O  O4  1  0.38961000  0.94945000  0.95477000  1.0 -0.6494780798
O  O5  1  0.68030000  0.30730000  0.95855000  1.0 -0.5487342049
O  O6  1  0.54106000  0.31824000  0.88648000  1.0 -0.571961986
O  O7  1  0.73040000  0.44140000  0.54860000  1.0 -0.2852118631
O  O8  1  0.83390000  0.83250000  0.74430000  1.0 -0.7213086207
O  O9  1  0.71530000  0.44070000  0.54320000  1.0 -0.3987707515
O  O10  1  0.69800000  0.44400000  0.53520000  1.0 -0.3052137812
O  O11  1  0.61852000  0.92268000  0.96473000  1.0 -0.6639915327
O  O12  1  0.58942000  0.09062000  0.91826000  1.0 -0.5787088741
O  O13  1  0.10260000  0.34000000  0.59730000  1.0 -0.5787088741
O  O14  1  0.94945000  0.38961000  0.54523000  1.0 -0.6494780798
O  O15  1  0.30730000  0.68030000  0.54145000  1.0 -0.5487342049
O  O16  1  0.31824000  0.54106000  0.61352000  1.0 -0.571961986
O  O17  1  0.44140000  0.73040000  0.95140000  1.0 -0.2852118631
O  O18  1  0.83250000  0.83390000  0.75570000  1.0 -0.7213086207
O  O19  1  0.44070000  0.71530000  0.95680000  1.0 -0.3987707515
O  O20  1  0.44400000  0.69800000  0.96480000  1.0 -0.3046479841
O  O21  1  0.07732000  0.38148000  0.46473000  1.0 -0.6662552376
O  O22  1  0.90938000  0.41058000  0.41826000  1.0 -0.5787088741
O  O23  1  0.66000000  0.89740000  0.09730000  1.0 -0.5787088741
O  O24  1  0.61039000  0.05055000  0.04523000  1.0 -0.6494780798
O  O25  1  0.31970000  0.69270000  0.04145000  1.0 -0.5487342049
O  O26  1  0.45894000  0.68176000  0.11352000  1.0 -0.571961986
O  O27  1  0.26960000  0.55860000  0.45140000  1.0 -0.2852118631
O  O28  1  0.16610000  0.16750000  0.25570000  1.0 -0.7213086207
O  O29  1  0.28470000  0.55930000  0.45680000  1.0 -0.3987707515
O  O30  1  0.30200000  0.55600000  0.46480000  1.0 -0.3052137812
O  O31  1  0.38148000  0.07732000  0.03527000  1.0 -0.6639915327
O  O32  1  0.41058000  0.90938000  0.08174000  1.0 -0.5787088741
O  O33  1  0.89740000  0.66000000  0.40270000  1.0 -0.5787088741
O  O34  1  0.05055000  0.61039000  0.45477000  1.0 -0.6494780798
O  O35  1  0.69270000  0.31970000  0.45855000  1.0 -0.5487342049
O  O36  1  0.68176000  0.45894000  0.38648000  1.0 -0.571961986
O  O37  1  0.55860000  0.26960000  0.04860000  1.0 -0.2852118631
O  O38  1  0.16750000  0.16610000  0.24430000  1.0 -0.7213086207
O  O39  1  0.55930000  0.28470000  0.04320000  1.0 -0.3987707515
O  O40  1  0.55600000  0.30200000  0.03520000  1.0 -0.3052137812
