# DDEC6 charges by PACMAN v1.1 (https://github.com/mtap-research/PACMAN-charge/)
data_NIQPAH_ASR_pacman
_symmetry_space_group_name_H-M   'P 1'
_cell_length_a   11.95540000
_cell_length_b   13.51640000
_cell_length_c   14.11590000
_cell_angle_alpha   64.45000000
_cell_angle_beta   75.08800000
_cell_angle_gamma   79.78300000
_symmetry_Int_Tables_number   1
_chemical_formula_structural   Y2Si4H76C96N4O29
_chemical_formula_sum   'Y2 Si4 H76 C96 N4 O29'
_cell_volume   1982.89687820
_cell_formula_units_Z   1
loop_
 _symmetry_equiv_pos_site_id
 _symmetry_equiv_pos_as_xyz
  1  'x, y, z'
loop_
 _atom_site_type_symbol
 _atom_site_label
 _atom_site_symmetry_multiplicity
 _atom_site_fract_x
 _atom_site_fract_y
 _atom_site_fract_z
 _atom_site_occupancy
 _atom_site_charge
Y  Y1  1  0.95890000  0.65159000  0.04711000  1.0 0.7890382912
Y  Y2  1  0.04110000  0.34841000  0.95289000  1.0 0.7890382912
Si  Si1  1  0.56350000  0.06750000  0.53880000  1.0 0.1582199689
Si  Si2  1  0.53760000  0.87140000  0.55080000  1.0 0.1823272202
Si  Si3  1  0.43650000  0.93250000  0.46120000  1.0 0.1582199689
Si  Si4  1  0.46240000  0.12860000  0.44920000  1.0 0.1823272202
H  H1  1  0.61122000  0.29338000  0.46984000  1.0 0.0711199705
H  H2  1  0.72420000  0.42464000  0.32237000  1.0 0.0769299614
H  H3  1  0.81328000  0.20940000  0.18261000  1.0 0.0711199705
H  H4  1  0.70752000  0.07756000  0.34208000  1.0 0.0475664418
H  H5  1  0.33686000  0.17524000  0.52586000  1.0 0.0898745672
H  H6  1  0.19310000  0.26166000  0.62591000  1.0 0.0769299614
H  H7  1  0.40787000  0.18579000  0.82875000  1.0 0.0711199705
H  H8  1  0.53848000  0.09022000  0.74044000  1.0 0.0898745672
H  H9  1  0.77068000  0.08453000  0.60303000  1.0 0.0979978487
H  H10  1  0.87542000  0.97233000  0.73232000  1.0 0.0711199705
H  H11  1  0.69073000  0.71585000  0.80927000  1.0 0.0711199705
H  H12  1  0.57730000  0.83465000  0.67804000  1.0 0.0898745672
H  H13  1  0.08357000  0.78620000  0.14073000  1.0 0.1109933325
H  H14  1  0.22154000  0.02429000  0.87930000  1.0 0.0711199705
H  H15  1  0.22824000  0.90444000  0.88055000  1.0 0.1109933325
H  H16  1  0.10619000  0.97533000  0.88537000  1.0 0.0399839242
H  H17  1  0.23746000  0.02610000  0.03177000  1.0 0.0898745672
H  H18  1  0.13165000  0.97821000  0.13025000  1.0 0.0898745672
H  H19  1  0.25371000  0.90728000  0.12575000  1.0 0.0979978487
H  H20  1  0.47108000  0.66387000  0.59305000  1.0 0.0711199705
H  H21  1  0.31654000  0.55016000  0.69341000  1.0 0.0615734539
H  H22  1  0.15956000  0.78848000  0.79348000  1.0 0.0769299614
H  H23  1  0.32174000  0.89562000  0.69000000  1.0 0.0711199705
H  H24  1  0.51660000  0.89153000  0.34488000  1.0 0.0979978487
H  H25  1  0.62520000  0.83122000  0.21136000  1.0 0.0615734539
H  H26  1  0.88080000  0.70472000  0.38036000  1.0 0.0769299614
H  H27  1  0.76247000  0.75298000  0.51615000  1.0 0.0898745672
H  H28  1  0.58659000  0.67338000  0.73031000  1.0 0.0979978487
H  H29  1  0.70552000  0.61958000  0.85471000  1.0 0.0711199705
H  H30  1  0.80523000  0.93101000  0.73405000  1.0 0.0615734539
H  H31  1  0.67745000  0.98508000  0.60488000  1.0 0.0322380478
H  H32  1  0.18739000  0.72281000  0.97300000  1.0 0.0979978487
H  H33  1  0.30611000  0.00791000  0.84701000  1.0 0.0711199705
H  H34  1  0.20212000  0.97911000  0.81324000  1.0 0.0399839242
H  H35  1  0.17844000  0.99991000  0.92030000  1.0 0.0898745672
H  H36  1  0.43173000  0.87136000  0.91034000  1.0 0.1109933325
H  H37  1  0.38293000  0.77669000  0.02388000  1.0 0.0979978487
H  H38  1  0.40654000  0.75598000  0.91678000  1.0 0.0979978487
H  H39  1  0.38878000  0.70662000  0.53016000  1.0 0.0711199705
H  H40  1  0.27580000  0.57536000  0.67763000  1.0 0.0769299614
H  H41  1  0.18672000  0.79060000  0.81739000  1.0 0.0711199705
H  H42  1  0.29248000  0.92244000  0.65792000  1.0 0.0475664418
H  H43  1  0.66314000  0.82476000  0.47414000  1.0 0.0898745672
H  H44  1  0.80690000  0.73834000  0.37409000  1.0 0.0769299614
H  H45  1  0.59213000  0.81421000  0.17125000  1.0 0.0711199705
H  H46  1  0.46152000  0.90978000  0.25956000  1.0 0.0898745672
H  H47  1  0.22932000  0.91547000  0.39697000  1.0 0.0979978487
H  H48  1  0.12458000  0.02767000  0.26768000  1.0 0.0711199705
H  H49  1  0.30927000  0.28415000  0.19073000  1.0 0.0711199705
H  H50  1  0.42270000  0.16535000  0.32196000  1.0 0.0898745672
H  H51  1  0.91643000  0.21380000  0.85927000  1.0 0.1109933325
H  H52  1  0.77846000  0.97571000  0.12070000  1.0 0.0711199705
H  H53  1  0.77176000  0.09556000  0.11945000  1.0 0.1109933325
H  H54  1  0.89381000  0.02467000  0.11463000  1.0 0.0322380478
H  H55  1  0.76254000  0.97390000  0.96823000  1.0 0.0898745672
H  H56  1  0.86835000  0.02179000  0.86975000  1.0 0.0898745672
H  H57  1  0.74629000  0.09272000  0.87425000  1.0 0.0979978487
H  H58  1  0.52892000  0.33613000  0.40695000  1.0 0.0711199705
H  H59  1  0.68346000  0.44984000  0.30659000  1.0 0.0615734539
H  H60  1  0.84044000  0.21152000  0.20652000  1.0 0.0769299614
H  H61  1  0.67826000  0.10438000  0.31000000  1.0 0.0711199705
H  H62  1  0.48340000  0.10847000  0.65512000  1.0 0.0979978487
H  H63  1  0.37480000  0.16878000  0.78864000  1.0 0.0615734539
H  H64  1  0.11920000  0.29528000  0.61964000  1.0 0.0769299614
H  H65  1  0.23753000  0.24702000  0.48385000  1.0 0.0898745672
H  H66  1  0.41341000  0.32662000  0.26969000  1.0 0.0979978487
H  H67  1  0.29448000  0.38042000  0.14529000  1.0 0.0711199705
H  H68  1  0.19477000  0.06899000  0.26595000  1.0 0.0615734539
H  H69  1  0.32255000  0.01492000  0.39512000  1.0 0.0322380478
H  H70  1  0.81261000  0.27719000  0.02700000  1.0 0.0979978487
H  H71  1  0.69389000  0.99209000  0.15299000  1.0 0.0711199705
H  H72  1  0.79788000  0.02089000  0.18676000  1.0 0.0399839242
H  H73  1  0.82156000  0.00009000  0.07970000  1.0 0.0898745672
H  H74  1  0.56827000  0.12864000  0.08966000  1.0 0.1109933325
H  H75  1  0.61707000  0.22331000  0.97612000  1.0 0.0979978487
H  H76  1  0.59346000  0.24402000  0.08322000  1.0 0.0898745672
C  C1  1  0.64820000  0.17490000  0.41790000  1.0 -0.0909551037
C  C2  1  0.65340000  0.27510000  0.41190000  1.0 -0.0243310742
C  C3  1  0.71930000  0.35520000  0.32250000  1.0 -0.0018516941
C  C4  1  0.77660000  0.33190000  0.23510000  1.0 -0.0018516941
C  C5  1  0.77350000  0.22870000  0.24050000  1.0 -0.2239297424
C  C6  1  0.70790000  0.15000000  0.33680000  1.0 -0.0307295332
C  C7  1  0.84760000  0.41740000  0.14200000  1.0 0.3224114981
C  C8  1  0.45250000  0.13200000  0.61900000  1.0 -0.0909551037
C  C9  1  0.35120000  0.17700000  0.58820000  1.0 -0.0423012418
C  C10  1  0.26380000  0.22800000  0.64870000  1.0 0.0399839242
C  C11  1  0.28660000  0.22610000  0.74150000  1.0 0.0063767911
C  C12  1  0.39030000  0.18100000  0.76900000  1.0 -0.1316299502
C  C13  1  0.47080000  0.12860000  0.71400000  1.0 -0.1409674703
C  C14  1  0.19950000  0.27600000  0.80590000  1.0 0.302831864
C  C15  1  0.66140000  0.97230000  0.62790000  1.0 -0.1687234063
C  C16  1  0.75220000  0.01040000  0.64500000  1.0 -0.0991013683
C  C17  1  0.81550000  0.94330000  0.72120000  1.0 -0.1209094543
C  C18  1  0.79340000  0.83400000  0.78210000  1.0 -0.0088597772
C  C19  1  0.70620000  0.79080000  0.76810000  1.0 0.0399839242
C  C20  1  0.63830000  0.86280000  0.68860000  1.0 -0.0018516941
C  C21  1  0.85930000  0.76760000  0.87190000  1.0 0.273136517
C  C22  1  0.10650000  0.81860000  0.06480000  1.0 0.2226636615
C  C23  1  0.18100000  0.95700000  0.90790000  1.0 -0.0909551037
C  C24  1  0.19900000  0.95930000  0.08300000  1.0 -0.4898724768
C  C25  1  0.40900000  0.78770000  0.63330000  1.0 -0.0592495352
C  C26  1  0.40690000  0.68950000  0.63460000  1.0 -0.0423012418
C  C27  1  0.31500000  0.62040000  0.69410000  1.0 -0.0088597772
C  C28  1  0.22090000  0.65990000  0.75360000  1.0 -0.0243310742
C  C29  1  0.22270000  0.76080000  0.75280000  1.0 -0.1489476903
C  C30  1  0.32070000  0.82540000  0.69030000  1.0 -0.0307295332
C  C31  1  0.13060000  0.58600000  0.83440000  1.0 0.3224114981
C  C32  1  0.62440000  0.82320000  0.44740000  1.0 -0.0991013683
C  C33  1  0.58830000  0.84900000  0.35530000  1.0 -0.0088597772
C  C34  1  0.65510000  0.81470000  0.27310000  1.0 0.0322380478
C  C35  1  0.76410000  0.75690000  0.28300000  1.0 0.0063767911
C  C36  1  0.80490000  0.73840000  0.37300000  1.0 -0.1209094543
C  C37  1  0.73360000  0.77000000  0.45380000  1.0 -0.1409674703
C  C38  1  0.83400000  0.72900000  0.19500000  1.0 0.3085918632
C  C39  1  0.62620000  0.83190000  0.65600000  1.0 -0.1316299502
C  C40  1  0.63100000  0.72530000  0.73000000  1.0 -0.1209094543
C  C41  1  0.70040000  0.69370000  0.80390000  1.0 -0.1620589811
C  C42  1  0.76290000  0.77140000  0.80310000  1.0 0.0063767911
C  C43  1  0.76110000  0.87980000  0.73280000  1.0 0.0322380478
C  C44  1  0.68530000  0.91100000  0.65510000  1.0 0.0188428331
C  C45  1  0.83930000  0.72350000  0.88820000  1.0 0.273136517
C  C46  1  0.16900000  0.79300000  0.97500000  1.0 0.1823272202
C  C47  1  0.23500000  0.96900000  0.87400000  1.0 -0.1687234063
C  C48  1  0.38100000  0.81100000  0.94700000  1.0 -0.4898724768
C  C49  1  0.35180000  0.82510000  0.58210000  1.0 -0.0909551037
C  C50  1  0.34660000  0.72490000  0.58810000  1.0 -0.0243310742
C  C51  1  0.28070000  0.64480000  0.67750000  1.0 -0.0018516941
C  C52  1  0.22340000  0.66810000  0.76490000  1.0 -0.0018516941
C  C53  1  0.22650000  0.77130000  0.75950000  1.0 -0.2274236623
C  C54  1  0.29210000  0.85000000  0.66320000  1.0 -0.0307295332
C  C55  1  0.15240000  0.58260000  0.85800000  1.0 0.3224114981
C  C56  1  0.54750000  0.86800000  0.38100000  1.0 -0.0909551037
C  C57  1  0.64880000  0.82300000  0.41180000  1.0 -0.0423012418
C  C58  1  0.73620000  0.77200000  0.35130000  1.0 0.0399839242
C  C59  1  0.71340000  0.77390000  0.25850000  1.0 0.0063767911
C  C60  1  0.60970000  0.81900000  0.23100000  1.0 -0.1316299502
C  C61  1  0.52920000  0.87140000  0.28600000  1.0 -0.1409674703
C  C62  1  0.80050000  0.72400000  0.19410000  1.0 0.302831864
C  C63  1  0.33860000  0.02770000  0.37210000  1.0 -0.1687234063
C  C64  1  0.24780000  0.98960000  0.35500000  1.0 -0.0991013683
C  C65  1  0.18450000  0.05670000  0.27880000  1.0 -0.1209094543
C  C66  1  0.20660000  0.16600000  0.21790000  1.0 -0.0088597772
C  C67  1  0.29380000  0.20920000  0.23190000  1.0 0.0399839242
C  C68  1  0.36170000  0.13720000  0.31140000  1.0 -0.0018516941
C  C69  1  0.14070000  0.23240000  0.12810000  1.0 0.273136517
C  C70  1  0.89350000  0.18140000  0.93520000  1.0 0.2252392825
C  C71  1  0.81900000  0.04300000  0.09210000  1.0 -0.0909551037
C  C72  1  0.80100000  0.04070000  0.91700000  1.0 -0.4898724768
C  C73  1  0.59100000  0.21230000  0.36670000  1.0 -0.0592495352
C  C74  1  0.59310000  0.31050000  0.36540000  1.0 -0.0423012418
C  C75  1  0.68500000  0.37960000  0.30590000  1.0 -0.0088597772
C  C76  1  0.77910000  0.34010000  0.24640000  1.0 -0.0243310742
C  C77  1  0.77730000  0.23920000  0.24720000  1.0 -0.1409674703
C  C78  1  0.67930000  0.17460000  0.30970000  1.0 -0.0307295332
C  C79  1  0.86940000  0.41400000  0.16560000  1.0 0.3224114981
C  C80  1  0.37560000  0.17680000  0.55260000  1.0 -0.0991013683
C  C81  1  0.41170000  0.15100000  0.64470000  1.0 -0.0088597772
C  C82  1  0.34490000  0.18530000  0.72690000  1.0 0.0322380478
C  C83  1  0.23590000  0.24310000  0.71700000  1.0 0.0063767911
C  C84  1  0.19510000  0.26160000  0.62700000  1.0 -0.1209094543
C  C85  1  0.26640000  0.23000000  0.54620000  1.0 -0.1409674703
C  C86  1  0.16600000  0.27100000  0.80500000  1.0 0.3085918632
C  C87  1  0.37380000  0.16810000  0.34400000  1.0 -0.1316299502
C  C88  1  0.36900000  0.27470000  0.27000000  1.0 -0.1209094543
C  C89  1  0.29960000  0.30630000  0.19610000  1.0 -0.1620589811
C  C90  1  0.23710000  0.22860000  0.19690000  1.0 0.0063767911
C  C91  1  0.23890000  0.12020000  0.26720000  1.0 0.0322380478
C  C92  1  0.31470000  0.08900000  0.34490000  1.0 0.0188428331
C  C93  1  0.16070000  0.27650000  0.11180000  1.0 0.273136517
C  C94  1  0.83100000  0.20700000  0.02500000  1.0 0.1823272202
C  C95  1  0.76500000  0.03100000  0.12600000  1.0 -0.1687234063
C  C96  1  0.61900000  0.18900000  0.05300000  1.0 -0.4898724768
N  N1  1  0.16120000  0.90910000  0.02440000  1.0 -0.0909551037
N  N2  1  0.26100000  0.85400000  0.93400000  1.0 -0.0991013683
N  N3  1  0.83880000  0.09090000  0.97560000  1.0 -0.0909551037
N  N4  1  0.73900000  0.14600000  0.06600000  1.0 -0.0991013683
O  O1  1  0.84350000  0.50700000  0.14720000  1.0 -0.1687234063
O  O2  1  0.90430000  0.39810000  0.06750000  1.0 -0.2392930928
O  O3  1  0.10820000  0.32220000  0.78300000  1.0 -0.1316299502
O  O4  1  0.22420000  0.25700000  0.89370000  1.0 -0.2705114577
O  O5  1  0.93080000  0.81340000  0.88520000  1.0 -0.275288308
O  O6  1  0.83790000  0.66580000  0.92900000  1.0 -0.081825735
O  O7  1  0.08080000  0.76980000  0.01700000  1.0 -0.0991013683
O  O8  1  0.12800000  0.49910000  0.82730000  1.0 -0.2274236623
O  O9  1  0.06500000  0.61100000  0.90290000  1.0 -0.1620589811
O  O10  1  0.81100000  0.75400000  0.10800000  1.0 -0.1489476903
O  O11  1  0.92830000  0.67160000  0.21320000  1.0 -0.3195027504
O  O12  1  0.83300000  0.62560000  0.94920000  1.0 -0.2621696386
O  O13  1  0.89900000  0.79200000  0.89100000  1.0 -0.1126314122
O  O14  1  0.06700000  0.80900000  0.01400000  1.0 -0.0706128068
O  O15  1  0.15650000  0.49300000  0.85280000  1.0 -0.1620589811
O  O16  1  0.09570000  0.60190000  0.93250000  1.0 -0.2392930928
O  O17  1  0.89180000  0.67780000  0.21700000  1.0 -0.1409674703
O  O18  1  0.77580000  0.74300000  0.10630000  1.0 -0.2705114577
O  O19  1  0.06920000  0.18660000  0.11480000  1.0 -0.275288308
O  O20  1  0.16210000  0.33420000  0.07100000  1.0 -0.081825735
O  O21  1  0.91920000  0.23020000  0.98300000  1.0 -0.0991013683
O  O22  1  0.87200000  0.50090000  0.17270000  1.0 -0.2274236623
O  O23  1  0.93500000  0.38900000  0.09710000  1.0 -0.1687234063
O  O24  1  0.18900000  0.24600000  0.89200000  1.0 -0.1489476903
O  O25  1  0.07170000  0.32840000  0.78680000  1.0 -0.3195027504
O  O26  1  0.16700000  0.37440000  0.05080000  1.0 -0.2621696386
O  O27  1  0.10100000  0.20800000  0.10900000  1.0 -0.1126314122
O  O28  1  0.93300000  0.19100000  0.98600000  1.0 -0.0706128068
O  O29  1  0.50000000  0.00000000  0.50000000  1.0 -0.4898724768
