# DDEC6 charges by PACMAN v1.1 (https://github.com/mtap-research/PACMAN-charge/)
data_NIRDEX_FSR_pacman
_symmetry_space_group_name_H-M   'P 1'
_cell_length_a   8.98730000
_cell_length_b   8.98730000
_cell_length_c   8.98730000
_cell_angle_alpha   123.73900000
_cell_angle_beta   102.84600000
_cell_angle_gamma   102.84100000
_symmetry_Int_Tables_number   1
_chemical_formula_structural   ZrCd2(C2O5)4
_chemical_formula_sum   'Zr1 Cd2 C8 O20'
_cell_volume   532.35413473
_cell_formula_units_Z   1
loop_
 _symmetry_equiv_pos_site_id
 _symmetry_equiv_pos_as_xyz
  1  'x, y, z'
loop_
 _atom_site_type_symbol
 _atom_site_label
 _atom_site_symmetry_multiplicity
 _atom_site_fract_x
 _atom_site_fract_y
 _atom_site_fract_z
 _atom_site_occupancy
 _atom_site_charge
Zr  Zr1  1  0.50000000  0.32770000  0.82770000  1.0 1.8130702944
Cd  Cd1  1  0.00000000  0.57664000  0.57664000  1.0 1.0276275844
Cd  Cd2  1  0.00000000  0.07520000  0.07520000  1.0 1.2175894947
C  C1  1  0.22880000  0.03980000  0.81100000  1.0 0.4827558965
C  C2  1  0.77120000  0.58220000  0.81100000  1.0 0.4827558965
C  C3  1  0.27070000  0.90570000  0.63500000  1.0 0.4741434128
C  C4  1  0.72930000  0.36430000  0.63500000  1.0 0.4741434128
C  C5  1  0.22870000  0.34600000  0.57470000  1.0 0.4856872976
C  C6  1  0.77130000  0.34600000  0.11730000  1.0 0.4856872976
C  C7  1  0.27020000  0.52300000  0.79320000  1.0 0.4615986914
C  C8  1  0.72980000  0.52300000  0.25280000  1.0 0.4615986914
O  O1  1  0.12180000  0.96480000  0.84300000  1.0 -0.5274469434
O  O2  1  0.87820000  0.72120000  0.84300000  1.0 -0.5274469434
O  O3  1  0.12150000  0.32100000  0.44250000  1.0 -0.5274469434
O  O4  1  0.87850000  0.32100000  0.19950000  1.0 -0.5274469434
O  O5  1  0.19820000  0.71220000  0.51400000  1.0 -0.5021755129
O  O6  1  0.80180000  0.31580000  0.51400000  1.0 -0.5021755129
O  O7  1  0.38480000  0.00400000  0.61920000  1.0 -0.5504828422
O  O8  1  0.61520000  0.23440000  0.61920000  1.0 -0.5504828422
O  O9  1  0.19670000  0.64800000  0.84470000  1.0 -0.5189263253
O  O10  1  0.80330000  0.64800000  0.45130000  1.0 -0.5189263253
O  O11  1  0.31390000  0.22050000  0.90660000  1.0 -0.5574215679
O  O12  1  0.68610000  0.59270000  0.90660000  1.0 -0.5574215679
O  O13  1  0.31360000  0.25400000  0.56760000  1.0 -0.5504828422
O  O14  1  0.68640000  0.25400000  0.94040000  1.0 -0.5504828422
O  O15  1  0.19600000  0.35100000  0.15500000  1.0 0.2021885783
O  O16  1  0.80400000  0.95900000  0.15500000  1.0 0.2021885783
O  O17  1  0.19500000  0.00500000  0.20000000  1.0 0.1670729489
O  O18  1  0.80500000  0.00500000  0.81000000  1.0 0.1670729489
O  O19  1  0.38640000  0.53840000  0.92480000  1.0 -0.568207535
O  O20  1  0.61360000  0.53840000  0.15200000  1.0 -0.568207535
