# DDEC6 charges by PACMAN v1.1 (https://github.com/mtap-research/PACMAN-charge/)
data_NIRFIE_ASR_pacman
_symmetry_space_group_name_H-M   'P 1'
_cell_length_a   15.22900000
_cell_length_b   8.79600000
_cell_length_c   41.53640000
_cell_angle_alpha   90.00000000
_cell_angle_beta   111.48600000
_cell_angle_gamma   90.00000000
_symmetry_Int_Tables_number   1
_chemical_formula_structural   Zn4CoH31C48(NO2)6
_chemical_formula_sum   'Zn16 Co4 H124 C192 N24 O48'
_cell_volume   5177.32166801
_cell_formula_units_Z   4
loop_
 _symmetry_equiv_pos_site_id
 _symmetry_equiv_pos_as_xyz
  1  'x, y, z'
loop_
 _atom_site_type_symbol
 _atom_site_label
 _atom_site_symmetry_multiplicity
 _atom_site_fract_x
 _atom_site_fract_y
 _atom_site_fract_z
 _atom_site_occupancy
 _atom_site_charge
Zn  Zn1  1  0.99029000  0.09160000  0.75032000  1.0 0.5070989769
Zn  Zn2  1  0.00971000  0.59160000  0.74968000  1.0 0.5070989769
Zn  Zn3  1  0.00971000  0.90840000  0.24968000  1.0 0.5070989769
Zn  Zn4  1  0.99029000  0.40840000  0.25032000  1.0 0.5070989769
Zn  Zn5  1  0.18969000  0.79060000  0.74402000  1.0 0.6608445686
Zn  Zn6  1  0.81031000  0.29060000  0.75598000  1.0 0.6608445686
Zn  Zn7  1  0.81031000  0.20940000  0.25598000  1.0 0.6608445686
Zn  Zn8  1  0.18969000  0.70940000  0.24402000  1.0 0.6608445686
Zn  Zn9  1  0.15163000  0.77540000  0.74753000  1.0 0.4874271345
Zn  Zn10  1  0.84837000  0.27540000  0.75247000  1.0 0.4874271345
Zn  Zn11  1  0.84837000  0.22460000  0.25247000  1.0 0.4874271345
Zn  Zn12  1  0.15163000  0.72460000  0.24753000  1.0 0.4874271345
Zn  Zn13  1  0.99031000  0.49480000  0.74880000  1.0 0.4986890075
Zn  Zn14  1  0.00969000  0.99480000  0.75120000  1.0 0.4986890075
Zn  Zn15  1  0.00969000  0.50520000  0.25120000  1.0 0.4986890075
Zn  Zn16  1  0.99031000  0.00520000  0.24880000  1.0 0.4986890075
Co  Co1  1  0.70920000  0.51750000  0.95138000  1.0 0.526247446
Co  Co2  1  0.29080000  0.01750000  0.54862000  1.0 0.5247776848
Co  Co3  1  0.29080000  0.48250000  0.04862000  1.0 0.5247776848
Co  Co4  1  0.70920000  0.98250000  0.45138000  1.0 0.526247446
H  H1  1  0.62170000  0.83190000  0.91710000  1.0 0.1015481411
H  H2  1  0.37830000  0.33190000  0.58290000  1.0 0.1015481411
H  H3  1  0.37830000  0.16810000  0.08290000  1.0 0.1015481411
H  H4  1  0.62170000  0.66810000  0.41710000  1.0 0.1124773948
H  H5  1  0.48540000  0.85370000  0.86290000  1.0 0.1124773948
H  H6  1  0.51460000  0.35370000  0.63710000  1.0 0.1124773948
H  H7  1  0.51460000  0.14630000  0.13710000  1.0 0.1124773948
H  H8  1  0.48540000  0.64630000  0.36290000  1.0 0.1124773948
H  H9  1  0.41750000  0.59460000  0.84450000  1.0 0.1199482217
H  H10  1  0.58250000  0.09460000  0.65550000  1.0 0.1199482217
H  H11  1  0.58250000  0.40540000  0.15550000  1.0 0.1124773948
H  H12  1  0.41750000  0.90540000  0.34450000  1.0 0.1199482217
H  H13  1  0.49210000  0.06630000  0.91870000  1.0 0.1199482217
H  H14  1  0.50790000  0.56630000  0.58130000  1.0 0.1199482217
H  H15  1  0.50790000  0.93370000  0.08130000  1.0 0.1199482217
H  H16  1  0.49210000  0.43370000  0.41870000  1.0 0.1199482217
H  H17  1  0.61400000  0.00230000  0.97760000  1.0 0.1199482217
H  H18  1  0.38600000  0.50230000  0.52240000  1.0 0.1199482217
H  H19  1  0.38600000  0.99770000  0.02240000  1.0 0.1199482217
H  H20  1  0.61400000  0.49770000  0.47760000  1.0 0.1199482217
H  H21  1  0.72280000  0.22890000  0.99650000  1.0 0.1015481411
H  H22  1  0.27720000  0.72890000  0.50350000  1.0 0.1015481411
H  H23  1  0.27720000  0.77110000  0.00350000  1.0 0.1015481411
H  H24  1  0.72280000  0.27110000  0.49650000  1.0 0.1015481411
H  H25  1  0.51130000  0.14220000  0.85430000  1.0 0.1199482217
H  H26  1  0.48870000  0.64220000  0.64570000  1.0 0.1199482217
H  H27  1  0.48870000  0.85780000  0.14570000  1.0 0.1199482217
H  H28  1  0.51130000  0.35780000  0.35430000  1.0 0.1199482217
H  H29  1  0.38870000  0.03120000  0.80790000  1.0 0.1199482217
H  H30  1  0.61130000  0.53120000  0.69210000  1.0 0.1199482217
H  H31  1  0.61130000  0.96880000  0.19210000  1.0 0.1199482217
H  H32  1  0.38870000  0.46880000  0.30790000  1.0 0.1199482217
H  H33  1  0.20020000  0.29770000  0.82810000  1.0 0.1124773948
H  H34  1  0.79980000  0.79770000  0.67190000  1.0 0.1124773948
H  H35  1  0.79980000  0.70230000  0.17190000  1.0 0.1124773948
H  H36  1  0.20020000  0.20230000  0.32810000  1.0 0.1124773948
H  H37  1  0.32250000  0.41950000  0.87250000  1.0 0.1124773948
H  H38  1  0.67750000  0.91950000  0.62750000  1.0 0.1124773948
H  H39  1  0.67750000  0.58050000  0.12750000  1.0 0.1124773948
H  H40  1  0.32250000  0.08050000  0.37250000  1.0 0.1124773948
H  H41  1  0.53300000  0.85450000  0.46200000  1.0 0.1015481411
H  H42  1  0.46700000  0.35450000  0.03800000  1.0 0.1015481411
H  H43  1  0.46700000  0.14550000  0.53800000  1.0 0.1015481411
H  H44  1  0.53300000  0.64550000  0.96200000  1.0 0.1015481411
H  H45  1  0.52580000  0.77650000  0.52040000  1.0 0.1199482217
H  H46  1  0.47420000  0.27650000  0.97960000  1.0 0.1199482217
H  H47  1  0.47420000  0.22350000  0.47960000  1.0 0.1199482217
H  H48  1  0.52580000  0.72350000  0.02040000  1.0 0.1199482217
H  H49  1  0.68640000  0.82490000  0.56450000  1.0 0.1199482217
H  H50  1  0.31360000  0.32490000  0.93550000  1.0 0.1199482217
H  H51  1  0.31360000  0.17510000  0.43550000  1.0 0.1199482217
H  H52  1  0.68640000  0.67510000  0.06450000  1.0 0.1199482217
H  H53  1  0.99480000  0.11680000  0.55840000  1.0 0.1124773948
H  H54  1  0.00520000  0.61680000  0.94160000  1.0 0.1124773948
H  H55  1  0.00520000  0.88320000  0.44160000  1.0 0.1124773948
H  H56  1  0.99480000  0.38320000  0.05840000  1.0 0.1124773948
H  H57  1  0.02250000  0.24080000  0.50870000  1.0 0.1124773948
H  H58  1  0.97750000  0.74080000  0.99130000  1.0 0.1124773948
H  H59  1  0.97750000  0.75920000  0.49130000  1.0 0.1124773948
H  H60  1  0.02250000  0.25920000  0.00870000  1.0 0.1124773948
H  H61  1  0.88580000  0.17570000  0.45460000  1.0 0.1015481411
H  H62  1  0.11420000  0.67570000  0.04540000  1.0 0.1015481411
H  H63  1  0.11420000  0.82430000  0.54540000  1.0 0.1015481411
H  H64  1  0.88580000  0.32430000  0.95460000  1.0 0.1015481411
H  H65  1  0.77560000  0.07520000  0.59100000  1.0 0.1199482217
H  H66  1  0.22440000  0.57520000  0.90900000  1.0 0.1199482217
H  H67  1  0.22440000  0.92480000  0.40900000  1.0 0.1199482217
H  H68  1  0.77560000  0.42480000  0.09100000  1.0 0.1199482217
H  H69  1  0.85500000  0.05060000  0.64990000  1.0 0.1124773948
H  H70  1  0.14500000  0.55060000  0.85010000  1.0 0.1124773948
H  H71  1  0.14500000  0.94940000  0.35010000  1.0 0.1124773948
H  H72  1  0.85500000  0.44940000  0.14990000  1.0 0.1124773948
H  H73  1  0.05360000  0.78490000  0.63390000  1.0 0.1199482217
H  H74  1  0.94640000  0.28490000  0.86610000  1.0 0.1199482217
H  H75  1  0.94640000  0.21510000  0.36610000  1.0 0.1199482217
H  H76  1  0.05360000  0.71510000  0.13390000  1.0 0.1199482217
H  H77  1  0.97300000  0.81140000  0.57430000  1.0 0.1199482217
H  H78  1  0.02700000  0.31140000  0.92570000  1.0 0.1199482217
H  H79  1  0.02700000  0.18860000  0.42570000  1.0 0.1199482217
H  H80  1  0.97300000  0.68860000  0.07430000  1.0 0.1199482217
H  H81  1  0.78040000  0.81270000  0.99550000  1.0 0.1015481411
H  H82  1  0.21960000  0.31270000  0.50450000  1.0 0.1015481411
H  H83  1  0.21960000  0.18730000  0.00450000  1.0 0.1015481411
H  H84  1  0.78040000  0.68730000  0.49550000  1.0 0.1015481411
H  H85  1  0.85100000  0.03930000  0.97700000  1.0 0.1199482217
H  H86  1  0.14900000  0.53930000  0.52300000  1.0 0.1199482217
H  H87  1  0.14900000  0.96070000  0.02300000  1.0 0.1199482217
H  H88  1  0.85100000  0.46070000  0.47700000  1.0 0.1199482217
H  H89  1  0.85710000  0.97760000  0.91970000  1.0 0.1199482217
H  H90  1  0.14290000  0.47760000  0.58030000  1.0 0.1199482217
H  H91  1  0.14290000  0.02240000  0.08030000  1.0 0.1199482217
H  H92  1  0.85710000  0.52240000  0.41970000  1.0 0.1199482217
H  H93  1  0.77680000  0.45800000  0.84270000  1.0 0.1199482217
H  H94  1  0.22320000  0.95800000  0.65730000  1.0 0.1199482217
H  H95  1  0.22320000  0.54200000  0.15730000  1.0 0.1199482217
H  H96  1  0.77680000  0.04200000  0.34270000  1.0 0.1199482217
H  H97  1  0.73980000  0.19670000  0.85700000  1.0 0.1124773948
H  H98  1  0.26020000  0.69670000  0.64300000  1.0 0.1124773948
H  H99  1  0.26020000  0.80330000  0.14300000  1.0 0.1124773948
H  H100  1  0.73980000  0.30330000  0.35700000  1.0 0.1124773948
H  H101  1  0.71440000  0.21390000  0.91310000  1.0 0.1015481411
H  H102  1  0.28560000  0.71390000  0.58690000  1.0 0.1015481411
H  H103  1  0.28560000  0.78610000  0.08690000  1.0 0.1015481411
H  H104  1  0.71440000  0.28610000  0.41310000  1.0 0.1015481411
H  H105  1  0.70480000  0.90110000  0.85340000  1.0 0.129870185
H  H106  1  0.29520000  0.40110000  0.64660000  1.0 0.129870185
H  H107  1  0.29520000  0.09890000  0.14660000  1.0 0.129870185
H  H108  1  0.70480000  0.59890000  0.35340000  1.0 0.129870185
H  H109  1  0.73290000  0.01660000  0.80790000  1.0 0.129870185
H  H110  1  0.26710000  0.51660000  0.69210000  1.0 0.129870185
H  H111  1  0.26710000  0.98340000  0.19210000  1.0 0.129870185
H  H112  1  0.73290000  0.48340000  0.30790000  1.0 0.129870185
H  H113  1  0.96330000  0.74860000  0.82750000  1.0 0.1124773948
H  H114  1  0.03670000  0.24860000  0.67250000  1.0 0.1124773948
H  H115  1  0.03670000  0.25140000  0.17250000  1.0 0.1124773948
H  H116  1  0.96330000  0.75140000  0.32750000  1.0 0.1124773948
H  H117  1  0.93470000  0.63990000  0.87370000  1.0 0.1124773948
H  H118  1  0.06530000  0.13990000  0.62630000  1.0 0.1124773948
H  H119  1  0.06530000  0.36010000  0.12630000  1.0 0.1124773948
H  H120  1  0.93470000  0.86010000  0.37370000  1.0 0.1124773948
H  H121  1  0.31750000  0.90070000  0.72650000  1.0 0.3558899728
H  H122  1  0.68250000  0.40070000  0.77350000  1.0 0.3558899728
H  H123  1  0.68250000  0.09930000  0.27350000  1.0 0.3558899728
H  H124  1  0.31750000  0.59930000  0.22650000  1.0 0.3558899728
C  C1  1  0.58341000  0.74890000  0.90531000  1.0 0.0135595491
C  C2  1  0.41659000  0.24890000  0.59469000  1.0 0.0135595491
C  C3  1  0.41659000  0.25110000  0.09469000  1.0 0.0135595491
C  C4  1  0.58341000  0.75110000  0.40531000  1.0 0.0135595491
C  C5  1  0.50790000  0.76160000  0.87510000  1.0 -0.1764491866
C  C6  1  0.49210000  0.26160000  0.62490000  1.0 -0.1764491866
C  C7  1  0.49210000  0.23840000  0.12490000  1.0 -0.1764491866
C  C8  1  0.50790000  0.73840000  0.37510000  1.0 -0.1764491866
C  C9  1  0.46940000  0.62030000  0.86490000  1.0 -0.1882395889
C  C10  1  0.53060000  0.12030000  0.63510000  1.0 -0.1882395889
C  C11  1  0.53060000  0.37970000  0.13510000  1.0 -0.1882395889
C  C12  1  0.46940000  0.87970000  0.36490000  1.0 -0.1882395889
C  C13  1  0.52467000  0.52070000  0.89177000  1.0 0.1395018329
C  C14  1  0.47533000  0.02070000  0.60823000  1.0 0.1395018329
C  C15  1  0.47533000  0.47930000  0.10823000  1.0 0.1395018329
C  C16  1  0.52467000  0.97930000  0.39177000  1.0 0.1395018329
C  C17  1  0.50827000  0.36560000  0.89557000  1.0 -0.0532407644
C  C18  1  0.49173000  0.86560000  0.60443000  1.0 -0.0532407644
C  C19  1  0.49173000  0.63440000  0.10443000  1.0 -0.0532407644
C  C20  1  0.50827000  0.13440000  0.39557000  1.0 -0.0532407644
C  C21  1  0.56170000  0.27890000  0.92440000  1.0 0.1199482217
C  C22  1  0.43830000  0.77890000  0.57560000  1.0 0.1199482217
C  C23  1  0.43830000  0.72110000  0.07560000  1.0 0.1199482217
C  C24  1  0.56170000  0.22110000  0.42440000  1.0 0.1199482217
C  C25  1  0.54189000  0.13000000  0.93259000  1.0 -0.2088116949
C  C26  1  0.45811000  0.63000000  0.56741000  1.0 -0.2088116949
C  C27  1  0.45811000  0.87000000  0.06741000  1.0 -0.2088116949
C  C28  1  0.54189000  0.37000000  0.43259000  1.0 -0.2088116949
C  C29  1  0.60955000  0.09400000  0.96505000  1.0 -0.1574604718
C  C30  1  0.39045000  0.59400000  0.53495000  1.0 -0.1574604718
C  C31  1  0.39045000  0.90600000  0.03495000  1.0 -0.1574604718
C  C32  1  0.60955000  0.40600000  0.46505000  1.0 -0.1574604718
C  C33  1  0.66997000  0.22230000  0.97537000  1.0 0.0135595491
C  C34  1  0.33003000  0.72230000  0.52463000  1.0 0.0135595491
C  C35  1  0.33003000  0.77770000  0.02463000  1.0 0.0135595491
C  C36  1  0.66997000  0.27770000  0.47537000  1.0 0.0135595491
C  C37  1  0.42956000  0.29410000  0.86736000  1.0 0.0842163344
C  C38  1  0.57044000  0.79410000  0.63264000  1.0 0.0842163344
C  C39  1  0.57044000  0.70590000  0.13264000  1.0 0.0842163344
C  C40  1  0.42956000  0.20590000  0.36736000  1.0 0.0842163344
C  C41  1  0.44840000  0.17700000  0.84860000  1.0 -0.1487460558
C  C42  1  0.55160000  0.67700000  0.65140000  1.0 -0.1487460558
C  C43  1  0.55160000  0.82300000  0.15140000  1.0 -0.1487460558
C  C44  1  0.44840000  0.32300000  0.34860000  1.0 -0.1487460558
C  C45  1  0.37460000  0.10930000  0.82110000  1.0 -0.0995977972
C  C46  1  0.62540000  0.60930000  0.67890000  1.0 -0.0995977972
C  C47  1  0.62540000  0.89070000  0.17890000  1.0 -0.0995977972
C  C48  1  0.37460000  0.39070000  0.32110000  1.0 -0.0995977972
C  C49  1  0.28290000  0.15390000  0.81290000  1.0 -0.027017886
C  C50  1  0.71710000  0.65390000  0.68710000  1.0 -0.027017886
C  C51  1  0.71710000  0.84610000  0.18710000  1.0 -0.027017886
C  C52  1  0.28290000  0.34610000  0.31290000  1.0 -0.027017886
C  C53  1  0.26370000  0.26820000  0.83280000  1.0 -0.0941664237
C  C54  1  0.73630000  0.76820000  0.66720000  1.0 -0.0941664237
C  C55  1  0.73630000  0.73180000  0.16720000  1.0 -0.0995977972
C  C56  1  0.26370000  0.23180000  0.33280000  1.0 -0.0941664237
C  C57  1  0.33660000  0.34000000  0.85970000  1.0 -0.1487460558
C  C58  1  0.66340000  0.84000000  0.64030000  1.0 -0.1487460558
C  C59  1  0.66340000  0.66000000  0.14030000  1.0 -0.1487460558
C  C60  1  0.33660000  0.16000000  0.35970000  1.0 -0.1487460558
C  C61  1  0.20240000  0.07550000  0.78510000  1.0 0.5516777229
C  C62  1  0.79760000  0.57550000  0.71490000  1.0 0.5516777229
C  C63  1  0.79760000  0.92450000  0.21490000  1.0 0.5516777229
C  C64  1  0.20240000  0.42450000  0.28510000  1.0 0.5516777229
C  C65  1  0.58389000  0.86100000  0.48369000  1.0 0.0349893612
C  C66  1  0.41611000  0.36100000  0.01631000  1.0 0.0349893612
C  C67  1  0.41611000  0.13900000  0.51631000  1.0 0.0349893612
C  C68  1  0.58389000  0.63900000  0.98369000  1.0 0.0349893612
C  C69  1  0.57870000  0.81670000  0.51640000  1.0 -0.1442621458
C  C70  1  0.42130000  0.31670000  0.98360000  1.0 -0.1442621458
C  C71  1  0.42130000  0.18330000  0.48360000  1.0 -0.1442621458
C  C72  1  0.57870000  0.68330000  0.01640000  1.0 -0.1442621458
C  C73  1  0.66666667  0.84530000  0.54040000  1.0 -0.2088116949
C  C74  1  0.33333333  0.34530000  0.95960000  1.0 -0.2088116949
C  C75  1  0.33333333  0.15470000  0.45960000  1.0 -0.2088116949
C  C76  1  0.66666667  0.65470000  0.04040000  1.0 -0.2088116949
C  C77  1  0.72295000  0.90890000  0.52395000  1.0 0.129870185
C  C78  1  0.27705000  0.40890000  0.97605000  1.0 0.129870185
C  C79  1  0.27705000  0.09110000  0.47605000  1.0 0.129870185
C  C80  1  0.72295000  0.59110000  0.02395000  1.0 0.129870185
C  C81  1  0.81631000  0.96680000  0.53851000  1.0 -0.0674939087
C  C82  1  0.18369000  0.46680000  0.96149000  1.0 -0.0674939087
C  C83  1  0.18369000  0.03320000  0.46149000  1.0 -0.0674939087
C  C84  1  0.81631000  0.53320000  0.03851000  1.0 -0.0674939087
C  C85  1  0.86291000  0.04210000  0.52001000  1.0 0.129870185
C  C86  1  0.13709000  0.54210000  0.97999000  1.0 0.129870185
C  C87  1  0.13709000  0.95790000  0.47999000  1.0 0.129870185
C  C88  1  0.86291000  0.45790000  0.02001000  1.0 0.129870185
C  C89  1  0.95421000  0.11520000  0.53481000  1.0 -0.1952219266
C  C90  1  0.04579000  0.61520000  0.96519000  1.0 -0.1952219266
C  C91  1  0.04579000  0.88480000  0.46519000  1.0 -0.1952219266
C  C92  1  0.95421000  0.38480000  0.03481000  1.0 -0.1952219266
C  C93  1  0.96935000  0.18130000  0.50755000  1.0 -0.1487460558
C  C94  1  0.03065000  0.68130000  0.99245000  1.0 -0.1487460558
C  C95  1  0.03065000  0.81870000  0.49245000  1.0 -0.1487460558
C  C96  1  0.96935000  0.31870000  0.00755000  1.0 -0.1487460558
C  C97  1  0.89133000  0.14500000  0.47723000  1.0 0.0195149355
C  C98  1  0.10867000  0.64500000  0.02277000  1.0 0.0195149355
C  C99  1  0.10867000  0.85500000  0.52277000  1.0 0.0195149355
C  C100  1  0.89133000  0.35500000  0.97723000  1.0 0.0195149355
C  C101  1  0.86620000  0.94840000  0.57650000  1.0 0.0865516108
C  C102  1  0.13380000  0.44840000  0.92350000  1.0 0.0865516108
C  C103  1  0.13380000  0.05160000  0.42350000  1.0 0.0865516108
C  C104  1  0.86620000  0.55160000  0.07650000  1.0 0.0865516108
C  C105  1  0.83211000  0.01710000  0.59951000  1.0 -0.1487460558
C  C106  1  0.16789000  0.51710000  0.90049000  1.0 -0.1487460558
C  C107  1  0.16789000  0.98290000  0.40049000  1.0 -0.1487460558
C  C108  1  0.83211000  0.48290000  0.09951000  1.0 -0.1487460558
C  C109  1  0.87897000  0.00190000  0.63437000  1.0 -0.1217325288
C  C110  1  0.12103000  0.50190000  0.86563000  1.0 -0.1217325288
C  C111  1  0.12103000  0.99810000  0.36563000  1.0 -0.1217325288
C  C112  1  0.87897000  0.49810000  0.13437000  1.0 -0.1217325288
C  C113  1  0.96120000  0.91620000  0.64750000  1.0 -0.0216900066
C  C114  1  0.03880000  0.41620000  0.85250000  1.0 -0.0216900066
C  C115  1  0.03880000  0.08380000  0.35250000  1.0 -0.0216900066
C  C116  1  0.96120000  0.58380000  0.14750000  1.0 -0.0216900066
C  C117  1  0.99760000  0.84380000  0.62520000  1.0 -0.1087295874
C  C118  1  0.00240000  0.34380000  0.87480000  1.0 -0.1087295874
C  C119  1  0.00240000  0.15620000  0.37480000  1.0 -0.1087295874
C  C120  1  0.99760000  0.65620000  0.12520000  1.0 -0.1087295874
C  C121  1  0.94950000  0.86030000  0.58980000  1.0 -0.1487460558
C  C122  1  0.05050000  0.36030000  0.91020000  1.0 -0.1574604718
C  C123  1  0.05050000  0.13970000  0.41020000  1.0 -0.1487460558
C  C124  1  0.94950000  0.63970000  0.08980000  1.0 -0.1487460558
C  C125  1  0.01200000  0.90610000  0.68680000  1.0 0.4986890075
C  C126  1  0.98800000  0.40610000  0.81320000  1.0 0.4986890075
C  C127  1  0.98800000  0.09390000  0.31320000  1.0 0.4986890075
C  C128  1  0.01200000  0.59390000  0.18680000  1.0 0.4986890075
C  C129  1  0.79270000  0.81880000  0.97470000  1.0 0.0135595491
C  C130  1  0.20730000  0.31880000  0.52530000  1.0 0.0195149355
C  C131  1  0.20730000  0.18120000  0.02530000  1.0 0.0135595491
C  C132  1  0.79270000  0.68120000  0.47470000  1.0 0.0135595491
C  C133  1  0.83140000  0.94720000  0.96450000  1.0 -0.1574604718
C  C134  1  0.16860000  0.44720000  0.53550000  1.0 -0.1574604718
C  C135  1  0.16860000  0.05280000  0.03550000  1.0 -0.1574604718
C  C136  1  0.83140000  0.55280000  0.46450000  1.0 -0.1574604718
C  C137  1  0.83500000  0.91290000  0.93340000  1.0 -0.2088116949
C  C138  1  0.16500000  0.41290000  0.56660000  1.0 -0.2088116949
C  C139  1  0.16500000  0.08710000  0.06660000  1.0 -0.2088116949
C  C140  1  0.83500000  0.58710000  0.43340000  1.0 -0.2088116949
C  C141  1  0.79960000  0.76150000  0.92470000  1.0 0.129870185
C  C142  1  0.20040000  0.26150000  0.57530000  1.0 0.129870185
C  C143  1  0.20040000  0.23850000  0.07530000  1.0 0.129870185
C  C144  1  0.79960000  0.73850000  0.42470000  1.0 0.129870185
C  C145  1  0.79170000  0.67750000  0.89530000  1.0 -0.0591588672
C  C146  1  0.20830000  0.17750000  0.60470000  1.0 -0.0591588672
C  C147  1  0.20830000  0.32250000  0.10470000  1.0 -0.0591588672
C  C148  1  0.79170000  0.82250000  0.39530000  1.0 -0.0591588672
C  C149  1  0.76500000  0.52540000  0.88980000  1.0 0.1395018329
C  C150  1  0.23500000  0.02540000  0.61020000  1.0 0.1395018329
C  C151  1  0.23500000  0.47460000  0.11020000  1.0 0.1395018329
C  C152  1  0.76500000  0.97460000  0.38980000  1.0 0.1395018329
C  C153  1  0.76470000  0.42870000  0.86270000  1.0 -0.1882395889
C  C154  1  0.23530000  0.92870000  0.63730000  1.0 -0.1882395889
C  C155  1  0.23530000  0.57130000  0.13730000  1.0 -0.1882395889
C  C156  1  0.76470000  0.07130000  0.36270000  1.0 -0.1882395889
C  C157  1  0.74380000  0.28620000  0.87030000  1.0 -0.1689125071
C  C158  1  0.25620000  0.78620000  0.62970000  1.0 -0.1689125071
C  C159  1  0.25620000  0.71380000  0.12970000  1.0 -0.1689125071
C  C160  1  0.74380000  0.21380000  0.37030000  1.0 -0.1689125071
C  C161  1  0.72957000  0.29740000  0.90157000  1.0 0.0195149355
C  C162  1  0.27043000  0.79740000  0.59843000  1.0 0.0195149355
C  C163  1  0.27043000  0.70260000  0.09843000  1.0 0.0195149355
C  C164  1  0.72957000  0.20260000  0.40157000  1.0 0.0195149355
C  C165  1  0.81460000  0.75640000  0.86750000  1.0 0.0865516108
C  C166  1  0.18540000  0.25640000  0.63250000  1.0 0.0865516108
C  C167  1  0.18540000  0.24360000  0.13250000  1.0 0.0865516108
C  C168  1  0.81460000  0.74360000  0.36750000  1.0 0.0865516108
C  C169  1  0.75760000  0.86970000  0.84810000  1.0 -0.1487460558
C  C170  1  0.24240000  0.36970000  0.65190000  1.0 -0.1487460558
C  C171  1  0.24240000  0.13030000  0.15190000  1.0 -0.1487460558
C  C172  1  0.75760000  0.63030000  0.34810000  1.0 -0.1487460558
C  C173  1  0.77410000  0.93970000  0.82120000  1.0 -0.0995977972
C  C174  1  0.22590000  0.43970000  0.67880000  1.0 -0.0995977972
C  C175  1  0.22590000  0.06030000  0.17880000  1.0 -0.0995977972
C  C176  1  0.77410000  0.56030000  0.32120000  1.0 -0.0995977972
C  C177  1  0.85150000  0.89580000  0.81400000  1.0 -0.027017886
C  C178  1  0.14850000  0.39580000  0.68600000  1.0 -0.027017886
C  C179  1  0.14850000  0.10420000  0.18600000  1.0 -0.027017886
C  C180  1  0.85150000  0.60420000  0.31400000  1.0 -0.027017886
C  C181  1  0.91090000  0.78100000  0.83300000  1.0 -0.0995977972
C  C182  1  0.08910000  0.28100000  0.66700000  1.0 -0.0995977972
C  C183  1  0.08910000  0.21900000  0.16700000  1.0 -0.0995977972
C  C184  1  0.91090000  0.71900000  0.33300000  1.0 -0.0995977972
C  C185  1  0.89290000  0.71510000  0.86000000  1.0 -0.1487460558
C  C186  1  0.10710000  0.21510000  0.64000000  1.0 -0.1487460558
C  C187  1  0.10710000  0.28490000  0.14000000  1.0 -0.1487460558
C  C188  1  0.89290000  0.78490000  0.36000000  1.0 -0.1487460558
C  C189  1  0.87160000  0.97590000  0.78530000  1.0 0.5516777229
C  C190  1  0.12840000  0.47590000  0.71470000  1.0 0.5516777229
C  C191  1  0.12840000  0.02410000  0.21470000  1.0 0.5516777229
C  C192  1  0.87160000  0.52410000  0.28530000  1.0 0.5516777229
N  N1  1  0.59705000  0.60410000  0.91635000  1.0 -0.2486649464
N  N2  1  0.40295000  0.10410000  0.58365000  1.0 -0.2486649464
N  N3  1  0.40295000  0.39590000  0.08365000  1.0 -0.2486649464
N  N4  1  0.59705000  0.89590000  0.41635000  1.0 -0.2486649464
N  N5  1  0.64296000  0.33310000  0.95146000  1.0 -0.2486649464
N  N6  1  0.35704000  0.83310000  0.54854000  1.0 -0.2486649464
N  N7  1  0.35704000  0.66690000  0.04854000  1.0 -0.2486649464
N  N8  1  0.64296000  0.16690000  0.45146000  1.0 -0.2486649464
N  N9  1  0.66937000  0.91200000  0.48797000  1.0 -0.2486649464
N  N10  1  0.33063000  0.41200000  0.01203000  1.0 -0.2486649464
N  N11  1  0.33063000  0.08800000  0.51203000  1.0 -0.2486649464
N  N12  1  0.66937000  0.58800000  0.98797000  1.0 -0.2486649464
N  N13  1  0.82655000  0.06270000  0.48405000  1.0 -0.2390568885
N  N14  1  0.17345000  0.56270000  0.01595000  1.0 -0.2390568885
N  N15  1  0.17345000  0.93730000  0.51595000  1.0 -0.2390568885
N  N16  1  0.82655000  0.43730000  0.98405000  1.0 -0.2390568885
N  N17  1  0.77556000  0.70740000  0.95166000  1.0 -0.2486649464
N  N18  1  0.22444000  0.20740000  0.54834000  1.0 -0.2486649464
N  N19  1  0.22444000  0.29260000  0.04834000  1.0 -0.2486649464
N  N20  1  0.77556000  0.79260000  0.45166000  1.0 -0.2486649464
N  N21  1  0.73975000  0.43840000  0.91305000  1.0 -0.2486649464
N  N22  1  0.26025000  0.93840000  0.58695000  1.0 -0.2486649464
N  N23  1  0.26025000  0.56160000  0.08695000  1.0 -0.2486649464
N  N24  1  0.73975000  0.06160000  0.41305000  1.0 -0.2486649464
O  O1  1  0.22340000  0.97260000  0.76790000  1.0 -0.4839337426
O  O2  1  0.77660000  0.47260000  0.73210000  1.0 -0.4839337426
O  O3  1  0.77660000  0.02740000  0.23210000  1.0 -0.4839337426
O  O4  1  0.22340000  0.52740000  0.26790000  1.0 -0.4839337426
O  O5  1  0.12160000  0.11450000  0.78190000  1.0 -0.4362607557
O  O6  1  0.87840000  0.61450000  0.71810000  1.0 -0.4362607557
O  O7  1  0.87840000  0.88550000  0.21810000  1.0 -0.4362607557
O  O8  1  0.12160000  0.38550000  0.28190000  1.0 -0.4362607557
O  O9  1  0.09214000  0.83380000  0.69654000  1.0 -0.4968767124
O  O10  1  0.90786000  0.33380000  0.80346000  1.0 -0.4968767124
O  O11  1  0.90786000  0.16620000  0.30346000  1.0 -0.4968767124
O  O12  1  0.09214000  0.66620000  0.19654000  1.0 -0.4968767124
O  O13  1  0.97230000  0.96760000  0.70460000  1.0 -0.4301692578
O  O14  1  0.02770000  0.46760000  0.79540000  1.0 -0.4301692578
O  O15  1  0.02770000  0.03240000  0.29540000  1.0 -0.4301692578
O  O16  1  0.97230000  0.53240000  0.20460000  1.0 -0.4301692578
O  O17  1  0.81061000  0.06930000  0.76681000  1.0 -0.4680976006
O  O18  1  0.18939000  0.56930000  0.73319000  1.0 -0.4680976006
O  O19  1  0.18939000  0.93070000  0.23319000  1.0 -0.4680976006
O  O20  1  0.81061000  0.43070000  0.26681000  1.0 -0.4680976006
O  O21  1  0.94880000  0.94800000  0.78260000  1.0 -0.4135699677
O  O22  1  0.05120000  0.44800000  0.71740000  1.0 -0.4135699677
O  O23  1  0.05120000  0.05200000  0.21740000  1.0 -0.4135699677
O  O24  1  0.94880000  0.55200000  0.28260000  1.0 -0.4135699677
O  O25  1  0.92270000  0.27500000  0.73660000  1.0 -0.0040478711
O  O26  1  0.07730000  0.77500000  0.76340000  1.0 -0.0040478711
O  O27  1  0.07730000  0.72500000  0.26340000  1.0 -0.0040478711
O  O28  1  0.92270000  0.22500000  0.23660000  1.0 -0.0040478711
O  O29  1  0.30590000  0.80800000  0.72830000  1.0 -0.7418141621
O  O30  1  0.69410000  0.30800000  0.77170000  1.0 -0.7418141621
O  O31  1  0.69410000  0.19200000  0.27170000  1.0 -0.7418141621
O  O32  1  0.30590000  0.69200000  0.22830000  1.0 -0.7418141621
O  O33  1  0.29380000  0.72600000  0.79080000  1.0 -0.0216900066
O  O34  1  0.70620000  0.22600000  0.70920000  1.0 -0.0216900066
O  O35  1  0.70620000  0.27400000  0.20920000  1.0 -0.027017886
O  O36  1  0.29380000  0.77400000  0.29080000  1.0 -0.0216900066
O  O37  1  0.03450000  0.88800000  0.75610000  1.0 -0.0807881965
O  O38  1  0.96550000  0.38800000  0.74390000  1.0 -0.0807881965
O  O39  1  0.96550000  0.11200000  0.24390000  1.0 -0.0807881965
O  O40  1  0.03450000  0.61200000  0.25610000  1.0 -0.0807881965
O  O41  1  0.05850000  0.70500000  0.76720000  1.0 -0.1882395889
O  O42  1  0.94150000  0.20500000  0.73280000  1.0 -0.1882395889
O  O43  1  0.94150000  0.29500000  0.23280000  1.0 -0.1882395889
O  O44  1  0.05850000  0.79500000  0.26720000  1.0 -0.1882395889
O  O45  1  0.25090000  0.65500000  0.79490000  1.0 -0.0674939087
O  O46  1  0.74910000  0.15500000  0.70510000  1.0 -0.0674939087
O  O47  1  0.74910000  0.34500000  0.20510000  1.0 -0.0591588672
O  O48  1  0.25090000  0.84500000  0.29490000  1.0 -0.0674939087
