# DDEC6 charges by PACMAN v1.1 (https://github.com/mtap-research/PACMAN-charge/)
data_NIRGAY_ASR_pacman
_symmetry_space_group_name_H-M   'P 1'
_cell_length_a   16.17960000
_cell_length_b   19.15050000
_cell_length_c   19.58480000
_cell_angle_alpha   112.45100000
_cell_angle_beta   93.54800000
_cell_angle_gamma   104.21500000
_symmetry_Int_Tables_number   1
_chemical_formula_structural   MnH18(C11O3)2
_chemical_formula_sum   'Mn6 H108 C132 O36'
_cell_volume   5353.94904229
_cell_formula_units_Z   6
loop_
 _symmetry_equiv_pos_site_id
 _symmetry_equiv_pos_as_xyz
  1  'x, y, z'
loop_
 _atom_site_type_symbol
 _atom_site_label
 _atom_site_symmetry_multiplicity
 _atom_site_fract_x
 _atom_site_fract_y
 _atom_site_fract_z
 _atom_site_occupancy
 _atom_site_charge
Mn  Mn1  1  0.61404000  0.11289000  0.78311000  1.0 1.0306939401
Mn  Mn2  1  0.78585000  0.11855000  0.90655000  1.0 1.0163239159
Mn  Mn3  1  0.42687000  0.17709000  0.82601000  1.0 1.0636480369
Mn  Mn4  1  0.38596000  0.88711000  0.21689000  1.0 1.0306939401
Mn  Mn5  1  0.21415000  0.88145000  0.09345000  1.0 1.0163239159
Mn  Mn6  1  0.57313000  0.82291000  0.17399000  1.0 1.0659482994
H  H1  1  0.46320000  0.86400000  0.69130000  1.0 0.1194103152
H  H2  1  0.37470000  0.73410000  0.64180000  1.0 0.1303536698
H  H3  1  0.16630000  0.81130000  0.66150000  1.0 0.1384519518
H  H4  1  0.25640000  0.94300000  0.71220000  1.0 0.1194103152
H  H5  1  0.27710000  0.62110000  0.56710000  1.0 0.0906750712
H  H6  1  0.27960000  0.62640000  0.64930000  1.0 0.0906750712
H  H7  1  0.11050000  0.41780000  0.69730000  1.0 0.0982634501
H  H8  1  0.07390000  0.33580000  0.62790000  1.0 0.0982634501
H  H9  1  0.04810000  0.33020000  0.74810000  1.0 0.1194103152
H  H10  1  0.97260000  0.26720000  0.81510000  1.0 0.1303536698
H  H11  1  0.75320000  0.29310000  0.73990000  1.0 0.1194103152
H  H12  1  0.82670000  0.35640000  0.67290000  1.0 0.1303536698
H  H13  1  0.02090000  0.43580000  0.37820000  1.0 0.0982634501
H  H14  1  0.96520000  0.36480000  0.39300000  1.0 0.0982634501
H  H15  1  0.12100000  0.24980000  0.23990000  1.0 0.1303536698
H  H16  1  0.05460000  0.16980000  0.12010000  1.0 0.1194103152
H  H17  1  0.86580000  0.27050000  0.14890000  1.0 0.1194103152
H  H18  1  0.91840000  0.33520000  0.27590000  1.0 0.1303536698
H  H19  1  0.22350000  0.53290000  0.72390000  1.0 0.1303536698
H  H20  1  0.20450000  0.60790000  0.72030000  1.0 0.1303536698
H  H21  1  0.13300000  0.54670000  0.73590000  1.0 0.1384519518
H  H22  1  0.94340000  0.30580000  0.51010000  1.0 0.1472118713
H  H23  1  0.98110000  0.28720000  0.43540000  1.0 0.1303536698
H  H24  1  0.02440000  0.27400000  0.50150000  1.0 0.1303536698
H  H25  1  0.10510000  0.56600000  0.43730000  1.0 0.1384519518
H  H26  1  0.20310000  0.59500000  0.47380000  1.0 0.1384519518
H  H27  1  0.16630000  0.51440000  0.40360000  1.0 0.1384519518
H  H28  1  0.68330000  0.18350000  0.05750000  1.0 0.1303536698
H  H29  1  0.68140000  0.25700000  0.18040000  1.0 0.1384519518
H  H30  1  0.51420000  0.35500000  0.12080000  1.0 0.1194103152
H  H31  1  0.51720000  0.28290000  0.99560000  1.0 0.1087129109
H  H32  1  0.57860000  0.45770000  0.24030000  1.0 0.0906750712
H  H33  1  0.49770000  0.39730000  0.24820000  1.0 0.0982634501
H  H34  1  0.77050000  0.66530000  0.45950000  1.0 0.0982634501
H  H35  1  0.77500000  0.66310000  0.53940000  1.0 0.0982634501
H  H36  1  0.82040000  0.78020000  0.62030000  1.0 0.1303536698
H  H37  1  0.84730000  0.90190000  0.72070000  1.0 0.1194103152
H  H38  1  0.61950000  0.92090000  0.64800000  1.0 0.1303536698
H  H39  1  0.59260000  0.79920000  0.54770000  1.0 0.1384519518
H  H40  1  0.48540000  0.38500000  0.49890000  1.0 0.0982634501
H  H41  1  0.55170000  0.45180000  0.56930000  1.0 0.0906750712
H  H42  1  0.47820000  0.35710000  0.60490000  1.0 0.1303536698
H  H43  1  0.46100000  0.28640000  0.67920000  1.0 0.1194103152
H  H44  1  0.64980000  0.19390000  0.60580000  1.0 0.1194103152
H  H45  1  0.66820000  0.26150000  0.52450000  1.0 0.1384519518
H  H46  1  0.48480000  0.31120000  0.38420000  1.0 0.1303536698
H  H47  1  0.43440000  0.34160000  0.33590000  1.0 0.1384519518
H  H48  1  0.51090000  0.30800000  0.30760000  1.0 0.1384519518
H  H49  1  0.63080000  0.57340000  0.29660000  1.0 0.1303536698
H  H50  1  0.69190000  0.64100000  0.36890000  1.0 0.1303536698
H  H51  1  0.72560000  0.57240000  0.31690000  1.0 0.1303536698
H  H52  1  0.68830000  0.51280000  0.59780000  1.0 0.1384519518
H  H53  1  0.73090000  0.59880000  0.60510000  1.0 0.1384519518
H  H54  1  0.63510000  0.57400000  0.61740000  1.0 0.1303536698
H  H55  1  0.53680000  0.13600000  0.30870000  1.0 0.1194103152
H  H56  1  0.62530000  0.26590000  0.35820000  1.0 0.1303536698
H  H57  1  0.83370000  0.18870000  0.33850000  1.0 0.1384519518
H  H58  1  0.74360000  0.05700000  0.28780000  1.0 0.1194103152
H  H59  1  0.72290000  0.37890000  0.43290000  1.0 0.0906750712
H  H60  1  0.72040000  0.37360000  0.35070000  1.0 0.0906750712
H  H61  1  0.88950000  0.58220000  0.30270000  1.0 0.0982634501
H  H62  1  0.92610000  0.66420000  0.37210000  1.0 0.0982634501
H  H63  1  0.95190000  0.66980000  0.25190000  1.0 0.1194103152
H  H64  1  0.02740000  0.73280000  0.18490000  1.0 0.1303536698
H  H65  1  0.24680000  0.70690000  0.26010000  1.0 0.1194103152
H  H66  1  0.17330000  0.64360000  0.32710000  1.0 0.1303536698
H  H67  1  0.97910000  0.56420000  0.62180000  1.0 0.0982634501
H  H68  1  0.03480000  0.63520000  0.60700000  1.0 0.0982634501
H  H69  1  0.87900000  0.75020000  0.76010000  1.0 0.1303536698
H  H70  1  0.94540000  0.83020000  0.87990000  1.0 0.1194103152
H  H71  1  0.13420000  0.72950000  0.85110000  1.0 0.1194103152
H  H72  1  0.08160000  0.66480000  0.72410000  1.0 0.1303536698
H  H73  1  0.77650000  0.46710000  0.27610000  1.0 0.1303536698
H  H74  1  0.79550000  0.39210000  0.27970000  1.0 0.1303536698
H  H75  1  0.86700000  0.45330000  0.26410000  1.0 0.1384519518
H  H76  1  0.05660000  0.69420000  0.48990000  1.0 0.1472118713
H  H77  1  0.01890000  0.71280000  0.56460000  1.0 0.1303536698
H  H78  1  0.97560000  0.72600000  0.49850000  1.0 0.1303536698
H  H79  1  0.89490000  0.43400000  0.56270000  1.0 0.1384519518
H  H80  1  0.79690000  0.40500000  0.52620000  1.0 0.1384519518
H  H81  1  0.83370000  0.48560000  0.59640000  1.0 0.1384519518
H  H82  1  0.31670000  0.81650000  0.94250000  1.0 0.1303536698
H  H83  1  0.31860000  0.74300000  0.81960000  1.0 0.1384519518
H  H84  1  0.48580000  0.64500000  0.87920000  1.0 0.1194103152
H  H85  1  0.48280000  0.71710000  0.00440000  1.0 0.1087129109
H  H86  1  0.42140000  0.54230000  0.75970000  1.0 0.0906750712
H  H87  1  0.50230000  0.60270000  0.75180000  1.0 0.0982634501
H  H88  1  0.22950000  0.33470000  0.54050000  1.0 0.0982634501
H  H89  1  0.22500000  0.33690000  0.46060000  1.0 0.0982634501
H  H90  1  0.17960000  0.21980000  0.37970000  1.0 0.1303536698
H  H91  1  0.15270000  0.09810000  0.27930000  1.0 0.1194103152
H  H92  1  0.38050000  0.07910000  0.35200000  1.0 0.1303536698
H  H93  1  0.40740000  0.20080000  0.45230000  1.0 0.1384519518
H  H94  1  0.51460000  0.61500000  0.50110000  1.0 0.0982634501
H  H95  1  0.44830000  0.54820000  0.43070000  1.0 0.0906750712
H  H96  1  0.52180000  0.64290000  0.39510000  1.0 0.1303536698
H  H97  1  0.53900000  0.71360000  0.32080000  1.0 0.1194103152
H  H98  1  0.35020000  0.80610000  0.39420000  1.0 0.1194103152
H  H99  1  0.33180000  0.73850000  0.47550000  1.0 0.1384519518
H  H100  1  0.51520000  0.68880000  0.61580000  1.0 0.1303536698
H  H101  1  0.56560000  0.65840000  0.66410000  1.0 0.1384519518
H  H102  1  0.48910000  0.69200000  0.69240000  1.0 0.1384519518
H  H103  1  0.36920000  0.42660000  0.70340000  1.0 0.1303536698
H  H104  1  0.30810000  0.35900000  0.63110000  1.0 0.1303536698
H  H105  1  0.27440000  0.42760000  0.68310000  1.0 0.1303536698
H  H106  1  0.31170000  0.48720000  0.40220000  1.0 0.1384519518
H  H107  1  0.26910000  0.40120000  0.39490000  1.0 0.1384519518
H  H108  1  0.36490000  0.42600000  0.38260000  1.0 0.1303536698
C  C1  1  0.42760000  0.99941000  0.74244000  1.0 0.609553478
C  C2  1  0.36920000  0.91610000  0.70927000  1.0 -0.040905033
C  C3  1  0.40350000  0.85400000  0.68690000  1.0 -0.0797833155
C  C4  1  0.35040000  0.77565000  0.65739000  1.0 -0.2336268506
C  C5  1  0.26240000  0.76090000  0.65176000  1.0 0.2524075948
C  C6  1  0.22620000  0.82178000  0.66920000  1.0 -0.2336268506
C  C7  1  0.28060000  0.90140000  0.69940000  1.0 -0.0797833155
C  C8  1  0.24230000  0.62070000  0.60561000  1.0 -0.0702898696
C  C9  1  0.17180000  0.54422000  0.57755000  1.0 -0.0574944675
C  C10  1  0.14690000  0.50780000  0.62592000  1.0 0.0809826658
C  C11  1  0.09310000  0.43061000  0.59669000  1.0 -0.0574944675
C  C12  1  0.05480000  0.39132000  0.52046000  1.0 0.0906750712
C  C13  1  0.07330000  0.43056000  0.47339000  1.0 -0.0574944675
C  C14  1  0.13190000  0.50704000  0.50060000  1.0 0.0982634501
C  C15  1  0.07030000  0.38950000  0.65014000  1.0 -0.0702898696
C  C16  1  0.94550000  0.35040000  0.70377000  1.0 0.2524075948
C  C17  1  0.98890000  0.32330000  0.74621000  1.0 -0.2443232469
C  C18  1  0.94280000  0.28520000  0.78640000  1.0 -0.0574944675
C  C19  1  0.85560000  0.27317000  0.78538000  1.0 -0.040905033
C  C20  1  0.81240000  0.30050000  0.74199000  1.0 -0.0797833155
C  C21  1  0.85670000  0.33850000  0.70174000  1.0 -0.2185762805
C  C22  1  0.80490000  0.22794000  0.82604000  1.0 0.5918798961
C  C23  1  0.02380000  0.39450000  0.39472000  1.0 -0.0702898696
C  C24  1  0.02740000  0.30190000  0.27167000  1.0 0.2524075948
C  C25  1  0.06730000  0.25220000  0.22260000  1.0 -0.2084113143
C  C26  1  0.02980000  0.20710000  0.15000000  1.0 -0.0702898696
C  C27  1  0.95410000  0.21550000  0.11905000  1.0 -0.0244035755
C  C28  1  0.91640000  0.26420000  0.16756000  1.0 -0.0797833155
C  C29  1  0.94910000  0.30550000  0.24398000  1.0 -0.2336268506
C  C30  1  0.91330000  0.17030000  0.03670000  1.0 0.5361338176
C  C31  1  0.18000000  0.55290000  0.70906000  1.0 -0.4895417275
C  C32  1  0.99540000  0.30677000  0.48894000  1.0 -0.4702046297
C  C33  1  0.15360000  0.54955000  0.44903000  1.0 -0.4895417275
C  C34  1  0.60430000  0.18018000  0.93276000  1.0 0.609553478
C  C35  1  0.60200000  0.22690000  0.01320000  1.0 -0.0503775512
C  C36  1  0.65030000  0.21870000  0.06978000  1.0 -0.0702898696
C  C37  1  0.64890000  0.26260000  0.14299000  1.0 -0.1984667293
C  C38  1  0.59980000  0.31600000  0.16344000  1.0 0.2524075948
C  C39  1  0.54940000  0.32180000  0.10814000  1.0 -0.2336268506
C  C40  1  0.55070000  0.27800000  0.03293000  1.0 -0.0797833155
C  C41  1  0.56000000  0.42042000  0.26262000  1.0 -0.0702898696
C  C42  1  0.58690000  0.46093000  0.34876000  1.0 -0.0503775512
C  C43  1  0.55310000  0.41981000  0.39134000  1.0 0.0906750712
C  C44  1  0.58290000  0.45514000  0.46929000  1.0 -0.0503775512
C  C45  1  0.64510000  0.52910000  0.50349000  1.0 0.0906750712
C  C46  1  0.67540000  0.57070000  0.46058000  1.0 -0.0574944675
C  C47  1  0.64380000  0.53698000  0.38320000  1.0 0.0809826658
C  C48  1  0.73630000  0.65469000  0.49530000  1.0 -0.0574944675
C  C49  1  0.70385000  0.77761000  0.57405000  1.0 0.2607929923
C  C50  1  0.78015000  0.80840000  0.62587000  1.0 -0.2464143367
C  C51  1  0.79625000  0.88134000  0.68598000  1.0 -0.0797833155
C  C52  1  0.73605000  0.92348000  0.69427000  1.0 -0.0324516266
C  C53  1  0.65975000  0.89270000  0.64245000  1.0 -0.0797833155
C  C54  1  0.64365000  0.81976000  0.58234000  1.0 -0.2185762805
C  C55  1  0.74890000  0.00070000  0.76083000  1.0 0.5762097158
C  C56  1  0.54610000  0.41370000  0.51815000  1.0 -0.0702898696
C  C57  1  0.57830000  0.31790000  0.55970000  1.0 0.2654634633
C  C58  1  0.51310000  0.32500000  0.60462000  1.0 -0.2464143367
C  C59  1  0.50310000  0.28150000  0.64889000  1.0 -0.0702898696
C  C60  1  0.55050000  0.23320000  0.65034000  1.0 -0.0503775512
C  C61  1  0.61520000  0.22580000  0.60480000  1.0 -0.0797833155
C  C62  1  0.62790000  0.26800000  0.55650000  1.0 -0.2464143367
C  C63  1  0.54020000  0.19100000  0.70160000  1.0 0.6010023274
C  C64  1  0.49000000  0.33760000  0.35110000  1.0 -0.4895417275
C  C65  1  0.67610000  0.58560000  0.33699000  1.0 -0.4702046297
C  C66  1  0.67810000  0.55630000  0.58927000  1.0 -0.4629862986
C  C67  1  0.57240000  0.00059000  0.25756000  1.0 0.609553478
C  C68  1  0.63080000  0.08390000  0.29073000  1.0 -0.040905033
C  C69  1  0.59650000  0.14600000  0.31310000  1.0 -0.0797833155
C  C70  1  0.64960000  0.22435000  0.34261000  1.0 -0.2336268506
C  C71  1  0.73760000  0.23910000  0.34824000  1.0 0.2524075948
C  C72  1  0.77380000  0.17822000  0.33080000  1.0 -0.2336268506
C  C73  1  0.71940000  0.09860000  0.30060000  1.0 -0.0797833155
C  C74  1  0.75770000  0.37930000  0.39439000  1.0 -0.0702898696
C  C75  1  0.82820000  0.45578000  0.42245000  1.0 -0.0574944675
C  C76  1  0.85310000  0.49220000  0.37408000  1.0 0.0809826658
C  C77  1  0.90690000  0.56939000  0.40331000  1.0 -0.0574944675
C  C78  1  0.94520000  0.60868000  0.47954000  1.0 0.0906750712
C  C79  1  0.92670000  0.56944000  0.52661000  1.0 -0.0574944675
C  C80  1  0.86810000  0.49296000  0.49940000  1.0 0.0982634501
C  C81  1  0.92970000  0.61050000  0.34986000  1.0 -0.0702898696
C  C82  1  0.05450000  0.64960000  0.29623000  1.0 0.2524075948
C  C83  1  0.01110000  0.67670000  0.25379000  1.0 -0.2443232469
C  C84  1  0.05720000  0.71480000  0.21360000  1.0 -0.0574944675
C  C85  1  0.14440000  0.72683000  0.21462000  1.0 -0.040905033
C  C86  1  0.18760000  0.69950000  0.25801000  1.0 -0.0797833155
C  C87  1  0.14330000  0.66150000  0.29826000  1.0 -0.2185762805
C  C88  1  0.19510000  0.77206000  0.17396000  1.0 0.5918798961
C  C89  1  0.97620000  0.60550000  0.60528000  1.0 -0.0702898696
C  C90  1  0.97260000  0.69810000  0.72833000  1.0 0.2524075948
C  C91  1  0.93270000  0.74780000  0.77740000  1.0 -0.2084113143
C  C92  1  0.97020000  0.79290000  0.85000000  1.0 -0.0702898696
C  C93  1  0.04590000  0.78450000  0.88095000  1.0 -0.0244035755
C  C94  1  0.08360000  0.73580000  0.83244000  1.0 -0.0797833155
C  C95  1  0.05090000  0.69450000  0.75602000  1.0 -0.2336268506
C  C96  1  0.08670000  0.82970000  0.96330000  1.0 0.5361338176
C  C97  1  0.82000000  0.44710000  0.29094000  1.0 -0.4895417275
C  C98  1  0.00460000  0.69323000  0.51106000  1.0 -0.4702046297
C  C99  1  0.84640000  0.45045000  0.55097000  1.0 -0.4895417275
C  C100  1  0.39570000  0.81982000  0.06724000  1.0 0.609553478
C  C101  1  0.39800000  0.77310000  0.98680000  1.0 -0.0503775512
C  C102  1  0.34970000  0.78130000  0.93022000  1.0 -0.0702898696
C  C103  1  0.35110000  0.73740000  0.85701000  1.0 -0.1984667293
C  C104  1  0.40020000  0.68400000  0.83656000  1.0 0.2524075948
C  C105  1  0.45060000  0.67820000  0.89186000  1.0 -0.2336268506
C  C106  1  0.44930000  0.72200000  0.96707000  1.0 -0.0797833155
C  C107  1  0.44000000  0.57958000  0.73738000  1.0 -0.0702898696
C  C108  1  0.41310000  0.53907000  0.65124000  1.0 -0.0503775512
C  C109  1  0.44690000  0.58019000  0.60866000  1.0 0.0906750712
C  C110  1  0.41710000  0.54486000  0.53071000  1.0 -0.0503775512
C  C111  1  0.35490000  0.47090000  0.49651000  1.0 0.0906750712
C  C112  1  0.32460000  0.42930000  0.53942000  1.0 -0.0574944675
C  C113  1  0.35620000  0.46302000  0.61680000  1.0 0.0809826658
C  C114  1  0.26370000  0.34531000  0.50470000  1.0 -0.0574944675
C  C115  1  0.29615000  0.22239000  0.42595000  1.0 0.2607929923
C  C116  1  0.21985000  0.19160000  0.37413000  1.0 -0.2464143367
C  C117  1  0.20375000  0.11866000  0.31402000  1.0 -0.0797833155
C  C118  1  0.26395000  0.07652000  0.30573000  1.0 -0.0324516266
C  C119  1  0.34025000  0.10730000  0.35755000  1.0 -0.0797833155
C  C120  1  0.35635000  0.18024000  0.41766000  1.0 -0.2185762805
C  C121  1  0.25110000  0.99930000  0.23917000  1.0 0.5762097158
C  C122  1  0.45390000  0.58630000  0.48185000  1.0 -0.0702898696
C  C123  1  0.42170000  0.68210000  0.44030000  1.0 0.2654634633
C  C124  1  0.48690000  0.67500000  0.39538000  1.0 -0.2464143367
C  C125  1  0.49690000  0.71850000  0.35111000  1.0 -0.0702898696
C  C126  1  0.44950000  0.76680000  0.34966000  1.0 -0.0503775512
C  C127  1  0.38480000  0.77420000  0.39520000  1.0 -0.0797833155
C  C128  1  0.37210000  0.73200000  0.44350000  1.0 -0.2464143367
C  C129  1  0.45980000  0.80900000  0.29840000  1.0 0.6010023274
C  C130  1  0.51000000  0.66240000  0.64890000  1.0 -0.4895417275
C  C131  1  0.32390000  0.41440000  0.66301000  1.0 -0.4702046297
C  C132  1  0.32190000  0.44370000  0.41073000  1.0 -0.4629862986
O  O1  1  0.39299000  0.05383000  0.76061000  1.0 -0.5815792563
O  O2  1  0.50874000  0.00986000  0.75041000  1.0 -0.5508142195
O  O3  1  0.20481000  0.68656000  0.62541000  1.0 -0.1984667293
O  O4  1  0.84562000  0.20254000  0.86305000  1.0 -0.538780161
O  O5  1  0.72357000  0.21810000  0.81817000  1.0 -0.5815792563
O  O6  1  0.98272000  0.38918000  0.66282000  1.0 -0.1984667293
O  O7  1  0.94540000  0.12368000  0.99336000  1.0 -0.4489709518
O  O8  1  0.84771000  0.18335000  0.01727000  1.0 -0.5209825717
O  O9  1  0.06802000  0.34205000  0.34539000  1.0 -0.1984667293
O  O10  1  0.55536000  0.18275000  0.88222000  1.0 -0.5864889107
O  O11  1  0.65584000  0.13871000  0.91574000  1.0 -0.5681003215
O  O12  1  0.60484000  0.35876000  0.23960000  1.0 -0.2185762805
O  O13  1  0.69871000  0.04052000  0.76280000  1.0 -0.5681003215
O  O14  1  0.81264000  0.02375000  0.81222000  1.0 -0.5266466222
O  O15  1  0.67942000  0.70468000  0.51529000  1.0 -0.1937094561
O  O16  1  0.48937000  0.20999000  0.74903000  1.0 -0.6093360565
O  O17  1  0.57993000  0.14288000  0.69396000  1.0 -0.5028214834
O  O18  1  0.59665000  0.35913000  0.51567000  1.0 -0.1984667293
O  O19  1  0.60701000  0.94617000  0.23939000  1.0 -0.5864889107
O  O20  1  0.49126000  0.99014000  0.24959000  1.0 -0.5508142195
O  O21  1  0.79519000  0.31344000  0.37459000  1.0 -0.1984667293
O  O22  1  0.15438000  0.79746000  0.13695000  1.0 -0.538780161
O  O23  1  0.27643000  0.78190000  0.18183000  1.0 -0.5815792563
O  O24  1  0.01728000  0.61082000  0.33718000  1.0 -0.1984667293
O  O25  1  0.05460000  0.87632000  0.00664000  1.0 -0.4489709518
O  O26  1  0.15229000  0.81665000  0.98273000  1.0 -0.5209825717
O  O27  1  0.93198000  0.65795000  0.65461000  1.0 -0.1984667293
O  O28  1  0.44464000  0.81725000  0.11778000  1.0 -0.5864889107
O  O29  1  0.34416000  0.86129000  0.08426000  1.0 -0.5681003215
O  O30  1  0.39516000  0.64124000  0.76040000  1.0 -0.2185762805
O  O31  1  0.30129000  0.95948000  0.23720000  1.0 -0.5646092973
O  O32  1  0.18736000  0.97625000  0.18778000  1.0 -0.5266466222
O  O33  1  0.32058000  0.29532000  0.48471000  1.0 -0.1937094561
O  O34  1  0.51063000  0.79001000  0.25097000  1.0 -0.6093360565
O  O35  1  0.42007000  0.85712000  0.30604000  1.0 -0.5028214834
O  O36  1  0.40335000  0.64087000  0.48433000  1.0 -0.1984667293
