# DDEC6 charges by PACMAN v1.1 (https://github.com/mtap-research/PACMAN-charge/)
data_NIRROY_FSR_pacman
_symmetry_space_group_name_H-M   'P 1'
_cell_length_a   14.15800000
_cell_length_b   15.07400000
_cell_length_c   15.30700000
_cell_angle_alpha   94.19100000
_cell_angle_beta   103.28800000
_cell_angle_gamma   100.23800000
_symmetry_Int_Tables_number   1
_chemical_formula_structural   Zn4H52C58(NO6)3
_chemical_formula_sum   'Zn8 H104 C116 N6 O36'
_cell_volume   3106.48416976
_cell_formula_units_Z   2
loop_
 _symmetry_equiv_pos_site_id
 _symmetry_equiv_pos_as_xyz
  1  'x, y, z'
loop_
 _atom_site_type_symbol
 _atom_site_label
 _atom_site_symmetry_multiplicity
 _atom_site_fract_x
 _atom_site_fract_y
 _atom_site_fract_z
 _atom_site_occupancy
 _atom_site_charge
Zn  Zn1  1  0.20154000  0.90083000  0.14972000  1.0 0.7931533631
Zn  Zn2  1  0.41339000  0.87025000  0.10247000  1.0 1.0098888453
Zn  Zn3  1  0.33880000  0.80126000  0.27818000  1.0 0.9602042612
Zn  Zn4  1  0.23430000  0.70957000  0.07808000  1.0 0.8690353807
Zn  Zn5  1  0.79846000  0.09917000  0.85028000  1.0 0.7931533631
Zn  Zn6  1  0.58661000  0.12975000  0.89753000  1.0 1.0098888453
Zn  Zn7  1  0.66120000  0.19874000  0.72182000  1.0 0.9602042612
Zn  Zn8  1  0.76570000  0.29043000  0.92192000  1.0 0.8690353807
H  H1  1  0.55040000  0.85360000  0.03090000  1.0 0.3772971507
H  H2  1  0.53620000  0.94400000  0.00990000  1.0 0.3772971507
H  H3  1  0.08780000  0.03070000  0.96390000  1.0 0.069317412
H  H4  1  0.16810000  0.98110000  0.93330000  1.0 0.099620389
H  H5  1  0.92570000  0.84360000  0.76920000  1.0 0.059695491
H  H6  1  0.88240000  0.90660000  0.83450000  1.0 0.069317412
H  H7  1  0.02440000  0.03080000  0.82410000  1.0 0.059695491
H  H8  1  0.08650000  0.95820000  0.79560000  1.0 0.0797741087
H  H9  1  0.53260000  0.15360000  0.18860000  1.0 0.127329981
H  H10  1  0.59410000  0.30720000  0.19090000  1.0 0.1104445294
H  H11  1  0.32320000  0.33980000  0.05920000  1.0 0.1104445294
H  H12  1  0.25930000  0.18770000  0.05900000  1.0 0.1104445294
H  H13  1  0.38020000  0.48430000  0.11380000  1.0 0.1104445294
H  H14  1  0.61560000  0.68340000  0.11930000  1.0 0.1188632885
H  H15  1  0.77120000  0.47610000  0.04800000  1.0 0.1188632885
H  H16  1  0.93230000  0.52870000  0.04220000  1.0 0.127329981
H  H17  1  0.94110000  0.75750000  0.20070000  1.0 0.1104445294
H  H18  1  0.77040000  0.70920000  0.19620000  1.0 0.1188632885
H  H19  1  0.64960000  0.42290000  0.12600000  1.0 0.1188632885
H  H20  1  0.68600000  0.89070000  0.21810000  1.0 0.1188632885
H  H21  1  0.85480000  0.90710000  0.27550000  1.0 0.099620389
H  H22  1  0.80200000  0.76310000  0.47530000  1.0 0.099620389
H  H23  1  0.62790000  0.75960000  0.41880000  1.0 0.1104445294
H  H24  1  0.00100000  0.89470000  0.31170000  1.0 0.1104445294
H  H25  1  0.23250000  0.86460000  0.50810000  1.0 0.127329981
H  H26  1  0.96020000  0.83680000  0.55570000  1.0 0.099620389
H  H27  1  0.03520000  0.72480000  0.64830000  1.0 0.1104445294
H  H28  1  0.10400000  0.70050000  0.79430000  1.0 0.1104445294
H  H29  1  0.26190000  0.93190000  0.66320000  1.0 0.127329981
H  H30  1  0.35040000  0.40900000  0.27000000  1.0 0.1104445294
H  H31  1  0.32120000  0.42220000  0.36470000  1.0 0.099620389
H  H32  1  0.46970000  0.49820000  0.42240000  1.0 0.0896181351
H  H33  1  0.49350000  0.49670000  0.32460000  1.0 0.1104445294
H  H34  1  0.48350000  0.64010000  0.32690000  1.0 0.1405202326
H  H35  1  0.44580000  0.63770000  0.41840000  1.0 0.1405202326
H  H36  1  0.17530000  0.46570000  0.15980000  1.0 0.127329981
H  H37  1  0.13120000  0.44350000  0.24250000  1.0 0.1188632885
H  H38  1  0.14230000  0.54190000  0.21410000  1.0 0.1405202326
H  H39  1  0.89970000  0.76490000  0.96620000  1.0 0.0797741087
H  H40  1  0.87800000  0.73350000  0.86240000  1.0 0.0797741087
H  H41  1  0.97260000  0.71460000  0.92870000  1.0 0.0797741087
H  H42  1  0.02550000  0.76120000  0.92790000  1.0 0.0896181351
H  H43  1  0.94770000  0.79740000  0.97580000  1.0 0.0797741087
H  H44  1  0.92450000  0.94220000  0.79590000  1.0 0.0896181351
H  H45  1  0.00170000  0.88980000  0.76300000  1.0 0.0797741087
H  H46  1  0.85740000  0.82210000  0.84610000  1.0 0.0797741087
H  H47  1  0.92250000  0.76640000  0.79800000  1.0 0.0797741087
H  H48  1  0.82490000  0.88790000  0.52220000  1.0 0.099620389
H  H49  1  0.65090000  0.88350000  0.46610000  1.0 0.1104445294
H  H50  1  0.15410000  0.04310000  0.93760000  1.0 0.059695491
H  H51  1  0.10790000  0.04130000  0.83380000  1.0 0.0535393644
H  H52  1  0.05090000  0.07000000  0.90420000  1.0 0.059695491
H  H53  1  0.44960000  0.14640000  0.96910000  1.0 0.3772971507
H  H54  1  0.46380000  0.05600000  0.99010000  1.0 0.3772971507
H  H55  1  0.91220000  0.96930000  0.03610000  1.0 0.069317412
H  H56  1  0.83190000  0.01890000  0.06670000  1.0 0.099620389
H  H57  1  0.07430000  0.15640000  0.23080000  1.0 0.059695491
H  H58  1  0.11760000  0.09340000  0.16550000  1.0 0.069317412
H  H59  1  0.97560000  0.96920000  0.17590000  1.0 0.059695491
H  H60  1  0.91350000  0.04180000  0.20440000  1.0 0.0797741087
H  H61  1  0.46740000  0.84640000  0.81140000  1.0 0.127329981
H  H62  1  0.40590000  0.69280000  0.80910000  1.0 0.1104445294
H  H63  1  0.67680000  0.66020000  0.94080000  1.0 0.1104445294
H  H64  1  0.74070000  0.81230000  0.94100000  1.0 0.1104445294
H  H65  1  0.61980000  0.51570000  0.88620000  1.0 0.1104445294
H  H66  1  0.38440000  0.31660000  0.88070000  1.0 0.1188632885
H  H67  1  0.22880000  0.52390000  0.95200000  1.0 0.1188632885
H  H68  1  0.06770000  0.47130000  0.95780000  1.0 0.127329981
H  H69  1  0.05890000  0.24250000  0.79930000  1.0 0.1104445294
H  H70  1  0.22960000  0.29080000  0.80380000  1.0 0.1188632885
H  H71  1  0.35040000  0.57710000  0.87400000  1.0 0.1188632885
H  H72  1  0.31400000  0.10930000  0.78190000  1.0 0.1188632885
H  H73  1  0.14520000  0.09290000  0.72450000  1.0 0.099620389
H  H74  1  0.19800000  0.23690000  0.52470000  1.0 0.099620389
H  H75  1  0.37210000  0.24040000  0.58120000  1.0 0.1104445294
H  H76  1  0.99900000  0.10530000  0.68830000  1.0 0.1104445294
H  H77  1  0.76750000  0.13540000  0.49190000  1.0 0.127329981
H  H78  1  0.03980000  0.16320000  0.44430000  1.0 0.099620389
H  H79  1  0.96480000  0.27520000  0.35170000  1.0 0.1104445294
H  H80  1  0.89600000  0.29950000  0.20570000  1.0 0.1104445294
H  H81  1  0.73810000  0.06810000  0.33680000  1.0 0.127329981
H  H82  1  0.64960000  0.59100000  0.73000000  1.0 0.1104445294
H  H83  1  0.67880000  0.57780000  0.63530000  1.0 0.099620389
H  H84  1  0.53030000  0.50180000  0.57760000  1.0 0.0896181351
H  H85  1  0.50650000  0.50330000  0.67540000  1.0 0.1104445294
H  H86  1  0.51650000  0.35990000  0.67310000  1.0 0.1405202326
H  H87  1  0.55420000  0.36230000  0.58160000  1.0 0.1405202326
H  H88  1  0.82470000  0.53430000  0.84020000  1.0 0.127329981
H  H89  1  0.86880000  0.55650000  0.75750000  1.0 0.1188632885
H  H90  1  0.85770000  0.45810000  0.78590000  1.0 0.1405202326
H  H91  1  0.10030000  0.23510000  0.03380000  1.0 0.0797741087
H  H92  1  0.12200000  0.26650000  0.13760000  1.0 0.0797741087
H  H93  1  0.02740000  0.28540000  0.07130000  1.0 0.0797741087
H  H94  1  0.97450000  0.23880000  0.07210000  1.0 0.0896181351
H  H95  1  0.05230000  0.20260000  0.02420000  1.0 0.0797741087
H  H96  1  0.07550000  0.05780000  0.20410000  1.0 0.0896181351
H  H97  1  0.99830000  0.11020000  0.23700000  1.0 0.0797741087
H  H98  1  0.14260000  0.17790000  0.15390000  1.0 0.0797741087
H  H99  1  0.07750000  0.23360000  0.20200000  1.0 0.0797741087
H  H100  1  0.17510000  0.11210000  0.47780000  1.0 0.099620389
H  H101  1  0.34910000  0.11650000  0.53390000  1.0 0.1104445294
H  H102  1  0.84590000  0.95690000  0.06240000  1.0 0.059695491
H  H103  1  0.89210000  0.95870000  0.16620000  1.0 0.0535393644
H  H104  1  0.94910000  0.93000000  0.09580000  1.0 0.059695491
C  C1  1  0.06070000  0.89790000  0.96590000  1.0 0.059695491
C  C2  1  0.09640000  0.97610000  0.92890000  1.0 -0.0138978766
C  C3  1  0.94200000  0.88400000  0.82700000  1.0 -0.0869694317
C  C4  1  0.04530000  0.97270000  0.83670000  1.0 -0.0495773826
C  C5  1  0.35050000  0.05630000  0.12660000  1.0 0.5590623196
C  C6  1  0.38790000  0.15600000  0.13020000  1.0 -0.026214082
C  C7  1  0.48900000  0.19200000  0.16470000  1.0 -0.0869694317
C  C8  1  0.52580000  0.28340000  0.16430000  1.0 -0.1277259077
C  C9  1  0.46720000  0.34050000  0.12690000  1.0 0.069317412
C  C10  1  0.36550000  0.30210000  0.08700000  1.0 -0.1823739606
C  C11  1  0.32700000  0.21200000  0.08750000  1.0 -0.2445755873
C  C12  1  0.50970000  0.43780000  0.12220000  1.0 0.069317412
C  C13  1  0.44840000  0.50250000  0.11560000  1.0 -0.1680135477
C  C14  1  0.48850000  0.59370000  0.11180000  1.0 -0.0225974518
C  C15  1  0.42220000  0.66070000  0.10140000  1.0 0.5789506313
C  C16  1  0.58850000  0.62090000  0.11800000  1.0 -0.1579996358
C  C17  1  0.65010000  0.55840000  0.12260000  1.0 0.0797741087
C  C18  1  0.75670000  0.58710000  0.12340000  1.0 0.069317412
C  C19  1  0.80530000  0.53420000  0.07810000  1.0 -0.1277259077
C  C20  1  0.90140000  0.56450000  0.07620000  1.0 -0.1078519273
C  C21  1  0.95550000  0.64890000  0.12450000  1.0 -0.0433668412
C  C22  1  0.06200000  0.68830000  0.12120000  1.0 0.474997687
C  C23  1  0.90620000  0.70040000  0.16840000  1.0 -0.1440685514
C  C24  1  0.80420000  0.67150000  0.16740000  1.0 -0.1498956927
C  C25  1  0.60850000  0.46650000  0.12390000  1.0 -0.1823739606
C  C26  1  0.54260000  0.86050000  0.29740000  1.0 0.5714755234
C  C27  1  0.64850000  0.86160000  0.33160000  1.0 -0.026214082
C  C28  1  0.71090000  0.88090000  0.27900000  1.0 -0.1498956927
C  C29  1  0.81230000  0.88660000  0.31280000  1.0 -0.2318653065
C  C30  1  0.85430000  0.86500000  0.39500000  1.0 0.0797741087
C  C31  1  0.77970000  0.80110000  0.43140000  1.0 -0.0495773826
C  C32  1  0.67630000  0.79920000  0.39850000  1.0 -0.060276773
C  C33  1  0.96040000  0.86710000  0.42890000  1.0 0.069317412
C  C34  1  0.02670000  0.88360000  0.37200000  1.0 -0.2179928694
C  C35  1  0.12460000  0.88400000  0.39990000  1.0 0.0033310979
C  C36  1  0.18900000  0.89190000  0.33360000  1.0 0.5590623196
C  C37  1  0.16390000  0.86510000  0.48840000  1.0 -0.1579996358
C  C38  1  0.10210000  0.84690000  0.54710000  1.0 0.0896181351
C  C39  1  0.00210000  0.84870000  0.51580000  1.0 -0.2179928694
C  C40  1  0.14530000  0.83070000  0.64210000  1.0 0.0797741087
C  C41  1  0.09590000  0.76220000  0.68170000  1.0 -0.1680135477
C  C42  1  0.13590000  0.74940000  0.76900000  1.0 -0.1498956927
C  C43  1  0.22080000  0.80510000  0.82120000  1.0 -0.060276773
C  C44  1  0.26420000  0.79630000  0.92110000  1.0 0.5494431432
C  C45  1  0.27420000  0.87650000  0.78370000  1.0 -0.060276773
C  C46  1  0.23000000  0.88530000  0.69120000  1.0 -0.1910568375
C  C47  1  0.33200000  0.60320000  0.30340000  1.0 0.481775957
C  C48  1  0.34670000  0.45470000  0.31830000  1.0 -0.1277259077
C  C49  1  0.44580000  0.51040000  0.35920000  1.0 -0.1680135477
C  C50  1  0.43510000  0.60690000  0.35650000  1.0 -0.329904509
C  C51  1  0.17140000  0.48900000  0.21860000  1.0 -0.340749425
C  C52  1  0.92910000  0.75670000  0.91640000  1.0 -0.1910568375
C  C53  1  0.98940000  0.81120000  0.93280000  1.0 0.0242633865
C  C54  1  0.97380000  0.90380000  0.81480000  1.0 -0.0869694317
C  C55  1  0.92550000  0.81900000  0.84200000  1.0 0.0051526556
C  C56  1  0.79530000  0.87800000  0.45910000  1.0 -0.0869694317
C  C57  1  0.69090000  0.87560000  0.42520000  1.0 -0.060276773
C  C58  1  0.09400000  0.03100000  0.89100000  1.0 -0.1158283177
C  C59  1  0.93930000  0.10210000  0.03410000  1.0 0.059695491
C  C60  1  0.90360000  0.02390000  0.07110000  1.0 -0.0138978766
C  C61  1  0.05800000  0.11600000  0.17300000  1.0 -0.0869694317
C  C62  1  0.95470000  0.02730000  0.16330000  1.0 -0.0495773826
C  C63  1  0.64950000  0.94370000  0.87340000  1.0 0.5590623196
C  C64  1  0.61210000  0.84400000  0.86980000  1.0 -0.026214082
C  C65  1  0.51100000  0.80800000  0.83530000  1.0 -0.0869694317
C  C66  1  0.47420000  0.71660000  0.83570000  1.0 -0.1277259077
C  C67  1  0.53280000  0.65950000  0.87310000  1.0 0.069317412
C  C68  1  0.63450000  0.69790000  0.91300000  1.0 -0.1823739606
C  C69  1  0.67300000  0.78800000  0.91250000  1.0 -0.2445755873
C  C70  1  0.49030000  0.56220000  0.87780000  1.0 0.069317412
C  C71  1  0.55160000  0.49750000  0.88440000  1.0 -0.1680135477
C  C72  1  0.51150000  0.40630000  0.88820000  1.0 -0.0225974518
C  C73  1  0.57780000  0.33930000  0.89860000  1.0 0.5789506313
C  C74  1  0.41150000  0.37910000  0.88200000  1.0 -0.1579996358
C  C75  1  0.34990000  0.44160000  0.87740000  1.0 0.0797741087
C  C76  1  0.24330000  0.41290000  0.87660000  1.0 0.069317412
C  C77  1  0.19470000  0.46580000  0.92190000  1.0 -0.1277259077
C  C78  1  0.09860000  0.43550000  0.92380000  1.0 -0.1078519273
C  C79  1  0.04450000  0.35110000  0.87550000  1.0 -0.0433668412
C  C80  1  0.93800000  0.31170000  0.87880000  1.0 0.474997687
C  C81  1  0.09380000  0.29960000  0.83160000  1.0 -0.1498956927
C  C82  1  0.19580000  0.32850000  0.83260000  1.0 -0.1498956927
C  C83  1  0.39150000  0.53350000  0.87610000  1.0 -0.1823739606
C  C84  1  0.45740000  0.13950000  0.70260000  1.0 0.5714755234
C  C85  1  0.35150000  0.13840000  0.66840000  1.0 -0.026214082
C  C86  1  0.28910000  0.11910000  0.72100000  1.0 -0.1498956927
C  C87  1  0.18770000  0.11340000  0.68720000  1.0 -0.2318653065
C  C88  1  0.14570000  0.13500000  0.60500000  1.0 0.0797741087
C  C89  1  0.22030000  0.19890000  0.56860000  1.0 -0.0495773826
C  C90  1  0.32370000  0.20080000  0.60150000  1.0 -0.060276773
C  C91  1  0.03960000  0.13290000  0.57110000  1.0 0.059695491
C  C92  1  0.97330000  0.11640000  0.62800000  1.0 -0.2179928694
C  C93  1  0.87540000  0.11600000  0.60010000  1.0 0.0033310979
C  C94  1  0.81100000  0.10810000  0.66640000  1.0 0.5590623196
C  C95  1  0.83610000  0.13490000  0.51160000  1.0 -0.1579996358
C  C96  1  0.89790000  0.15310000  0.45290000  1.0 0.0896181351
C  C97  1  0.99790000  0.15130000  0.48420000  1.0 -0.2179928694
C  C98  1  0.85470000  0.16930000  0.35790000  1.0 0.0797741087
C  C99  1  0.90410000  0.23780000  0.31830000  1.0 -0.1680135477
C  C100  1  0.86410000  0.25060000  0.23100000  1.0 -0.1440685514
C  C101  1  0.77920000  0.19490000  0.17880000  1.0 -0.060276773
C  C102  1  0.73580000  0.20370000  0.07890000  1.0 0.5494431432
C  C103  1  0.72580000  0.12350000  0.21630000  1.0 -0.060276773
C  C104  1  0.77000000  0.11470000  0.30880000  1.0 -0.1910568375
C  C105  1  0.66800000  0.39680000  0.69660000  1.0 0.481775957
C  C106  1  0.65330000  0.54530000  0.68170000  1.0 -0.1277259077
C  C107  1  0.55420000  0.48960000  0.64080000  1.0 -0.1680135477
C  C108  1  0.56490000  0.39310000  0.64350000  1.0 -0.329904509
C  C109  1  0.82860000  0.51100000  0.78140000  1.0 -0.340749425
C  C110  1  0.07090000  0.24330000  0.08360000  1.0 -0.1910568375
C  C111  1  0.01060000  0.18880000  0.06720000  1.0 0.0242633865
C  C112  1  0.02620000  0.09620000  0.18520000  1.0 -0.0869694317
C  C113  1  0.07450000  0.18100000  0.15800000  1.0 0.0051526556
C  C114  1  0.20470000  0.12200000  0.54090000  1.0 -0.0869694317
C  C115  1  0.30910000  0.12440000  0.57480000  1.0 -0.060276773
C  C116  1  0.90600000  0.96900000  0.10900000  1.0 -0.1158283177
N  N1  1  0.98400000  0.84000000  0.90330000  1.0 0.069317412
N  N2  1  0.27790000  0.51550000  0.27940000  1.0 -0.0138978766
N  N3  1  0.05200000  0.95200000  0.89030000  1.0 0.069317412
N  N4  1  0.01600000  0.16000000  0.09670000  1.0 0.069317412
N  N5  1  0.72210000  0.48450000  0.72060000  1.0 -0.0138978766
N  N6  1  0.94800000  0.04800000  0.10970000  1.0 0.069317412
O  O1  1  0.29880000  0.82410000  0.15460000  1.0 -0.9815929059
O  O2  1  0.27060000  0.02980000  0.14420000  1.0 -0.5245823387
O  O3  1  0.40920000  0.00620000  0.10630000  1.0 -0.557825965
O  O4  1  0.51850000  0.90310000  0.23170000  1.0 -0.5011044863
O  O5  1  0.47900000  0.82050000  0.33760000  1.0 -0.5492926661
O  O6  1  0.33080000  0.63030000  0.09650000  1.0 -0.5492926661
O  O7  1  0.46180000  0.74260000  0.09740000  1.0 -0.5874685023
O  O8  1  0.10300000  0.64180000  0.07840000  1.0 -0.4904777977
O  O9  1  0.08520000  0.77340000  0.13240000  1.0 -0.2318653065
O  O10  1  0.16100000  0.92660000  0.26410000  1.0 -0.5245823387
O  O11  1  0.27020000  0.86160000  0.35650000  1.0 -0.557825965
O  O12  1  0.21140000  0.73060000  0.94890000  1.0 -0.5658611778
O  O13  1  0.33500000  0.85140000  0.96450000  1.0 -0.4904777977
O  O14  1  0.08970000  0.86650000  0.04480000  1.0 -0.2179928694
O  O15  1  0.28950000  0.67120000  0.28410000  1.0 -0.5874685023
O  O16  1  0.54540000  0.90690000  0.05210000  1.0 -0.6765836898
O  O17  1  0.11080000  0.74530000  0.19040000  1.0 -0.0793387938
O  O18  1  0.10950000  0.93050000  0.03390000  1.0 -0.1680135477
O  O19  1  0.70120000  0.17590000  0.84540000  1.0 -0.9815929059
O  O20  1  0.72940000  0.97020000  0.85580000  1.0 -0.5245823387
O  O21  1  0.59080000  0.99380000  0.89370000  1.0 -0.557825965
O  O22  1  0.48150000  0.09690000  0.76830000  1.0 -0.5011044863
O  O23  1  0.52100000  0.17950000  0.66240000  1.0 -0.5492926661
O  O24  1  0.66920000  0.36970000  0.90350000  1.0 -0.5492926661
O  O25  1  0.53820000  0.25740000  0.90260000  1.0 -0.5874685023
O  O26  1  0.89700000  0.35820000  0.92160000  1.0 -0.4904777977
O  O27  1  0.91480000  0.22660000  0.86760000  1.0 -0.2318653065
O  O28  1  0.83900000  0.07340000  0.73590000  1.0 -0.5245823387
O  O29  1  0.72980000  0.13840000  0.64350000  1.0 -0.557825965
O  O30  1  0.78860000  0.26940000  0.05110000  1.0 -0.5658611778
O  O31  1  0.66500000  0.14860000  0.03550000  1.0 -0.4904777977
O  O32  1  0.91030000  0.13350000  0.95520000  1.0 -0.2179928694
O  O33  1  0.71050000  0.32880000  0.71590000  1.0 -0.5874685023
O  O34  1  0.45460000  0.09310000  0.94790000  1.0 -0.6765836898
O  O35  1  0.88920000  0.25470000  0.80960000  1.0 -0.0793387938
O  O36  1  0.89050000  0.06950000  0.96610000  1.0 -0.1680135477
