# DDEC6 charges by PACMAN v1.1 (https://github.com/mtap-research/PACMAN-charge/)
data_NISBEX_FSR_pacman
_symmetry_space_group_name_H-M   'P 1'
_cell_length_a   8.77940000
_cell_length_b   24.89710000
_cell_length_c   12.40110000
_cell_angle_alpha   90.00000000
_cell_angle_beta   92.26200000
_cell_angle_gamma   90.00000000
_symmetry_Int_Tables_number   1
_chemical_formula_structural   LaH12C18N9O8
_chemical_formula_sum   'La4 H48 C72 N36 O32'
_cell_volume   2708.54011397
_cell_formula_units_Z   4
loop_
 _symmetry_equiv_pos_site_id
 _symmetry_equiv_pos_as_xyz
  1  'x, y, z'
loop_
 _atom_site_type_symbol
 _atom_site_label
 _atom_site_symmetry_multiplicity
 _atom_site_fract_x
 _atom_site_fract_y
 _atom_site_fract_z
 _atom_site_occupancy
 _atom_site_charge
La  La1  1  0.24525000  0.99154000  0.99796000  1.0 1.8225727732
La  La2  1  0.25475000  0.49154000  0.00204000  1.0 1.8225727732
La  La3  1  0.75475000  0.00846000  0.00204000  1.0 1.8225727732
La  La4  1  0.74525000  0.50846000  0.99796000  1.0 1.8225727732
H  H1  1  0.41050000  0.82340000  0.84560000  1.0 0.1579319772
H  H2  1  0.08950000  0.32340000  0.15440000  1.0 0.1579319772
H  H3  1  0.58950000  0.17660000  0.15440000  1.0 0.1579319772
H  H4  1  0.91050000  0.67660000  0.84560000  1.0 0.1579319772
H  H5  1  0.33110000  0.79790000  0.94550000  1.0 0.1579319772
H  H6  1  0.16890000  0.29790000  0.05450000  1.0 0.1579319772
H  H7  1  0.66890000  0.20210000  0.05450000  1.0 0.1579319772
H  H8  1  0.83110000  0.70210000  0.94550000  1.0 0.1579319772
H  H9  1  0.09720000  0.85330000  0.71450000  1.0 0.1477081942
H  H10  1  0.40280000  0.35330000  0.28550000  1.0 0.1579319772
H  H11  1  0.90280000  0.14670000  0.28550000  1.0 0.1579319772
H  H12  1  0.59720000  0.64670000  0.71450000  1.0 0.1579319772
H  H13  1  0.90290000  0.69400000  0.56680000  1.0 0.1276930812
H  H14  1  0.59710000  0.19400000  0.43320000  1.0 0.1276930812
H  H15  1  0.09710000  0.30600000  0.43320000  1.0 0.1276930812
H  H16  1  0.40290000  0.80600000  0.56680000  1.0 0.1276930812
H  H17  1  0.54810000  0.70560000  0.27520000  1.0 0.1444950457
H  H18  1  0.95190000  0.20560000  0.72480000  1.0 0.1444950457
H  H19  1  0.45190000  0.29440000  0.72480000  1.0 0.1444950457
H  H20  1  0.04810000  0.79440000  0.27520000  1.0 0.1444950457
H  H21  1  0.62720000  0.78370000  0.36990000  1.0 0.1128530334
H  H22  1  0.87280000  0.28370000  0.63010000  1.0 0.1128530334
H  H23  1  0.37280000  0.21630000  0.63010000  1.0 0.1128530334
H  H24  1  0.12720000  0.71630000  0.36990000  1.0 0.1128530334
H  H25  1  0.89750000  0.85560000  0.59790000  1.0 0.1276930812
H  H26  1  0.60250000  0.35560000  0.40210000  1.0 0.1276930812
H  H27  1  0.10250000  0.14440000  0.40210000  1.0 0.1276930812
H  H28  1  0.39750000  0.64440000  0.59790000  1.0 0.1276930812
H  H29  1  0.51810000  0.86820000  0.32750000  1.0 0.1477081942
H  H30  1  0.98190000  0.36820000  0.67250000  1.0 0.1477081942
H  H31  1  0.48190000  0.13180000  0.67250000  1.0 0.1477081942
H  H32  1  0.01810000  0.63180000  0.32750000  1.0 0.1444950457
H  H33  1  0.37500000  0.96140000  0.27790000  1.0 0.1579319772
H  H34  1  0.12500000  0.46140000  0.72210000  1.0 0.1579319772
H  H35  1  0.62500000  0.03860000  0.72210000  1.0 0.1579319772
H  H36  1  0.87500000  0.53860000  0.27790000  1.0 0.1579319772
H  H37  1  0.44520000  0.01320000  0.33530000  1.0 0.166604856
H  H38  1  0.05480000  0.51320000  0.66470000  1.0 0.166604856
H  H39  1  0.55480000  0.98680000  0.66470000  1.0 0.166604856
H  H40  1  0.94520000  0.48680000  0.33530000  1.0 0.166604856
H  H41  1  0.39740000  0.56840000  0.27310000  1.0 0.166604856
H  H42  1  0.10260000  0.06840000  0.72690000  1.0 0.166604856
H  H43  1  0.60260000  0.43160000  0.72690000  1.0 0.166604856
H  H44  1  0.89740000  0.93160000  0.27310000  1.0 0.166604856
H  H45  1  0.38300000  0.62080000  0.20080000  1.0 0.1579319772
H  H46  1  0.11700000  0.12080000  0.79920000  1.0 0.1579319772
H  H47  1  0.61700000  0.37920000  0.79920000  1.0 0.1579319772
H  H48  1  0.88300000  0.87920000  0.20080000  1.0 0.1579319772
C  C1  1  0.27280000  0.87642000  0.92090000  1.0 0.6306752916
C  C2  1  0.22720000  0.37642000  0.07910000  1.0 0.6306752916
C  C3  1  0.72720000  0.12358000  0.07910000  1.0 0.6306752916
C  C4  1  0.77280000  0.62358000  0.92090000  1.0 0.6306752916
C  C5  1  0.31390000  0.82100000  0.88230000  1.0 -0.2895965968
C  C6  1  0.18610000  0.32100000  0.11770000  1.0 -0.2895965968
C  C7  1  0.68610000  0.17900000  0.11770000  1.0 -0.2895965968
C  C8  1  0.81390000  0.67900000  0.88230000  1.0 -0.2895965968
C  C9  1  0.03510000  0.77360000  0.68290000  1.0 0.0989488325
C  C10  1  0.46490000  0.27360000  0.31710000  1.0 0.0989488325
C  C11  1  0.96490000  0.22640000  0.31710000  1.0 0.0989488325
C  C12  1  0.53510000  0.72640000  0.68290000  1.0 0.0989488325
C  C13  1  0.10900000  0.81670000  0.73170000  1.0 -0.1296132003
C  C14  1  0.39100000  0.31670000  0.26830000  1.0 -0.1296132003
C  C15  1  0.89100000  0.18330000  0.26830000  1.0 -0.1296132003
C  C16  1  0.60900000  0.68330000  0.73170000  1.0 -0.1296132003
C  C17  1  0.91870000  0.77480000  0.59460000  1.0 0.0763556379
C  C18  1  0.58130000  0.27480000  0.40540000  1.0 0.0763556379
C  C19  1  0.08130000  0.22520000  0.40540000  1.0 0.0763556379
C  C20  1  0.41870000  0.72520000  0.59460000  1.0 0.0763556379
C  C21  1  0.86460000  0.72760000  0.54450000  1.0 -0.1520600544
C  C22  1  0.63540000  0.22760000  0.45550000  1.0 -0.1520600544
C  C23  1  0.13540000  0.27240000  0.45550000  1.0 -0.1520600544
C  C24  1  0.36460000  0.77240000  0.54450000  1.0 -0.1520600544
C  C25  1  0.75210000  0.73120000  0.46050000  1.0 0.0730235166
C  C26  1  0.74790000  0.23120000  0.53950000  1.0 0.0730235166
C  C27  1  0.24790000  0.26880000  0.53950000  1.0 0.0730235166
C  C28  1  0.25210000  0.76880000  0.46050000  1.0 0.0730235166
C  C29  1  0.68360000  0.68260000  0.41060000  1.0 0.0989488325
C  C30  1  0.81640000  0.18260000  0.58940000  1.0 0.0989488325
C  C31  1  0.31640000  0.31740000  0.58940000  1.0 0.0989488325
C  C32  1  0.18360000  0.81740000  0.41060000  1.0 0.0989488325
C  C33  1  0.58370000  0.67800000  0.32160000  1.0 -0.159657335
C  C34  1  0.91630000  0.17800000  0.67840000  1.0 -0.159657335
C  C35  1  0.41630000  0.32200000  0.67840000  1.0 -0.159657335
C  C36  1  0.08370000  0.82200000  0.32160000  1.0 -0.159657335
C  C37  1  0.69940000  0.78140000  0.42770000  1.0 -0.1877108012
C  C38  1  0.80060000  0.28140000  0.57230000  1.0 -0.1877108012
C  C39  1  0.30060000  0.21860000  0.57230000  1.0 -0.1877108012
C  C40  1  0.19940000  0.71860000  0.42770000  1.0 -0.1877108012
C  C41  1  0.75100000  0.82850000  0.47860000  1.0 0.0763556379
C  C42  1  0.74900000  0.32850000  0.52140000  1.0 0.0763556379
C  C43  1  0.24900000  0.17150000  0.52140000  1.0 0.0763556379
C  C44  1  0.25100000  0.67150000  0.47860000  1.0 0.0763556379
C  C45  1  0.86160000  0.82440000  0.56270000  1.0 -0.1520600544
C  C46  1  0.63840000  0.32440000  0.43730000  1.0 -0.1520600544
C  C47  1  0.13840000  0.17560000  0.43730000  1.0 -0.1520600544
C  C48  1  0.36160000  0.67560000  0.56270000  1.0 -0.1520600544
C  C49  1  0.68960000  0.88050000  0.44600000  1.0 0.088658763
C  C50  1  0.81040000  0.38050000  0.55400000  1.0 0.088658763
C  C51  1  0.31040000  0.11950000  0.55400000  1.0 0.088658763
C  C52  1  0.18960000  0.61950000  0.44600000  1.0 0.088658763
C  C53  1  0.57500000  0.89250000  0.37080000  1.0 -0.1437706855
C  C54  1  0.92500000  0.39250000  0.62920000  1.0 -0.1437706855
C  C55  1  0.42500000  0.10750000  0.62920000  1.0 -0.1437706855
C  C56  1  0.07500000  0.60750000  0.37080000  1.0 -0.1437706855
C  C57  1  0.55960000  0.99185000  0.19910000  1.0 0.6306752916
C  C58  1  0.94040000  0.49185000  0.80090000  1.0 0.6306752916
C  C59  1  0.44040000  0.00815000  0.80090000  1.0 0.6306752916
C  C60  1  0.05960000  0.50815000  0.19910000  1.0 0.6306752916
C  C61  1  0.47050000  0.97960000  0.29900000  1.0 -0.3004684356
C  C62  1  0.02950000  0.47960000  0.70100000  1.0 -0.3004684356
C  C63  1  0.52950000  0.02040000  0.70100000  1.0 -0.3004684356
C  C64  1  0.97050000  0.52040000  0.29900000  1.0 -0.3004684356
C  C65  1  0.55230000  0.57000000  0.15290000  1.0 0.6387903746
C  C66  1  0.94770000  0.07000000  0.84710000  1.0 0.6387903746
C  C67  1  0.44770000  0.43000000  0.84710000  1.0 0.6387903746
C  C68  1  0.05230000  0.93000000  0.15290000  1.0 0.6387903746
C  C69  1  0.45570000  0.59610000  0.23660000  1.0 -0.3004684356
C  C70  1  0.04430000  0.09610000  0.76340000  1.0 -0.3004684356
C  C71  1  0.54430000  0.40390000  0.76340000  1.0 -0.3004684356
C  C72  1  0.95570000  0.90390000  0.23660000  1.0 -0.3004684356
N  N1  1  0.20190000  0.79500000  0.80940000  1.0 0.2075417358
N  N2  1  0.29810000  0.29500000  0.19060000  1.0 0.2075417358
N  N3  1  0.79810000  0.20500000  0.19060000  1.0 0.2075417358
N  N4  1  0.70190000  0.70500000  0.80940000  1.0 0.2075417358
N  N5  1  0.19030000  0.74145000  0.80880000  1.0 -0.1296132003
N  N6  1  0.30970000  0.24145000  0.19120000  1.0 -0.1296132003
N  N7  1  0.80970000  0.25855000  0.19120000  1.0 -0.1296132003
N  N8  1  0.69030000  0.75855000  0.80880000  1.0 -0.1296132003
N  N9  1  0.08890000  0.72837000  0.73230000  1.0 -0.2370170368
N  N10  1  0.41110000  0.22837000  0.26770000  1.0 -0.2370170368
N  N11  1  0.91110000  0.27163000  0.26770000  1.0 -0.2370170368
N  N12  1  0.58890000  0.77163000  0.73230000  1.0 -0.2370170368
N  N13  1  0.70490000  0.63293000  0.45300000  1.0 -0.2370170368
N  N14  1  0.79510000  0.13293000  0.54700000  1.0 -0.2370170368
N  N15  1  0.29510000  0.36707000  0.54700000  1.0 -0.2370170368
N  N16  1  0.20490000  0.86707000  0.45300000  1.0 -0.2370170368
N  N17  1  0.62270000  0.59802000  0.39480000  1.0 -0.0992806126
N  N18  1  0.87730000  0.09802000  0.60520000  1.0 -0.0992806126
N  N19  1  0.37730000  0.40198000  0.60520000  1.0 -0.0992806126
N  N20  1  0.12270000  0.90198000  0.39480000  1.0 -0.0992806126
N  N21  1  0.54940000  0.62563000  0.31660000  1.0 0.2006519231
N  N22  1  0.95060000  0.12563000  0.68340000  1.0 0.2006519231
N  N23  1  0.45060000  0.37437000  0.68340000  1.0 0.2006519231
N  N24  1  0.04940000  0.87437000  0.31660000  1.0 0.2006519231
N  N25  1  0.56140000  0.94556000  0.37240000  1.0 0.2006519231
N  N26  1  0.93860000  0.44556000  0.62760000  1.0 0.2006519231
N  N27  1  0.43860000  0.05444000  0.62760000  1.0 0.2006519231
N  N28  1  0.06140000  0.55444000  0.37240000  1.0 0.2006519231
N  N29  1  0.66190000  0.96805000  0.44440000  1.0 -0.0992806126
N  N30  1  0.83810000  0.46805000  0.55560000  1.0 -0.0992806126
N  N31  1  0.33810000  0.03195000  0.55560000  1.0 -0.0992806126
N  N32  1  0.16190000  0.53195000  0.44440000  1.0 -0.0992806126
N  N33  1  0.73910000  0.92794000  0.48990000  1.0 -0.2345458959
N  N34  1  0.76090000  0.42794000  0.51010000  1.0 -0.2370170368
N  N35  1  0.26090000  0.07206000  0.51010000  1.0 -0.2370170368
N  N36  1  0.23910000  0.57206000  0.48990000  1.0 -0.2370170368
O  O1  1  0.38100000  0.90138000  0.96890000  1.0 -0.5500044768
O  O2  1  0.11900000  0.40138000  0.03110000  1.0 -0.5500044768
O  O3  1  0.61900000  0.09862000  0.03110000  1.0 -0.5500044768
O  O4  1  0.88100000  0.59862000  0.96890000  1.0 -0.5500044768
O  O5  1  0.14270000  0.89650000  0.90820000  1.0 -0.5710390975
O  O6  1  0.35730000  0.39650000  0.09180000  1.0 -0.5710390975
O  O7  1  0.85730000  0.10350000  0.09180000  1.0 -0.5710390975
O  O8  1  0.64270000  0.60350000  0.90820000  1.0 -0.5710390975
O  O9  1  0.70110000  0.99758000  0.20620000  1.0 -0.5710390975
O  O10  1  0.79890000  0.49758000  0.79380000  1.0 -0.5710390975
O  O11  1  0.29890000  0.00242000  0.79380000  1.0 -0.5710390975
O  O12  1  0.20110000  0.50242000  0.20620000  1.0 -0.5710390975
O  O13  1  0.32210000  0.09053000  0.97500000  1.0 -0.1132666587
O  O14  1  0.17790000  0.59053000  0.02500000  1.0 -0.1132666587
O  O15  1  0.67790000  0.90947000  0.02500000  1.0 -0.1171935742
O  O16  1  0.82210000  0.40947000  0.97500000  1.0 -0.1132666587
O  O17  1  0.18620000  0.04678000  0.16580000  1.0 -0.1774228234
O  O18  1  0.31380000  0.54678000  0.83420000  1.0 -0.1774228234
O  O19  1  0.81380000  0.95322000  0.83420000  1.0 -0.1774228234
O  O20  1  0.68620000  0.45322000  0.16580000  1.0 -0.1774228234
O  O21  1  0.48630000  0.99636000  0.10910000  1.0 -0.6077304725
O  O22  1  0.01370000  0.49636000  0.89090000  1.0 -0.6077304725
O  O23  1  0.51370000  0.00364000  0.89090000  1.0 -0.6077304725
O  O24  1  0.98630000  0.50364000  0.10910000  1.0 -0.6077304725
O  O25  1  0.69170000  0.57794000  0.15160000  1.0 -0.5500044768
O  O26  1  0.80830000  0.07794000  0.84840000  1.0 -0.5500044768
O  O27  1  0.30830000  0.42206000  0.84840000  1.0 -0.5500044768
O  O28  1  0.19170000  0.92206000  0.15160000  1.0 -0.5553851669
O  O29  1  0.48360000  0.53884000  0.08380000  1.0 -0.6269559805
O  O30  1  0.01640000  0.03884000  0.91620000  1.0 -0.6269559805
O  O31  1  0.51640000  0.46116000  0.91620000  1.0 -0.6269559805
O  O32  1  0.98360000  0.96116000  0.08380000  1.0 -0.6269559805
