# DDEC6 charges by PACMAN v1.1 (https://github.com/mtap-research/PACMAN-charge/)
data_NISDUS_ASR_pacman
_symmetry_space_group_name_H-M   'P 1'
_cell_length_a   20.52320000
_cell_length_b   20.52320000
_cell_length_c   19.25770000
_cell_angle_alpha   90.00000000
_cell_angle_beta   90.00000000
_cell_angle_gamma   111.81700000
_symmetry_Int_Tables_number   1
_chemical_formula_structural   Zr3H58C65O14
_chemical_formula_sum   'Zr6 H116 C130 O28'
_cell_volume   7530.40421570
_cell_formula_units_Z   2
loop_
 _symmetry_equiv_pos_site_id
 _symmetry_equiv_pos_as_xyz
  1  'x, y, z'
loop_
 _atom_site_type_symbol
 _atom_site_label
 _atom_site_symmetry_multiplicity
 _atom_site_fract_x
 _atom_site_fract_y
 _atom_site_fract_z
 _atom_site_occupancy
 _atom_site_charge
Zr  Zr1  1  0.07194000  0.92806000  0.50000000  1.0 2.3749257178
Zr  Zr2  1  0.92806000  0.07194000  0.50000000  1.0 2.3752294631
Zr  Zr3  1  0.92413000  0.92413000  0.40757000  1.0 2.4438558669
Zr  Zr4  1  0.07587000  0.07587000  0.40757000  1.0 2.4438558669
Zr  Zr5  1  0.07587000  0.07587000  0.59243000  1.0 2.4438558669
Zr  Zr6  1  0.92413000  0.92413000  0.59243000  1.0 2.4438558669
H  H1  1  0.91449000  0.91449000  0.17379000  1.0 0.1290135304
H  H2  1  0.08551000  0.08551000  0.17379000  1.0 0.1290135304
H  H3  1  0.08551000  0.08551000  0.82621000  1.0 0.1290135304
H  H4  1  0.91449000  0.91449000  0.82621000  1.0 0.1290135304
H  H5  1  0.91313000  0.91313000  0.05449000  1.0 0.1078895995
H  H6  1  0.08687000  0.08687000  0.05449000  1.0 0.1078895995
H  H7  1  0.08687000  0.08687000  0.94551000  1.0 0.1078895995
H  H8  1  0.91313000  0.91313000  0.94551000  1.0 0.1078895995
H  H9  1  0.27443000  0.93729000  0.58000000  1.0 0.1290135304
H  H10  1  0.72557000  0.06271000  0.58000000  1.0 0.1290135304
H  H11  1  0.06271000  0.72557000  0.42000000  1.0 0.1290135304
H  H12  1  0.93729000  0.27443000  0.42000000  1.0 0.1290135304
H  H13  1  0.72557000  0.06271000  0.42000000  1.0 0.1290135304
H  H14  1  0.27443000  0.93729000  0.42000000  1.0 0.1290135304
H  H15  1  0.93729000  0.27443000  0.58000000  1.0 0.1290135304
H  H16  1  0.06271000  0.72557000  0.58000000  1.0 0.1290135304
H  H17  1  0.37601000  0.93975000  0.63008000  1.0 0.1194113345
H  H18  1  0.62399000  0.06026000  0.63008000  1.0 0.1194113345
H  H19  1  0.06025000  0.62399000  0.36992000  1.0 0.1194113345
H  H20  1  0.93974000  0.37601000  0.36992000  1.0 0.1194113345
H  H21  1  0.62399000  0.06026000  0.36992000  1.0 0.1194113345
H  H22  1  0.37601000  0.93975000  0.36992000  1.0 0.1194113345
H  H23  1  0.93974000  0.37601000  0.63008000  1.0 0.1194113345
H  H24  1  0.06025000  0.62399000  0.63008000  1.0 0.1194113345
H  H25  1  0.36555000  0.08091000  0.76796000  1.0 0.1290135304
H  H26  1  0.63445000  0.91909000  0.76796000  1.0 0.1290135304
H  H27  1  0.91909000  0.63445000  0.23204000  1.0 0.1290135304
H  H28  1  0.08091000  0.36555000  0.23204000  1.0 0.1290135304
H  H29  1  0.63445000  0.91909000  0.23204000  1.0 0.1290135304
H  H30  1  0.36555000  0.08091000  0.23204000  1.0 0.1290135304
H  H31  1  0.08091000  0.36555000  0.76796000  1.0 0.1290135304
H  H32  1  0.91909000  0.63445000  0.76796000  1.0 0.1290135304
H  H33  1  0.26464000  0.08018000  0.71531000  1.0 0.1194113345
H  H34  1  0.73536000  0.91982000  0.71531000  1.0 0.1194113345
H  H35  1  0.91982000  0.73536000  0.28469000  1.0 0.1194113345
H  H36  1  0.08018000  0.26464000  0.28469000  1.0 0.1194113345
H  H37  1  0.73536000  0.91982000  0.28469000  1.0 0.1194113345
H  H38  1  0.26464000  0.08018000  0.28469000  1.0 0.1194113345
H  H39  1  0.08018000  0.26464000  0.71531000  1.0 0.1194113345
H  H40  1  0.91982000  0.73536000  0.71531000  1.0 0.1194113345
H  H41  1  0.50000000  0.00000000  0.65835000  1.0 0.1290135304
H  H42  1  0.00000000  0.50000000  0.34165000  1.0 0.1290135304
H  H43  1  0.50000000  0.00000000  0.34165000  1.0 0.1290135304
H  H44  1  0.00000000  0.50000000  0.65835000  1.0 0.1290135304
H  H45  1  0.40635000  0.00875000  0.83902000  1.0 0.1398151369
H  H46  1  0.59365000  0.99125000  0.83902000  1.0 0.1398151369
H  H47  1  0.99125000  0.59365000  0.16098000  1.0 0.1398151369
H  H48  1  0.00875000  0.40635000  0.16098000  1.0 0.1398151369
H  H49  1  0.59365000  0.99125000  0.16098000  1.0 0.1398151369
H  H50  1  0.40635000  0.00875000  0.16098000  1.0 0.1398151369
H  H51  1  0.00875000  0.40635000  0.83902000  1.0 0.1398151369
H  H52  1  0.99125000  0.59365000  0.83902000  1.0 0.1398151369
H  H53  1  0.43301000  0.11173000  0.93971000  1.0 0.1003043713
H  H54  1  0.56699000  0.88827000  0.93971000  1.0 0.1003043713
H  H55  1  0.88827000  0.56699000  0.06029000  1.0 0.1003043713
H  H56  1  0.11173000  0.43301000  0.06029000  1.0 0.1003043713
H  H57  1  0.56699000  0.88827000  0.06029000  1.0 0.1003043713
H  H58  1  0.43301000  0.11173000  0.06029000  1.0 0.1003043713
H  H59  1  0.11173000  0.43301000  0.93971000  1.0 0.1003043713
H  H60  1  0.88827000  0.56699000  0.93971000  1.0 0.1003043713
H  H61  1  0.50949000  0.15787000  0.96304000  1.0 0.0883710781
H  H62  1  0.49051000  0.84213000  0.96304000  1.0 0.0883710781
H  H63  1  0.84213000  0.49051000  0.03696000  1.0 0.0883710781
H  H64  1  0.15787000  0.50949000  0.03696000  1.0 0.0883710781
H  H65  1  0.49051000  0.84213000  0.03696000  1.0 0.0883710781
H  H66  1  0.50949000  0.15787000  0.03696000  1.0 0.0883710781
H  H67  1  0.15787000  0.50949000  0.96304000  1.0 0.0883710781
H  H68  1  0.84213000  0.49051000  0.96304000  1.0 0.0883710781
H  H69  1  0.49600000  0.12482000  0.88850000  1.0 0.1003043713
H  H70  1  0.50400000  0.87518000  0.88850000  1.0 0.1003043713
H  H71  1  0.87518000  0.50400000  0.11150000  1.0 0.1003043713
H  H72  1  0.12482000  0.49600000  0.11150000  1.0 0.1003043713
H  H73  1  0.50400000  0.87518000  0.11150000  1.0 0.1003043713
H  H74  1  0.49600000  0.12482000  0.11150000  1.0 0.1003043713
H  H75  1  0.12482000  0.49600000  0.88850000  1.0 0.1003043713
H  H76  1  0.87518000  0.50400000  0.88850000  1.0 0.1003043713
H  H77  1  0.66023000  0.09749000  0.93976000  1.0 0.1078895995
H  H78  1  0.33977000  0.90251000  0.93976000  1.0 0.1078895995
H  H79  1  0.90251000  0.33977000  0.06024000  1.0 0.1078895995
H  H80  1  0.09749000  0.66023000  0.06024000  1.0 0.1078895995
H  H81  1  0.33977000  0.90251000  0.06024000  1.0 0.1078895995
H  H82  1  0.66023000  0.09749000  0.06024000  1.0 0.1078895995
H  H83  1  0.09749000  0.66023000  0.93976000  1.0 0.1078895995
H  H84  1  0.90251000  0.33977000  0.93976000  1.0 0.1078895995
H  H85  1  0.61194000  0.11650000  0.88691000  1.0 0.1003043713
H  H86  1  0.38806000  0.88350000  0.88691000  1.0 0.1003043713
H  H87  1  0.88350000  0.38806000  0.11309000  1.0 0.1003043713
H  H88  1  0.11650000  0.61194000  0.11309000  1.0 0.1003043713
H  H89  1  0.38806000  0.88350000  0.11309000  1.0 0.1003043713
H  H90  1  0.61194000  0.11650000  0.11309000  1.0 0.1003043713
H  H91  1  0.11650000  0.61194000  0.88691000  1.0 0.1003043713
H  H92  1  0.88350000  0.38806000  0.88691000  1.0 0.1003043713
H  H93  1  0.62634000  0.15174000  0.96046000  1.0 0.1003043713
H  H94  1  0.37366000  0.84826000  0.96046000  1.0 0.1003043713
H  H95  1  0.84826000  0.37366000  0.03954000  1.0 0.1003043713
H  H96  1  0.15174000  0.62634000  0.03954000  1.0 0.1003043713
H  H97  1  0.37366000  0.84826000  0.03954000  1.0 0.1003043713
H  H98  1  0.62634000  0.15174000  0.03954000  1.0 0.1003043713
H  H99  1  0.15174000  0.62634000  0.96046000  1.0 0.1003043713
H  H100  1  0.84826000  0.37366000  0.96046000  1.0 0.1003043713
H  H101  1  0.59339000  0.08371000  0.93918000  1.0 0.0515223803
H  H102  1  0.40661000  0.91629000  0.93918000  1.0 0.0515223803
H  H103  1  0.91629000  0.40661000  0.06082000  1.0 0.0515223803
H  H104  1  0.08371000  0.59339000  0.06082000  1.0 0.0515223803
H  H105  1  0.40661000  0.91629000  0.06082000  1.0 0.0515223803
H  H106  1  0.59339000  0.08371000  0.06082000  1.0 0.0515223803
H  H107  1  0.08371000  0.59339000  0.93918000  1.0 0.0515223803
H  H108  1  0.91629000  0.40661000  0.93918000  1.0 0.0515223803
H  H109  1  0.48384000  0.08968000  0.93969000  1.0 0.0515223803
H  H110  1  0.51616000  0.91032000  0.93969000  1.0 0.0515223803
H  H111  1  0.91032000  0.51616000  0.06031000  1.0 0.0515223803
H  H112  1  0.08968000  0.48384000  0.06031000  1.0 0.0515223803
H  H113  1  0.51616000  0.91032000  0.06031000  1.0 0.0515223803
H  H114  1  0.48384000  0.08968000  0.06031000  1.0 0.0515223803
H  H115  1  0.08968000  0.48384000  0.93969000  1.0 0.0515223803
H  H116  1  0.91032000  0.51616000  0.93969000  1.0 0.0515223803
C  C1  1  0.00000000  0.00000000  0.26230000  1.0 0.6360286564
C  C2  1  0.00000000  0.00000000  0.73770000  1.0 0.6360286564
C  C3  1  0.00000000  0.00000000  0.18750000  1.0 -0.0830062536
C  C4  1  0.00000000  0.00000000  0.81250000  1.0 -0.0830062536
C  C5  1  0.94970000  0.94970000  0.15000000  1.0 -0.0830062536
C  C6  1  0.05030000  0.05030000  0.15000000  1.0 -0.0830062536
C  C7  1  0.05030000  0.05030000  0.85000000  1.0 -0.0830062536
C  C8  1  0.94970000  0.94970000  0.85000000  1.0 -0.0830062536
C  C9  1  0.94870000  0.94870000  0.07750000  1.0 -0.1607142388
C  C10  1  0.05130000  0.05130000  0.07750000  1.0 -0.1607142388
C  C11  1  0.05130000  0.05130000  0.92250000  1.0 -0.1607142388
C  C12  1  0.94870000  0.94870000  0.92250000  1.0 -0.1607142388
C  C13  1  0.00000000  0.00000000  0.03900000  1.0 0.0740189218
C  C14  1  0.00000000  0.00000000  0.96100000  1.0 0.0740189218
C  C15  1  0.19049000  0.00305000  0.61196000  1.0 0.6360286564
C  C16  1  0.80951000  0.99695000  0.61196000  1.0 0.6360286564
C  C17  1  0.99695000  0.80951000  0.38804000  1.0 0.6360286564
C  C18  1  0.00305000  0.19049000  0.38804000  1.0 0.6360286564
C  C19  1  0.80951000  0.99695000  0.38804000  1.0 0.6360286564
C  C20  1  0.19049000  0.00305000  0.38804000  1.0 0.6360286564
C  C21  1  0.00305000  0.19049000  0.61196000  1.0 0.6360286564
C  C22  1  0.99695000  0.80951000  0.61196000  1.0 0.6360286564
C  C23  1  0.25812000  0.00714000  0.64366000  1.0 -0.0490473038
C  C24  1  0.74188000  0.99286000  0.64366000  1.0 -0.0490473038
C  C25  1  0.99286000  0.74188000  0.35634000  1.0 -0.0490473038
C  C26  1  0.00714000  0.25812000  0.35634000  1.0 -0.0490473038
C  C27  1  0.74188000  0.99286000  0.35634000  1.0 -0.0490473038
C  C28  1  0.25812000  0.00714000  0.35634000  1.0 -0.0490473038
C  C29  1  0.00714000  0.25812000  0.64366000  1.0 -0.0490473038
C  C30  1  0.99286000  0.74188000  0.64366000  1.0 -0.0490473038
C  C31  1  0.29254000  0.96606000  0.61820000  1.0 -0.0858432277
C  C32  1  0.70746000  0.03394000  0.61820000  1.0 -0.0858432277
C  C33  1  0.03394000  0.70746000  0.38180000  1.0 -0.0858432277
C  C34  1  0.96606000  0.29254000  0.38180000  1.0 -0.0858432277
C  C35  1  0.70746000  0.03394000  0.38180000  1.0 -0.0858432277
C  C36  1  0.29254000  0.96606000  0.38180000  1.0 -0.0858432277
C  C37  1  0.96606000  0.29254000  0.61820000  1.0 -0.0858432277
C  C38  1  0.03394000  0.70746000  0.61820000  1.0 -0.0858432277
C  C39  1  0.35297000  0.96723000  0.64840000  1.0 -0.1488056824
C  C40  1  0.64703000  0.03277000  0.64840000  1.0 -0.1488056824
C  C41  1  0.03277000  0.64703000  0.35160000  1.0 -0.1488056824
C  C42  1  0.96723000  0.35297000  0.35160000  1.0 -0.1488056824
C  C43  1  0.64703000  0.03277000  0.35160000  1.0 -0.1488056824
C  C44  1  0.35297000  0.96723000  0.35160000  1.0 -0.1488056824
C  C45  1  0.96723000  0.35297000  0.64840000  1.0 -0.1488056824
C  C46  1  0.03277000  0.64703000  0.64840000  1.0 -0.1488056824
C  C47  1  0.38024000  0.00816000  0.70560000  1.0 0.0781489723
C  C48  1  0.61976000  0.99184000  0.70560000  1.0 0.0781489723
C  C49  1  0.99184000  0.61976000  0.29440000  1.0 0.0781489723
C  C50  1  0.00816000  0.38024000  0.29440000  1.0 0.0781489723
C  C51  1  0.61976000  0.99184000  0.29440000  1.0 0.0781489723
C  C52  1  0.38024000  0.00816000  0.29440000  1.0 0.0781489723
C  C53  1  0.00816000  0.38024000  0.70560000  1.0 0.0781489723
C  C54  1  0.99184000  0.61976000  0.70560000  1.0 0.0781489723
C  C55  1  0.34692000  0.05148000  0.73030000  1.0 -0.1488056824
C  C56  1  0.65308000  0.94852000  0.73030000  1.0 -0.1488056824
C  C57  1  0.94852000  0.65308000  0.26970000  1.0 -0.1488056824
C  C58  1  0.05148000  0.34692000  0.26970000  1.0 -0.1488056824
C  C59  1  0.65308000  0.94852000  0.26970000  1.0 -0.1488056824
C  C60  1  0.34692000  0.05148000  0.26970000  1.0 -0.1488056824
C  C61  1  0.05148000  0.34692000  0.73030000  1.0 -0.1488056824
C  C62  1  0.94852000  0.65308000  0.73030000  1.0 -0.1488056824
C  C63  1  0.28655000  0.05085000  0.69890000  1.0 -0.0830062536
C  C64  1  0.71345000  0.94915000  0.69890000  1.0 -0.0830062536
C  C65  1  0.94915000  0.71345000  0.30110000  1.0 -0.0830062536
C  C66  1  0.05085000  0.28655000  0.30110000  1.0 -0.0830062536
C  C67  1  0.71345000  0.94915000  0.30110000  1.0 -0.0830062536
C  C68  1  0.28655000  0.05085000  0.30110000  1.0 -0.0830062536
C  C69  1  0.05085000  0.28655000  0.69890000  1.0 -0.0830062536
C  C70  1  0.94915000  0.71345000  0.69890000  1.0 -0.0830062536
C  C71  1  0.44329000  0.00591000  0.74280000  1.0 0.0883710781
C  C72  1  0.55671000  0.99409000  0.74280000  1.0 0.0883710781
C  C73  1  0.99409000  0.55671000  0.25720000  1.0 0.0883710781
C  C74  1  0.00591000  0.44329000  0.25720000  1.0 0.0883710781
C  C75  1  0.55671000  0.99409000  0.25720000  1.0 0.0883710781
C  C76  1  0.44329000  0.00591000  0.25720000  1.0 0.0883710781
C  C77  1  0.00591000  0.44329000  0.74280000  1.0 0.0883710781
C  C78  1  0.99409000  0.55671000  0.74280000  1.0 0.0883710781
C  C79  1  0.50000000  0.00000000  0.70660000  1.0 -0.1934980302
C  C80  1  0.00000000  0.50000000  0.29340000  1.0 -0.1934980302
C  C81  1  0.50000000  0.00000000  0.29340000  1.0 -0.1934980302
C  C82  1  0.00000000  0.50000000  0.70660000  1.0 -0.1934980302
C  C83  1  0.44416000  0.00544000  0.81470000  1.0 -0.2478258311
C  C84  1  0.55584000  0.99456000  0.81470000  1.0 -0.2478258311
C  C85  1  0.99456000  0.55584000  0.18530000  1.0 -0.2478258311
C  C86  1  0.00544000  0.44416000  0.18530000  1.0 -0.2478258311
C  C87  1  0.55584000  0.99456000  0.18530000  1.0 -0.2478258311
C  C88  1  0.44416000  0.00544000  0.18530000  1.0 -0.2478258311
C  C89  1  0.00544000  0.44416000  0.81470000  1.0 -0.2478258311
C  C90  1  0.99456000  0.55584000  0.81470000  1.0 -0.2478258311
C  C91  1  0.50000000  0.00000000  0.85100000  1.0 0.0179852695
C  C92  1  0.00000000  0.50000000  0.14900000  1.0 0.0179852695
C  C93  1  0.50000000  0.00000000  0.14900000  1.0 0.0179852695
C  C94  1  0.00000000  0.50000000  0.85100000  1.0 0.0179852695
C  C95  1  0.50000000  0.00000000  0.92760000  1.0 -0.0155751192
C  C96  1  0.00000000  0.50000000  0.07240000  1.0 -0.0095525164
C  C97  1  0.50000000  0.00000000  0.07240000  1.0 -0.0095525164
C  C98  1  0.00000000  0.50000000  0.92760000  1.0 -0.0155751192
C  C99  1  0.49150000  0.05230000  0.96400000  1.0 -0.0095525164
C  C100  1  0.50850000  0.94770000  0.96400000  1.0 -0.0095525164
C  C101  1  0.94770000  0.50850000  0.03600000  1.0 -0.0095525164
C  C102  1  0.05230000  0.49150000  0.03600000  1.0 -0.0095525164
C  C103  1  0.50850000  0.94770000  0.03600000  1.0 -0.0095525164
C  C104  1  0.49150000  0.05230000  0.03600000  1.0 -0.0095525164
C  C105  1  0.05230000  0.49150000  0.96400000  1.0 -0.0095525164
C  C106  1  0.94770000  0.50850000  0.96400000  1.0 -0.0095525164
C  C107  1  0.48160000  0.11780000  0.93620000  1.0 -0.3371587693
C  C108  1  0.51840000  0.88220000  0.93620000  1.0 -0.3371587693
C  C109  1  0.88220000  0.51840000  0.06380000  1.0 -0.3371587693
C  C110  1  0.11780000  0.48160000  0.06380000  1.0 -0.3371587693
C  C111  1  0.51840000  0.88220000  0.06380000  1.0 -0.3371587693
C  C112  1  0.48160000  0.11780000  0.06380000  1.0 -0.3371587693
C  C113  1  0.11780000  0.48160000  0.93620000  1.0 -0.3371587693
C  C114  1  0.88220000  0.51840000  0.93620000  1.0 -0.3371587693
C  C115  1  0.55530000  0.04970000  0.96390000  1.0 0.0030085967
C  C116  1  0.44470000  0.95030000  0.96390000  1.0 0.0030085967
C  C117  1  0.95030000  0.44470000  0.03610000  1.0 0.0030085967
C  C118  1  0.04970000  0.55530000  0.03610000  1.0 0.0030085967
C  C119  1  0.44470000  0.95030000  0.03610000  1.0 0.0030085967
C  C120  1  0.55530000  0.04970000  0.03610000  1.0 0.0030085967
C  C121  1  0.04970000  0.55530000  0.96390000  1.0 0.0030085967
C  C122  1  0.95030000  0.44470000  0.96390000  1.0 0.0030085967
C  C123  1  0.61940000  0.10940000  0.93510000  1.0 -0.3556999861
C  C124  1  0.38060000  0.89060000  0.93510000  1.0 -0.3556999861
C  C125  1  0.89060000  0.38060000  0.06490000  1.0 -0.3556999861
C  C126  1  0.10940000  0.61940000  0.06490000  1.0 -0.3556999861
C  C127  1  0.38060000  0.89060000  0.06490000  1.0 -0.3556999861
C  C128  1  0.61940000  0.10940000  0.06490000  1.0 -0.3556999861
C  C129  1  0.10940000  0.61940000  0.93510000  1.0 -0.3556999861
C  C130  1  0.89060000  0.38060000  0.93510000  1.0 -0.3556999861
O  O1  1  0.95795000  0.88745000  0.50000000  1.0 -1.1485934108
O  O2  1  0.04205000  0.11255000  0.50000000  1.0 -1.1485934108
O  O3  1  0.11255000  0.04205000  0.50000000  1.0 -1.1485934108
O  O4  1  0.88745000  0.95795000  0.50000000  1.0 -1.1485934108
O  O5  1  0.03534000  0.96466000  0.41040000  1.0 -1.1106472164
O  O6  1  0.96466000  0.03534000  0.41040000  1.0 -1.1106472164
O  O7  1  0.03534000  0.96466000  0.58960000  1.0 -1.1106472164
O  O8  1  0.96466000  0.03534000  0.58960000  1.0 -1.1106472164
O  O9  1  0.94904000  0.94904000  0.29463000  1.0 -0.6303873806
O  O10  1  0.05096000  0.05096000  0.29463000  1.0 -0.6303873806
O  O11  1  0.05096000  0.05096000  0.70537000  1.0 -0.6303873806
O  O12  1  0.94904000  0.94904000  0.70537000  1.0 -0.6303873806
O  O13  1  0.16298000  0.95424000  0.56916000  1.0 -0.5736069678
O  O14  1  0.83702000  0.04576000  0.56916000  1.0 -0.5736069678
O  O15  1  0.04576000  0.83702000  0.43084000  1.0 -0.5736069678
O  O16  1  0.95424000  0.16298000  0.43084000  1.0 -0.5736069678
O  O17  1  0.83702000  0.04576000  0.43084000  1.0 -0.5736069678
O  O18  1  0.16298000  0.95424000  0.43084000  1.0 -0.5736069678
O  O19  1  0.95424000  0.16298000  0.56916000  1.0 -0.5736069678
O  O20  1  0.04576000  0.83702000  0.56916000  1.0 -0.5736069678
O  O21  1  0.16581000  0.04851000  0.63085000  1.0 -0.5980963259
O  O22  1  0.83419000  0.95149000  0.63085000  1.0 -0.5980963259
O  O23  1  0.95149000  0.83419000  0.36915000  1.0 -0.5980963259
O  O24  1  0.04851000  0.16581000  0.36915000  1.0 -0.5980963259
O  O25  1  0.83419000  0.95149000  0.36915000  1.0 -0.5980963259
O  O26  1  0.16581000  0.04851000  0.36915000  1.0 -0.5980963259
O  O27  1  0.04851000  0.16581000  0.63085000  1.0 -0.5980963259
O  O28  1  0.95149000  0.83419000  0.63085000  1.0 -0.5980963259
