# DDEC6 charges by PACMAN v1.1 (https://github.com/mtap-research/PACMAN-charge/)
data_NISDIG_ASR_pacman
_symmetry_space_group_name_H-M   'P 1'
_cell_length_a   20.30320000
_cell_length_b   20.30320000
_cell_length_c   19.93500000
_cell_angle_alpha   90.00000000
_cell_angle_beta   90.00000000
_cell_angle_gamma   112.41400000
_symmetry_Int_Tables_number   1
_chemical_formula_structural   Zr3H38(C25O6)2
_chemical_formula_sum   'Zr6 H76 C100 O24'
_cell_volume   7596.78807692
_cell_formula_units_Z   2
loop_
 _symmetry_equiv_pos_site_id
 _symmetry_equiv_pos_as_xyz
  1  'x, y, z'
loop_
 _atom_site_type_symbol
 _atom_site_label
 _atom_site_symmetry_multiplicity
 _atom_site_fract_x
 _atom_site_fract_y
 _atom_site_fract_z
 _atom_site_occupancy
 _atom_site_charge
Zr  Zr1  1  0.07808000  0.07808000  0.41137000  1.0 2.4606329058
Zr  Zr2  1  0.07808000  0.07808000  0.58863000  1.0 2.4606329058
Zr  Zr3  1  0.92192000  0.92192000  0.58863000  1.0 2.4606329058
Zr  Zr4  1  0.92192000  0.92192000  0.41137000  1.0 2.4606329058
Zr  Zr5  1  0.92716000  0.07284000  0.50000000  1.0 2.3596182321
Zr  Zr6  1  0.07284000  0.92716000  0.50000000  1.0 2.3596182321
H  H1  1  0.07625000  0.26119000  0.28587000  1.0 0.0980909942
H  H2  1  0.26119000  0.07625000  0.71413000  1.0 0.0980909942
H  H3  1  0.73881000  0.92375000  0.71413000  1.0 0.0980909942
H  H4  1  0.92375000  0.73881000  0.28587000  1.0 0.0980909942
H  H5  1  0.92375000  0.73881000  0.71413000  1.0 0.0980909942
H  H6  1  0.73881000  0.92375000  0.28587000  1.0 0.0980909942
H  H7  1  0.26119000  0.07625000  0.28587000  1.0 0.0980909942
H  H8  1  0.07625000  0.26119000  0.71413000  1.0 0.0980909942
H  H9  1  0.07455000  0.35903000  0.22828000  1.0 0.1241294141
H  H10  1  0.35903000  0.07455000  0.77172000  1.0 0.1241294141
H  H11  1  0.64097000  0.92545000  0.77172000  1.0 0.1241294141
H  H12  1  0.92545000  0.64097000  0.22828000  1.0 0.1241294141
H  H13  1  0.92545000  0.64097000  0.77172000  1.0 0.1241294141
H  H14  1  0.64097000  0.92545000  0.22828000  1.0 0.1241294141
H  H15  1  0.35903000  0.07455000  0.22828000  1.0 0.1241294141
H  H16  1  0.07455000  0.35903000  0.77172000  1.0 0.1241294141
H  H17  1  0.93438000  0.37720000  0.35946000  1.0 0.1106672714
H  H18  1  0.37721000  0.93438000  0.64054000  1.0 0.1106672714
H  H19  1  0.62279000  0.06562000  0.64054000  1.0 0.1106672714
H  H20  1  0.06562000  0.62279000  0.35946000  1.0 0.1106672714
H  H21  1  0.06562000  0.62279000  0.64054000  1.0 0.1106672714
H  H22  1  0.62279000  0.06562000  0.35946000  1.0 0.1106672714
H  H23  1  0.37721000  0.93438000  0.35946000  1.0 0.1106672714
H  H24  1  0.93438000  0.37720000  0.64054000  1.0 0.1106672714
H  H25  1  0.93235000  0.27663000  0.41430000  1.0 0.1241294141
H  H26  1  0.27663000  0.93235000  0.58570000  1.0 0.1241294141
H  H27  1  0.72337000  0.06765000  0.58570000  1.0 0.1241294141
H  H28  1  0.06765000  0.72337000  0.41430000  1.0 0.1241294141
H  H29  1  0.06765000  0.72337000  0.58570000  1.0 0.1241294141
H  H30  1  0.72337000  0.06765000  0.41430000  1.0 0.1241294141
H  H31  1  0.27663000  0.93235000  0.41430000  1.0 0.1241294141
H  H32  1  0.93235000  0.27663000  0.58570000  1.0 0.1241294141
H  H33  1  0.00000000  0.50000000  0.33093000  1.0 0.1106672714
H  H34  1  0.50000000  0.00000000  0.66907000  1.0 0.1106672714
H  H35  1  0.00000000  0.50000000  0.66907000  1.0 0.1106672714
H  H36  1  0.50000000  0.00000000  0.33093000  1.0 0.1106672714
H  H37  1  0.00365000  0.40291000  0.15651000  1.0 0.1446732202
H  H38  1  0.40291000  0.00365000  0.84349000  1.0 0.1457369481
H  H39  1  0.59709000  0.99635000  0.84349000  1.0 0.1446732202
H  H40  1  0.99635000  0.59709000  0.15651000  1.0 0.1446732202
H  H41  1  0.99635000  0.59709000  0.84349000  1.0 0.1446732202
H  H42  1  0.59709000  0.99635000  0.15651000  1.0 0.1446732202
H  H43  1  0.40291000  0.00365000  0.15651000  1.0 0.1446732202
H  H44  1  0.00365000  0.40291000  0.84349000  1.0 0.1446732202
H  H45  1  0.85822000  0.35018000  0.02611000  1.0 0.0714819356
H  H46  1  0.35018000  0.85822000  0.97389000  1.0 0.0714819356
H  H47  1  0.64982000  0.14178000  0.97389000  1.0 0.0714819356
H  H48  1  0.14178000  0.64982000  0.02611000  1.0 0.0714819356
H  H49  1  0.14178000  0.64982000  0.97389000  1.0 0.0714819356
H  H50  1  0.64982000  0.14178000  0.02611000  1.0 0.0714819356
H  H51  1  0.35018000  0.85822000  0.02611000  1.0 0.0714819356
H  H52  1  0.85822000  0.35018000  0.97389000  1.0 0.0714819356
H  H53  1  0.89987000  0.35290000  0.09295000  1.0 0.0803613702
H  H54  1  0.35291000  0.89987000  0.90705000  1.0 0.0879270333
H  H55  1  0.64709000  0.10013000  0.90705000  1.0 0.0803613702
H  H56  1  0.10013000  0.64709000  0.09295000  1.0 0.0803613702
H  H57  1  0.10013000  0.64709000  0.90705000  1.0 0.0803613702
H  H58  1  0.64709000  0.10013000  0.09295000  1.0 0.0879270333
H  H59  1  0.35291000  0.89987000  0.09295000  1.0 0.0803613702
H  H60  1  0.89987000  0.35290000  0.90705000  1.0 0.0879270333
H  H61  1  0.85330000  0.39882000  0.08540000  1.0 0.0980909942
H  H62  1  0.39882000  0.85330000  0.91460000  1.0 0.0980909942
H  H63  1  0.60118000  0.14670000  0.91460000  1.0 0.0980909942
H  H64  1  0.14670000  0.60118000  0.08540000  1.0 0.0980909942
H  H65  1  0.14670000  0.60118000  0.91460000  1.0 0.0980909942
H  H66  1  0.60118000  0.14670000  0.08540000  1.0 0.0980909942
H  H67  1  0.39882000  0.85330000  0.08540000  1.0 0.0980909942
H  H68  1  0.85330000  0.39882000  0.91460000  1.0 0.0980909942
H  H69  1  0.90954000  0.40760000  0.06892000  1.0 0.0063058285
H  H70  1  0.40760000  0.90954000  0.93108000  1.0 0.0063058285
H  H71  1  0.59240000  0.09046000  0.93108000  1.0 0.0063058285
H  H72  1  0.09046000  0.59240000  0.06892000  1.0 0.0063058285
H  H73  1  0.09046000  0.59240000  0.93108000  1.0 0.0063058285
H  H74  1  0.59240000  0.09046000  0.06892000  1.0 0.0063058285
H  H75  1  0.40760000  0.90954000  0.06892000  1.0 0.0063058285
H  H76  1  0.90954000  0.40760000  0.93108000  1.0 0.0063058285
C  C1  1  0.00259000  0.19293000  0.39107000  1.0 0.6298982207
C  C2  1  0.19293000  0.00259000  0.60893000  1.0 0.6298982207
C  C3  1  0.80707000  0.99741000  0.60893000  1.0 0.6298982207
C  C4  1  0.99741000  0.80707000  0.39107000  1.0 0.6298982207
C  C5  1  0.99741000  0.80707000  0.60893000  1.0 0.6298982207
C  C6  1  0.80707000  0.99741000  0.39107000  1.0 0.6298982207
C  C7  1  0.19293000  0.00259000  0.39107000  1.0 0.6298982207
C  C8  1  0.00259000  0.19293000  0.60893000  1.0 0.6298982207
C  C9  1  0.00378000  0.25848000  0.35513000  1.0 -0.0462472597
C  C10  1  0.25848000  0.00378000  0.64487000  1.0 -0.0462472597
C  C11  1  0.74152000  0.99622000  0.64487000  1.0 -0.0462472597
C  C12  1  0.99622000  0.74152000  0.35513000  1.0 -0.0462472597
C  C13  1  0.99622000  0.74152000  0.64487000  1.0 -0.0462472597
C  C14  1  0.74152000  0.99622000  0.35513000  1.0 -0.0462472597
C  C15  1  0.25848000  0.00378000  0.35513000  1.0 -0.0462472597
C  C16  1  0.00378000  0.25848000  0.64487000  1.0 -0.0462472597
C  C17  1  0.04660000  0.28378000  0.30020000  1.0 -0.0923471036
C  C18  1  0.28378000  0.04660000  0.69980000  1.0 -0.0923471036
C  C19  1  0.71622000  0.95340000  0.69980000  1.0 -0.0923471036
C  C20  1  0.95340000  0.71622000  0.30020000  1.0 -0.0923471036
C  C21  1  0.95340000  0.71622000  0.69980000  1.0 -0.0923471036
C  C22  1  0.71622000  0.95340000  0.30020000  1.0 -0.0923471036
C  C23  1  0.28378000  0.04660000  0.30020000  1.0 -0.0923471036
C  C24  1  0.04660000  0.28378000  0.69980000  1.0 -0.0923471036
C  C25  1  0.04593000  0.34281000  0.26598000  1.0 -0.1445934507
C  C26  1  0.34281000  0.04593000  0.73402000  1.0 -0.1445934507
C  C27  1  0.65719000  0.95407000  0.73402000  1.0 -0.1445934507
C  C28  1  0.95407000  0.65719000  0.26598000  1.0 -0.1445934507
C  C29  1  0.95407000  0.65719000  0.73402000  1.0 -0.1445934507
C  C30  1  0.65719000  0.95407000  0.26598000  1.0 -0.1445934507
C  C31  1  0.34281000  0.04593000  0.26598000  1.0 -0.1445934507
C  C32  1  0.04593000  0.34281000  0.73402000  1.0 -0.1445934507
C  C33  1  0.00328000  0.37794000  0.28711000  1.0 0.0714819356
C  C34  1  0.37794000  0.00328000  0.71289000  1.0 0.0714819356
C  C35  1  0.62206000  0.99672000  0.71289000  1.0 0.0714819356
C  C36  1  0.99672000  0.62206000  0.28711000  1.0 0.0714819356
C  C37  1  0.99672000  0.62206000  0.71289000  1.0 0.0714819356
C  C38  1  0.62206000  0.99672000  0.28711000  1.0 0.0714819356
C  C39  1  0.37794000  0.00328000  0.28711000  1.0 0.0714819356
C  C40  1  0.00328000  0.37794000  0.71289000  1.0 0.0714819356
C  C41  1  0.96215000  0.35321000  0.34357000  1.0 -0.1528516072
C  C42  1  0.35321000  0.96215000  0.65643000  1.0 -0.1528516072
C  C43  1  0.64679000  0.03785000  0.65643000  1.0 -0.1528516072
C  C44  1  0.03785000  0.64679000  0.34357000  1.0 -0.1528516072
C  C45  1  0.03785000  0.64679000  0.65643000  1.0 -0.1528516072
C  C46  1  0.64679000  0.03785000  0.34357000  1.0 -0.1528516072
C  C47  1  0.35321000  0.96215000  0.34357000  1.0 -0.1528516072
C  C48  1  0.96215000  0.35321000  0.65643000  1.0 -0.1528516072
C  C49  1  0.96145000  0.29337000  0.37698000  1.0 -0.0985997091
C  C50  1  0.29337000  0.96145000  0.62302000  1.0 -0.0985997091
C  C51  1  0.70663000  0.03855000  0.62302000  1.0 -0.0985997091
C  C52  1  0.03855000  0.70663000  0.37698000  1.0 -0.0985997091
C  C53  1  0.03855000  0.70663000  0.62302000  1.0 -0.0985997091
C  C54  1  0.70663000  0.03855000  0.37698000  1.0 -0.0985997091
C  C55  1  0.29337000  0.96145000  0.37698000  1.0 -0.0985997091
C  C56  1  0.96145000  0.29337000  0.62302000  1.0 -0.0985997091
C  C57  1  0.00247000  0.44163000  0.24985000  1.0 0.0803613702
C  C58  1  0.44163000  0.00247000  0.75015000  1.0 0.0803613702
C  C59  1  0.55837000  0.99753000  0.75015000  1.0 0.0803613702
C  C60  1  0.99753000  0.55837000  0.24985000  1.0 0.0803613702
C  C61  1  0.99753000  0.55837000  0.75015000  1.0 0.0803613702
C  C62  1  0.55837000  0.99753000  0.24985000  1.0 0.0803613702
C  C63  1  0.44163000  0.00247000  0.24985000  1.0 0.0803613702
C  C64  1  0.00247000  0.44163000  0.75015000  1.0 0.0803613702
C  C65  1  0.00000000  0.50000000  0.28428000  1.0 -0.1966591771
C  C66  1  0.50000000  0.00000000  0.71572000  1.0 -0.1966591771
C  C67  1  0.00000000  0.50000000  0.71572000  1.0 -0.1966591771
C  C68  1  0.50000000  0.00000000  0.28428000  1.0 -0.1966591771
C  C69  1  0.00226000  0.44198000  0.17991000  1.0 -0.218250751
C  C70  1  0.44198000  0.00226000  0.82009000  1.0 -0.218250751
C  C71  1  0.55802000  0.99774000  0.82009000  1.0 -0.218250751
C  C72  1  0.99774000  0.55802000  0.17991000  1.0 -0.218250751
C  C73  1  0.99774000  0.55802000  0.82009000  1.0 -0.218250751
C  C74  1  0.55802000  0.99774000  0.17991000  1.0 -0.218250751
C  C75  1  0.44198000  0.00226000  0.17991000  1.0 -0.218250751
C  C76  1  0.00226000  0.44198000  0.82009000  1.0 -0.218250751
C  C77  1  0.00000000  0.50000000  0.14504000  1.0 0.0879270333
C  C78  1  0.50000000  0.00000000  0.85496000  1.0 0.0879270333
C  C79  1  0.00000000  0.50000000  0.85496000  1.0 0.0879270333
C  C80  1  0.50000000  0.00000000  0.14504000  1.0 0.0879270333
C  C81  1  0.00000000  0.50000000  0.06970000  1.0 -0.1223839312
C  C82  1  0.50000000  0.00000000  0.93030000  1.0 -0.1223839312
C  C83  1  0.00000000  0.50000000  0.93030000  1.0 -0.1223839312
C  C84  1  0.50000000  0.00000000  0.06970000  1.0 -0.1223839312
C  C85  1  0.94917000  0.44603000  0.03472000  1.0 -0.0073555272
C  C86  1  0.44603000  0.94917000  0.96528000  1.0 -0.0073555272
C  C87  1  0.55397000  0.05083000  0.96528000  1.0 -0.0073555272
C  C88  1  0.05083000  0.55397000  0.03472000  1.0 -0.0073555272
C  C89  1  0.05083000  0.55397000  0.96528000  1.0 -0.0073555272
C  C90  1  0.55397000  0.05083000  0.03472000  1.0 -0.0073555272
C  C91  1  0.44603000  0.94917000  0.03472000  1.0 -0.0073555272
C  C92  1  0.94917000  0.44603000  0.96528000  1.0 -0.0073555272
C  C93  1  0.88400000  0.38020000  0.06230000  1.0 -0.2780326079
C  C94  1  0.38020000  0.88400000  0.93770000  1.0 -0.2780326079
C  C95  1  0.61980000  0.11600000  0.93770000  1.0 -0.2780326079
C  C96  1  0.11600000  0.61980000  0.06230000  1.0 -0.2780326079
C  C97  1  0.11600000  0.61980000  0.93770000  1.0 -0.2780326079
C  C98  1  0.61980000  0.11600000  0.06230000  1.0 -0.2780326079
C  C99  1  0.38020000  0.88400000  0.06230000  1.0 -0.2780326079
C  C100  1  0.88400000  0.38020000  0.93770000  1.0 -0.2780326079
O  O1  1  0.96434000  0.03566000  0.41130000  1.0 -1.1855357434
O  O2  1  0.03566000  0.96434000  0.58870000  1.0 -1.178194438
O  O3  1  0.96434000  0.03566000  0.58870000  1.0 -1.1855357434
O  O4  1  0.03566000  0.96434000  0.41130000  1.0 -1.178194438
O  O5  1  0.04303000  0.11479000  0.50000000  1.0 -1.178194438
O  O6  1  0.11479000  0.04303000  0.50000000  1.0 -1.178194438
O  O7  1  0.88521000  0.95697000  0.50000000  1.0 -1.178194438
O  O8  1  0.95697000  0.88521000  0.50000000  1.0 -1.178194438
O  O9  1  0.04928000  0.16986000  0.37599000  1.0 -0.6014681976
O  O10  1  0.16986000  0.04928000  0.62401000  1.0 -0.6014681976
O  O11  1  0.83014000  0.95072000  0.62401000  1.0 -0.6014681976
O  O12  1  0.95072000  0.83014000  0.37599000  1.0 -0.6014681976
O  O13  1  0.95072000  0.83014000  0.62401000  1.0 -0.6014681976
O  O14  1  0.83014000  0.95072000  0.37599000  1.0 -0.6014681976
O  O15  1  0.16986000  0.04928000  0.37599000  1.0 -0.6014681976
O  O16  1  0.04928000  0.16986000  0.62401000  1.0 -0.6014681976
O  O17  1  0.95330000  0.16590000  0.43327000  1.0 -0.5828626896
O  O18  1  0.16590000  0.95330000  0.56673000  1.0 -0.5828626896
O  O19  1  0.83410000  0.04670000  0.56673000  1.0 -0.5828626896
O  O20  1  0.04670000  0.83410000  0.43327000  1.0 -0.5828626896
O  O21  1  0.04670000  0.83410000  0.56673000  1.0 -0.5828626896
O  O22  1  0.83410000  0.04670000  0.43327000  1.0 -0.5828626896
O  O23  1  0.16590000  0.95330000  0.43327000  1.0 -0.5828626896
O  O24  1  0.95330000  0.16590000  0.56673000  1.0 -0.5828626896
