# DDEC6 charges by PACMAN v1.1 (https://github.com/mtap-research/PACMAN-charge/)
data_NISDIG01_ASR_pacman
_symmetry_space_group_name_H-M   'P 1'
_cell_length_a   20.13320000
_cell_length_b   20.13320000
_cell_length_c   20.10090000
_cell_angle_alpha   90.00000000
_cell_angle_beta   90.00000000
_cell_angle_gamma   117.65100000
_symmetry_Int_Tables_number   1
_chemical_formula_structural   Zr3H38(C25O6)2
_chemical_formula_sum   'Zr6 H76 C100 O24'
_cell_volume   7217.25921202
_cell_formula_units_Z   2
loop_
 _symmetry_equiv_pos_site_id
 _symmetry_equiv_pos_as_xyz
  1  'x, y, z'
loop_
 _atom_site_type_symbol
 _atom_site_label
 _atom_site_symmetry_multiplicity
 _atom_site_fract_x
 _atom_site_fract_y
 _atom_site_fract_z
 _atom_site_occupancy
 _atom_site_charge
Zr  Zr1  1  0.92915000  0.07085000  0.50000000  1.0 2.3462004624
Zr  Zr2  1  0.07085000  0.92915000  0.50000000  1.0 2.3462004624
Zr  Zr3  1  0.91537000  0.91537000  0.41178000  1.0 2.4592251144
Zr  Zr4  1  0.08463000  0.08463000  0.41178000  1.0 2.4592251144
Zr  Zr5  1  0.08463000  0.08463000  0.58822000  1.0 2.4592251144
Zr  Zr6  1  0.91537000  0.91537000  0.58822000  1.0 2.4592251144
H  H1  1  0.93794000  0.27316000  0.58631000  1.0 0.1263987607
H  H2  1  0.06206000  0.72684000  0.58631000  1.0 0.1263987607
H  H3  1  0.72684000  0.06206000  0.41369000  1.0 0.1263987607
H  H4  1  0.27316000  0.93794000  0.41369000  1.0 0.1263987607
H  H5  1  0.06206000  0.72684000  0.41369000  1.0 0.1263987607
H  H6  1  0.93794000  0.27316000  0.41369000  1.0 0.1263987607
H  H7  1  0.27316000  0.93794000  0.58631000  1.0 0.1263987607
H  H8  1  0.72684000  0.06206000  0.58631000  1.0 0.1263987607
H  H9  1  0.93263000  0.36941000  0.64435000  1.0 0.1098595037
H  H10  1  0.06737000  0.63059000  0.64435000  1.0 0.1098595037
H  H11  1  0.63059000  0.06737000  0.35565000  1.0 0.1098595037
H  H12  1  0.36941000  0.93263000  0.35565000  1.0 0.1098595037
H  H13  1  0.06737000  0.63059000  0.35565000  1.0 0.1098595037
H  H14  1  0.93263000  0.36941000  0.35565000  1.0 0.1098595037
H  H15  1  0.36941000  0.93263000  0.64435000  1.0 0.1098595037
H  H16  1  0.63059000  0.06737000  0.64435000  1.0 0.1098595037
H  H17  1  0.08207000  0.36761000  0.77434000  1.0 0.1263987607
H  H18  1  0.91793000  0.63239000  0.77434000  1.0 0.1263987607
H  H19  1  0.63239000  0.91793000  0.22566000  1.0 0.1263987607
H  H20  1  0.36761000  0.08207000  0.22566000  1.0 0.1263987607
H  H21  1  0.91793000  0.63239000  0.22566000  1.0 0.1263987607
H  H22  1  0.08207000  0.36761000  0.22566000  1.0 0.1263987607
H  H23  1  0.36761000  0.08207000  0.77434000  1.0 0.1263987607
H  H24  1  0.63239000  0.91793000  0.77434000  1.0 0.1263987607
H  H25  1  0.08796000  0.27250000  0.71589000  1.0 0.0993412539
H  H26  1  0.91204000  0.72750000  0.71589000  1.0 0.0993412539
H  H27  1  0.72750000  0.91204000  0.28411000  1.0 0.0993412539
H  H28  1  0.27250000  0.08796000  0.28411000  1.0 0.0993412539
H  H29  1  0.91204000  0.72750000  0.28411000  1.0 0.0993412539
H  H30  1  0.08796000  0.27250000  0.28411000  1.0 0.0993412539
H  H31  1  0.27250000  0.08796000  0.71589000  1.0 0.0993412539
H  H32  1  0.72750000  0.91204000  0.71589000  1.0 0.0993412539
H  H33  1  0.00000000  0.50000000  0.67129000  1.0 0.1098595037
H  H34  1  0.50000000  0.00000000  0.32871000  1.0 0.1098595037
H  H35  1  0.00000000  0.50000000  0.32871000  1.0 0.1098595037
H  H36  1  0.50000000  0.00000000  0.67129000  1.0 0.1098595037
H  H37  1  0.00623000  0.40375000  0.84444000  1.0 0.1398763414
H  H38  1  0.99377000  0.59625000  0.84444000  1.0 0.1398763414
H  H39  1  0.59625000  0.99377000  0.15556000  1.0 0.1398763414
H  H40  1  0.40375000  0.00623000  0.15556000  1.0 0.1398763414
H  H41  1  0.99377000  0.59625000  0.15556000  1.0 0.1398763414
H  H42  1  0.00623000  0.40375000  0.15556000  1.0 0.1398763414
H  H43  1  0.40375000  0.00623000  0.84444000  1.0 0.1398763414
H  H44  1  0.59625000  0.99377000  0.84444000  1.0 0.1398763414
H  H45  1  0.11564000  0.62650000  0.88832000  1.0 0.0993412539
H  H46  1  0.88436000  0.37350000  0.88832000  1.0 0.0993412539
H  H47  1  0.37350000  0.88436000  0.11168000  1.0 0.0993412539
H  H48  1  0.62650000  0.11564000  0.11168000  1.0 0.0993412539
H  H49  1  0.88436000  0.37350000  0.11168000  1.0 0.0993412539
H  H50  1  0.11564000  0.62650000  0.11168000  1.0 0.0993412539
H  H51  1  0.62650000  0.11564000  0.88832000  1.0 0.0993412539
H  H52  1  0.37350000  0.88436000  0.88832000  1.0 0.0993412539
H  H53  1  0.11861000  0.67591000  0.94965000  1.0 0.1098595037
H  H54  1  0.88139000  0.32409000  0.94965000  1.0 0.1098595037
H  H55  1  0.32409000  0.88139000  0.05035000  1.0 0.1098595037
H  H56  1  0.67591000  0.11861000  0.05035000  1.0 0.1098595037
H  H57  1  0.88139000  0.32409000  0.05035000  1.0 0.1098595037
H  H58  1  0.11861000  0.67591000  0.05035000  1.0 0.1098595037
H  H59  1  0.67591000  0.11861000  0.94965000  1.0 0.1098595037
H  H60  1  0.32409000  0.88139000  0.94965000  1.0 0.1098595037
H  H61  1  0.16627000  0.63259000  0.94965000  1.0 0.119007226
H  H62  1  0.83373000  0.36741000  0.94965000  1.0 0.119007226
H  H63  1  0.36741000  0.83373000  0.05035000  1.0 0.119007226
H  H64  1  0.63259000  0.16627000  0.05035000  1.0 0.119007226
H  H65  1  0.83373000  0.36741000  0.05035000  1.0 0.119007226
H  H66  1  0.16627000  0.63259000  0.05035000  1.0 0.119007226
H  H67  1  0.63259000  0.16627000  0.94965000  1.0 0.119007226
H  H68  1  0.36741000  0.83373000  0.94965000  1.0 0.119007226
H  H69  1  0.08950000  0.60242000  0.94140000  1.0 0.0280055557
H  H70  1  0.91050000  0.39758000  0.94140000  1.0 0.0280055557
H  H71  1  0.39758000  0.91050000  0.05860000  1.0 0.0280055557
H  H72  1  0.60242000  0.08950000  0.05860000  1.0 0.0280055557
H  H73  1  0.91050000  0.39758000  0.05860000  1.0 0.0280055557
H  H74  1  0.08950000  0.60242000  0.05860000  1.0 0.0280055557
H  H75  1  0.60242000  0.08950000  0.94140000  1.0 0.0280055557
H  H76  1  0.39758000  0.91050000  0.94140000  1.0 0.0280055557
C  C1  1  0.01142000  0.19738000  0.60878000  1.0 0.6297807655
C  C2  1  0.98858000  0.80262000  0.60878000  1.0 0.6297807655
C  C3  1  0.80262000  0.98858000  0.39122000  1.0 0.6297807655
C  C4  1  0.19738000  0.01142000  0.39122000  1.0 0.6297807655
C  C5  1  0.98858000  0.80262000  0.39122000  1.0 0.6297807655
C  C6  1  0.01142000  0.19738000  0.39122000  1.0 0.6297807655
C  C7  1  0.19738000  0.01142000  0.60878000  1.0 0.6297807655
C  C8  1  0.80262000  0.98858000  0.60878000  1.0 0.6297807655
C  C9  1  0.01207000  0.26233000  0.64611000  1.0 -0.0483900239
C  C10  1  0.98793000  0.73767000  0.64611000  1.0 -0.0483900239
C  C11  1  0.73767000  0.98793000  0.35389000  1.0 -0.0483900239
C  C12  1  0.26233000  0.01207000  0.35389000  1.0 -0.0483900239
C  C13  1  0.98793000  0.73767000  0.35389000  1.0 -0.0483900239
C  C14  1  0.01207000  0.26233000  0.35389000  1.0 -0.0483900239
C  C15  1  0.26233000  0.01207000  0.64611000  1.0 -0.0483900239
C  C16  1  0.73767000  0.98793000  0.64611000  1.0 -0.0483900239
C  C17  1  0.96687000  0.29213000  0.62438000  1.0 -0.1008879133
C  C18  1  0.03313000  0.70787000  0.62438000  1.0 -0.1008879133
C  C19  1  0.70787000  0.03313000  0.37562000  1.0 -0.1008879133
C  C20  1  0.29213000  0.96687000  0.37562000  1.0 -0.1008879133
C  C21  1  0.03313000  0.70787000  0.37562000  1.0 -0.1008879133
C  C22  1  0.96687000  0.29213000  0.37562000  1.0 -0.1008879133
C  C23  1  0.29213000  0.96687000  0.62438000  1.0 -0.1008879133
C  C24  1  0.70787000  0.03313000  0.62438000  1.0 -0.1008879133
C  C25  1  0.96426000  0.35034000  0.65884000  1.0 -0.1603742
C  C26  1  0.03574000  0.64966000  0.65884000  1.0 -0.1603742
C  C27  1  0.64966000  0.03574000  0.34116000  1.0 -0.1603742
C  C28  1  0.35034000  0.96426000  0.34116000  1.0 -0.1603742
C  C29  1  0.03574000  0.64966000  0.34116000  1.0 -0.1603742
C  C30  1  0.96426000  0.35034000  0.34116000  1.0 -0.1603742
C  C31  1  0.35034000  0.96426000  0.65884000  1.0 -0.1603742
C  C32  1  0.64966000  0.03574000  0.65884000  1.0 -0.1603742
C  C33  1  0.00865000  0.38075000  0.71505000  1.0 0.0708041833
C  C34  1  0.99135000  0.61925000  0.71505000  1.0 0.0708041833
C  C35  1  0.61925000  0.99135000  0.28495000  1.0 0.0708041833
C  C36  1  0.38075000  0.00865000  0.28495000  1.0 0.0708041833
C  C37  1  0.99135000  0.61925000  0.28495000  1.0 0.0708041833
C  C38  1  0.00865000  0.38075000  0.28495000  1.0 0.0708041833
C  C39  1  0.38075000  0.00865000  0.71505000  1.0 0.0708041833
C  C40  1  0.61925000  0.99135000  0.71505000  1.0 0.0708041833
C  C41  1  0.05332000  0.34928000  0.73606000  1.0 -0.1527045407
C  C42  1  0.94668000  0.65072000  0.73606000  1.0 -0.1527045407
C  C43  1  0.65072000  0.94668000  0.26394000  1.0 -0.1527045407
C  C44  1  0.34928000  0.05332000  0.26394000  1.0 -0.1527045407
C  C45  1  0.94668000  0.65072000  0.26394000  1.0 -0.1527045407
C  C46  1  0.05332000  0.34928000  0.26394000  1.0 -0.1527045407
C  C47  1  0.34928000  0.05332000  0.73606000  1.0 -0.1527045407
C  C48  1  0.65072000  0.94668000  0.73606000  1.0 -0.1527045407
C  C49  1  0.05632000  0.29168000  0.70170000  1.0 -0.0930251442
C  C50  1  0.94368000  0.70832000  0.70170000  1.0 -0.0930251442
C  C51  1  0.70832000  0.94368000  0.29830000  1.0 -0.0930251442
C  C52  1  0.29168000  0.05632000  0.29830000  1.0 -0.0930251442
C  C53  1  0.94368000  0.70832000  0.29830000  1.0 -0.0930251442
C  C54  1  0.05632000  0.29168000  0.29830000  1.0 -0.0930251442
C  C55  1  0.29168000  0.05632000  0.70170000  1.0 -0.0930251442
C  C56  1  0.70832000  0.94368000  0.70170000  1.0 -0.0930251442
C  C57  1  0.00440000  0.44240000  0.75280000  1.0 0.0708041833
C  C58  1  0.99560000  0.55760000  0.75280000  1.0 0.0708041833
C  C59  1  0.55760000  0.99560000  0.24720000  1.0 0.0708041833
C  C60  1  0.44240000  0.00440000  0.24720000  1.0 0.0708041833
C  C61  1  0.99560000  0.55760000  0.24720000  1.0 0.0708041833
C  C62  1  0.00440000  0.44240000  0.24720000  1.0 0.0708041833
C  C63  1  0.44240000  0.00440000  0.75280000  1.0 0.0708041833
C  C64  1  0.55760000  0.99560000  0.75280000  1.0 0.0708041833
C  C65  1  0.00000000  0.50000000  0.71760000  1.0 -0.203458611
C  C66  1  0.50000000  0.00000000  0.28240000  1.0 -0.203458611
C  C67  1  0.00000000  0.50000000  0.28240000  1.0 -0.203458611
C  C68  1  0.50000000  0.00000000  0.71760000  1.0 -0.203458611
C  C69  1  0.00391000  0.44269000  0.82143000  1.0 -0.2211011649
C  C70  1  0.99609000  0.55731000  0.82143000  1.0 -0.2211011649
C  C71  1  0.55731000  0.99609000  0.17857000  1.0 -0.2211011649
C  C72  1  0.44269000  0.00391000  0.17857000  1.0 -0.2211011649
C  C73  1  0.99609000  0.55731000  0.17857000  1.0 -0.2211011649
C  C74  1  0.00391000  0.44269000  0.17857000  1.0 -0.2211011649
C  C75  1  0.44269000  0.00391000  0.82143000  1.0 -0.2211011649
C  C76  1  0.55731000  0.99609000  0.82143000  1.0 -0.2211011649
C  C77  1  0.00000000  0.50000000  0.85680000  1.0 0.0993412539
C  C78  1  0.50000000  0.00000000  0.14320000  1.0 0.0993412539
C  C79  1  0.00000000  0.50000000  0.14320000  1.0 0.0993412539
C  C80  1  0.50000000  0.00000000  0.85680000  1.0 0.0993412539
C  C81  1  0.00000000  0.50000000  0.93080000  1.0 -0.0807877891
C  C82  1  0.50000000  0.00000000  0.06920000  1.0 -0.0807877891
C  C83  1  0.00000000  0.50000000  0.06920000  1.0 -0.0807877891
C  C84  1  0.50000000  0.00000000  0.93080000  1.0 -0.0807877891
C  C85  1  0.05333000  0.56047000  0.96590000  1.0 0.0020091003
C  C86  1  0.94667000  0.43953000  0.96590000  1.0 0.0020091003
C  C87  1  0.43953000  0.94667000  0.03410000  1.0 0.0020091003
C  C88  1  0.56047000  0.05333000  0.03410000  1.0 0.0020091003
C  C89  1  0.94667000  0.43953000  0.03410000  1.0 0.0020091003
C  C90  1  0.05333000  0.56047000  0.03410000  1.0 0.0020091003
C  C91  1  0.56047000  0.05333000  0.96590000  1.0 0.0020091003
C  C92  1  0.43953000  0.94667000  0.96590000  1.0 0.0020091003
C  C93  1  0.11980000  0.63080000  0.93590000  1.0 -0.369606603
C  C94  1  0.88020000  0.36920000  0.93590000  1.0 -0.369606603
C  C95  1  0.36920000  0.88020000  0.06410000  1.0 -0.369606603
C  C96  1  0.63080000  0.11980000  0.06410000  1.0 -0.369606603
C  C97  1  0.88020000  0.36920000  0.06410000  1.0 -0.369606603
C  C98  1  0.11980000  0.63080000  0.06410000  1.0 -0.369606603
C  C99  1  0.63080000  0.11980000  0.93590000  1.0 -0.369606603
C  C100  1  0.36920000  0.88020000  0.93590000  1.0 -0.369606603
O  O1  1  0.96525000  0.03475000  0.41240000  1.0 -1.1789666453
O  O2  1  0.03475000  0.96525000  0.41240000  1.0 -1.1879832783
O  O3  1  0.96525000  0.03475000  0.58760000  1.0 -1.1789666453
O  O4  1  0.03475000  0.96525000  0.58760000  1.0 -1.1789666453
O  O5  1  0.87916000  0.94864000  0.50000000  1.0 -1.1739354171
O  O6  1  0.12084000  0.05136000  0.50000000  1.0 -1.1739354171
O  O7  1  0.05136000  0.12084000  0.50000000  1.0 -1.1739354171
O  O8  1  0.94864000  0.87916000  0.50000000  1.0 -1.1739354171
O  O9  1  0.96088000  0.16734000  0.56571000  1.0 -0.5762089603
O  O10  1  0.03912000  0.83266000  0.56571000  1.0 -0.5762089603
O  O11  1  0.83266000  0.03912000  0.43429000  1.0 -0.5762089603
O  O12  1  0.16734000  0.96088000  0.43429000  1.0 -0.5762089603
O  O13  1  0.03912000  0.83266000  0.43429000  1.0 -0.5762089603
O  O14  1  0.96088000  0.16734000  0.43429000  1.0 -0.5762089603
O  O15  1  0.16734000  0.96088000  0.56571000  1.0 -0.5762089603
O  O16  1  0.83266000  0.03912000  0.56571000  1.0 -0.5762089603
O  O17  1  0.05997000  0.17733000  0.62418000  1.0 -0.6102495828
O  O18  1  0.94003000  0.82267000  0.62418000  1.0 -0.6102495828
O  O19  1  0.82267000  0.94003000  0.37582000  1.0 -0.6102495828
O  O20  1  0.17733000  0.05997000  0.37582000  1.0 -0.6102495828
O  O21  1  0.94003000  0.82267000  0.37582000  1.0 -0.6102495828
O  O22  1  0.05997000  0.17733000  0.37582000  1.0 -0.6102495828
O  O23  1  0.17733000  0.05997000  0.62418000  1.0 -0.6102495828
O  O24  1  0.82267000  0.94003000  0.62418000  1.0 -0.6102495828
