# DDEC6 charges by PACMAN v1.1 (https://github.com/mtap-research/PACMAN-charge/)
data_NISFEE_ASR_pacman
_symmetry_space_group_name_H-M   'P 1'
_cell_length_a   20.20990000
_cell_length_b   20.20990000
_cell_length_c   19.90770000
_cell_angle_alpha   90.00000000
_cell_angle_beta   90.00000000
_cell_angle_gamma   110.09900000
_symmetry_Int_Tables_number   1
_chemical_formula_structural   Zr3H60(C34O7)2
_chemical_formula_sum   'Zr6 H120 C136 O28'
_cell_volume   7635.92005467
_cell_formula_units_Z   2
loop_
 _symmetry_equiv_pos_site_id
 _symmetry_equiv_pos_as_xyz
  1  'x, y, z'
loop_
 _atom_site_type_symbol
 _atom_site_label
 _atom_site_symmetry_multiplicity
 _atom_site_fract_x
 _atom_site_fract_y
 _atom_site_fract_z
 _atom_site_occupancy
 _atom_site_charge
Zr  Zr1  1  0.07573000  0.07573000  0.58789000  1.0 2.4184346024
Zr  Zr2  1  0.92427000  0.92427000  0.58789000  1.0 2.4184346024
Zr  Zr3  1  0.92427000  0.92427000  0.41211000  1.0 2.4184346024
Zr  Zr4  1  0.07573000  0.07573000  0.41211000  1.0 2.4184346024
Zr  Zr5  1  0.07424000  0.92576000  0.50000000  1.0 2.3881371442
Zr  Zr6  1  0.92576000  0.07424000  0.50000000  1.0 2.3881371442
H  H1  1  0.26566000  0.26566000  0.59798000  1.0 0.1382842932
H  H2  1  0.73434000  0.73434000  0.59798000  1.0 0.1382842932
H  H3  1  0.73434000  0.73434000  0.40202000  1.0 0.1382842932
H  H4  1  0.26566000  0.26566000  0.40202000  1.0 0.1382842932
H  H5  1  0.36504000  0.36504000  0.59526000  1.0 0.1189291853
H  H6  1  0.63496000  0.63496000  0.59526000  1.0 0.1189291853
H  H7  1  0.63496000  0.63496000  0.40474000  1.0 0.1189291853
H  H8  1  0.36504000  0.36504000  0.40474000  1.0 0.1189291853
H  H9  1  0.39324000  0.50720000  0.50000000  1.0 0.1277182242
H  H10  1  0.60676000  0.49280000  0.50000000  1.0 0.1189291853
H  H11  1  0.49280000  0.60676000  0.50000000  1.0 0.1189291853
H  H12  1  0.50720000  0.39324000  0.50000000  1.0 0.1277182242
H  H13  1  0.06968000  0.72210000  0.41382000  1.0 0.1277182242
H  H14  1  0.93032000  0.27790000  0.41382000  1.0 0.1277182242
H  H15  1  0.27790000  0.93032000  0.58618000  1.0 0.1277182242
H  H16  1  0.72210000  0.06968000  0.58618000  1.0 0.1277182242
H  H17  1  0.93032000  0.27790000  0.58618000  1.0 0.1277182242
H  H18  1  0.06968000  0.72210000  0.58618000  1.0 0.1277182242
H  H19  1  0.72210000  0.06968000  0.41382000  1.0 0.1277182242
H  H20  1  0.27790000  0.93032000  0.41382000  1.0 0.1277182242
H  H21  1  0.06765000  0.62175000  0.35810000  1.0 0.1189291853
H  H22  1  0.93235000  0.37825000  0.35810000  1.0 0.1189291853
H  H23  1  0.37825000  0.93235000  0.64190000  1.0 0.1189291853
H  H24  1  0.62175000  0.06765000  0.64190000  1.0 0.1189291853
H  H25  1  0.93235000  0.37825000  0.64190000  1.0 0.1189291853
H  H26  1  0.06765000  0.62175000  0.64190000  1.0 0.1189291853
H  H27  1  0.62175000  0.06765000  0.35810000  1.0 0.1189291853
H  H28  1  0.37825000  0.93235000  0.35810000  1.0 0.1189291853
H  H29  1  0.92706000  0.64536000  0.22692000  1.0 0.1277182242
H  H30  1  0.07293000  0.35464000  0.22692000  1.0 0.1277182242
H  H31  1  0.35464000  0.07293000  0.77308000  1.0 0.1277182242
H  H32  1  0.64536000  0.92707000  0.77308000  1.0 0.1277182242
H  H33  1  0.07293000  0.35464000  0.77308000  1.0 0.1277182242
H  H34  1  0.92706000  0.64536000  0.77308000  1.0 0.1277182242
H  H35  1  0.64536000  0.92707000  0.22692000  1.0 0.1277182242
H  H36  1  0.35464000  0.07293000  0.22692000  1.0 0.1277182242
H  H37  1  0.92612000  0.74394000  0.28483000  1.0 0.1189291853
H  H38  1  0.07388000  0.25606000  0.28483000  1.0 0.1189291853
H  H39  1  0.25606000  0.07388000  0.71517000  1.0 0.1189291853
H  H40  1  0.74394000  0.92612000  0.71517000  1.0 0.1189291853
H  H41  1  0.07388000  0.25606000  0.71517000  1.0 0.1189291853
H  H42  1  0.92612000  0.74394000  0.71517000  1.0 0.1189291853
H  H43  1  0.74394000  0.92612000  0.28483000  1.0 0.1189291853
H  H44  1  0.25606000  0.07388000  0.28483000  1.0 0.1189291853
H  H45  1  0.00000000  0.50000000  0.33112000  1.0 0.1189291853
H  H46  1  0.50000000  0.00000000  0.66888000  1.0 0.1189291853
H  H47  1  0.00000000  0.50000000  0.66888000  1.0 0.1189291853
H  H48  1  0.50000000  0.00000000  0.33112000  1.0 0.1189291853
H  H49  1  0.99762000  0.59800000  0.15764000  1.0 0.1382842932
H  H50  1  0.00238000  0.40200000  0.15764000  1.0 0.1382842932
H  H51  1  0.40200000  0.00238000  0.84236000  1.0 0.1382842932
H  H52  1  0.59800000  0.99762000  0.84236000  1.0 0.1382842932
H  H53  1  0.00238000  0.40200000  0.84236000  1.0 0.1382842932
H  H54  1  0.99762000  0.59800000  0.84236000  1.0 0.1382842932
H  H55  1  0.59800000  0.99762000  0.15764000  1.0 0.1382842932
H  H56  1  0.40200000  0.00238000  0.15764000  1.0 0.1382842932
H  H57  1  0.88976000  0.38688000  0.11082000  1.0 0.101551956
H  H58  1  0.11024000  0.61312000  0.11082000  1.0 0.101551956
H  H59  1  0.61312000  0.11024000  0.88918000  1.0 0.101551956
H  H60  1  0.38688000  0.88976000  0.88918000  1.0 0.101551956
H  H61  1  0.11024000  0.61312000  0.88918000  1.0 0.101551956
H  H62  1  0.88976000  0.38688000  0.88918000  1.0 0.101551956
H  H63  1  0.38688000  0.88976000  0.11082000  1.0 0.101551956
H  H64  1  0.61312000  0.11024000  0.11082000  1.0 0.101551956
H  H65  1  0.84695000  0.39183000  0.04651000  1.0 0.1074594555
H  H66  1  0.15305000  0.60817000  0.04651000  1.0 0.1074594555
H  H67  1  0.60817000  0.15305000  0.95349000  1.0 0.1074594555
H  H68  1  0.39183000  0.84695000  0.95349000  1.0 0.1074594555
H  H69  1  0.15305000  0.60817000  0.95349000  1.0 0.1074594555
H  H70  1  0.84695000  0.39183000  0.95349000  1.0 0.1074594555
H  H71  1  0.39183000  0.84695000  0.04651000  1.0 0.1074594555
H  H72  1  0.60817000  0.15305000  0.04651000  1.0 0.1074594555
H  H73  1  0.89313000  0.34339000  0.04650000  1.0 0.101551956
H  H74  1  0.10687000  0.65661000  0.04650000  1.0 0.101551956
H  H75  1  0.65661000  0.10687000  0.95350000  1.0 0.101551956
H  H76  1  0.34339000  0.89313000  0.95350000  1.0 0.101551956
H  H77  1  0.10687000  0.65661000  0.95350000  1.0 0.101551956
H  H78  1  0.89313000  0.34339000  0.95350000  1.0 0.101551956
H  H79  1  0.34339000  0.89313000  0.04650000  1.0 0.101551956
H  H80  1  0.65661000  0.10687000  0.04650000  1.0 0.101551956
H  H81  1  0.10744000  0.46370000  0.10988000  1.0 0.101551956
H  H82  1  0.89256000  0.53630000  0.10988000  1.0 0.101551956
H  H83  1  0.53630000  0.89256000  0.89012000  1.0 0.101551956
H  H84  1  0.46370000  0.10744000  0.89012000  1.0 0.101551956
H  H85  1  0.89256000  0.53630000  0.89012000  1.0 0.101551956
H  H86  1  0.10744000  0.46370000  0.89012000  1.0 0.101551956
H  H87  1  0.46370000  0.10744000  0.10988000  1.0 0.101551956
H  H88  1  0.53630000  0.89256000  0.10988000  1.0 0.101551956
H  H89  1  0.10761000  0.41681000  0.04719000  1.0 0.101551956
H  H90  1  0.89239000  0.58319000  0.04719000  1.0 0.101551956
H  H91  1  0.58319000  0.89239000  0.95281000  1.0 0.101551956
H  H92  1  0.41681000  0.10761000  0.95281000  1.0 0.101551956
H  H93  1  0.89239000  0.58319000  0.95281000  1.0 0.101551956
H  H94  1  0.10761000  0.41681000  0.95281000  1.0 0.101551956
H  H95  1  0.41681000  0.10761000  0.04719000  1.0 0.101551956
H  H96  1  0.58319000  0.89239000  0.04719000  1.0 0.101551956
H  H97  1  0.15393000  0.49694000  0.04719000  1.0 0.1074594555
H  H98  1  0.84606000  0.50306000  0.04719000  1.0 0.1074594555
H  H99  1  0.50306000  0.84606000  0.95281000  1.0 0.1074594555
H  H100  1  0.49694000  0.15393000  0.95281000  1.0 0.1074594555
H  H101  1  0.84606000  0.50306000  0.95281000  1.0 0.1074594555
H  H102  1  0.15393000  0.49694000  0.95281000  1.0 0.1074594555
H  H103  1  0.49694000  0.15393000  0.04719000  1.0 0.1074594555
H  H104  1  0.50306000  0.84606000  0.04719000  1.0 0.1074594555
H  H105  1  0.08524000  0.46880000  0.05504000  1.0 0.0473830206
H  H106  1  0.91476000  0.53120000  0.05504000  1.0 0.0473830206
H  H107  1  0.53120000  0.91476000  0.94496000  1.0 0.0473830206
H  H108  1  0.46880000  0.08524000  0.94496000  1.0 0.0473830206
H  H109  1  0.91476000  0.53120000  0.94496000  1.0 0.0473830206
H  H110  1  0.08524000  0.46880000  0.94496000  1.0 0.0473830206
H  H111  1  0.46880000  0.08524000  0.05504000  1.0 0.0473830206
H  H112  1  0.53120000  0.91476000  0.05504000  1.0 0.0473830206
H  H113  1  0.91574000  0.40920000  0.05637000  1.0 0.0473830206
H  H114  1  0.08426000  0.59080000  0.05637000  1.0 0.0473830206
H  H115  1  0.59080000  0.08426000  0.94363000  1.0 0.0473830206
H  H116  1  0.40920000  0.91574000  0.94363000  1.0 0.0473830206
H  H117  1  0.08426000  0.59080000  0.94363000  1.0 0.0473830206
H  H118  1  0.91574000  0.40920000  0.94363000  1.0 0.0473830206
H  H119  1  0.40920000  0.91574000  0.05637000  1.0 0.0473830206
H  H120  1  0.59080000  0.08426000  0.05637000  1.0 0.0473830206
C  C1  1  0.19160000  0.19160000  0.50000000  1.0 0.6376574759
C  C2  1  0.80840000  0.80840000  0.50000000  1.0 0.6376574759
C  C3  1  0.25560000  0.25560000  0.50000000  1.0 -0.050150847
C  C4  1  0.74440000  0.74440000  0.50000000  1.0 -0.050150847
C  C5  1  0.28490000  0.28490000  0.55700000  1.0 -0.0811506666
C  C6  1  0.71510000  0.71510000  0.55700000  1.0 -0.0811506666
C  C7  1  0.71510000  0.71510000  0.44300000  1.0 -0.0811506666
C  C8  1  0.28490000  0.28490000  0.44300000  1.0 -0.0811506666
C  C9  1  0.34530000  0.34530000  0.55450000  1.0 -0.1596015295
C  C10  1  0.65470000  0.65470000  0.55450000  1.0 -0.1596015295
C  C11  1  0.65470000  0.65470000  0.44550000  1.0 -0.1596015295
C  C12  1  0.34530000  0.34530000  0.44550000  1.0 -0.1596015295
C  C13  1  0.37610000  0.37610000  0.50000000  1.0 0.0765080277
C  C14  1  0.62390000  0.62390000  0.50000000  1.0 0.0765080277
C  C15  1  0.43980000  0.43980000  0.50000000  1.0 0.0473830206
C  C16  1  0.56020000  0.56020000  0.50000000  1.0 0.0473830206
C  C17  1  0.43720000  0.50180000  0.50000000  1.0 -0.1405232873
C  C18  1  0.56280000  0.49820000  0.50000000  1.0 -0.1405232873
C  C19  1  0.49820000  0.56280000  0.50000000  1.0 -0.1405232873
C  C20  1  0.50180000  0.43720000  0.50000000  1.0 -0.1405232873
C  C21  1  0.99854000  0.80806000  0.39044000  1.0 0.6299229239
C  C22  1  0.00146000  0.19194000  0.39044000  1.0 0.6299229239
C  C23  1  0.19194000  0.00146000  0.60956000  1.0 0.6299229239
C  C24  1  0.80806000  0.99854000  0.60956000  1.0 0.6299229239
C  C25  1  0.00146000  0.19194000  0.60956000  1.0 0.6299229239
C  C26  1  0.99854000  0.80806000  0.60956000  1.0 0.6299229239
C  C27  1  0.80806000  0.99854000  0.39044000  1.0 0.6299229239
C  C28  1  0.19194000  0.00146000  0.39044000  1.0 0.6299229239
C  C29  1  0.99827000  0.74341000  0.35438000  1.0 -0.050150847
C  C30  1  0.00173000  0.25659000  0.35438000  1.0 -0.050150847
C  C31  1  0.25659000  0.00173000  0.64562000  1.0 -0.050150847
C  C32  1  0.74341000  0.99827000  0.64562000  1.0 -0.050150847
C  C33  1  0.00173000  0.25659000  0.64562000  1.0 -0.050150847
C  C34  1  0.99827000  0.74341000  0.64562000  1.0 -0.050150847
C  C35  1  0.74341000  0.99827000  0.35438000  1.0 -0.050150847
C  C36  1  0.25659000  0.00173000  0.35438000  1.0 -0.050150847
C  C37  1  0.04080000  0.70660000  0.37650000  1.0 -0.0888369016
C  C38  1  0.95920000  0.29340000  0.37650000  1.0 -0.0888369016
C  C39  1  0.29340000  0.95920000  0.62350000  1.0 -0.0888369016
C  C40  1  0.70660000  0.04080000  0.62350000  1.0 -0.0888369016
C  C41  1  0.95920000  0.29340000  0.62350000  1.0 -0.0888369016
C  C42  1  0.04080000  0.70660000  0.62350000  1.0 -0.0888369016
C  C43  1  0.70660000  0.04080000  0.37650000  1.0 -0.0888369016
C  C44  1  0.29340000  0.95920000  0.37650000  1.0 -0.0888369016
C  C45  1  0.03980000  0.64680000  0.34250000  1.0 -0.1542866405
C  C46  1  0.96020000  0.35320000  0.34250000  1.0 -0.1542866405
C  C47  1  0.35320000  0.96020000  0.65750000  1.0 -0.1542866405
C  C48  1  0.64680000  0.03980000  0.65750000  1.0 -0.1542866405
C  C49  1  0.96020000  0.35320000  0.65750000  1.0 -0.1542866405
C  C50  1  0.03980000  0.64680000  0.65750000  1.0 -0.1542866405
C  C51  1  0.64680000  0.03980000  0.34250000  1.0 -0.1542866405
C  C52  1  0.35320000  0.96020000  0.34250000  1.0 -0.1542866405
C  C53  1  0.99896000  0.62304000  0.28660000  1.0 0.0726453823
C  C54  1  0.00104000  0.37696000  0.28660000  1.0 0.0726453823
C  C55  1  0.37696000  0.00104000  0.71340000  1.0 0.0726453823
C  C56  1  0.62304000  0.99896000  0.71340000  1.0 0.0726453823
C  C57  1  0.00104000  0.37696000  0.71340000  1.0 0.0726453823
C  C58  1  0.99896000  0.62304000  0.71340000  1.0 0.0726453823
C  C59  1  0.62304000  0.99896000  0.28660000  1.0 0.0726453823
C  C60  1  0.37696000  0.00104000  0.28660000  1.0 0.0726453823
C  C61  1  0.95549000  0.66051000  0.26460000  1.0 -0.1596015295
C  C62  1  0.04451000  0.33949000  0.26460000  1.0 -0.1596015295
C  C63  1  0.33949000  0.04451000  0.73540000  1.0 -0.1596015295
C  C64  1  0.66051000  0.95549000  0.73540000  1.0 -0.1596015295
C  C65  1  0.04451000  0.33949000  0.73540000  1.0 -0.1596015295
C  C66  1  0.95549000  0.66051000  0.73540000  1.0 -0.1596015295
C  C67  1  0.66051000  0.95549000  0.26460000  1.0 -0.1596015295
C  C68  1  0.33949000  0.04451000  0.26460000  1.0 -0.1596015295
C  C69  1  0.95528000  0.71972000  0.29900000  1.0 -0.0888369016
C  C70  1  0.04472000  0.28028000  0.29900000  1.0 -0.0888369016
C  C71  1  0.28028000  0.04472000  0.70100000  1.0 -0.0888369016
C  C72  1  0.71972000  0.95528000  0.70100000  1.0 -0.0888369016
C  C73  1  0.04472000  0.28028000  0.70100000  1.0 -0.0888369016
C  C74  1  0.95528000  0.71972000  0.70100000  1.0 -0.0888369016
C  C75  1  0.71972000  0.95528000  0.29900000  1.0 -0.0888369016
C  C76  1  0.28028000  0.04472000  0.29900000  1.0 -0.0888369016
C  C77  1  0.99883000  0.55937000  0.24880000  1.0 0.0765080277
C  C78  1  0.00117000  0.44063000  0.24880000  1.0 0.0765080277
C  C79  1  0.44063000  0.00117000  0.75120000  1.0 0.0765080277
C  C80  1  0.55937000  0.99883000  0.75120000  1.0 0.0765080277
C  C81  1  0.00117000  0.44063000  0.75120000  1.0 0.0765080277
C  C82  1  0.99883000  0.55937000  0.75120000  1.0 0.0765080277
C  C83  1  0.55937000  0.99883000  0.24880000  1.0 0.0765080277
C  C84  1  0.44063000  0.00117000  0.24880000  1.0 0.0765080277
C  C85  1  0.00000000  0.50000000  0.28440000  1.0 -0.1922189768
C  C86  1  0.50000000  0.00000000  0.71560000  1.0 -0.1922189768
C  C87  1  0.00000000  0.50000000  0.71560000  1.0 -0.1922189768
C  C88  1  0.50000000  0.00000000  0.28440000  1.0 -0.1922189768
C  C89  1  0.99864000  0.55836000  0.18080000  1.0 -0.2592978466
C  C90  1  0.00136000  0.44164000  0.18080000  1.0 -0.2592978466
C  C91  1  0.44164000  0.00136000  0.81920000  1.0 -0.2592978466
C  C92  1  0.55836000  0.99864000  0.81920000  1.0 -0.2592978466
C  C93  1  0.00136000  0.44164000  0.81920000  1.0 -0.2592978466
C  C94  1  0.99864000  0.55836000  0.81920000  1.0 -0.2592978466
C  C95  1  0.55836000  0.99864000  0.18080000  1.0 -0.2592978466
C  C96  1  0.44164000  0.00136000  0.18080000  1.0 -0.2592978466
C  C97  1  0.00000000  0.50000000  0.14410000  1.0 0.0140728981
C  C98  1  0.50000000  0.00000000  0.85590000  1.0 0.0140728981
C  C99  1  0.00000000  0.50000000  0.85590000  1.0 0.0140728981
C  C100  1  0.50000000  0.00000000  0.14410000  1.0 0.0140728981
C  C101  1  0.00000000  0.50000000  0.07020000  1.0 -0.0182175597
C  C102  1  0.50000000  0.00000000  0.92980000  1.0 -0.0182175597
C  C103  1  0.00000000  0.50000000  0.92980000  1.0 -0.0182175597
C  C104  1  0.50000000  0.00000000  0.07020000  1.0 -0.0182175597
C  C105  1  0.95060000  0.44880000  0.03360000  1.0 0.0011036109
C  C106  1  0.04940000  0.55120000  0.03360000  1.0 0.0011036109
C  C107  1  0.55120000  0.04940000  0.96640000  1.0 0.0011036109
C  C108  1  0.44880000  0.95060000  0.96640000  1.0 0.0011036109
C  C109  1  0.04940000  0.55120000  0.96640000  1.0 0.0011036109
C  C110  1  0.95060000  0.44880000  0.96640000  1.0 0.0011036109
C  C111  1  0.44880000  0.95060000  0.03360000  1.0 0.0011036109
C  C112  1  0.55120000  0.04940000  0.03360000  1.0 0.0011036109
C  C113  1  0.88980000  0.38700000  0.06260000  1.0 -0.3515018679
C  C114  1  0.11020000  0.61300000  0.06260000  1.0 -0.3515018679
C  C115  1  0.61300000  0.11020000  0.93740000  1.0 -0.3515018679
C  C116  1  0.38700000  0.88980000  0.93740000  1.0 -0.3515018679
C  C117  1  0.11020000  0.61300000  0.93740000  1.0 -0.3515018679
C  C118  1  0.88980000  0.38700000  0.93740000  1.0 -0.3515018679
C  C119  1  0.38700000  0.88980000  0.06260000  1.0 -0.3515018679
C  C120  1  0.61300000  0.11020000  0.06260000  1.0 -0.3515018679
C  C121  1  0.05040000  0.48500000  0.03330000  1.0 -0.0005324402
C  C122  1  0.94960000  0.51500000  0.03330000  1.0 0.0011036109
C  C123  1  0.51500000  0.94960000  0.96670000  1.0 0.0011036109
C  C124  1  0.48500000  0.05040000  0.96670000  1.0 -0.0005324402
C  C125  1  0.94960000  0.51500000  0.96670000  1.0 0.0011036109
C  C126  1  0.05040000  0.48500000  0.96670000  1.0 -0.0005324402
C  C127  1  0.48500000  0.05040000  0.03330000  1.0 -0.0005324402
C  C128  1  0.51500000  0.94960000  0.03330000  1.0 0.0011036109
C  C129  1  0.11010000  0.46290000  0.06180000  1.0 -0.3515018679
C  C130  1  0.88990000  0.53710000  0.06180000  1.0 -0.3515018679
C  C131  1  0.53710000  0.88990000  0.93820000  1.0 -0.3515018679
C  C132  1  0.46290000  0.11010000  0.93820000  1.0 -0.3515018679
C  C133  1  0.88990000  0.53710000  0.93820000  1.0 -0.3515018679
C  C134  1  0.11010000  0.46290000  0.93820000  1.0 -0.3515018679
C  C135  1  0.46290000  0.11010000  0.06180000  1.0 -0.3515018679
C  C136  1  0.53710000  0.88990000  0.06180000  1.0 -0.3515018679
O  O1  1  0.03669000  0.96331000  0.58860000  1.0 -1.1380059894
O  O2  1  0.96331000  0.03669000  0.58860000  1.0 -1.1380059894
O  O3  1  0.03669000  0.96331000  0.41140000  1.0 -1.1380059894
O  O4  1  0.96331000  0.03669000  0.41140000  1.0 -1.1380059894
O  O5  1  0.03738000  0.10982000  0.50000000  1.0 -1.0942033108
O  O6  1  0.96262000  0.89018000  0.50000000  1.0 -1.1006991045
O  O7  1  0.89018000  0.96262000  0.50000000  1.0 -1.1006991045
O  O8  1  0.10982000  0.03738000  0.50000000  1.0 -1.1006991045
O  O9  1  0.95104000  0.83232000  0.37558000  1.0 -0.5886198606
O  O10  1  0.04896000  0.16768000  0.37558000  1.0 -0.5886198606
O  O11  1  0.16768000  0.04896000  0.62442000  1.0 -0.5886198606
O  O12  1  0.83232000  0.95104000  0.62442000  1.0 -0.5886198606
O  O13  1  0.04896000  0.16768000  0.62442000  1.0 -0.5886198606
O  O14  1  0.95104000  0.83232000  0.62442000  1.0 -0.5886198606
O  O15  1  0.83232000  0.95104000  0.37558000  1.0 -0.5886198606
O  O16  1  0.16768000  0.04896000  0.37558000  1.0 -0.5886198606
O  O17  1  0.04861000  0.83425000  0.43205000  1.0 -0.5757336494
O  O18  1  0.95139000  0.16575000  0.43205000  1.0 -0.5757336494
O  O19  1  0.16575000  0.95139000  0.56795000  1.0 -0.5757336494
O  O20  1  0.83425000  0.04861000  0.56795000  1.0 -0.5757336494
O  O21  1  0.95139000  0.16575000  0.56795000  1.0 -0.5757336494
O  O22  1  0.04861000  0.83425000  0.56795000  1.0 -0.5757336494
O  O23  1  0.83425000  0.04861000  0.43205000  1.0 -0.5757336494
O  O24  1  0.16575000  0.95139000  0.43205000  1.0 -0.5757336494
O  O25  1  0.16727000  0.16727000  0.55679000  1.0 -0.5720871266
O  O26  1  0.83273000  0.83273000  0.55679000  1.0 -0.5720871266
O  O27  1  0.83273000  0.83273000  0.44321000  1.0 -0.5720871266
O  O28  1  0.16727000  0.16727000  0.44321000  1.0 -0.5720871266
