# DDEC6 charges by PACMAN v1.1 (https://github.com/mtap-research/PACMAN-charge/)
data_NISXAR_ASR_pacman
_symmetry_space_group_name_H-M   'P 1'
_cell_length_a   9.88899000
_cell_length_b   9.88899000
_cell_length_c   9.86740000
_cell_angle_alpha   67.15630000
_cell_angle_beta   112.84400000
_cell_angle_gamma   126.09200000
_symmetry_Int_Tables_number   1
_chemical_formula_structural   TbH4C7O8
_chemical_formula_sum   'Tb2 H8 C14 O16'
_cell_volume   701.91206829
_cell_formula_units_Z   2
loop_
 _symmetry_equiv_pos_site_id
 _symmetry_equiv_pos_as_xyz
  1  'x, y, z'
loop_
 _atom_site_type_symbol
 _atom_site_label
 _atom_site_symmetry_multiplicity
 _atom_site_fract_x
 _atom_site_fract_y
 _atom_site_fract_z
 _atom_site_occupancy
 _atom_site_charge
Tb  Tb1  1  0.64519000  0.35481000  0.35614000  1.0 1.909938778
Tb  Tb2  1  0.35481000  0.64519000  0.64386000  1.0 1.909938778
H  H1  1  0.78320000  0.92920000  0.35910000  1.0 0.1168718144
H  H2  1  0.92920000  0.78320000  0.64090000  1.0 0.1168718144
H  H3  1  0.21680000  0.07080000  0.64090000  1.0 0.1168718144
H  H4  1  0.07080000  0.21680000  0.35910000  1.0 0.1168718144
H  H5  1  0.94330000  0.05670000  0.62940000  1.0 0.1168718144
H  H6  1  0.54360000  0.45640000  0.91810000  1.0 0.2489905164
H  H7  1  0.05670000  0.94330000  0.37060000  1.0 0.1168718144
H  H8  1  0.45640000  0.54360000  0.08190000  1.0 0.2489905164
C  C1  1  0.81050000  0.90670000  0.46940000  1.0 -0.1242279604
C  C2  1  0.64430000  0.79910000  0.52510000  1.0 0.5816272751
C  C3  1  0.90670000  0.81050000  0.53060000  1.0 -0.1242279604
C  C4  1  0.79910000  0.64430000  0.47490000  1.0 0.5816272751
C  C5  1  0.18950000  0.09330000  0.53060000  1.0 -0.1242279604
C  C6  1  0.35570000  0.20090000  0.47490000  1.0 0.5816272751
C  C7  1  0.09330000  0.18950000  0.46940000  1.0 -0.1242279604
C  C8  1  0.20090000  0.35570000  0.52510000  1.0 0.5816272751
C  C9  1  0.92100000  0.07900000  0.51940000  1.0 -0.1427277371
C  C10  1  0.82480000  0.17520000  0.45030000  1.0 0.598020728
C  C11  1  0.51390000  0.48610000  0.97600000  1.0 0.2812348262
C  C12  1  0.07900000  0.92100000  0.48060000  1.0 -0.1427277371
C  C13  1  0.17520000  0.82480000  0.54970000  1.0 0.598020728
C  C14  1  0.48610000  0.51390000  0.02400000  1.0 0.2812348262
O  O1  1  0.51990000  0.81990000  0.44760000  1.0 -0.5631960824
O  O2  1  0.63510000  0.70050000  0.65060000  1.0 -0.5812560265
O  O3  1  0.81990000  0.51990000  0.55240000  1.0 -0.5631960824
O  O4  1  0.70050000  0.63510000  0.34940000  1.0 -0.5812560265
O  O5  1  0.48010000  0.18010000  0.55240000  1.0 -0.5631960824
O  O6  1  0.36490000  0.29950000  0.34940000  1.0 -0.5812560265
O  O7  1  0.18010000  0.48010000  0.44760000  1.0 -0.5631960824
O  O8  1  0.29950000  0.36490000  0.65060000  1.0 -0.5812560265
O  O9  1  0.78080000  0.21920000  0.31120000  1.0 -0.5812560265
O  O10  1  0.78970000  0.21030000  0.53920000  1.0 -0.605359529
O  O11  1  0.55340000  0.44660000  0.11000000  1.0 -0.345340465
O  O12  1  0.43190000  0.56810000  0.90600000  1.0 -0.3405188665
O  O13  1  0.21920000  0.78080000  0.68880000  1.0 -0.5812560265
O  O14  1  0.21030000  0.78970000  0.46080000  1.0 -0.604343687
O  O15  1  0.44660000  0.55340000  0.89000000  1.0 -0.345340465
O  O16  1  0.56810000  0.43190000  0.09400000  1.0 -0.3405188665
