# DDEC6 charges by PACMAN v1.1 (https://github.com/mtap-research/PACMAN-charge/)
data_NIVNOW_FSR_pacman
_symmetry_space_group_name_H-M   'P 1'
_cell_length_a   15.17460000
_cell_length_b   15.17460000
_cell_length_c   11.51200000
_cell_angle_alpha   74.03230000
_cell_angle_beta   105.96800000
_cell_angle_gamma   121.71300000
_symmetry_Int_Tables_number   1
_chemical_formula_structural   Cu3H8W2C24(N10O)2
_chemical_formula_sum   'Cu6 H16 W4 C48 N40 O4'
_cell_volume   2140.27651981
_cell_formula_units_Z   2
loop_
 _symmetry_equiv_pos_site_id
 _symmetry_equiv_pos_as_xyz
  1  'x, y, z'
loop_
 _atom_site_type_symbol
 _atom_site_label
 _atom_site_symmetry_multiplicity
 _atom_site_fract_x
 _atom_site_fract_y
 _atom_site_fract_z
 _atom_site_occupancy
 _atom_site_charge
Cu  Cu1  1  0.50000000  0.00000000  0.50000000  1.0 0.7694502234
Cu  Cu2  1  0.00000000  0.50000000  0.50000000  1.0 0.7694502234
Cu  Cu3  1  0.50000000  0.00000000  0.00000000  1.0 0.7694502234
Cu  Cu4  1  0.00000000  0.50000000  0.00000000  1.0 0.7694502234
Cu  Cu5  1  0.23550000  0.23550000  0.00000000  1.0 1.0175353348
Cu  Cu6  1  0.76450000  0.76450000  0.00000000  1.0 1.0175353348
H  H1  1  0.57000000  0.84320000  0.50400000  1.0 0.1431284059
H  H2  1  0.84320000  0.57000000  0.49600000  1.0 0.1431284059
H  H3  1  0.43000000  0.15680000  0.49600000  1.0 0.1431284059
H  H4  1  0.15680000  0.43000000  0.50400000  1.0 0.1431284059
H  H5  1  0.59630000  0.77830000  0.36450000  1.0 0.1765464752
H  H6  1  0.77830000  0.59630000  0.63550000  1.0 0.1765464752
H  H7  1  0.40370000  0.22170000  0.63550000  1.0 0.1765464752
H  H8  1  0.22170000  0.40370000  0.36450000  1.0 0.1765464752
H  H9  1  0.57170000  0.84430000  0.16000000  1.0 0.1431284059
H  H10  1  0.84430000  0.57170000  0.84000000  1.0 0.1431284059
H  H11  1  0.42830000  0.15570000  0.84000000  1.0 0.1431284059
H  H12  1  0.15570000  0.42830000  0.16000000  1.0 0.1431284059
H  H13  1  0.48410000  0.01690000  0.23810000  1.0 0.1212188511
H  H14  1  0.01690000  0.48410000  0.76190000  1.0 0.1212188511
H  H15  1  0.51590000  0.98310000  0.76190000  1.0 0.1212188511
H  H16  1  0.98310000  0.51590000  0.23810000  1.0 0.1212188511
W  W1  1  0.15035000  0.84965000  0.20064000  1.0 0.698032236
W  W2  1  0.84965000  0.15035000  0.79936000  1.0 0.698032236
W  W3  1  0.63832000  0.36168000  0.14186000  1.0 0.7290027498
W  W4  1  0.36168000  0.63832000  0.85814000  1.0 0.7290027498
C  C1  1  0.28560000  0.92940000  0.33160000  1.0 0.069401054
C  C2  1  0.92940000  0.28560000  0.66840000  1.0 0.069401054
C  C3  1  0.71440000  0.07060000  0.66840000  1.0 0.069401054
C  C4  1  0.07060000  0.71440000  0.33160000  1.0 0.069401054
C  C5  1  0.09900000  0.90100000  0.31580000  1.0 -0.0115373337
C  C6  1  0.90100000  0.09900000  0.68420000  1.0 -0.0115373337
C  C7  1  0.17782000  0.00518000  0.11630000  1.0 0.0805698854
C  C8  1  0.00518000  0.17782000  0.88370000  1.0 0.0805698854
C  C9  1  0.82218000  0.99482000  0.88370000  1.0 0.069401054
C  C10  1  0.99482000  0.82218000  0.11630000  1.0 0.069401054
C  C11  1  0.26719000  0.91981000  0.08270000  1.0 0.0312897605
C  C12  1  0.91981000  0.26719000  0.91730000  1.0 0.0312897605
C  C13  1  0.73281000  0.08019000  0.91730000  1.0 0.0312897605
C  C14  1  0.08019000  0.73281000  0.08270000  1.0 0.0312897605
C  C15  1  0.23630000  0.76370000  0.25730000  1.0 -0.0194747426
C  C16  1  0.76370000  0.23630000  0.74270000  1.0 -0.0194747426
C  C17  1  0.47135000  0.30245000  0.09300000  1.0 0.0805698854
C  C18  1  0.30245000  0.47135000  0.90700000  1.0 0.0805698854
C  C19  1  0.52865000  0.69755000  0.90700000  1.0 0.0805698854
C  C20  1  0.69755000  0.52865000  0.09300000  1.0 0.0805698854
C  C21  1  0.59280000  0.40720000  0.26650000  1.0 -0.0115373337
C  C22  1  0.40720000  0.59280000  0.73350000  1.0 -0.0115373337
C  C23  1  0.59132000  0.23168000  0.29030000  1.0 0.0312897605
C  C24  1  0.23168000  0.59132000  0.70970000  1.0 0.0312897605
C  C25  1  0.40868000  0.76832000  0.70970000  1.0 0.0312897605
C  C26  1  0.76832000  0.40868000  0.29030000  1.0 0.0312897605
C  C27  1  0.59449000  0.21951000  0.07920000  1.0 0.0596676649
C  C28  1  0.21951000  0.59449000  0.92080000  1.0 0.0596676649
C  C29  1  0.40551000  0.78049000  0.92080000  1.0 0.0596676649
C  C30  1  0.78049000  0.40551000  0.07920000  1.0 0.0596676649
C  C31  1  0.60550000  0.39450000  0.94270000  1.0 -0.0253837422
C  C32  1  0.39450000  0.60550000  0.05730000  1.0 -0.0253837422
C  C33  1  0.55790000  0.86690000  0.42070000  1.0 0.1431284059
C  C34  1  0.86690000  0.55790000  0.57930000  1.0 0.1431284059
C  C35  1  0.44210000  0.13310000  0.57930000  1.0 0.1431284059
C  C36  1  0.13310000  0.44210000  0.42070000  1.0 0.1431284059
C  C37  1  0.57490000  0.82870000  0.33850000  1.0 -0.133373955
C  C38  1  0.82870000  0.57490000  0.66150000  1.0 -0.133373955
C  C39  1  0.42510000  0.17130000  0.66150000  1.0 -0.133373955
C  C40  1  0.17130000  0.42510000  0.33850000  1.0 -0.133373955
C  C41  1  0.55890000  0.86750000  0.21710000  1.0 0.152222304
C  C42  1  0.86750000  0.55890000  0.78290000  1.0 0.152222304
C  C43  1  0.44110000  0.13250000  0.78290000  1.0 0.152222304
C  C44  1  0.13250000  0.44110000  0.21710000  1.0 0.152222304
C  C45  1  0.50871000  0.96889000  0.26430000  1.0 0.2353222578
C  C46  1  0.96889000  0.50871000  0.73570000  1.0 0.2347735225
C  C47  1  0.49129000  0.03111000  0.73570000  1.0 0.2353222578
C  C48  1  0.03111000  0.49129000  0.26430000  1.0 0.2347735225
N  N1  1  0.35958000  0.96622000  0.40000000  1.0 -0.3203927797
N  N2  1  0.96622000  0.35958000  0.60000000  1.0 -0.3203927797
N  N3  1  0.64042000  0.03378000  0.60000000  1.0 -0.3203927797
N  N4  1  0.03378000  0.64042000  0.40000000  1.0 -0.3203927797
N  N5  1  0.07340000  0.92660000  0.37610000  1.0 -0.2628298492
N  N6  1  0.92660000  0.07340000  0.62390000  1.0 -0.2628298492
N  N7  1  0.19408000  0.08832000  0.07300000  1.0 -0.3203927797
N  N8  1  0.08832000  0.19408000  0.92700000  1.0 -0.3203927797
N  N9  1  0.80592000  0.91168000  0.92700000  1.0 -0.3203927797
N  N10  1  0.91168000  0.80592000  0.07300000  1.0 -0.3203927797
N  N11  1  0.33398000  0.95982000  0.02750000  1.0 -0.3282277227
N  N12  1  0.95982000  0.33398000  0.97250000  1.0 -0.3282277227
N  N13  1  0.66602000  0.04018000  0.97250000  1.0 -0.3282277227
N  N14  1  0.04018000  0.66602000  0.02750000  1.0 -0.3282277227
N  N15  1  0.28200000  0.71800000  0.28770000  1.0 -0.2712635488
N  N16  1  0.71800000  0.28200000  0.71230000  1.0 -0.2712635488
N  N17  1  0.38446000  0.27494000  0.06480000  1.0 -0.3027433247
N  N18  1  0.27494000  0.38446000  0.93520000  1.0 -0.3027433247
N  N19  1  0.61554000  0.72506000  0.93520000  1.0 -0.3027433247
N  N20  1  0.72506000  0.61554000  0.06480000  1.0 -0.3027433247
N  N21  1  0.56840000  0.43160000  0.33250000  1.0 -0.2501249552
N  N22  1  0.43160000  0.56840000  0.66750000  1.0 -0.2501249552
N  N23  1  0.56604000  0.16336000  0.36850000  1.0 -0.3203927797
N  N24  1  0.16336000  0.56604000  0.63150000  1.0 -0.3203927797
N  N25  1  0.43396000  0.83664000  0.63150000  1.0 -0.3203927797
N  N26  1  0.83664000  0.43396000  0.36850000  1.0 -0.3203927797
N  N27  1  0.56445000  0.14235000  0.04740000  1.0 -0.3203927797
N  N28  1  0.14235000  0.56445000  0.95260000  1.0 -0.3203927797
N  N29  1  0.43555000  0.85765000  0.95260000  1.0 -0.3203927797
N  N30  1  0.85765000  0.43555000  0.04740000  1.0 -0.3203927797
N  N31  1  0.58780000  0.41220000  0.83980000  1.0 -0.2712635488
N  N32  1  0.41220000  0.58780000  0.16020000  1.0 -0.2712635488
N  N33  1  0.52446000  0.93694000  0.38330000  1.0 -0.2273397313
N  N34  1  0.93694000  0.52446000  0.61670000  1.0 -0.2273397313
N  N35  1  0.47554000  0.06306000  0.61670000  1.0 -0.2273397313
N  N36  1  0.06306000  0.47554000  0.38330000  1.0 -0.2273397313
N  N37  1  0.52546000  0.93774000  0.17890000  1.0 -0.2273397313
N  N38  1  0.93774000  0.52546000  0.82110000  1.0 -0.2273397313
N  N39  1  0.47454000  0.06226000  0.82110000  1.0 -0.2273397313
N  N40  1  0.06226000  0.47454000  0.17890000  1.0 -0.2273397313
O  O1  1  0.22140000  0.27280000  0.18790000  1.0 -0.3910566063
O  O2  1  0.27280000  0.22140000  0.81210000  1.0 -0.3910566063
O  O3  1  0.77860000  0.72720000  0.81210000  1.0 -0.3910566063
O  O4  1  0.72720000  0.77860000  0.18790000  1.0 -0.3910566063
