# DDEC6 charges by PACMAN v1.1 (https://github.com/mtap-research/PACMAN-charge/)
data_NIWYAV_ASR_pacman
_symmetry_space_group_name_H-M   'P 1'
_cell_length_a   17.14710000
_cell_length_b   17.14710000
_cell_length_c   17.14710000
_cell_angle_alpha   105.40800000
_cell_angle_beta   105.40800000
_cell_angle_gamma   117.94500000
_symmetry_Int_Tables_number   1
_chemical_formula_structural   ZnH2C6O5
_chemical_formula_sum   'Zn12 H24 C72 O60'
_cell_volume   3816.51619959
_cell_formula_units_Z   12
loop_
 _symmetry_equiv_pos_site_id
 _symmetry_equiv_pos_as_xyz
  1  'x, y, z'
loop_
 _atom_site_type_symbol
 _atom_site_label
 _atom_site_symmetry_multiplicity
 _atom_site_fract_x
 _atom_site_fract_y
 _atom_site_fract_z
 _atom_site_occupancy
 _atom_site_charge
Zn  Zn1  1  0.18290000  0.00906000  0.50000000  1.0 0.9943408427
Zn  Zn2  1  0.50906000  0.68290000  0.50000000  1.0 0.9943408427
Zn  Zn3  1  0.68290000  0.18290000  0.17384000  1.0 0.9943408427
Zn  Zn4  1  0.00906000  0.50906000  0.82616000  1.0 0.9943408427
Zn  Zn5  1  0.07279000  0.94446000  0.62095000  1.0 0.9028348309
Zn  Zn6  1  0.32351000  0.45184000  0.37905000  1.0 0.9028348309
Zn  Zn7  1  0.45184000  0.07279000  0.12833000  1.0 0.9028348309
Zn  Zn8  1  0.94446000  0.32351000  0.87167000  1.0 0.9028348309
Zn  Zn9  1  0.57279000  0.95184000  0.12833000  1.0 0.9028348309
Zn  Zn10  1  0.82351000  0.44446000  0.87167000  1.0 0.9028348309
Zn  Zn11  1  0.95184000  0.82351000  0.37905000  1.0 0.9028348309
Zn  Zn12  1  0.44446000  0.57279000  0.62095000  1.0 0.9028348309
H  H1  1  0.94760000  0.64690000  0.68730000  1.0 0.1282668866
H  H2  1  0.95960000  0.26030000  0.31270000  1.0 0.1282668866
H  H3  1  0.26030000  0.94760000  0.30070000  1.0 0.1282668866
H  H4  1  0.64690000  0.95960000  0.69930000  1.0 0.1282668866
H  H5  1  0.44760000  0.76030000  0.30070000  1.0 0.1282668866
H  H6  1  0.45960000  0.14690000  0.69930000  1.0 0.1282668866
H  H7  1  0.76030000  0.45960000  0.31270000  1.0 0.1282668866
H  H8  1  0.14690000  0.44760000  0.68730000  1.0 0.1282668866
H  H9  1  0.78240000  0.73950000  0.60430000  1.0 0.1282668866
H  H10  1  0.13520000  0.17810000  0.39570000  1.0 0.1282668866
H  H11  1  0.17810000  0.78240000  0.04290000  1.0 0.1282668866
H  H12  1  0.73950000  0.13520000  0.95710000  1.0 0.1282668866
H  H13  1  0.28240000  0.67810000  0.04290000  1.0 0.1282668866
H  H14  1  0.63520000  0.23950000  0.95710000  1.0 0.1282668866
H  H15  1  0.67810000  0.63520000  0.39570000  1.0 0.1282668866
H  H16  1  0.23950000  0.28240000  0.60430000  1.0 0.1282668866
H  H17  1  0.68350000  0.53190000  0.69060000  1.0 0.1282668866
H  H18  1  0.84130000  0.99290000  0.30940000  1.0 0.1282668866
H  H19  1  0.99290000  0.68350000  0.15160000  1.0 0.1282668866
H  H20  1  0.53190000  0.84130000  0.84840000  1.0 0.1282668866
H  H21  1  0.18350000  0.49290000  0.15160000  1.0 0.1282668866
H  H22  1  0.34130000  0.03190000  0.84840000  1.0 0.1282668866
H  H23  1  0.49290000  0.34130000  0.30940000  1.0 0.1282668866
H  H24  1  0.03190000  0.18350000  0.69060000  1.0 0.1282668866
C  C1  1  0.82020000  0.58100000  0.69660000  1.0 -0.0290694999
C  C2  1  0.88440000  0.12360000  0.30340000  1.0 -0.0290694999
C  C3  1  0.12360000  0.82020000  0.23920000  1.0 -0.0290694999
C  C4  1  0.58100000  0.88440000  0.76080000  1.0 -0.0290694999
C  C5  1  0.32020000  0.62360000  0.23920000  1.0 -0.0290694999
C  C6  1  0.38440000  0.08100000  0.76080000  1.0 -0.0290694999
C  C7  1  0.62360000  0.38440000  0.30340000  1.0 -0.0290694999
C  C8  1  0.08100000  0.32020000  0.69660000  1.0 -0.0290694999
C  C9  1  0.87590000  0.70350000  0.64460000  1.0 -0.0290694999
C  C10  1  0.05890000  0.23130000  0.35540000  1.0 -0.0290694999
C  C11  1  0.23130000  0.87590000  0.17240000  1.0 -0.0290694999
C  C12  1  0.70350000  0.05890000  0.82760000  1.0 -0.0290694999
C  C13  1  0.37590000  0.73130000  0.17240000  1.0 -0.0290694999
C  C14  1  0.55890000  0.20350000  0.82760000  1.0 -0.0290694999
C  C15  1  0.73130000  0.55890000  0.35540000  1.0 -0.0290694999
C  C16  1  0.20350000  0.37590000  0.64460000  1.0 -0.0290694999
C  C17  1  0.62300000  0.62570000  0.62130000  1.0 0.5865914432
C  C18  1  0.00440000  0.00170000  0.37870000  1.0 0.5865914432
C  C19  1  0.00170000  0.62300000  0.99730000  1.0 0.5865914432
C  C20  1  0.62570000  0.00440000  0.00270000  1.0 0.5865914432
C  C21  1  0.12300000  0.50170000  0.99730000  1.0 0.5865914432
C  C22  1  0.50440000  0.12570000  0.00270000  1.0 0.5865914432
C  C23  1  0.50170000  0.50440000  0.37870000  1.0 0.5865914432
C  C24  1  0.12570000  0.12300000  0.62130000  1.0 0.5865914432
C  C25  1  0.71690000  0.63300000  0.64250000  1.0 -0.0408128567
C  C26  1  0.99050000  0.07440000  0.35750000  1.0 -0.0408128567
C  C27  1  0.07440000  0.71690000  0.08390000  1.0 -0.0408128567
C  C28  1  0.63300000  0.99050000  0.91610000  1.0 -0.0408128567
C  C29  1  0.21690000  0.57440000  0.08390000  1.0 -0.0408128567
C  C30  1  0.49050000  0.13300000  0.91610000  1.0 -0.0408128567
C  C31  1  0.57440000  0.49050000  0.35750000  1.0 -0.0408128567
C  C32  1  0.13300000  0.21690000  0.64250000  1.0 -0.0408128567
C  C33  1  0.95950000  0.77830000  0.63200000  1.0 0.5503849295
C  C34  1  0.14630000  0.32750000  0.36800000  1.0 0.5503849295
C  C35  1  0.32750000  0.95950000  0.18120000  1.0 0.5503849295
C  C36  1  0.77830000  0.14630000  0.81880000  1.0 0.5503849295
C  C37  1  0.45950000  0.82750000  0.18120000  1.0 0.5503849295
C  C38  1  0.64630000  0.27830000  0.81880000  1.0 0.5503849295
C  C39  1  0.82750000  0.64630000  0.36800000  1.0 0.5503849295
C  C40  1  0.27830000  0.45950000  0.63200000  1.0 0.5503849295
C  C41  1  0.89020000  0.64440000  0.67760000  1.0 -0.0982734365
C  C42  1  0.96680000  0.21260000  0.32240000  1.0 -0.0982734365
C  C43  1  0.21260000  0.89020000  0.24580000  1.0 -0.0982734365
C  C44  1  0.64440000  0.96680000  0.75420000  1.0 -0.0982734365
C  C45  1  0.39020000  0.71260000  0.24580000  1.0 -0.0982734365
C  C46  1  0.46680000  0.14440000  0.75420000  1.0 -0.0982734365
C  C47  1  0.71260000  0.46680000  0.32240000  1.0 -0.0982734365
C  C48  1  0.14440000  0.39020000  0.67760000  1.0 -0.0982734365
C  C49  1  0.79100000  0.69890000  0.62690000  1.0 -0.0982734365
C  C50  1  0.07200000  0.16410000  0.37310000  1.0 -0.0982734365
C  C51  1  0.16410000  0.79100000  0.09210000  1.0 -0.0982734365
C  C52  1  0.69890000  0.07200000  0.90790000  1.0 -0.0982734365
C  C53  1  0.29100000  0.66410000  0.09210000  1.0 -0.0982734365
C  C54  1  0.57200000  0.19890000  0.90790000  1.0 -0.0982734365
C  C55  1  0.66410000  0.57200000  0.37310000  1.0 -0.0982734365
C  C56  1  0.19890000  0.29100000  0.62690000  1.0 -0.0982734365
C  C57  1  0.73160000  0.57470000  0.67850000  1.0 -0.0982734365
C  C58  1  0.89620000  0.05310000  0.32150000  1.0 -0.0982734365
C  C59  1  0.05310000  0.73160000  0.15690000  1.0 -0.0982734365
C  C60  1  0.57470000  0.89620000  0.84310000  1.0 -0.0982734365
C  C61  1  0.23160000  0.55310000  0.15690000  1.0 -0.0982734365
C  C62  1  0.39620000  0.07470000  0.84310000  1.0 -0.0982734365
C  C63  1  0.55310000  0.39620000  0.32150000  1.0 -0.0982734365
C  C64  1  0.07470000  0.23160000  0.67850000  1.0 -0.0982734365
C  C65  1  0.84060000  0.52370000  0.74230000  1.0 0.5865914432
C  C66  1  0.78140000  0.09830000  0.25770000  1.0 0.5865914432
C  C67  1  0.09830000  0.84060000  0.31690000  1.0 0.5865914432
C  C68  1  0.52370000  0.78140000  0.68310000  1.0 0.5865914432
C  C69  1  0.34060000  0.59830000  0.31690000  1.0 0.5865914432
C  C70  1  0.28140000  0.02370000  0.68310000  1.0 0.5865914432
C  C71  1  0.59830000  0.28140000  0.25770000  1.0 0.5865914432
C  C72  1  0.02370000  0.34060000  0.74230000  1.0 0.5865914432
O  O1  1  0.06090000  0.89010000  0.50000000  1.0 -0.6526899579
O  O2  1  0.39010000  0.56090000  0.50000000  1.0 -0.6526899579
O  O3  1  0.56090000  0.06090000  0.17080000  1.0 -0.6526899579
O  O4  1  0.89010000  0.39010000  0.82920000  1.0 -0.6526899579
O  O5  1  0.61790000  0.68850000  0.59780000  1.0 -0.5901674497
O  O6  1  0.09070000  0.02010000  0.40220000  1.0 -0.5901674497
O  O7  1  0.02010000  0.61790000  0.92940000  1.0 -0.5901674497
O  O8  1  0.68850000  0.09070000  0.07060000  1.0 -0.5901674497
O  O9  1  0.11790000  0.52010000  0.92940000  1.0 -0.5901674497
O  O10  1  0.59070000  0.18850000  0.07060000  1.0 -0.5901674497
O  O11  1  0.52010000  0.59070000  0.40220000  1.0 -0.5901674497
O  O12  1  0.18850000  0.11790000  0.59780000  1.0 -0.5901674497
O  O13  1  0.90470000  0.51130000  0.73340000  1.0 -0.5570058244
O  O14  1  0.77790000  0.17130000  0.26660000  1.0 -0.5570058244
O  O15  1  0.17130000  0.90470000  0.39340000  1.0 -0.5570058244
O  O16  1  0.51130000  0.77790000  0.60660000  1.0 -0.5570058244
O  O17  1  0.40470000  0.67130000  0.39340000  1.0 -0.5570058244
O  O18  1  0.27790000  0.01130000  0.60660000  1.0 -0.5570058244
O  O19  1  0.67130000  0.27790000  0.26660000  1.0 -0.5570058244
O  O20  1  0.01130000  0.40470000  0.73340000  1.0 -0.5570058244
O  O21  1  0.96350000  0.85640000  0.63710000  1.0 -0.5198025646
O  O22  1  0.21930000  0.32640000  0.36290000  1.0 -0.5198025646
O  O23  1  0.32640000  0.96350000  0.10710000  1.0 -0.5198025646
O  O24  1  0.85640000  0.21930000  0.89290000  1.0 -0.5198025646
O  O25  1  0.46350000  0.82640000  0.10710000  1.0 -0.5198025646
O  O26  1  0.71930000  0.35640000  0.89290000  1.0 -0.5198025646
O  O27  1  0.82640000  0.71930000  0.36290000  1.0 -0.5198025646
O  O28  1  0.35640000  0.46350000  0.63710000  1.0 -0.5198025646
O  O29  1  0.55750000  0.56350000  0.63280000  1.0 -0.5141828003
O  O30  1  0.93070000  0.92470000  0.36720000  1.0 -0.5141828003
O  O31  1  0.92470000  0.55750000  0.99400000  1.0 -0.5141828003
O  O32  1  0.56350000  0.93070000  0.00600000  1.0 -0.5141828003
O  O33  1  0.05750000  0.42470000  0.99400000  1.0 -0.5141828003
O  O34  1  0.43070000  0.06350000  0.00600000  1.0 -0.5141828003
O  O35  1  0.42470000  0.43070000  0.36720000  1.0 -0.5141828003
O  O36  1  0.06350000  0.05750000  0.63280000  1.0 -0.5141828003
O  O37  1  0.08960000  0.82050000  0.55930000  1.0 0.3580317197
O  O38  1  0.26120000  0.53030000  0.44070000  1.0 0.3580317197
O  O39  1  0.53030000  0.08960000  0.26910000  1.0 0.3542370853
O  O40  1  0.82050000  0.26120000  0.73090000  1.0 0.3580317197
O  O41  1  0.58960000  0.03030000  0.26910000  1.0 0.3542370853
O  O42  1  0.76120000  0.32050000  0.73090000  1.0 0.3580317197
O  O43  1  0.03030000  0.76120000  0.44070000  1.0 0.3542370853
O  O44  1  0.32050000  0.58960000  0.55930000  1.0 0.3580317197
O  O45  1  0.02000000  0.76470000  0.62110000  1.0 -0.4041217211
O  O46  1  0.14360000  0.39890000  0.37890000  1.0 -0.4082483294
O  O47  1  0.39890000  0.02000000  0.25530000  1.0 -0.4041217211
O  O48  1  0.76470000  0.14360000  0.74470000  1.0 -0.4082483294
O  O49  1  0.52000000  0.89890000  0.25530000  1.0 -0.4082483294
O  O50  1  0.64360000  0.26470000  0.74470000  1.0 -0.4082483294
O  O51  1  0.89890000  0.64360000  0.37890000  1.0 -0.4041217211
O  O52  1  0.26470000  0.52000000  0.62110000  1.0 -0.4082483294
O  O53  1  0.79500000  0.49760000  0.78780000  1.0 -0.5570058244
O  O54  1  0.70980000  0.00720000  0.21220000  1.0 -0.5570058244
O  O55  1  0.00720000  0.79500000  0.29740000  1.0 -0.5570058244
O  O56  1  0.49760000  0.70980000  0.70260000  1.0 -0.5570058244
O  O57  1  0.29500000  0.50720000  0.29740000  1.0 -0.5570058244
O  O58  1  0.20980000  0.99760000  0.70260000  1.0 -0.5570058244
O  O59  1  0.50720000  0.20980000  0.21220000  1.0 -0.5570058244
O  O60  1  0.99760000  0.29500000  0.78780000  1.0 -0.5570058244
