# DDEC6 charges by PACMAN v1.1 (https://github.com/mtap-research/PACMAN-charge/)
data_NOCYUB_FSR_pacman
_symmetry_space_group_name_H-M   'P 1'
_cell_length_a   7.87500000
_cell_length_b   13.89800000
_cell_length_c   13.91000000
_cell_angle_alpha   107.62400000
_cell_angle_beta   97.41600000
_cell_angle_gamma   97.31000000
_symmetry_Int_Tables_number   1
_chemical_formula_structural   Sr2ZnH15C21N3O16
_chemical_formula_sum   'Sr4 Zn2 H30 C42 N6 O32'
_cell_volume   1416.35728366
_cell_formula_units_Z   2
loop_
 _symmetry_equiv_pos_site_id
 _symmetry_equiv_pos_as_xyz
  1  'x, y, z'
loop_
 _atom_site_type_symbol
 _atom_site_label
 _atom_site_symmetry_multiplicity
 _atom_site_fract_x
 _atom_site_fract_y
 _atom_site_fract_z
 _atom_site_occupancy
 _atom_site_charge
Sr  Sr1  1  0.60519000  0.70340000  0.20327000  1.0 1.4790405329
Sr  Sr2  1  0.39481000  0.29660000  0.79673000  1.0 1.4790405329
Sr  Sr3  1  0.04672000  0.62629000  0.12646000  1.0 1.3969918783
Sr  Sr4  1  0.95328000  0.37371000  0.87354000  1.0 1.3969918783
Zn  Zn1  1  0.99880000  0.75918000  0.74086000  1.0 0.7423423822
Zn  Zn2  1  0.00120000  0.24082000  0.25914000  1.0 0.7423423822
H  H1  1  0.73670000  0.47000000  0.33850000  1.0 0.1323344703
H  H2  1  0.26330000  0.53000000  0.66150000  1.0 0.1323344703
H  H3  1  0.63830000  0.43740000  0.47760000  1.0 0.1368190791
H  H4  1  0.36170000  0.56260000  0.52240000  1.0 0.1368190791
H  H5  1  0.73200000  0.55490000  0.63690000  1.0 0.1141804229
H  H6  1  0.26800000  0.44510000  0.36310000  1.0 0.1141804229
H  H7  1  0.39410000  0.59800000  0.90250000  1.0 0.149518847
H  H8  1  0.60590000  0.40200000  0.09750000  1.0 0.149518847
H  H9  1  0.34590000  0.70570000  0.80680000  1.0 0.1368190791
H  H10  1  0.65410000  0.29430000  0.19320000  1.0 0.1368190791
H  H11  1  0.57230000  0.77350000  0.74190000  1.0 0.1368190791
H  H12  1  0.42770000  0.22650000  0.25810000  1.0 0.1368190791
H  H13  1  0.72000000  0.82400000  0.97500000  1.0 0.0961695681
H  H14  1  0.28000000  0.17600000  0.02500000  1.0 0.0961695681
H  H15  1  0.63490000  0.97570000  0.93830000  1.0 0.1368190791
H  H16  1  0.36510000  0.02430000  0.06170000  1.0 0.1368190791
H  H17  1  0.73050000  0.13750000  0.05400000  1.0 0.1173937689
H  H18  1  0.26950000  0.86250000  0.94600000  1.0 0.1173937689
H  H19  1  0.37200000  0.59870000  0.29820000  1.0 0.382579654
H  H20  1  0.62800000  0.40130000  0.70180000  1.0 0.382579654
H  H21  1  0.50100000  0.66360000  0.39120000  1.0 0.3905831869
H  H22  1  0.49900000  0.33640000  0.60880000  1.0 0.3905831869
H  H23  1  0.21930000  0.82700000  0.27600000  1.0 0.3605104382
H  H24  1  0.78070000  0.17300000  0.72400000  1.0 0.3605104382
H  H25  1  0.29090000  0.77910000  0.33940000  1.0 0.3426225926
H  H26  1  0.70910000  0.22090000  0.66060000  1.0 0.3426225926
H  H27  1  0.51510000  0.89100000  0.16380000  1.0 0.3710125382
H  H28  1  0.48490000  0.10900000  0.83620000  1.0 0.3710125382
H  H29  1  0.37110000  0.81970000  0.09060000  1.0 0.3905831869
H  H30  1  0.62890000  0.18030000  0.90940000  1.0 0.3905831869
C  C1  1  0.97480000  0.66210000  0.52100000  1.0 0.0827825363
C  C2  1  0.02520000  0.33790000  0.47900000  1.0 0.0827825363
C  C3  1  0.91270000  0.59660000  0.42160000  1.0 -0.0427883123
C  C4  1  0.08730000  0.40340000  0.57840000  1.0 -0.0427883123
C  C5  1  0.78200000  0.51340000  0.40480000  1.0 -0.0618930985
C  C6  1  0.21800000  0.48660000  0.59520000  1.0 -0.0618930985
C  C7  1  0.72000000  0.49550000  0.48700000  1.0 -0.1421947893
C  C8  1  0.28000000  0.50450000  0.51300000  1.0 -0.1421947893
C  C9  1  0.78000000  0.56450000  0.58200000  1.0 0.0961695681
C  C10  1  0.22000000  0.43550000  0.41800000  1.0 0.0961695681
C  C11  1  0.12100000  0.75270000  0.55090000  1.0 0.5464915331
C  C12  1  0.87900000  0.24730000  0.44910000  1.0 0.5464915331
C  C13  1  0.97490000  0.61170000  0.32740000  1.0 0.6175482269
C  C14  1  0.02510000  0.38830000  0.67260000  1.0 0.6175482269
C  C15  1  0.78510000  0.64180000  0.85610000  1.0 0.0418190207
C  C16  1  0.21490000  0.35820000  0.14390000  1.0 0.0418190207
C  C17  1  0.64950000  0.60120000  0.89500000  1.0 -0.0618930985
C  C18  1  0.35050000  0.39880000  0.10500000  1.0 -0.0618930985
C  C19  1  0.48490000  0.62520000  0.87650000  1.0 -0.0618930985
C  C20  1  0.51510000  0.37480000  0.12350000  1.0 -0.0618930985
C  C21  1  0.45600000  0.68970000  0.81910000  1.0 -0.1322619547
C  C22  1  0.54400000  0.31030000  0.18090000  1.0 -0.1322619547
C  C23  1  0.59160000  0.73030000  0.78030000  1.0 0.0704621296
C  C24  1  0.40840000  0.26970000  0.21970000  1.0 0.0704621296
C  C25  1  0.97050000  0.62680000  0.87360000  1.0 0.5801612432
C  C26  1  0.02950000  0.37320000  0.12640000  1.0 0.5801612432
C  C27  1  0.67300000  0.52640000  0.95200000  1.0 0.6004549559
C  C28  1  0.32700000  0.47360000  0.04800000  1.0 0.6004549559
C  C29  1  0.97360000  0.02020000  0.16190000  1.0 0.0917997989
C  C30  1  0.02640000  0.97980000  0.83810000  1.0 0.0917997989
C  C31  1  0.91250000  0.92030000  0.09570000  1.0 -0.0618930985
C  C32  1  0.08750000  0.07970000  0.90430000  1.0 -0.0618930985
C  C33  1  0.78400000  0.90630000  0.01350000  1.0 -0.0336373676
C  C34  1  0.21600000  0.09370000  0.98650000  1.0 -0.0336373676
C  C35  1  0.71900000  0.98630000  0.99580000  1.0 -0.1421947893
C  C36  1  0.28100000  0.01370000  0.00420000  1.0 -0.1421947893
C  C37  1  0.77800000  0.08260000  0.06390000  1.0 0.0704621296
C  C38  1  0.22200000  0.91740000  0.93610000  1.0 0.0704621296
C  C39  1  0.12030000  0.05090000  0.25240000  1.0 0.5464915331
C  C40  1  0.87970000  0.94910000  0.74760000  1.0 0.5464915331
C  C41  1  0.97260000  0.82700000  0.11110000  1.0 0.6097547706
C  C42  1  0.02740000  0.17300000  0.88890000  1.0 0.6097547706
N  N1  1  0.75620000  0.70640000  0.79880000  1.0 -0.2936958675
N  N2  1  0.24380000  0.29360000  0.20120000  1.0 -0.2936958675
N  N3  1  0.90400000  0.64500000  0.59940000  1.0 -0.2137033646
N  N4  1  0.09600000  0.35500000  0.40060000  1.0 -0.2137033646
N  N5  1  0.90570000  0.09970000  0.14550000  1.0 -0.2232268308
N  N6  1  0.09430000  0.90030000  0.85450000  1.0 -0.2232268308
O  O1  1  0.16830000  0.79540000  0.64520000  1.0 -0.5127569143
O  O2  1  0.83170000  0.20460000  0.35480000  1.0 -0.5127569143
O  O3  1  0.18770000  0.77310000  0.48250000  1.0 -0.4763670717
O  O4  1  0.81230000  0.22690000  0.51750000  1.0 -0.4763670717
O  O5  1  0.10720000  0.58110000  0.29950000  1.0 -0.5606512134
O  O6  1  0.89280000  0.41890000  0.70050000  1.0 -0.5606512134
O  O7  1  0.87100000  0.64730000  0.27560000  1.0 -0.6260258262
O  O8  1  0.12900000  0.35270000  0.72440000  1.0 -0.6260258262
O  O9  1  0.06370000  0.66360000  0.82240000  1.0 -0.4922764008
O  O10  1  0.93630000  0.33640000  0.17760000  1.0 -0.4922764008
O  O11  1  0.99900000  0.57310000  0.92640000  1.0 -0.5533413593
O  O12  1  0.00100000  0.42690000  0.07360000  1.0 -0.5533413593
O  O13  1  0.66170000  0.41760000  0.91950000  1.0 -0.7659110729
O  O14  1  0.33830000  0.58240000  0.08050000  1.0 -0.7659110729
O  O15  1  0.70370000  0.55680000  0.05680000  1.0 -0.6608318393
O  O16  1  0.29630000  0.44320000  0.94320000  1.0 -0.6608318393
O  O17  1  0.16690000  0.14540000  0.29800000  1.0 -0.5127569143
O  O18  1  0.83310000  0.85460000  0.70200000  1.0 -0.5127569143
O  O19  1  0.18870000  0.98290000  0.27370000  1.0 -0.4712731992
O  O20  1  0.81130000  0.01710000  0.72630000  1.0 -0.4712731992
O  O21  1  0.86920000  0.77450000  0.14620000  1.0 -0.6350981896
O  O22  1  0.13080000  0.22550000  0.85380000  1.0 -0.6350981896
O  O23  1  0.10710000  0.79980000  0.08050000  1.0 -0.5606512134
O  O24  1  0.89290000  0.20020000  0.91950000  1.0 -0.5606512134
O  O25  1  0.70700000  0.85770000  0.35850000  1.0 -0.4712731992
O  O26  1  0.29300000  0.14230000  0.64150000  1.0 -0.4712731992
O  O27  1  0.47640000  0.62260000  0.32950000  1.0 -0.7327633803
O  O28  1  0.52360000  0.37740000  0.67050000  1.0 -0.7327633803
O  O29  1  0.26890000  0.77570000  0.27640000  1.0 -0.7408466046
O  O30  1  0.73110000  0.22430000  0.72360000  1.0 -0.7408466046
O  O31  1  0.47460000  0.83010000  0.12350000  1.0 -0.7234371607
O  O32  1  0.52540000  0.16990000  0.87650000  1.0 -0.7234371607
