# DDEC6 charges by PACMAN v1.1 (https://github.com/mtap-research/PACMAN-charge/)
data_NOCZAI_ASR_pacman
_symmetry_space_group_name_H-M   'P 1'
_cell_length_a   7.83400000
_cell_length_b   13.78200000
_cell_length_c   13.79800000
_cell_angle_alpha   107.57700000
_cell_angle_beta   97.32800000
_cell_angle_gamma   97.03400000
_symmetry_Int_Tables_number   1
_chemical_formula_structural   Sr2NiH11C21N3O13
_chemical_formula_sum   'Sr4 Ni2 H22 C42 N6 O26'
_cell_volume   1388.02760141
_cell_formula_units_Z   2
loop_
 _symmetry_equiv_pos_site_id
 _symmetry_equiv_pos_as_xyz
  1  'x, y, z'
loop_
 _atom_site_type_symbol
 _atom_site_label
 _atom_site_symmetry_multiplicity
 _atom_site_fract_x
 _atom_site_fract_y
 _atom_site_fract_z
 _atom_site_occupancy
 _atom_site_charge
Sr  Sr1  1  0.60210000  0.70232000  0.20543000  1.0 1.5003212688
Sr  Sr2  1  0.39790000  0.29768000  0.79457000  1.0 1.5003212688
Sr  Sr3  1  0.04431000  0.62649000  0.12700000  1.0 1.3884119985
Sr  Sr4  1  0.95569000  0.37351000  0.87300000  1.0 1.3884119985
Ni  Ni1  1  0.97480000  0.75517000  0.73631000  1.0 0.6642144916
Ni  Ni2  1  0.02520000  0.24483000  0.26369000  1.0 0.6642144916
H  H1  1  0.74520000  0.46180000  0.33660000  1.0 0.1240438817
H  H2  1  0.25480000  0.53820000  0.66340000  1.0 0.1240438817
H  H3  1  0.62690000  0.43180000  0.47030000  1.0 0.1300100409
H  H4  1  0.37310000  0.56820000  0.52970000  1.0 0.1300100409
H  H5  1  0.71630000  0.55050000  0.63410000  1.0 0.1032515948
H  H6  1  0.28370000  0.44950000  0.36590000  1.0 0.1032515948
H  H7  1  0.39630000  0.60140000  0.90200000  1.0 0.1452351732
H  H8  1  0.60370000  0.39860000  0.09800000  1.0 0.1452351732
H  H9  1  0.34420000  0.71400000  0.80440000  1.0 0.1356353311
H  H10  1  0.65580000  0.28600000  0.19560000  1.0 0.1356353311
H  H11  1  0.57350000  0.77910000  0.74390000  1.0 0.1300100409
H  H12  1  0.42650000  0.22090000  0.25610000  1.0 0.1300100409
H  H13  1  0.21670000  0.82620000  0.27770000  1.0 0.3433868958
H  H14  1  0.78330000  0.17380000  0.72230000  1.0 0.3433868958
H  H15  1  0.28830000  0.77830000  0.34120000  1.0 0.3433868958
H  H16  1  0.71170000  0.22170000  0.65880000  1.0 0.3433868958
H  H17  1  0.73450000  0.84770000  0.97500000  1.0 0.1106005681
H  H18  1  0.26550000  0.15230000  0.02500000  1.0 0.1106005681
H  H19  1  0.64180000  0.98930000  0.94450000  1.0 0.1300100409
H  H20  1  0.35820000  0.01070000  0.05550000  1.0 0.1300100409
H  H21  1  0.75290000  0.15110000  0.05810000  1.0 0.1106005681
H  H22  1  0.24710000  0.84890000  0.94190000  1.0 0.1106005681
C  C1  1  0.96660000  0.65740000  0.52220000  1.0 0.0610115352
C  C2  1  0.03340000  0.34260000  0.47780000  1.0 0.0610115352
C  C3  1  0.91180000  0.59210000  0.42130000  1.0 -0.0519650711
C  C4  1  0.08820000  0.40790000  0.57870000  1.0 -0.0519650711
C  C5  1  0.78280000  0.50720000  0.40340000  1.0 -0.079496924
C  C6  1  0.21720000  0.49280000  0.59660000  1.0 -0.079496924
C  C7  1  0.71100000  0.48960000  0.48170000  1.0 -0.1407461243
C  C8  1  0.28900000  0.51040000  0.51830000  1.0 -0.1407461243
C  C9  1  0.76800000  0.56070000  0.58000000  1.0 0.1032515948
C  C10  1  0.23200000  0.43930000  0.42000000  1.0 0.1032515948
C  C11  1  0.11560000  0.74680000  0.55430000  1.0 0.5355586407
C  C12  1  0.88440000  0.25320000  0.44570000  1.0 0.5355586407
C  C13  1  0.97530000  0.60750000  0.32770000  1.0 0.597163677
C  C14  1  0.02470000  0.39250000  0.67230000  1.0 0.597163677
C  C15  1  0.78380000  0.64640000  0.85290000  1.0 0.0610115352
C  C16  1  0.21620000  0.35360000  0.14710000  1.0 0.0610115352
C  C17  1  0.64000000  0.60360000  0.89400000  1.0 -0.0699261485
C  C18  1  0.36000000  0.39640000  0.10600000  1.0 -0.0699261485
C  C19  1  0.48780000  0.62860000  0.87590000  1.0 -0.0699261485
C  C20  1  0.51220000  0.37140000  0.12410000  1.0 -0.0699261485
C  C21  1  0.45400000  0.69690000  0.81700000  1.0 -0.1407461243
C  C22  1  0.54600000  0.30310000  0.18300000  1.0 -0.1407461243
C  C23  1  0.59050000  0.73430000  0.78150000  1.0 0.0717567352
C  C24  1  0.40950000  0.26570000  0.21850000  1.0 0.0717567352
C  C25  1  0.96850000  0.62740000  0.86710000  1.0 0.5553641913
C  C26  1  0.03150000  0.37260000  0.13290000  1.0 0.5553641913
C  C27  1  0.67500000  0.52860000  0.95240000  1.0 0.6248784659
C  C28  1  0.32500000  0.47140000  0.04760000  1.0 0.6252613661
C  C29  1  0.97900000  0.02570000  0.16620000  1.0 0.0610115352
C  C30  1  0.02100000  0.97430000  0.83380000  1.0 0.0610115352
C  C31  1  0.91130000  0.92560000  0.10180000  1.0 -0.0519650711
C  C32  1  0.08870000  0.07440000  0.89820000  1.0 -0.0519650711
C  C33  1  0.78310000  0.91370000  0.01930000  1.0 -0.079496924
C  C34  1  0.21690000  0.08630000  0.98070000  1.0 -0.079496924
C  C35  1  0.72610000  0.99770000  0.00160000  1.0 -0.1407461243
C  C36  1  0.27390000  0.00230000  0.99840000  1.0 -0.1407461243
C  C37  1  0.79400000  0.09410000  0.06880000  1.0 0.0901359802
C  C38  1  0.20600000  0.90590000  0.93120000  1.0 0.0901359802
C  C39  1  0.12130000  0.05390000  0.25840000  1.0 0.5312399266
C  C40  1  0.87870000  0.94610000  0.74160000  1.0 0.5312399266
C  C41  1  0.96830000  0.83020000  0.11640000  1.0 0.597163677
C  C42  1  0.03170000  0.16980000  0.88360000  1.0 0.597163677
N  N1  1  0.88910000  0.64060000  0.59980000  1.0 -0.2240158023
N  N2  1  0.11090000  0.35940000  0.40020000  1.0 -0.2240158023
N  N3  1  0.74890000  0.71050000  0.79740000  1.0 -0.2556619944
N  N4  1  0.25110000  0.28950000  0.20260000  1.0 -0.2556619944
N  N5  1  0.91900000  0.10810000  0.14920000  1.0 -0.2306996735
N  N6  1  0.08100000  0.89190000  0.85080000  1.0 -0.2306996735
O  O1  1  0.15960000  0.78580000  0.65190000  1.0 -0.5296185615
O  O2  1  0.84040000  0.21420000  0.34810000  1.0 -0.5296185615
O  O3  1  0.18800000  0.76990000  0.48910000  1.0 -0.4879965486
O  O4  1  0.81200000  0.23010000  0.51090000  1.0 -0.4879965486
O  O5  1  0.10840000  0.58060000  0.30060000  1.0 -0.5296185615
O  O6  1  0.89160000  0.41940000  0.69940000  1.0 -0.5296185615
O  O7  1  0.86790000  0.64040000  0.27360000  1.0 -0.6803356411
O  O8  1  0.13210000  0.35960000  0.72640000  1.0 -0.6803356411
O  O9  1  0.06150000  0.66020000  0.81650000  1.0 -0.4794515374
O  O10  1  0.93850000  0.33980000  0.18350000  1.0 -0.4794515374
O  O11  1  0.00080000  0.57390000  0.92480000  1.0 -0.6177101137
O  O12  1  0.99920000  0.42610000  0.07520000  1.0 -0.6177101137
O  O13  1  0.66400000  0.43080000  0.90780000  1.0 -0.6935689153
O  O14  1  0.33600000  0.56920000  0.09220000  1.0 -0.6935689153
O  O15  1  0.70300000  0.56140000  0.05230000  1.0 -0.6663059594
O  O16  1  0.29700000  0.43860000  0.94770000  1.0 -0.6663059594
O  O17  1  0.16580000  0.14660000  0.30940000  1.0 -0.5094191136
O  O18  1  0.83420000  0.85340000  0.69060000  1.0 -0.5094191136
O  O19  1  0.18990000  0.98220000  0.27740000  1.0 -0.5031579437
O  O20  1  0.81010000  0.01780000  0.72260000  1.0 -0.5031579437
O  O21  1  0.86830000  0.77950000  0.15430000  1.0 -0.6803356411
O  O22  1  0.13170000  0.22050000  0.84570000  1.0 -0.6803356411
O  O23  1  0.10070000  0.80010000  0.08390000  1.0 -0.5638224186
O  O24  1  0.89930000  0.19990000  0.91610000  1.0 -0.5638224186
O  O25  1  0.26640000  0.77490000  0.27820000  1.0 -0.7721246483
O  O26  1  0.73360000  0.22510000  0.72180000  1.0 -0.7721246483
