# DDEC6 charges by PACMAN v1.1 (https://github.com/mtap-research/PACMAN-charge/)
data_NODJIC01_ion_pacman
_symmetry_space_group_name_H-M   'P 1'
_cell_length_a   10.11000000
_cell_length_b   12.80000000
_cell_length_c   20.45300000
_cell_angle_alpha   90.00000000
_cell_angle_beta   90.00000000
_cell_angle_gamma   90.00000000
_symmetry_Int_Tables_number   1
_chemical_formula_structural   CuH28C32(N5O3)2
_chemical_formula_sum   'Cu4 H112 C128 N40 O24'
_cell_volume   2646.78182400
_cell_formula_units_Z   4
loop_
 _symmetry_equiv_pos_site_id
 _symmetry_equiv_pos_as_xyz
  1  'x, y, z'
loop_
 _atom_site_type_symbol
 _atom_site_label
 _atom_site_symmetry_multiplicity
 _atom_site_fract_x
 _atom_site_fract_y
 _atom_site_fract_z
 _atom_site_occupancy
 _atom_site_charge
Cu  Cu1  1  0.00000000  0.00000000  0.00000000  1.0 0.6733925681
Cu  Cu2  1  0.50000000  0.50000000  0.50000000  1.0 0.6733925681
Cu  Cu3  1  0.00000000  0.00000000  0.50000000  1.0 0.6733925681
Cu  Cu4  1  0.50000000  0.50000000  0.00000000  1.0 0.6733925681
H  H1  1  0.88500000  0.10388000  0.12510000  1.0 0.1008395648
H  H2  1  0.74378000  0.21393000  0.19003000  1.0 0.1198399614
H  H3  1  0.68466000  0.27008000  0.29413000  1.0 0.1008395648
H  H4  1  0.58479000  0.40509000  0.36351000  1.0 0.1095615196
H  H5  1  0.95690000  0.42985000  0.41615000  1.0 0.1198399614
H  H6  1  0.81823000  0.49541000  0.50323000  1.0 0.1095615196
H  H7  1  0.00086000  0.44459000  0.30306000  1.0 0.1095615196
H  H8  1  0.06943000  0.38275000  0.20195000  1.0 0.1095615196
H  H9  1  0.06613000  0.36405000  0.08290000  1.0 0.1198399614
H  H10  1  0.11060000  0.23732000  0.99669000  1.0 0.1198399614
H  H11  1  0.73163000  0.35207000  0.15173000  1.0 0.1095615196
H  H12  1  0.66264000  0.41641000  0.25108000  1.0 0.1008395648
H  H13  1  0.04164000  0.22169000  0.23601000  1.0 0.092846779
H  H14  1  0.96787000  0.27708000  0.33688000  1.0 0.1198399614
H  H15  1  0.61500000  0.39612000  0.62510000  1.0 0.1008395648
H  H16  1  0.75622000  0.28607000  0.69003000  1.0 0.1198399614
H  H17  1  0.81534000  0.22992000  0.79413000  1.0 0.1008395648
H  H18  1  0.91521000  0.09491000  0.86351000  1.0 0.1095615196
H  H19  1  0.54310000  0.07015000  0.91615000  1.0 0.1198399614
H  H20  1  0.68177000  0.00459000  0.00323000  1.0 0.1095615196
H  H21  1  0.49914000  0.05541000  0.80306000  1.0 0.1095615196
H  H22  1  0.43057000  0.11725000  0.70195000  1.0 0.1095615196
H  H23  1  0.43387000  0.13595000  0.58290000  1.0 0.1198399614
H  H24  1  0.38940000  0.26268000  0.49669000  1.0 0.1198399614
H  H25  1  0.76837000  0.14793000  0.65173000  1.0 0.1095615196
H  H26  1  0.83736000  0.08359000  0.75108000  1.0 0.1008395648
H  H27  1  0.45836000  0.27831000  0.73601000  1.0 0.092846779
H  H28  1  0.53213000  0.22292000  0.83688000  1.0 0.1198399614
H  H29  1  0.11500000  0.89612000  0.87490000  1.0 0.1008395648
H  H30  1  0.25622000  0.78607000  0.80997000  1.0 0.1198399614
H  H31  1  0.31534000  0.72992000  0.70587000  1.0 0.1008395648
H  H32  1  0.41521000  0.59491000  0.63649000  1.0 0.1095615196
H  H33  1  0.04310000  0.57015000  0.58385000  1.0 0.1198399614
H  H34  1  0.18177000  0.50459000  0.49677000  1.0 0.1095615196
H  H35  1  0.99914000  0.55541000  0.69694000  1.0 0.1095615196
H  H36  1  0.93057000  0.61725000  0.79805000  1.0 0.1095615196
H  H37  1  0.93387000  0.63595000  0.91710000  1.0 0.1198399614
H  H38  1  0.88940000  0.76268000  0.00331000  1.0 0.1198399614
H  H39  1  0.26837000  0.64793000  0.84827000  1.0 0.1095615196
H  H40  1  0.33736000  0.58359000  0.74892000  1.0 0.1008395648
H  H41  1  0.95836000  0.77831000  0.76399000  1.0 0.092846779
H  H42  1  0.03213000  0.72292000  0.66312000  1.0 0.1198399614
H  H43  1  0.38500000  0.60388000  0.37490000  1.0 0.1008395648
H  H44  1  0.24378000  0.71393000  0.30997000  1.0 0.1198399614
H  H45  1  0.18466000  0.77008000  0.20587000  1.0 0.1008395648
H  H46  1  0.08479000  0.90509000  0.13649000  1.0 0.1095615196
H  H47  1  0.45690000  0.92985000  0.08385000  1.0 0.1198399614
H  H48  1  0.31823000  0.99541000  0.99677000  1.0 0.1095615196
H  H49  1  0.50086000  0.94459000  0.19694000  1.0 0.1095615196
H  H50  1  0.56943000  0.88275000  0.29805000  1.0 0.1095615196
H  H51  1  0.56613000  0.86405000  0.41710000  1.0 0.1198399614
H  H52  1  0.61060000  0.73732000  0.50331000  1.0 0.1198399614
H  H53  1  0.23163000  0.85207000  0.34827000  1.0 0.1095615196
H  H54  1  0.16264000  0.91641000  0.24892000  1.0 0.1008395648
H  H55  1  0.54164000  0.72169000  0.26399000  1.0 0.092846779
H  H56  1  0.46787000  0.77708000  0.16312000  1.0 0.1198399614
H  H57  1  0.88500000  0.89612000  0.37490000  1.0 0.1008395648
H  H58  1  0.74378000  0.78607000  0.30997000  1.0 0.1198399614
H  H59  1  0.68466000  0.72992000  0.20587000  1.0 0.1008395648
H  H60  1  0.58479000  0.59491000  0.13649000  1.0 0.1095615196
H  H61  1  0.95690000  0.57015000  0.08385000  1.0 0.1198399614
H  H62  1  0.81823000  0.50459000  0.99677000  1.0 0.1095615196
H  H63  1  0.00086000  0.55541000  0.19694000  1.0 0.1095615196
H  H64  1  0.06943000  0.61725000  0.29805000  1.0 0.1095615196
H  H65  1  0.06613000  0.63595000  0.41710000  1.0 0.1198399614
H  H66  1  0.11060000  0.76268000  0.50331000  1.0 0.1198399614
H  H67  1  0.73163000  0.64793000  0.34827000  1.0 0.1095615196
H  H68  1  0.66264000  0.58359000  0.24892000  1.0 0.1008395648
H  H69  1  0.04164000  0.77831000  0.26399000  1.0 0.092846779
H  H70  1  0.96787000  0.72292000  0.16312000  1.0 0.1198399614
H  H71  1  0.61500000  0.60388000  0.87490000  1.0 0.1008395648
H  H72  1  0.75622000  0.71393000  0.80997000  1.0 0.1198399614
H  H73  1  0.81534000  0.77008000  0.70587000  1.0 0.1008395648
H  H74  1  0.91521000  0.90509000  0.63649000  1.0 0.1095615196
H  H75  1  0.54310000  0.92985000  0.58385000  1.0 0.1198399614
H  H76  1  0.68177000  0.99541000  0.49677000  1.0 0.1095615196
H  H77  1  0.49914000  0.94459000  0.69694000  1.0 0.1095615196
H  H78  1  0.43057000  0.88275000  0.79805000  1.0 0.1095615196
H  H79  1  0.43387000  0.86405000  0.91710000  1.0 0.1198399614
H  H80  1  0.38940000  0.73732000  0.00331000  1.0 0.1198399614
H  H81  1  0.76837000  0.85207000  0.84827000  1.0 0.1095615196
H  H82  1  0.83736000  0.91641000  0.74892000  1.0 0.1008395648
H  H83  1  0.45836000  0.72169000  0.76399000  1.0 0.092846779
H  H84  1  0.53213000  0.77708000  0.66312000  1.0 0.1198399614
H  H85  1  0.11500000  0.10388000  0.62510000  1.0 0.1008395648
H  H86  1  0.25622000  0.21393000  0.69003000  1.0 0.1198399614
H  H87  1  0.31534000  0.27008000  0.79413000  1.0 0.1008395648
H  H88  1  0.41521000  0.40509000  0.86351000  1.0 0.1095615196
H  H89  1  0.04310000  0.42985000  0.91615000  1.0 0.1198399614
H  H90  1  0.18177000  0.49541000  0.00323000  1.0 0.1095615196
H  H91  1  0.99914000  0.44459000  0.80306000  1.0 0.1095615196
H  H92  1  0.93057000  0.38275000  0.70195000  1.0 0.1095615196
H  H93  1  0.93387000  0.36405000  0.58290000  1.0 0.1198399614
H  H94  1  0.88940000  0.23732000  0.49669000  1.0 0.1198399614
H  H95  1  0.26837000  0.35207000  0.65173000  1.0 0.1095615196
H  H96  1  0.33736000  0.41641000  0.75108000  1.0 0.1008395648
H  H97  1  0.95836000  0.22169000  0.73601000  1.0 0.092846779
H  H98  1  0.03213000  0.27708000  0.83688000  1.0 0.1198399614
H  H99  1  0.38500000  0.39612000  0.12510000  1.0 0.1008395648
H  H100  1  0.24378000  0.28607000  0.19003000  1.0 0.1198399614
H  H101  1  0.18466000  0.22992000  0.29413000  1.0 0.1008395648
H  H102  1  0.08479000  0.09491000  0.36351000  1.0 0.1095615196
H  H103  1  0.45690000  0.07015000  0.41615000  1.0 0.1198399614
H  H104  1  0.31823000  0.00459000  0.50323000  1.0 0.1095615196
H  H105  1  0.50086000  0.05541000  0.30306000  1.0 0.1095615196
H  H106  1  0.56943000  0.11725000  0.20195000  1.0 0.1095615196
H  H107  1  0.56613000  0.13595000  0.08290000  1.0 0.1198399614
H  H108  1  0.61060000  0.26268000  0.99669000  1.0 0.1198399614
H  H109  1  0.23163000  0.14793000  0.15173000  1.0 0.1095615196
H  H110  1  0.16264000  0.08359000  0.25108000  1.0 0.1008395648
H  H111  1  0.54164000  0.27831000  0.23601000  1.0 0.092846779
H  H112  1  0.46787000  0.22292000  0.33688000  1.0 0.1198399614
C  C1  1  0.93310000  0.15420000  0.10260000  1.0 0.1008395648
C  C2  1  0.90630000  0.29130000  0.18530000  1.0 0.0840626287
C  C3  1  0.79820000  0.26070000  0.21210000  1.0 -0.0166952954
C  C4  1  0.76050000  0.29710000  0.27470000  1.0 -0.0364430427
C  C5  1  0.82750000  0.36570000  0.30500000  1.0 0.092846779
C  C6  1  0.66020000  0.42070000  0.38770000  1.0 0.0840626287
C  C7  1  0.86510000  0.43380000  0.41580000  1.0 -0.0994662491
C  C8  1  0.78780000  0.46900000  0.46360000  1.0 -0.0486807108
C  C9  1  0.94810000  0.39830000  0.27970000  1.0 -0.125536028
C  C10  1  0.98900000  0.36160000  0.21960000  1.0 -0.125536028
C  C11  1  0.03250000  0.29660000  0.08040000  1.0 -0.1196819988
C  C12  1  0.05710000  0.22610000  0.03300000  1.0 -0.0308323751
C  C13  1  0.78360000  0.34360000  0.18890000  1.0 -0.084324639
C  C14  1  0.74280000  0.38130000  0.24740000  1.0 -0.0994662491
C  C15  1  0.96800000  0.26500000  0.23850000  1.0 -0.0486807108
C  C16  1  0.92520000  0.30060000  0.29940000  1.0 -0.0308323751
C  C17  1  0.56690000  0.34580000  0.60260000  1.0 0.1008395648
C  C18  1  0.59370000  0.20870000  0.68530000  1.0 0.0840626287
C  C19  1  0.70180000  0.23930000  0.71210000  1.0 -0.0166952954
C  C20  1  0.73950000  0.20290000  0.77470000  1.0 -0.0364430427
C  C21  1  0.67250000  0.13430000  0.80500000  1.0 0.092846779
C  C22  1  0.83980000  0.07930000  0.88770000  1.0 0.0840626287
C  C23  1  0.63490000  0.06620000  0.91580000  1.0 -0.0994662491
C  C24  1  0.71220000  0.03100000  0.96360000  1.0 -0.0486807108
C  C25  1  0.55190000  0.10170000  0.77970000  1.0 -0.125536028
C  C26  1  0.51100000  0.13840000  0.71960000  1.0 -0.125536028
C  C27  1  0.46750000  0.20340000  0.58040000  1.0 -0.1196819988
C  C28  1  0.44290000  0.27390000  0.53300000  1.0 -0.0308323751
C  C29  1  0.71640000  0.15640000  0.68890000  1.0 -0.084324639
C  C30  1  0.75720000  0.11870000  0.74740000  1.0 -0.0994662491
C  C31  1  0.53200000  0.23500000  0.73850000  1.0 -0.0486807108
C  C32  1  0.57480000  0.19940000  0.79940000  1.0 -0.0308323751
C  C33  1  0.06690000  0.84580000  0.89740000  1.0 0.1008395648
C  C34  1  0.09370000  0.70870000  0.81470000  1.0 0.0840626287
C  C35  1  0.20180000  0.73930000  0.78790000  1.0 -0.0166952954
C  C36  1  0.23950000  0.70290000  0.72530000  1.0 -0.0364430427
C  C37  1  0.17250000  0.63430000  0.69500000  1.0 0.092846779
C  C38  1  0.33980000  0.57930000  0.61230000  1.0 0.0840626287
C  C39  1  0.13490000  0.56620000  0.58420000  1.0 -0.0994662491
C  C40  1  0.21220000  0.53100000  0.53640000  1.0 -0.0486807108
C  C41  1  0.05190000  0.60170000  0.72030000  1.0 -0.125536028
C  C42  1  0.01100000  0.63840000  0.78040000  1.0 -0.125536028
C  C43  1  0.96750000  0.70340000  0.91960000  1.0 -0.1196819988
C  C44  1  0.94290000  0.77390000  0.96700000  1.0 -0.0308323751
C  C45  1  0.21640000  0.65640000  0.81110000  1.0 -0.084324639
C  C46  1  0.25720000  0.61870000  0.75260000  1.0 -0.0994662491
C  C47  1  0.03200000  0.73500000  0.76150000  1.0 -0.0486807108
C  C48  1  0.07480000  0.69940000  0.70060000  1.0 -0.0308323751
C  C49  1  0.43310000  0.65420000  0.39740000  1.0 0.1008395648
C  C50  1  0.40630000  0.79130000  0.31470000  1.0 0.0840626287
C  C51  1  0.29820000  0.76070000  0.28790000  1.0 -0.0166952954
C  C52  1  0.26050000  0.79710000  0.22530000  1.0 -0.0364430427
C  C53  1  0.32750000  0.86570000  0.19500000  1.0 0.092846779
C  C54  1  0.16020000  0.92070000  0.11230000  1.0 0.0840626287
C  C55  1  0.36510000  0.93380000  0.08420000  1.0 -0.0994662491
C  C56  1  0.28780000  0.96900000  0.03640000  1.0 -0.0486807108
C  C57  1  0.44810000  0.89830000  0.22030000  1.0 -0.125536028
C  C58  1  0.48900000  0.86160000  0.28040000  1.0 -0.125536028
C  C59  1  0.53250000  0.79660000  0.41960000  1.0 -0.1196819988
C  C60  1  0.55710000  0.72610000  0.46700000  1.0 -0.0308323751
C  C61  1  0.28360000  0.84360000  0.31110000  1.0 -0.084324639
C  C62  1  0.24280000  0.88130000  0.25260000  1.0 -0.0994662491
C  C63  1  0.46800000  0.76500000  0.26150000  1.0 -0.0486807108
C  C64  1  0.42520000  0.80060000  0.20060000  1.0 -0.0308323751
C  C65  1  0.93310000  0.84580000  0.39740000  1.0 0.1008395648
C  C66  1  0.90630000  0.70870000  0.31470000  1.0 0.0840626287
C  C67  1  0.79820000  0.73930000  0.28790000  1.0 -0.0166952954
C  C68  1  0.76050000  0.70290000  0.22530000  1.0 -0.0364430427
C  C69  1  0.82750000  0.63430000  0.19500000  1.0 0.092846779
C  C70  1  0.66020000  0.57930000  0.11230000  1.0 0.0840626287
C  C71  1  0.86510000  0.56620000  0.08420000  1.0 -0.0994662491
C  C72  1  0.78780000  0.53100000  0.03640000  1.0 -0.0486807108
C  C73  1  0.94810000  0.60170000  0.22030000  1.0 -0.125536028
C  C74  1  0.98900000  0.63840000  0.28040000  1.0 -0.125536028
C  C75  1  0.03250000  0.70340000  0.41960000  1.0 -0.1196819988
C  C76  1  0.05710000  0.77390000  0.46700000  1.0 -0.0308323751
C  C77  1  0.78360000  0.65640000  0.31110000  1.0 -0.084324639
C  C78  1  0.74280000  0.61870000  0.25260000  1.0 -0.0994662491
C  C79  1  0.96800000  0.73500000  0.26150000  1.0 -0.0486807108
C  C80  1  0.92520000  0.69940000  0.20060000  1.0 -0.0308323751
C  C81  1  0.56690000  0.65420000  0.89740000  1.0 0.1008395648
C  C82  1  0.59370000  0.79130000  0.81470000  1.0 0.0840626287
C  C83  1  0.70180000  0.76070000  0.78790000  1.0 -0.0166952954
C  C84  1  0.73950000  0.79710000  0.72530000  1.0 -0.0364430427
C  C85  1  0.67250000  0.86570000  0.69500000  1.0 0.092846779
C  C86  1  0.83980000  0.92070000  0.61230000  1.0 0.0840626287
C  C87  1  0.63490000  0.93380000  0.58420000  1.0 -0.0994662491
C  C88  1  0.71220000  0.96900000  0.53640000  1.0 -0.0486807108
C  C89  1  0.55190000  0.89830000  0.72030000  1.0 -0.125536028
C  C90  1  0.51100000  0.86160000  0.78040000  1.0 -0.125536028
C  C91  1  0.46750000  0.79660000  0.91960000  1.0 -0.1196819988
C  C92  1  0.44290000  0.72610000  0.96700000  1.0 -0.0308323751
C  C93  1  0.71640000  0.84360000  0.81110000  1.0 -0.084324639
C  C94  1  0.75720000  0.88130000  0.75260000  1.0 -0.0994662491
C  C95  1  0.53200000  0.76500000  0.76150000  1.0 -0.0486807108
C  C96  1  0.57480000  0.80060000  0.70060000  1.0 -0.0308323751
C  C97  1  0.06690000  0.15420000  0.60260000  1.0 0.1008395648
C  C98  1  0.09370000  0.29130000  0.68530000  1.0 0.0840626287
C  C99  1  0.20180000  0.26070000  0.71210000  1.0 -0.0166952954
C  C100  1  0.23950000  0.29710000  0.77470000  1.0 -0.0364430427
C  C101  1  0.17250000  0.36570000  0.80500000  1.0 0.092846779
C  C102  1  0.33980000  0.42070000  0.88770000  1.0 0.0840626287
C  C103  1  0.13490000  0.43380000  0.91580000  1.0 -0.0994662491
C  C104  1  0.21220000  0.46900000  0.96360000  1.0 -0.0486807108
C  C105  1  0.05190000  0.39830000  0.77970000  1.0 -0.125536028
C  C106  1  0.01100000  0.36160000  0.71960000  1.0 -0.125536028
C  C107  1  0.96750000  0.29660000  0.58040000  1.0 -0.1196819988
C  C108  1  0.94290000  0.22610000  0.53300000  1.0 -0.0308323751
C  C109  1  0.21640000  0.34360000  0.68890000  1.0 -0.084324639
C  C110  1  0.25720000  0.38130000  0.74740000  1.0 -0.0994662491
C  C111  1  0.03200000  0.26500000  0.73850000  1.0 -0.0486807108
C  C112  1  0.07480000  0.30060000  0.79940000  1.0 -0.0308323751
C  C113  1  0.43310000  0.34580000  0.10260000  1.0 0.1008395648
C  C114  1  0.40630000  0.20870000  0.18530000  1.0 0.0840626287
C  C115  1  0.29820000  0.23930000  0.21210000  1.0 -0.0166952954
C  C116  1  0.26050000  0.20290000  0.27470000  1.0 -0.0364430427
C  C117  1  0.32750000  0.13430000  0.30500000  1.0 0.092846779
C  C118  1  0.16020000  0.07930000  0.38770000  1.0 0.0840626287
C  C119  1  0.36510000  0.06620000  0.41580000  1.0 -0.0994662491
C  C120  1  0.28780000  0.03100000  0.46360000  1.0 -0.0486807108
C  C121  1  0.44810000  0.10170000  0.27970000  1.0 -0.125536028
C  C122  1  0.48900000  0.13840000  0.21960000  1.0 -0.125536028
C  C123  1  0.53250000  0.20340000  0.08040000  1.0 -0.1196819988
C  C124  1  0.55710000  0.27390000  0.03300000  1.0 -0.0308323751
C  C125  1  0.28360000  0.15640000  0.18890000  1.0 -0.084324639
C  C126  1  0.24280000  0.11870000  0.24740000  1.0 -0.0994662491
C  C127  1  0.46800000  0.23500000  0.23850000  1.0 -0.0486807108
C  C128  1  0.42520000  0.19940000  0.29940000  1.0 -0.0308323751
N  N1  1  0.99120000  0.13590000  0.04650000  1.0 -0.2811485191
N  N2  1  0.94880000  0.25020000  0.12410000  1.0 -0.0610051744
N  N3  1  0.78360000  0.40510000  0.36690000  1.0 -0.0364430427
N  N4  1  0.65910000  0.46100000  0.44660000  1.0 -0.2716600929
N  N5  1  0.50880000  0.36410000  0.54650000  1.0 -0.2811485191
N  N6  1  0.55120000  0.24980000  0.62410000  1.0 -0.0610051744
N  N7  1  0.71640000  0.09490000  0.86690000  1.0 -0.0364430427
N  N8  1  0.84090000  0.03900000  0.94660000  1.0 -0.2716600929
N  N9  1  0.00880000  0.86410000  0.95350000  1.0 -0.2811485191
N  N10  1  0.05120000  0.74980000  0.87590000  1.0 -0.0610051744
N  N11  1  0.21640000  0.59490000  0.63310000  1.0 -0.0364430427
N  N12  1  0.34090000  0.53900000  0.55340000  1.0 -0.2716600929
N  N13  1  0.49120000  0.63590000  0.45350000  1.0 -0.2811485191
N  N14  1  0.44880000  0.75020000  0.37590000  1.0 -0.0610051744
N  N15  1  0.28360000  0.90510000  0.13310000  1.0 -0.0364430427
N  N16  1  0.15910000  0.96100000  0.05340000  1.0 -0.2716600929
N  N17  1  0.99120000  0.86410000  0.45350000  1.0 -0.2811485191
N  N18  1  0.94880000  0.74980000  0.37590000  1.0 -0.0610051744
N  N19  1  0.78360000  0.59490000  0.13310000  1.0 -0.0364430427
N  N20  1  0.65910000  0.53900000  0.05340000  1.0 -0.2716600929
N  N21  1  0.50880000  0.63590000  0.95350000  1.0 -0.2811485191
N  N22  1  0.55120000  0.75020000  0.87590000  1.0 -0.0610051744
N  N23  1  0.71640000  0.90510000  0.63310000  1.0 -0.0364430427
N  N24  1  0.84090000  0.96100000  0.55340000  1.0 -0.2716600929
N  N25  1  0.00880000  0.13590000  0.54650000  1.0 -0.2811485191
N  N26  1  0.05120000  0.25020000  0.62410000  1.0 -0.0610051744
N  N27  1  0.21640000  0.40510000  0.86690000  1.0 -0.0364430427
N  N28  1  0.34090000  0.46100000  0.94660000  1.0 -0.2716600929
N  N29  1  0.49120000  0.36410000  0.04650000  1.0 -0.2811485191
N  N30  1  0.44880000  0.24980000  0.12410000  1.0 -0.0610051744
N  N31  1  0.28360000  0.09490000  0.36690000  1.0 -0.0364430427
N  N32  1  0.15910000  0.03900000  0.44660000  1.0 -0.2716600929
N  N33  1  0.25520000  0.40860000  0.39020000  1.0 0.5895838703
N  N34  1  0.24480000  0.09140000  0.89020000  1.0 0.5895838703
N  N35  1  0.25520000  0.59140000  0.10980000  1.0 0.5895838703
N  N36  1  0.24480000  0.90860000  0.60980000  1.0 0.5895838703
N  N37  1  0.74480000  0.59140000  0.60980000  1.0 0.5895838703
N  N38  1  0.75520000  0.90860000  0.10980000  1.0 0.5895838703
N  N39  1  0.74480000  0.40860000  0.89020000  1.0 0.5895838703
N  N40  1  0.75520000  0.09140000  0.39020000  1.0 0.5895838703
O  O1  1  0.37310000  0.41270000  0.40690000  1.0 -0.4636978318
O  O2  1  0.18190000  0.34060000  0.41280000  1.0 -0.4157345777
O  O3  1  0.20800000  0.47720000  0.35520000  1.0 -0.4345996936
O  O4  1  0.12690000  0.08730000  0.90690000  1.0 -0.4636978318
O  O5  1  0.31810000  0.15940000  0.91280000  1.0 -0.4157345777
O  O6  1  0.29200000  0.02280000  0.85520000  1.0 -0.4345996936
O  O7  1  0.37310000  0.58730000  0.09310000  1.0 -0.4636978318
O  O8  1  0.18190000  0.65940000  0.08720000  1.0 -0.4157345777
O  O9  1  0.20800000  0.52280000  0.14480000  1.0 -0.4345996936
O  O10  1  0.12690000  0.91270000  0.59310000  1.0 -0.4636978318
O  O11  1  0.31810000  0.84060000  0.58720000  1.0 -0.4157345777
O  O12  1  0.29200000  0.97720000  0.64480000  1.0 -0.4345996936
O  O13  1  0.62690000  0.58730000  0.59310000  1.0 -0.4636978318
O  O14  1  0.81810000  0.65940000  0.58720000  1.0 -0.4157345777
O  O15  1  0.79200000  0.52280000  0.64480000  1.0 -0.4345996936
O  O16  1  0.87310000  0.91270000  0.09310000  1.0 -0.4636978318
O  O17  1  0.68190000  0.84060000  0.08720000  1.0 -0.4157345777
O  O18  1  0.70800000  0.97720000  0.14480000  1.0 -0.4345996936
O  O19  1  0.62690000  0.41270000  0.90690000  1.0 -0.4636978318
O  O20  1  0.81810000  0.34060000  0.91280000  1.0 -0.4157345777
O  O21  1  0.79200000  0.47720000  0.85520000  1.0 -0.4345996936
O  O22  1  0.87310000  0.08730000  0.40690000  1.0 -0.4636978318
O  O23  1  0.68190000  0.15940000  0.41280000  1.0 -0.4157345777
O  O24  1  0.70800000  0.02280000  0.35520000  1.0 -0.4345996936
