# DDEC6 charges by PACMAN v1.1 (https://github.com/mtap-research/PACMAN-charge/)
data_NODJIC_ion_pacman
_symmetry_space_group_name_H-M   'P 1'
_cell_length_a   10.12890000
_cell_length_b   12.93670000
_cell_length_c   20.44600000
_cell_angle_alpha   90.00000000
_cell_angle_beta   90.00000000
_cell_angle_gamma   90.00000000
_symmetry_Int_Tables_number   1
_chemical_formula_structural   CuH28C32(N5O3)2
_chemical_formula_sum   'Cu4 H112 C128 N40 O24'
_cell_volume   2679.13221772
_cell_formula_units_Z   4
loop_
 _symmetry_equiv_pos_site_id
 _symmetry_equiv_pos_as_xyz
  1  'x, y, z'
loop_
 _atom_site_type_symbol
 _atom_site_label
 _atom_site_symmetry_multiplicity
 _atom_site_fract_x
 _atom_site_fract_y
 _atom_site_fract_z
 _atom_site_occupancy
 _atom_site_charge
Cu  Cu1  1  0.50000000  0.00000000  0.50000000  1.0 0.6621075927
Cu  Cu2  1  0.00000000  0.50000000  0.00000000  1.0 0.6621075927
Cu  Cu3  1  0.50000000  0.00000000  0.00000000  1.0 0.6621075927
Cu  Cu4  1  0.00000000  0.50000000  0.50000000  1.0 0.6621075927
H  H1  1  0.58330000  0.09330000  0.63780000  1.0 0.1082398132
H  H2  1  0.81580000  0.00490000  0.49740000  1.0 0.1082398132
H  H3  1  0.95530000  0.06960000  0.58540000  1.0 0.1190318821
H  H4  1  0.88310000  0.39540000  0.87540000  1.0 0.0999717524
H  H5  1  0.06230000  0.13550000  0.92070000  1.0 0.1190318821
H  H6  1  0.10870000  0.26490000  0.00500000  1.0 0.1190318821
H  H7  1  0.99900000  0.06070000  0.69690000  1.0 0.1082398132
H  H8  1  0.06620000  0.11990000  0.79880000  1.0 0.1082398132
H  H9  1  0.73720000  0.28170000  0.81250000  1.0 0.1082398132
H  H10  1  0.67530000  0.22670000  0.71030000  1.0 0.0999717524
H  H11  1  0.96690000  0.21720000  0.66460000  1.0 0.1190318821
H  H12  1  0.02700000  0.28520000  0.76460000  1.0 0.0912595437
H  H13  1  0.73170000  0.14620000  0.85160000  1.0 0.1082398132
H  H14  1  0.66540000  0.07770000  0.75180000  1.0 0.0999717524
H  H15  1  0.91670000  0.40670000  0.13780000  1.0 0.1082398132
H  H16  1  0.68420000  0.49510000  0.99740000  1.0 0.1082398132
H  H17  1  0.54470000  0.43040000  0.08540000  1.0 0.1190318821
H  H18  1  0.61690000  0.10460000  0.37540000  1.0 0.0999717524
H  H19  1  0.43770000  0.36450000  0.42070000  1.0 0.1190318821
H  H20  1  0.39130000  0.23510000  0.50500000  1.0 0.1190318821
H  H21  1  0.50100000  0.43930000  0.19690000  1.0 0.1082398132
H  H22  1  0.43380000  0.38010000  0.29880000  1.0 0.1082398132
H  H23  1  0.76280000  0.21830000  0.31250000  1.0 0.1082398132
H  H24  1  0.82470000  0.27330000  0.21030000  1.0 0.0999717524
H  H25  1  0.53310000  0.28280000  0.16460000  1.0 0.1190318821
H  H26  1  0.47300000  0.21480000  0.26460000  1.0 0.0912595437
H  H27  1  0.76830000  0.35380000  0.35160000  1.0 0.1082398132
H  H28  1  0.83460000  0.42230000  0.25180000  1.0 0.0999717524
H  H29  1  0.41670000  0.90670000  0.36220000  1.0 0.1082398132
H  H30  1  0.18420000  0.99510000  0.50260000  1.0 0.1082398132
H  H31  1  0.04470000  0.93040000  0.41460000  1.0 0.1190318821
H  H32  1  0.11690000  0.60460000  0.12460000  1.0 0.0999717524
H  H33  1  0.93770000  0.86450000  0.07930000  1.0 0.1190318821
H  H34  1  0.89130000  0.73510000  0.99500000  1.0 0.1190318821
H  H35  1  0.00100000  0.93930000  0.30310000  1.0 0.1082398132
H  H36  1  0.93380000  0.88010000  0.20120000  1.0 0.1082398132
H  H37  1  0.26280000  0.71830000  0.18750000  1.0 0.1082398132
H  H38  1  0.32470000  0.77330000  0.28970000  1.0 0.0999717524
H  H39  1  0.03310000  0.78280000  0.33540000  1.0 0.1190318821
H  H40  1  0.97300000  0.71480000  0.23540000  1.0 0.0912595437
H  H41  1  0.26830000  0.85380000  0.14840000  1.0 0.1082398132
H  H42  1  0.33460000  0.92230000  0.24820000  1.0 0.0999717524
H  H43  1  0.08330000  0.59330000  0.86220000  1.0 0.1082398132
H  H44  1  0.31580000  0.50490000  0.00260000  1.0 0.1082398132
H  H45  1  0.45530000  0.56960000  0.91460000  1.0 0.1190318821
H  H46  1  0.38310000  0.89540000  0.62460000  1.0 0.0999717524
H  H47  1  0.56230000  0.63550000  0.57930000  1.0 0.1190318821
H  H48  1  0.60870000  0.76490000  0.49500000  1.0 0.1190318821
H  H49  1  0.49900000  0.56070000  0.80310000  1.0 0.1082398132
H  H50  1  0.56620000  0.61990000  0.70120000  1.0 0.1082398132
H  H51  1  0.23720000  0.78170000  0.68750000  1.0 0.1082398132
H  H52  1  0.17530000  0.72670000  0.78970000  1.0 0.0999717524
H  H53  1  0.46690000  0.71720000  0.83540000  1.0 0.1190318821
H  H54  1  0.52700000  0.78520000  0.73540000  1.0 0.0912595437
H  H55  1  0.23170000  0.64620000  0.64840000  1.0 0.1082398132
H  H56  1  0.16540000  0.57770000  0.74820000  1.0 0.0999717524
H  H57  1  0.58330000  0.90670000  0.86220000  1.0 0.1082398132
H  H58  1  0.81580000  0.99510000  0.00260000  1.0 0.1082398132
H  H59  1  0.95530000  0.93040000  0.91460000  1.0 0.1190318821
H  H60  1  0.88310000  0.60460000  0.62460000  1.0 0.0999717524
H  H61  1  0.06230000  0.86450000  0.57930000  1.0 0.1190318821
H  H62  1  0.10870000  0.73510000  0.49500000  1.0 0.1190318821
H  H63  1  0.99900000  0.93930000  0.80310000  1.0 0.1082398132
H  H64  1  0.06620000  0.88010000  0.70120000  1.0 0.1082398132
H  H65  1  0.73720000  0.71830000  0.68750000  1.0 0.1082398132
H  H66  1  0.67530000  0.77330000  0.78970000  1.0 0.0999717524
H  H67  1  0.96690000  0.78280000  0.83540000  1.0 0.1190318821
H  H68  1  0.02700000  0.71480000  0.73540000  1.0 0.0912595437
H  H69  1  0.73170000  0.85380000  0.64840000  1.0 0.1082398132
H  H70  1  0.66540000  0.92230000  0.74820000  1.0 0.0999717524
H  H71  1  0.91670000  0.59330000  0.36220000  1.0 0.1082398132
H  H72  1  0.68420000  0.50490000  0.50260000  1.0 0.1082398132
H  H73  1  0.54470000  0.56960000  0.41460000  1.0 0.1190318821
H  H74  1  0.61690000  0.89540000  0.12460000  1.0 0.0999717524
H  H75  1  0.43770000  0.63550000  0.07930000  1.0 0.1190318821
H  H76  1  0.39130000  0.76490000  0.99500000  1.0 0.1190318821
H  H77  1  0.50100000  0.56070000  0.30310000  1.0 0.1082398132
H  H78  1  0.43380000  0.61990000  0.20120000  1.0 0.1082398132
H  H79  1  0.76280000  0.78170000  0.18750000  1.0 0.1082398132
H  H80  1  0.82470000  0.72670000  0.28970000  1.0 0.0999717524
H  H81  1  0.53310000  0.71720000  0.33540000  1.0 0.1190318821
H  H82  1  0.47300000  0.78520000  0.23540000  1.0 0.0912595437
H  H83  1  0.76830000  0.64620000  0.14840000  1.0 0.1082398132
H  H84  1  0.83460000  0.57770000  0.24820000  1.0 0.0999717524
H  H85  1  0.41670000  0.09330000  0.13780000  1.0 0.1082398132
H  H86  1  0.18420000  0.00490000  0.99740000  1.0 0.1082398132
H  H87  1  0.04470000  0.06960000  0.08540000  1.0 0.1190318821
H  H88  1  0.11690000  0.39540000  0.37540000  1.0 0.0999717524
H  H89  1  0.93770000  0.13550000  0.42070000  1.0 0.1190318821
H  H90  1  0.89130000  0.26490000  0.50500000  1.0 0.1190318821
H  H91  1  0.00100000  0.06070000  0.19690000  1.0 0.1082398132
H  H92  1  0.93380000  0.11990000  0.29880000  1.0 0.1082398132
H  H93  1  0.26280000  0.28170000  0.31250000  1.0 0.1082398132
H  H94  1  0.32470000  0.22670000  0.21030000  1.0 0.0999717524
H  H95  1  0.03310000  0.21720000  0.16460000  1.0 0.1190318821
H  H96  1  0.97300000  0.28520000  0.26460000  1.0 0.0912595437
H  H97  1  0.26830000  0.14620000  0.35160000  1.0 0.1082398132
H  H98  1  0.33460000  0.07770000  0.25180000  1.0 0.0912595437
H  H99  1  0.08330000  0.40670000  0.63780000  1.0 0.1082398132
H  H100  1  0.31580000  0.49510000  0.49740000  1.0 0.1082398132
H  H101  1  0.45530000  0.43040000  0.58540000  1.0 0.1190318821
H  H102  1  0.38310000  0.10460000  0.87540000  1.0 0.0999717524
H  H103  1  0.56230000  0.36450000  0.92070000  1.0 0.1190318821
H  H104  1  0.60870000  0.23510000  0.00500000  1.0 0.1190318821
H  H105  1  0.49900000  0.43930000  0.69690000  1.0 0.1082398132
H  H106  1  0.56620000  0.38010000  0.79880000  1.0 0.1082398132
H  H107  1  0.23720000  0.21830000  0.81250000  1.0 0.1082398132
H  H108  1  0.17530000  0.27330000  0.71030000  1.0 0.0999717524
H  H109  1  0.46690000  0.28280000  0.66460000  1.0 0.1190318821
H  H110  1  0.52700000  0.21480000  0.76460000  1.0 0.0912595437
H  H111  1  0.23170000  0.35380000  0.85160000  1.0 0.1082398132
H  H112  1  0.16540000  0.42230000  0.75180000  1.0 0.0999717524
C  C1  1  0.65870000  0.07840000  0.61361000  1.0 0.0824651846
C  C2  1  0.78580000  0.03090000  0.53710000  1.0 -0.0503087055
C  C3  1  0.86360000  0.06590000  0.58560000  1.0 -0.0998434637
C  C4  1  0.82210000  0.13450000  0.69711000  1.0 0.0912595437
C  C5  1  0.90290000  0.20790000  0.81634000  1.0 0.0824651846
C  C6  1  0.93150000  0.34610000  0.89822000  1.0 0.0912595437
C  C7  1  0.03020000  0.20280000  0.92220000  1.0 -0.1103421467
C  C8  1  0.05520000  0.27490000  0.96850000  1.0 -0.0316046664
C  C9  1  0.94500000  0.10440000  0.72110000  1.0 -0.1203980374
C  C10  1  0.98540000  0.14030000  0.78150000  1.0 -0.1203980374
C  C11  1  0.79190000  0.23650000  0.78980000  1.0 -0.0143388275
C  C12  1  0.75270000  0.20150000  0.72870000  1.0 -0.0503087055
C  C13  1  0.92100000  0.19770000  0.70200000  1.0 -0.0316046664
C  C14  1  0.95910000  0.23680000  0.76270000  1.0 -0.0503087055
C  C15  1  0.78290000  0.15490000  0.81420000  1.0 -0.0846955272
C  C16  1  0.74300000  0.11590000  0.75480000  1.0 -0.0998434637
C  C17  1  0.84130000  0.42160000  0.11361000  1.0 0.0824651846
C  C18  1  0.71420000  0.46910000  0.03710000  1.0 -0.0503087055
C  C19  1  0.63640000  0.43410000  0.08560000  1.0 -0.0998434637
C  C20  1  0.67790000  0.36550000  0.19711000  1.0 0.0912595437
C  C21  1  0.59710000  0.29210000  0.31634000  1.0 0.0824651846
C  C22  1  0.56850000  0.15390000  0.39822000  1.0 0.0912595437
C  C23  1  0.46980000  0.29720000  0.42220000  1.0 -0.1103421467
C  C24  1  0.44480000  0.22510000  0.46850000  1.0 -0.0316046664
C  C25  1  0.55500000  0.39560000  0.22110000  1.0 -0.1203980374
C  C26  1  0.51460000  0.35970000  0.28150000  1.0 -0.1203980374
C  C27  1  0.70810000  0.26350000  0.28980000  1.0 -0.0143388275
C  C28  1  0.74730000  0.29850000  0.22870000  1.0 -0.0503087055
C  C29  1  0.57900000  0.30230000  0.20200000  1.0 -0.0316046664
C  C30  1  0.54090000  0.26320000  0.26270000  1.0 -0.0503087055
C  C31  1  0.71710000  0.34510000  0.31420000  1.0 -0.0846955272
C  C32  1  0.75700000  0.38410000  0.25480000  1.0 -0.0998434637
C  C33  1  0.34130000  0.92160000  0.38639000  1.0 0.0824651846
C  C34  1  0.21420000  0.96910000  0.46290000  1.0 -0.0503087055
C  C35  1  0.13640000  0.93410000  0.41440000  1.0 -0.0998434637
C  C36  1  0.17790000  0.86550000  0.30289000  1.0 0.0912595437
C  C37  1  0.09710000  0.79210000  0.18366000  1.0 0.0824651846
C  C38  1  0.06850000  0.65390000  0.10178000  1.0 0.0912595437
C  C39  1  0.96980000  0.79720000  0.07780000  1.0 -0.1103421467
C  C40  1  0.94480000  0.72510000  0.03150000  1.0 -0.0316046664
C  C41  1  0.05500000  0.89560000  0.27890000  1.0 -0.1203980374
C  C42  1  0.01460000  0.85970000  0.21850000  1.0 -0.1203980374
C  C43  1  0.20810000  0.76350000  0.21020000  1.0 -0.0143388275
C  C44  1  0.24730000  0.79850000  0.27130000  1.0 -0.0503087055
C  C45  1  0.07900000  0.80230000  0.29800000  1.0 -0.0316046664
C  C46  1  0.04090000  0.76320000  0.23730000  1.0 -0.0503087055
C  C47  1  0.21710000  0.84510000  0.18580000  1.0 -0.0846955272
C  C48  1  0.25700000  0.88410000  0.24520000  1.0 -0.0998434637
C  C49  1  0.15870000  0.57840000  0.88639000  1.0 0.0824651846
C  C50  1  0.28580000  0.53090000  0.96290000  1.0 -0.0503087055
C  C51  1  0.36360000  0.56590000  0.91440000  1.0 -0.0998434637
C  C52  1  0.32210000  0.63450000  0.80289000  1.0 0.0912595437
C  C53  1  0.40290000  0.70790000  0.68366000  1.0 0.0824651846
C  C54  1  0.43150000  0.84610000  0.60178000  1.0 0.0912595437
C  C55  1  0.53020000  0.70280000  0.57780000  1.0 -0.1103421467
C  C56  1  0.55520000  0.77490000  0.53150000  1.0 -0.0316046664
C  C57  1  0.44500000  0.60440000  0.77890000  1.0 -0.1203980374
C  C58  1  0.48540000  0.64030000  0.71850000  1.0 -0.1203980374
C  C59  1  0.29190000  0.73650000  0.71020000  1.0 -0.0143388275
C  C60  1  0.25270000  0.70150000  0.77130000  1.0 -0.0503087055
C  C61  1  0.42100000  0.69770000  0.79800000  1.0 -0.0316046664
C  C62  1  0.45910000  0.73680000  0.73730000  1.0 -0.0503087055
C  C63  1  0.28290000  0.65490000  0.68580000  1.0 -0.0846955272
C  C64  1  0.24300000  0.61590000  0.74520000  1.0 -0.0998434637
C  C65  1  0.65870000  0.92160000  0.88639000  1.0 0.0824651846
C  C66  1  0.78580000  0.96910000  0.96290000  1.0 -0.0503087055
C  C67  1  0.86360000  0.93410000  0.91440000  1.0 -0.0998434637
C  C68  1  0.82210000  0.86550000  0.80289000  1.0 0.0912595437
C  C69  1  0.90290000  0.79210000  0.68366000  1.0 0.0824651846
C  C70  1  0.93150000  0.65390000  0.60178000  1.0 0.0912595437
C  C71  1  0.03020000  0.79720000  0.57780000  1.0 -0.1103421467
C  C72  1  0.05520000  0.72510000  0.53150000  1.0 -0.0316046664
C  C73  1  0.94500000  0.89560000  0.77890000  1.0 -0.1203980374
C  C74  1  0.98540000  0.85970000  0.71850000  1.0 -0.1203980374
C  C75  1  0.79190000  0.76350000  0.71020000  1.0 -0.0143388275
C  C76  1  0.75270000  0.79850000  0.77130000  1.0 -0.0503087055
C  C77  1  0.92100000  0.80230000  0.79800000  1.0 -0.0316046664
C  C78  1  0.95910000  0.76320000  0.73730000  1.0 -0.0503087055
C  C79  1  0.78290000  0.84510000  0.68580000  1.0 -0.0846955272
C  C80  1  0.74300000  0.88410000  0.74520000  1.0 -0.0998434637
C  C81  1  0.84130000  0.57840000  0.38639000  1.0 0.0824651846
C  C82  1  0.71420000  0.53090000  0.46290000  1.0 -0.0503087055
C  C83  1  0.63640000  0.56590000  0.41440000  1.0 -0.0998434637
C  C84  1  0.67790000  0.63450000  0.30289000  1.0 0.0912595437
C  C85  1  0.59710000  0.70790000  0.18366000  1.0 0.0824651846
C  C86  1  0.56850000  0.84610000  0.10178000  1.0 0.0912595437
C  C87  1  0.46980000  0.70280000  0.07780000  1.0 -0.1103421467
C  C88  1  0.44480000  0.77490000  0.03150000  1.0 -0.0316046664
C  C89  1  0.55500000  0.60440000  0.27890000  1.0 -0.1203980374
C  C90  1  0.51460000  0.64030000  0.21850000  1.0 -0.1203980374
C  C91  1  0.70810000  0.73650000  0.21020000  1.0 -0.0143388275
C  C92  1  0.74730000  0.70150000  0.27130000  1.0 -0.0503087055
C  C93  1  0.57900000  0.69770000  0.29800000  1.0 -0.0316046664
C  C94  1  0.54090000  0.73680000  0.23730000  1.0 -0.0503087055
C  C95  1  0.71710000  0.65490000  0.18580000  1.0 -0.0850931199
C  C96  1  0.75700000  0.61590000  0.24520000  1.0 -0.0998434637
C  C97  1  0.34130000  0.07840000  0.11361000  1.0 0.0824651846
C  C98  1  0.21420000  0.03090000  0.03710000  1.0 -0.0503087055
C  C99  1  0.13640000  0.06590000  0.08560000  1.0 -0.0998434637
C  C100  1  0.17790000  0.13450000  0.19711000  1.0 0.0912595437
C  C101  1  0.09710000  0.20790000  0.31634000  1.0 0.0824651846
C  C102  1  0.06850000  0.34610000  0.39822000  1.0 0.0912595437
C  C103  1  0.96980000  0.20280000  0.42220000  1.0 -0.1103421467
C  C104  1  0.94480000  0.27490000  0.46850000  1.0 -0.0316046664
C  C105  1  0.05500000  0.10440000  0.22110000  1.0 -0.1203980374
C  C106  1  0.01460000  0.14030000  0.28150000  1.0 -0.1203980374
C  C107  1  0.20810000  0.23650000  0.28980000  1.0 -0.0143388275
C  C108  1  0.24730000  0.20150000  0.22870000  1.0 -0.0503087055
C  C109  1  0.07900000  0.19770000  0.20200000  1.0 -0.0316046664
C  C110  1  0.04090000  0.23680000  0.26270000  1.0 -0.0503087055
C  C111  1  0.21710000  0.15490000  0.31420000  1.0 -0.0846955272
C  C112  1  0.25700000  0.11590000  0.25480000  1.0 -0.0998434637
C  C113  1  0.15870000  0.42160000  0.61361000  1.0 0.0824651846
C  C114  1  0.28580000  0.46910000  0.53710000  1.0 -0.0503087055
C  C115  1  0.36360000  0.43410000  0.58560000  1.0 -0.0998434637
C  C116  1  0.32210000  0.36550000  0.69711000  1.0 0.0912595437
C  C117  1  0.40290000  0.29210000  0.81634000  1.0 0.0824651846
C  C118  1  0.43150000  0.15390000  0.89822000  1.0 0.0912595437
C  C119  1  0.53020000  0.29720000  0.92220000  1.0 -0.1103421467
C  C120  1  0.55520000  0.22510000  0.96850000  1.0 -0.0316046664
C  C121  1  0.44500000  0.39560000  0.72110000  1.0 -0.1203980374
C  C122  1  0.48540000  0.35970000  0.78150000  1.0 -0.1203980374
C  C123  1  0.29190000  0.26350000  0.78980000  1.0 -0.0143388275
C  C124  1  0.25270000  0.29850000  0.72870000  1.0 -0.0503087055
C  C125  1  0.42100000  0.30230000  0.70200000  1.0 -0.0316046664
C  C126  1  0.45910000  0.26320000  0.76270000  1.0 -0.0503087055
C  C127  1  0.28290000  0.34510000  0.81420000  1.0 -0.0846955272
C  C128  1  0.24300000  0.38410000  0.75480000  1.0 -0.0998434637
N  N1  1  0.65730000  0.03890000  0.55459000  1.0 -0.2732911835
N  N2  1  0.78180000  0.09470000  0.63474000  1.0 -0.0503087055
N  N3  1  0.99040000  0.36430000  0.95383000  1.0 -0.2762943449
N  N4  1  0.94810000  0.24940000  0.87781000  1.0 -0.0619005587
N  N5  1  0.84270000  0.46110000  0.05459000  1.0 -0.2732911835
N  N6  1  0.71820000  0.40530000  0.13474000  1.0 -0.0503087055
N  N7  1  0.50960000  0.13570000  0.45383000  1.0 -0.2762943449
N  N8  1  0.55190000  0.25060000  0.37781000  1.0 -0.0619005587
N  N9  1  0.34270000  0.96110000  0.44541000  1.0 -0.2732911835
N  N10  1  0.21820000  0.90530000  0.36526000  1.0 -0.0503087055
N  N11  1  0.00960000  0.63570000  0.04617000  1.0 -0.2762943449
N  N12  1  0.05190000  0.75060000  0.12219000  1.0 -0.0619005587
N  N13  1  0.15730000  0.53890000  0.94541000  1.0 -0.2732911835
N  N14  1  0.28180000  0.59470000  0.86526000  1.0 -0.0503087055
N  N15  1  0.49040000  0.86430000  0.54617000  1.0 -0.2762943449
N  N16  1  0.44810000  0.74940000  0.62219000  1.0 -0.0619005587
N  N17  1  0.65730000  0.96110000  0.94541000  1.0 -0.2732911835
N  N18  1  0.78180000  0.90530000  0.86526000  1.0 -0.0503087055
N  N19  1  0.99040000  0.63570000  0.54617000  1.0 -0.2762943449
N  N20  1  0.94810000  0.75060000  0.62219000  1.0 -0.0619005587
N  N21  1  0.84270000  0.53890000  0.44541000  1.0 -0.2732911835
N  N22  1  0.71820000  0.59470000  0.36526000  1.0 -0.0503087055
N  N23  1  0.50960000  0.86430000  0.04617000  1.0 -0.2762943449
N  N24  1  0.55190000  0.74940000  0.12219000  1.0 -0.0619005587
N  N25  1  0.34270000  0.03890000  0.05459000  1.0 -0.2732911835
N  N26  1  0.21820000  0.09470000  0.13474000  1.0 -0.0503087055
N  N27  1  0.00960000  0.36430000  0.45383000  1.0 -0.2762943449
N  N28  1  0.05190000  0.24940000  0.37781000  1.0 -0.0619005587
N  N29  1  0.15730000  0.46110000  0.55459000  1.0 -0.2732911835
N  N30  1  0.28180000  0.40530000  0.63474000  1.0 -0.0503087055
N  N31  1  0.49040000  0.13570000  0.95383000  1.0 -0.2762943449
N  N32  1  0.44810000  0.25060000  0.87781000  1.0 -0.0619005587
N  N33  1  0.75290000  0.59070000  0.88974000  1.0 0.5871820731
N  N34  1  0.74710000  0.90930000  0.38974000  1.0 0.5871820731
N  N35  1  0.75290000  0.40930000  0.61026000  1.0 0.5871820731
N  N36  1  0.74710000  0.09070000  0.11026000  1.0 0.5871820731
N  N37  1  0.24710000  0.40930000  0.11026000  1.0 0.5871820731
N  N38  1  0.25290000  0.09070000  0.61026000  1.0 0.5871820731
N  N39  1  0.24710000  0.59070000  0.38974000  1.0 0.5871820731
N  N40  1  0.25290000  0.90930000  0.88974000  1.0 0.5871820731
O  O1  1  0.86960000  0.58520000  0.90642000  1.0 -0.4449739101
O  O2  1  0.70170000  0.52170000  0.85870000  1.0 -0.4090466293
O  O3  1  0.68270000  0.65950000  0.91210000  1.0 -0.4013134184
O  O4  1  0.63040000  0.91480000  0.40642000  1.0 -0.4451927187
O  O5  1  0.79830000  0.97830000  0.35870000  1.0 -0.4090466293
O  O6  1  0.81730000  0.84050000  0.41210000  1.0 -0.4013134184
O  O7  1  0.86960000  0.41480000  0.59358000  1.0 -0.4451927187
O  O8  1  0.70170000  0.47830000  0.64130000  1.0 -0.4090466293
O  O9  1  0.68270000  0.34050000  0.58790000  1.0 -0.4013134184
O  O10  1  0.63040000  0.08520000  0.09358000  1.0 -0.4451927187
O  O11  1  0.79830000  0.02170000  0.14130000  1.0 -0.4090466293
O  O12  1  0.81730000  0.15950000  0.08790000  1.0 -0.4013134184
O  O13  1  0.13040000  0.41480000  0.09358000  1.0 -0.4451927187
O  O14  1  0.29830000  0.47830000  0.14130000  1.0 -0.4090466293
O  O15  1  0.31730000  0.34050000  0.08790000  1.0 -0.4013134184
O  O16  1  0.36960000  0.08520000  0.59358000  1.0 -0.4451927187
O  O17  1  0.20170000  0.02170000  0.64130000  1.0 -0.4090466293
O  O18  1  0.18270000  0.15950000  0.58790000  1.0 -0.4013134184
O  O19  1  0.13040000  0.58520000  0.40642000  1.0 -0.4451927187
O  O20  1  0.29830000  0.52170000  0.35870000  1.0 -0.4090466293
O  O21  1  0.31730000  0.65950000  0.41210000  1.0 -0.4013134184
O  O22  1  0.36960000  0.91480000  0.90642000  1.0 -0.4449739101
O  O23  1  0.20170000  0.97830000  0.85870000  1.0 -0.4090466293
O  O24  1  0.18270000  0.84050000  0.91210000  1.0 -0.4013134184
