# DDEC6 charges by PACMAN v1.1 (https://github.com/mtap-research/PACMAN-charge/)
data_NODKEX_FSR_pacman
_symmetry_space_group_name_H-M   'P 1'
_cell_length_a   13.85390000
_cell_length_b   13.85390000
_cell_length_c   13.85390000
_cell_angle_alpha   134.34700000
_cell_angle_beta   98.65580000
_cell_angle_gamma   98.65580000
_symmetry_Int_Tables_number   1
_chemical_formula_structural   In(C7O2)4
_chemical_formula_sum   'In2 C56 O16'
_cell_volume   1752.57714970
_cell_formula_units_Z   2
loop_
 _symmetry_equiv_pos_site_id
 _symmetry_equiv_pos_as_xyz
  1  'x, y, z'
loop_
 _atom_site_type_symbol
 _atom_site_label
 _atom_site_symmetry_multiplicity
 _atom_site_fract_x
 _atom_site_fract_y
 _atom_site_fract_z
 _atom_site_occupancy
 _atom_site_charge
In  In1  1  0.25000000  0.37858000  0.12858000  1.0 1.2412540202
In  In2  1  0.75000000  0.12142000  0.37142000  1.0 1.2412540202
C  C1  1  0.55960000  0.39990000  0.21090000  1.0 0.0226753339
C  C2  1  0.68900000  0.34870000  0.28910000  1.0 0.0226753339
C  C3  1  0.94040000  0.15130000  0.84030000  1.0 0.0226753339
C  C4  1  0.81100000  0.10010000  0.65970000  1.0 0.0226753339
C  C5  1  0.63420000  0.55760000  0.33840000  1.0 0.0226753339
C  C6  1  0.71920000  0.29580000  0.16160000  1.0 0.0226753339
C  C7  1  0.86580000  0.20420000  0.92340000  1.0 0.0323294472
C  C8  1  0.78080000  0.94240000  0.57660000  1.0 0.0323294472
C  C9  1  0.60170000  0.30500000  0.09190000  1.0 0.0763653601
C  C10  1  0.71310000  0.50980000  0.40810000  1.0 0.0763653601
C  C11  1  0.89830000  0.99020000  0.70330000  1.0 0.0672514547
C  C12  1  0.78690000  0.19500000  0.79670000  1.0 0.0672514547
C  C13  1  0.57080000  0.28570000  0.20830000  1.0 0.0596867908
C  C14  1  0.57740000  0.36250000  0.29170000  1.0 0.0596867908
C  C15  1  0.92920000  0.13750000  0.71490000  1.0 0.0596867908
C  C16  1  0.92260000  0.21430000  0.78510000  1.0 0.0596867908
C  C17  1  0.49420000  0.21240000  0.20020000  1.0 -0.2329221445
C  C18  1  0.51220000  0.29400000  0.29980000  1.0 -0.2329221445
C  C19  1  0.00580000  0.20600000  0.71820000  1.0 -0.2329221445
C  C20  1  0.98780000  0.28760000  0.78180000  1.0 -0.2329221445
C  C21  1  0.52830000  0.13160000  0.06030000  1.0 0.1687574086
C  C22  1  0.57130000  0.46800000  0.43970000  1.0 0.1687574086
C  C23  1  0.97170000  0.03200000  0.60330000  1.0 0.1687574086
C  C24  1  0.92870000  0.36840000  0.89670000  1.0 0.1687574086
C  C25  1  0.44790000  0.38760000  0.16990000  1.0 0.4788817649
C  C26  1  0.71770000  0.27800000  0.33010000  1.0 0.4748495106
C  C27  1  0.05210000  0.22200000  0.93970000  1.0 0.4788817649
C  C28  1  0.78230000  0.11240000  0.56030000  1.0 0.4748495106
C  C29  1  0.30860000  0.66460000  0.10440000  1.0 0.0672514547
C  C30  1  0.06020000  0.20420000  0.39560000  1.0 0.0596867908
C  C31  1  0.19140000  0.29580000  0.35600000  1.0 0.0596867908
C  C32  1  0.43980000  0.83540000  0.14400000  1.0 0.0763653601
C  C33  1  0.30330000  0.58880000  0.95450000  1.0 0.2149324898
C  C34  1  0.13430000  0.34880000  0.54550000  1.0 0.2257663046
C  C35  1  0.19670000  0.15120000  0.28550000  1.0 0.2257663046
C  C36  1  0.36570000  0.91120000  0.21450000  1.0 0.2219696526
C  C37  1  0.42350000  0.78740000  0.21630000  1.0 0.051950935
C  C38  1  0.07110000  0.20720000  0.28370000  1.0 0.051950935
C  C39  1  0.07650000  0.29280000  0.36390000  1.0 0.051950935
C  C40  1  0.42890000  0.71260000  0.13610000  1.0 0.051950935
C  C41  1  0.43350000  0.91000000  0.37150000  1.0 0.2708910986
C  C42  1  0.03850000  0.06200000  0.12850000  1.0 0.2708910986
C  C43  1  0.06650000  0.43800000  0.47650000  1.0 0.2708910986
C  C44  1  0.46150000  0.59000000  0.02350000  1.0 0.2839929943
C  C45  1  0.50610000  0.72230000  0.21400000  1.0 -0.2660730596
C  C46  1  0.00830000  0.29210000  0.28600000  1.0 -0.2636374748
C  C47  1  0.99390000  0.20790000  0.21620000  1.0 -0.2636374748
C  C48  1  0.49170000  0.77770000  0.28380000  1.0 -0.2636374748
C  C49  1  0.23730000  0.75750000  0.15960000  1.0 0.0323294472
C  C50  1  0.09790000  0.07770000  0.34040000  1.0 0.0323294472
C  C51  1  0.26270000  0.42230000  0.52020000  1.0 0.0323294472
C  C52  1  0.40210000  0.74250000  0.97980000  1.0 0.0323294472
C  C53  1  0.28300000  0.56500000  0.11860000  1.0 0.4788817649
C  C54  1  0.94640000  0.16440000  0.38140000  1.0 0.4788817649
C  C55  1  0.21700000  0.33560000  0.28200000  1.0 0.4788817649
C  C56  1  0.55360000  0.93500000  0.21800000  1.0 0.4788817649
O  O1  1  0.41940000  0.48980000  0.26900000  1.0 -0.4927861954
O  O2  1  0.72080000  0.15040000  0.23100000  1.0 -0.4927861954
O  O3  1  0.08060000  0.34960000  0.07040000  1.0 -0.4927861954
O  O4  1  0.77920000  0.01020000  0.42960000  1.0 -0.4927861954
O  O5  1  0.38150000  0.27910000  0.04540000  1.0 -0.5200525488
O  O6  1  0.73370000  0.33610000  0.45460000  1.0 -0.5200525488
O  O7  1  0.11850000  0.16390000  0.89760000  1.0 -0.5200525488
O  O8  1  0.76630000  0.22090000  0.60240000  1.0 -0.5200525488
O  O9  1  0.27220000  0.61010000  0.23130000  1.0 -0.5415297762
O  O10  1  0.87880000  0.04090000  0.26870000  1.0 -0.5415297762
O  O11  1  0.22780000  0.45910000  0.33790000  1.0 -0.5415297762
O  O12  1  0.62120000  0.88990000  0.16210000  1.0 -0.5476033802
O  O13  1  0.27590000  0.43400000  0.01590000  1.0 -0.5200525488
O  O14  1  0.91810000  0.26000000  0.48410000  1.0 -0.5200525488
O  O15  1  0.22410000  0.24000000  0.15810000  1.0 -0.5200525488
O  O16  1  0.58190000  0.06600000  0.34190000  1.0 -0.5200525488
