# DDEC6 charges by PACMAN v1.1 (https://github.com/mtap-research/PACMAN-charge/)
data_NOFHOG_FSR_pacman
_symmetry_space_group_name_H-M   'P 1'
_cell_length_a   10.42990000
_cell_length_b   13.52190000
_cell_length_c   31.66420000
_cell_angle_alpha   90.00000000
_cell_angle_beta   97.62080000
_cell_angle_gamma   90.00000000
_symmetry_Int_Tables_number   1
_chemical_formula_structural   EuH24C28SO8
_chemical_formula_sum   'Eu4 H96 C112 S4 O32'
_cell_volume   4426.22432905
_cell_formula_units_Z   4
loop_
 _symmetry_equiv_pos_site_id
 _symmetry_equiv_pos_as_xyz
  1  'x, y, z'
loop_
 _atom_site_type_symbol
 _atom_site_label
 _atom_site_symmetry_multiplicity
 _atom_site_fract_x
 _atom_site_fract_y
 _atom_site_fract_z
 _atom_site_occupancy
 _atom_site_charge
Eu  Eu1  1  0.91552000  0.90392000  0.53900000  1.0 2.0703738235
Eu  Eu2  1  0.08448000  0.40392000  0.96100000  1.0 2.0703738235
Eu  Eu3  1  0.08448000  0.09608000  0.46100000  1.0 2.0703738235
Eu  Eu4  1  0.91552000  0.59608000  0.03900000  1.0 2.0703738235
H  H1  1  0.78010000  0.01960000  0.35480000  1.0 0.1291163058
H  H2  1  0.21990000  0.51960000  0.14520000  1.0 0.1291163058
H  H3  1  0.21990000  0.98040000  0.64520000  1.0 0.1291163058
H  H4  1  0.78010000  0.48040000  0.85480000  1.0 0.1291163058
H  H5  1  0.63510000  0.96910000  0.29650000  1.0 0.1291163058
H  H6  1  0.36490000  0.46910000  0.20350000  1.0 0.1291163058
H  H7  1  0.36490000  0.03090000  0.70350000  1.0 0.1291163058
H  H8  1  0.63510000  0.53090000  0.79650000  1.0 0.1291163058
H  H9  1  0.46010000  0.78770000  0.37000000  1.0 0.1200125139
H  H10  1  0.53990000  0.28770000  0.13000000  1.0 0.1200125139
H  H11  1  0.53990000  0.21230000  0.63000000  1.0 0.1200125139
H  H12  1  0.46010000  0.71230000  0.87000000  1.0 0.1200125139
H  H13  1  0.60800000  0.83580000  0.43020000  1.0 0.1200125139
H  H14  1  0.39200000  0.33580000  0.06980000  1.0 0.1200125139
H  H15  1  0.39200000  0.16420000  0.56980000  1.0 0.1200125139
H  H16  1  0.60800000  0.66420000  0.93020000  1.0 0.1200125139
H  H17  1  0.75760000  0.20980000  0.87760000  1.0 0.1291163058
H  H18  1  0.24240000  0.70980000  0.62240000  1.0 0.1291163058
H  H19  1  0.24240000  0.79020000  0.12240000  1.0 0.1291163058
H  H20  1  0.75760000  0.29020000  0.37760000  1.0 0.1291163058
H  H21  1  0.62520000  0.14880000  0.81860000  1.0 0.1291163058
H  H22  1  0.37480000  0.64880000  0.68140000  1.0 0.1291163058
H  H23  1  0.37480000  0.85120000  0.18140000  1.0 0.1291163058
H  H24  1  0.62520000  0.35120000  0.31860000  1.0 0.1291163058
H  H25  1  0.82660000  0.30600000  0.74180000  1.0 0.1291163058
H  H26  1  0.17340000  0.80600000  0.75820000  1.0 0.1291163058
H  H27  1  0.17340000  0.69400000  0.25820000  1.0 0.1291163058
H  H28  1  0.82660000  0.19400000  0.24180000  1.0 0.1291163058
H  H29  1  0.96790000  0.36110000  0.80030000  1.0 0.1291163058
H  H30  1  0.03210000  0.86110000  0.69970000  1.0 0.1291163058
H  H31  1  0.03210000  0.63890000  0.19970000  1.0 0.1291163058
H  H32  1  0.96790000  0.13890000  0.30030000  1.0 0.1291163058
H  H33  1  0.14740000  0.74170000  0.52330000  1.0 0.1477367699
H  H34  1  0.85260000  0.24170000  0.97670000  1.0 0.1477367699
H  H35  1  0.85260000  0.25830000  0.47670000  1.0 0.1477367699
H  H36  1  0.14740000  0.75830000  0.02330000  1.0 0.1477367699
H  H37  1  0.26860000  0.59220000  0.53450000  1.0 0.1406887822
H  H38  1  0.73140000  0.09220000  0.96550000  1.0 0.1406887822
H  H39  1  0.73140000  0.40780000  0.46550000  1.0 0.1406887822
H  H40  1  0.26860000  0.90780000  0.03450000  1.0 0.1406887822
H  H41  1  0.46550000  0.67060000  0.43720000  1.0 0.1291163058
H  H42  1  0.53450000  0.17060000  0.06280000  1.0 0.1291163058
H  H43  1  0.53450000  0.32940000  0.56280000  1.0 0.1291163058
H  H44  1  0.46550000  0.82940000  0.93720000  1.0 0.1291163058
H  H45  1  0.34330000  0.81660000  0.42940000  1.0 0.1291163058
H  H46  1  0.65670000  0.31660000  0.07060000  1.0 0.1291163058
H  H47  1  0.65670000  0.18340000  0.57060000  1.0 0.1291163058
H  H48  1  0.34330000  0.68340000  0.92940000  1.0 0.1291163058
H  H49  1  0.21180000  0.37560000  0.51830000  1.0 0.1119192295
H  H50  1  0.78820000  0.87560000  0.98170000  1.0 0.1119192295
H  H51  1  0.78820000  0.62440000  0.48170000  1.0 0.1119192295
H  H52  1  0.21180000  0.12440000  0.01830000  1.0 0.1119192295
H  H53  1  0.28770000  0.27330000  0.52740000  1.0 0.1042573356
H  H54  1  0.71230000  0.77330000  0.97260000  1.0 0.1042573356
H  H55  1  0.71230000  0.72670000  0.47260000  1.0 0.1042573356
H  H56  1  0.28770000  0.22670000  0.02740000  1.0 0.1042573356
H  H57  1  0.27690000  0.32300000  0.48110000  1.0 0.1200125139
H  H58  1  0.72310000  0.82300000  0.01890000  1.0 0.1200125139
H  H59  1  0.72310000  0.67700000  0.51890000  1.0 0.1200125139
H  H60  1  0.27690000  0.17700000  0.98110000  1.0 0.1200125139
H  H61  1  0.47680000  0.21810000  0.39780000  1.0 0.1591850187
H  H62  1  0.52320000  0.71810000  0.10220000  1.0 0.1591850187
H  H63  1  0.52320000  0.78190000  0.60220000  1.0 0.1591850187
H  H64  1  0.47680000  0.28190000  0.89780000  1.0 0.1591850187
H  H65  1  0.53950000  0.20990000  0.44660000  1.0 0.1591850187
H  H66  1  0.46050000  0.70990000  0.05340000  1.0 0.1591850187
H  H67  1  0.46050000  0.79010000  0.55340000  1.0 0.1591850187
H  H68  1  0.53950000  0.29010000  0.94660000  1.0 0.1591850187
H  H69  1  0.58760000  0.13820000  0.41170000  1.0 0.1591850187
H  H70  1  0.41240000  0.63820000  0.08830000  1.0 0.1591850187
H  H71  1  0.41240000  0.86180000  0.58830000  1.0 0.1591850187
H  H72  1  0.58760000  0.36180000  0.91170000  1.0 0.1591850187
H  H73  1  0.30200000  0.12710000  0.36400000  1.0 0.1825696133
H  H74  1  0.69800000  0.62710000  0.13600000  1.0 0.1825696133
H  H75  1  0.69800000  0.87290000  0.63600000  1.0 0.1825696133
H  H76  1  0.30200000  0.37290000  0.86400000  1.0 0.1825696133
H  H77  1  0.42780000  0.06070000  0.36140000  1.0 0.1477367699
H  H78  1  0.57220000  0.56070000  0.13860000  1.0 0.1477367699
H  H79  1  0.57220000  0.93930000  0.63860000  1.0 0.1477367699
H  H80  1  0.42780000  0.43930000  0.86140000  1.0 0.1477367699
H  H81  1  0.29740000  0.01060000  0.37260000  1.0 0.1881915086
H  H82  1  0.70260000  0.51060000  0.12740000  1.0 0.1881915086
H  H83  1  0.70260000  0.98940000  0.62740000  1.0 0.1881915086
H  H84  1  0.29740000  0.48940000  0.87260000  1.0 0.1881915086
H  H85  1  0.49710000  0.59240000  0.00080000  1.0 0.1119192295
H  H86  1  0.50290000  0.09240000  0.49920000  1.0 0.1119192295
H  H87  1  0.50290000  0.40760000  0.99920000  1.0 0.1119192295
H  H88  1  0.49710000  0.90760000  0.50080000  1.0 0.1119192295
H  H89  1  0.56420000  0.48720000  0.01130000  1.0 0.0713920795
H  H90  1  0.43580000  0.98720000  0.48870000  1.0 0.0713920795
H  H91  1  0.43580000  0.51280000  0.98870000  1.0 0.0713920795
H  H92  1  0.56420000  0.01280000  0.51130000  1.0 0.0713920795
H  H93  1  0.42980000  0.51260000  0.02810000  1.0 0.1119192295
H  H94  1  0.57020000  0.01260000  0.47190000  1.0 0.1119192295
H  H95  1  0.57020000  0.48740000  0.97190000  1.0 0.1119192295
H  H96  1  0.42980000  0.98740000  0.52810000  1.0 0.1119192295
C  C1  1  0.19770000  0.04010000  0.56370000  1.0 0.6209682651
C  C2  1  0.80230000  0.54010000  0.93630000  1.0 0.6209682651
C  C3  1  0.80230000  0.95990000  0.43630000  1.0 0.6209682651
C  C4  1  0.19770000  0.45990000  0.06370000  1.0 0.6209682651
C  C5  1  0.29380000  0.06970000  0.60190000  1.0 -0.0151947973
C  C6  1  0.70620000  0.56970000  0.89810000  1.0 -0.0151947973
C  C7  1  0.70620000  0.93030000  0.39810000  1.0 -0.0151947973
C  C8  1  0.29380000  0.43030000  0.10190000  1.0 -0.0151947973
C  C9  1  0.28440000  0.02830000  0.64180000  1.0 -0.0790584444
C  C10  1  0.71560000  0.52830000  0.85820000  1.0 -0.0790584444
C  C11  1  0.71560000  0.97170000  0.35820000  1.0 -0.0790584444
C  C12  1  0.28440000  0.47170000  0.14180000  1.0 -0.0790584444
C  C13  1  0.37070000  0.05840000  0.67630000  1.0 -0.1413037836
C  C14  1  0.62930000  0.55840000  0.82370000  1.0 -0.1413037836
C  C15  1  0.62930000  0.94160000  0.32370000  1.0 -0.1413037836
C  C16  1  0.37070000  0.44160000  0.17630000  1.0 -0.1413037836
C  C17  1  0.46270000  0.12550000  0.67200000  1.0 0.1406887822
C  C18  1  0.53730000  0.62550000  0.82800000  1.0 0.1406887822
C  C19  1  0.53730000  0.87450000  0.32800000  1.0 0.1406887822
C  C20  1  0.46270000  0.37450000  0.17200000  1.0 0.1477367699
C  C21  1  0.52620000  0.83450000  0.36700000  1.0 -0.1589058436
C  C22  1  0.47380000  0.33450000  0.13300000  1.0 -0.1589058436
C  C23  1  0.47380000  0.16550000  0.63300000  1.0 -0.1589058436
C  C24  1  0.52620000  0.66550000  0.86700000  1.0 -0.1589058436
C  C25  1  0.61420000  0.86350000  0.40300000  1.0 -0.09977257
C  C26  1  0.38580000  0.36350000  0.09700000  1.0 -0.09977257
C  C27  1  0.38580000  0.13650000  0.59700000  1.0 -0.09977257
C  C28  1  0.61420000  0.63650000  0.90300000  1.0 -0.09977257
C  C29  1  0.55020000  0.16200000  0.70930000  1.0 -0.0790584444
C  C30  1  0.44980000  0.66200000  0.79070000  1.0 -0.0790584444
C  C31  1  0.44980000  0.83800000  0.29070000  1.0 -0.0790584444
C  C32  1  0.55020000  0.33800000  0.20930000  1.0 -0.0790584444
C  C33  1  0.97520000  0.31760000  0.88310000  1.0 0.5515765004
C  C34  1  0.02480000  0.81760000  0.61690000  1.0 0.5515765004
C  C35  1  0.02480000  0.68240000  0.11690000  1.0 0.5515765004
C  C36  1  0.97520000  0.18240000  0.38310000  1.0 0.5515765004
C  C37  1  0.88330000  0.28340000  0.84480000  1.0 0.0018220918
C  C38  1  0.11670000  0.78340000  0.65520000  1.0 0.0018220918
C  C39  1  0.11670000  0.71660000  0.15520000  1.0 0.0018220918
C  C40  1  0.88330000  0.21660000  0.34480000  1.0 0.0018220918
C  C41  1  0.77520000  0.22610000  0.84980000  1.0 -0.0930431346
C  C42  1  0.22480000  0.72610000  0.65020000  1.0 -0.0930431346
C  C43  1  0.22480000  0.77390000  0.15020000  1.0 -0.0930431346
C  C44  1  0.77520000  0.27390000  0.34980000  1.0 -0.0930431346
C  C45  1  0.69380000  0.19280000  0.81500000  1.0 -0.1473662838
C  C46  1  0.30620000  0.69280000  0.68500000  1.0 -0.1473662838
C  C47  1  0.30620000  0.80720000  0.18500000  1.0 -0.1473662838
C  C48  1  0.69380000  0.30720000  0.31500000  1.0 -0.1473662838
C  C49  1  0.71290000  0.22440000  0.77420000  1.0 0.1200125139
C  C50  1  0.28710000  0.72440000  0.72580000  1.0 0.1200125139
C  C51  1  0.28710000  0.77560000  0.22580000  1.0 0.1200125139
C  C52  1  0.71290000  0.27560000  0.27420000  1.0 0.1200125139
C  C53  1  0.81400000  0.28500000  0.76960000  1.0 -0.1413037836
C  C54  1  0.18600000  0.78500000  0.73040000  1.0 -0.1413037836
C  C55  1  0.18600000  0.71500000  0.23040000  1.0 -0.1413037836
C  C56  1  0.81400000  0.21500000  0.26960000  1.0 -0.1413037836
C  C57  1  0.89950000  0.31700000  0.80420000  1.0 -0.09977257
C  C58  1  0.10050000  0.81700000  0.69580000  1.0 -0.09977257
C  C59  1  0.10050000  0.68300000  0.19580000  1.0 -0.09977257
C  C60  1  0.89950000  0.18300000  0.30420000  1.0 -0.09977257
C  C61  1  0.62630000  0.18980000  0.73800000  1.0 -0.0722415804
C  C62  1  0.37370000  0.68980000  0.76200000  1.0 -0.0722415804
C  C63  1  0.37370000  0.81020000  0.26200000  1.0 -0.0722415804
C  C64  1  0.62630000  0.31020000  0.23800000  1.0 -0.0722415804
C  C65  1  0.16100000  0.88550000  0.46960000  1.0 0.6209682651
C  C66  1  0.83900000  0.38550000  0.03040000  1.0 0.6209682651
C  C67  1  0.83900000  0.11450000  0.53040000  1.0 0.6209682651
C  C68  1  0.16100000  0.61450000  0.96960000  1.0 0.6209682651
C  C69  1  0.23600000  0.79090000  0.47610000  1.0 -0.0090688489
C  C70  1  0.76400000  0.29090000  0.02390000  1.0 -0.0090688489
C  C71  1  0.76400000  0.20910000  0.52390000  1.0 -0.0090688489
C  C72  1  0.23600000  0.70910000  0.97610000  1.0 -0.0090688489
C  C73  1  0.21350000  0.72760000  0.50620000  1.0 -0.0722415804
C  C74  1  0.78650000  0.22760000  0.99380000  1.0 -0.0722415804
C  C75  1  0.78650000  0.27240000  0.49380000  1.0 -0.0722415804
C  C76  1  0.21350000  0.77240000  0.00620000  1.0 -0.0722415804
C  C77  1  0.28720000  0.63810000  0.51350000  1.0 -0.131586904
C  C78  1  0.71280000  0.13810000  0.98650000  1.0 -0.131586904
C  C79  1  0.71280000  0.36190000  0.48650000  1.0 -0.131586904
C  C80  1  0.28720000  0.86190000  0.01350000  1.0 -0.131586904
C  C81  1  0.38280000  0.62050000  0.49010000  1.0 0.1406887822
C  C82  1  0.61720000  0.12050000  0.00990000  1.0 0.1406887822
C  C83  1  0.61720000  0.37950000  0.50990000  1.0 0.1406887822
C  C84  1  0.38280000  0.87950000  0.99010000  1.0 0.1406887822
C  C85  1  0.40360000  0.68540000  0.45580000  1.0 -0.1473662838
C  C86  1  0.59640000  0.18540000  0.04420000  1.0 -0.1473662838
C  C87  1  0.59640000  0.31460000  0.54420000  1.0 -0.1473662838
C  C88  1  0.40360000  0.81460000  0.95580000  1.0 -0.1473662838
C  C89  1  0.32890000  0.77070000  0.45100000  1.0 -0.0930431346
C  C90  1  0.67110000  0.27070000  0.04900000  1.0 -0.0930431346
C  C91  1  0.67110000  0.22930000  0.54900000  1.0 -0.0930431346
C  C92  1  0.32890000  0.72930000  0.95100000  1.0 -0.0930431346
C  C93  1  0.46530000  0.53660000  0.49750000  1.0 -0.0930431346
C  C94  1  0.53470000  0.03660000  0.00250000  1.0 -0.0930431346
C  C95  1  0.53470000  0.46340000  0.50250000  1.0 -0.0930431346
C  C96  1  0.46530000  0.96340000  0.99750000  1.0 -0.0930431346
C  C97  1  0.23200000  0.31180000  0.50600000  1.0 -0.1654773004
C  C98  1  0.76800000  0.81180000  0.99400000  1.0 -0.1654773004
C  C99  1  0.76800000  0.68820000  0.49400000  1.0 -0.1589058436
C  C100  1  0.23200000  0.18820000  0.00600000  1.0 -0.1654773004
C  C101  1  0.51260000  0.17250000  0.42040000  1.0 -0.5887648411
C  C102  1  0.48740000  0.67250000  0.07960000  1.0 -0.5887648411
C  C103  1  0.48740000  0.82750000  0.57960000  1.0 -0.5887648411
C  C104  1  0.51260000  0.32750000  0.92040000  1.0 -0.5887648411
C  C105  1  0.35200000  0.07000000  0.37610000  1.0 -0.5588974751
C  C106  1  0.64800000  0.57000000  0.12390000  1.0 -0.5588974751
C  C107  1  0.64800000  0.93000000  0.62390000  1.0 -0.5588974751
C  C108  1  0.35200000  0.43000000  0.87610000  1.0 -0.5588974751
C  C109  1  0.51300000  0.54000000  0.02220000  1.0 -0.3280751653
C  C110  1  0.48700000  0.04000000  0.47780000  1.0 -0.3280751653
C  C111  1  0.48700000  0.46000000  0.97780000  1.0 -0.3280751653
C  C112  1  0.51300000  0.96000000  0.52220000  1.0 -0.3280751653
S  S1  1  0.40010000  0.08990000  0.42915000  1.0 0.767221769
S  S2  1  0.59990000  0.58990000  0.07085000  1.0 0.767221769
S  S3  1  0.59990000  0.91010000  0.57085000  1.0 0.767221769
S  S4  1  0.40010000  0.41010000  0.92915000  1.0 0.767221769
O  O1  1  0.10090000  0.99080000  0.57225000  1.0 -0.6559776015
O  O2  1  0.89910000  0.49080000  0.92775000  1.0 -0.6559776015
O  O3  1  0.89910000  0.00920000  0.42775000  1.0 -0.6559776015
O  O4  1  0.10090000  0.50920000  0.07225000  1.0 -0.6559776015
O  O5  1  0.78310000  0.93160000  0.47200000  1.0 -0.616284395
O  O6  1  0.21690000  0.43160000  0.02800000  1.0 -0.616284395
O  O7  1  0.21690000  0.06840000  0.52800000  1.0 -0.616284395
O  O8  1  0.78310000  0.56840000  0.97200000  1.0 -0.616284395
O  O9  1  0.06000000  0.37990000  0.87930000  1.0 -0.5833338894
O  O10  1  0.94000000  0.87990000  0.62070000  1.0 -0.5833338894
O  O11  1  0.94000000  0.62010000  0.12070000  1.0 -0.5833338894
O  O12  1  0.06000000  0.12010000  0.37930000  1.0 -0.5833338894
O  O13  1  0.95780000  0.28060000  0.91820000  1.0 -0.6043581612
O  O14  1  0.04220000  0.78060000  0.58180000  1.0 -0.6043581612
O  O15  1  0.04220000  0.71940000  0.08180000  1.0 -0.6043581612
O  O16  1  0.95780000  0.21940000  0.41820000  1.0 -0.6043581612
O  O17  1  0.06920000  0.90170000  0.49100000  1.0 -0.704263205
O  O18  1  0.93080000  0.40170000  0.00900000  1.0 -0.704263205
O  O19  1  0.93080000  0.09830000  0.50900000  1.0 -0.704263205
O  O20  1  0.06920000  0.59830000  0.99100000  1.0 -0.704263205
O  O21  1  0.19250000  0.94700000  0.44270000  1.0 -0.6321816243
O  O22  1  0.80750000  0.44700000  0.05730000  1.0 -0.6321816243
O  O23  1  0.80750000  0.05300000  0.55730000  1.0 -0.6321816243
O  O24  1  0.19250000  0.55300000  0.94270000  1.0 -0.6321816243
O  O25  1  0.11930000  0.26060000  0.49380000  1.0 -0.4677751161
O  O26  1  0.88070000  0.76060000  0.00620000  1.0 -0.4677751161
O  O27  1  0.88070000  0.73940000  0.50620000  1.0 -0.4677751161
O  O28  1  0.11930000  0.23940000  0.99380000  1.0 -0.4677751161
O  O29  1  0.29270000  0.14770000  0.44450000  1.0 -0.6478193499
O  O30  1  0.70730000  0.64770000  0.05550000  1.0 -0.6478193499
O  O31  1  0.70730000  0.85230000  0.55550000  1.0 -0.6478193499
O  O32  1  0.29270000  0.35230000  0.94450000  1.0 -0.6478193499
