# DDEC6 charges by PACMAN v1.1 (https://github.com/mtap-research/PACMAN-charge/)
data_NOFRIK_FSR_pacman
_symmetry_space_group_name_H-M   'P 1'
_cell_length_a   18.68320000
_cell_length_b   18.68320000
_cell_length_c   6.18810000
_cell_angle_alpha   82.71190000
_cell_angle_beta   97.28810000
_cell_angle_gamma   158.42300000
_symmetry_Int_Tables_number   1
_chemical_formula_structural   Tb2CuH32C52(NO8)2
_chemical_formula_sum   'Tb2 Cu1 H32 C52 N2 O16'
_cell_volume   787.70218537
_cell_formula_units_Z   1
loop_
 _symmetry_equiv_pos_site_id
 _symmetry_equiv_pos_as_xyz
  1  'x, y, z'
loop_
 _atom_site_type_symbol
 _atom_site_label
 _atom_site_symmetry_multiplicity
 _atom_site_fract_x
 _atom_site_fract_y
 _atom_site_fract_z
 _atom_site_occupancy
 _atom_site_charge
Tb  Tb1  1  0.21990000  0.78010000  0.52127000  1.0 1.8812108599
Tb  Tb2  1  0.78010000  0.21990000  0.47873000  1.0 1.8812108599
Cu  Cu1  1  0.00000000  0.00000000  0.00000000  1.0 0.1824808978
H  H1  1  0.14390000  0.08410000  0.59690000  1.0 0.061647851
H  H2  1  0.08410000  0.14390000  0.40310000  1.0 0.061647851
H  H3  1  0.85610000  0.91590000  0.40310000  1.0 0.061647851
H  H4  1  0.91590000  0.85610000  0.59690000  1.0 0.061647851
H  H5  1  0.20200000  0.02560000  0.48100000  1.0 0.0899163895
H  H6  1  0.02560000  0.20200000  0.51900000  1.0 0.0899163895
H  H7  1  0.79800000  0.97440000  0.51900000  1.0 0.0899163895
H  H8  1  0.97440000  0.79800000  0.48100000  1.0 0.0899163895
H  H9  1  0.02820000  0.76440000  0.06610000  1.0 0.1151961145
H  H10  1  0.76440000  0.02820000  0.93390000  1.0 0.1151961145
H  H11  1  0.97180000  0.23560000  0.93390000  1.0 0.1151961145
H  H12  1  0.23560000  0.97180000  0.06610000  1.0 0.1151961145
H  H13  1  0.00640000  0.85720000  0.19300000  1.0 0.0330070695
H  H14  1  0.85720000  0.00640000  0.80700000  1.0 0.0330070695
H  H15  1  0.99360000  0.14280000  0.80700000  1.0 0.0330070695
H  H16  1  0.14280000  0.99360000  0.19300000  1.0 0.0330070695
H  H17  1  0.23510000  0.52490000  0.49840000  1.0 0.1074135267
H  H18  1  0.52490000  0.23510000  0.50160000  1.0 0.1074135267
H  H19  1  0.76490000  0.47510000  0.50160000  1.0 0.1074135267
H  H20  1  0.47510000  0.76490000  0.49840000  1.0 0.1074135267
H  H21  1  0.33230000  0.50770000  0.37260000  1.0 0.061647851
H  H22  1  0.50770000  0.33230000  0.62740000  1.0 0.061647851
H  H23  1  0.66770000  0.49230000  0.62740000  1.0 0.061647851
H  H24  1  0.49230000  0.66770000  0.37260000  1.0 0.061647851
H  H25  1  0.45900000  0.62840000  0.02320000  1.0 0.0787137486
H  H26  1  0.62840000  0.45900000  0.97680000  1.0 0.0787137486
H  H27  1  0.54100000  0.37160000  0.97680000  1.0 0.0787137486
H  H28  1  0.37160000  0.54100000  0.02320000  1.0 0.0787137486
H  H29  1  0.50670000  0.78330000  0.80680000  1.0 0.096394781
H  H30  1  0.78330000  0.50670000  0.19320000  1.0 0.096394781
H  H31  1  0.49330000  0.21670000  0.19320000  1.0 0.096394781
H  H32  1  0.21670000  0.49330000  0.80680000  1.0 0.096394781
C  C1  1  0.12020000  0.01800000  0.69320000  1.0 -0.0286393882
C  C2  1  0.01800000  0.12020000  0.30680000  1.0 -0.0286393882
C  C3  1  0.87980000  0.98200000  0.30680000  1.0 -0.0286393882
C  C4  1  0.98200000  0.87980000  0.69320000  1.0 -0.0286393882
C  C5  1  0.15830000  0.98770000  0.62720000  1.0 -0.0286393882
C  C6  1  0.98770000  0.15830000  0.37280000  1.0 -0.0286393882
C  C7  1  0.84170000  0.01230000  0.37280000  1.0 -0.0286393882
C  C8  1  0.01230000  0.84170000  0.62720000  1.0 -0.0286393882
C  C9  1  0.13450000  0.90350000  0.76860000  1.0 -0.0636446592
C  C10  1  0.90350000  0.13450000  0.23140000  1.0 -0.0636446592
C  C11  1  0.86550000  0.09650000  0.23140000  1.0 -0.0636446592
C  C12  1  0.09650000  0.86550000  0.76860000  1.0 -0.0636446592
C  C13  1  0.06080000  0.83840000  0.97290000  1.0 0.0023951161
C  C14  1  0.83840000  0.06080000  0.02710000  1.0 0.0023951161
C  C15  1  0.93920000  0.16160000  0.02710000  1.0 0.0023951161
C  C16  1  0.16160000  0.93920000  0.97290000  1.0 0.0023951161
C  C17  1  0.03430000  0.88010000  0.04190000  1.0 -0.0035143862
C  C18  1  0.88010000  0.03430000  0.95810000  1.0 -0.0035143862
C  C19  1  0.96570000  0.11990000  0.95810000  1.0 -0.0035143862
C  C20  1  0.11990000  0.96570000  0.04190000  1.0 -0.0035143862
C  C21  1  0.15140000  0.84860000  0.68100000  1.0 0.4016274475
C  C22  1  0.84860000  0.15140000  0.31900000  1.0 0.4016274475
C  C23  1  0.34010000  0.68990000  0.23730000  1.0 -0.0286393882
C  C24  1  0.68990000  0.34010000  0.76270000  1.0 -0.0286393882
C  C25  1  0.65990000  0.31010000  0.76270000  1.0 -0.0286393882
C  C26  1  0.31010000  0.65990000  0.23730000  1.0 -0.0286393882
C  C27  1  0.29830000  0.58490000  0.36150000  1.0 -0.0353009067
C  C28  1  0.58490000  0.29830000  0.63850000  1.0 -0.0353009067
C  C29  1  0.70170000  0.41510000  0.63850000  1.0 -0.0353009067
C  C30  1  0.41510000  0.70170000  0.36150000  1.0 -0.0353009067
C  C31  1  0.34980000  0.56920000  0.28370000  1.0 -0.0494297929
C  C32  1  0.56920000  0.34980000  0.71630000  1.0 -0.0494297929
C  C33  1  0.65020000  0.43080000  0.71630000  1.0 -0.0494297929
C  C34  1  0.43080000  0.65020000  0.28370000  1.0 -0.0494297929
C  C35  1  0.42650000  0.64230000  0.07750000  1.0 -0.0636446592
C  C36  1  0.64230000  0.42650000  0.92250000  1.0 -0.0636446592
C  C37  1  0.57350000  0.35770000  0.92250000  1.0 -0.0636446592
C  C38  1  0.35770000  0.57350000  0.07750000  1.0 -0.0636446592
C  C39  1  0.45610000  0.73530000  0.95030000  1.0 -0.1054770164
C  C40  1  0.73530000  0.45610000  0.04970000  1.0 -0.1054770164
C  C41  1  0.54390000  0.26470000  0.04970000  1.0 -0.1054770164
C  C42  1  0.26470000  0.54390000  0.95030000  1.0 -0.1054770164
C  C43  1  0.41270000  0.75890000  0.03020000  1.0 -0.0061041466
C  C44  1  0.75890000  0.41270000  0.96980000  1.0 -0.0061041466
C  C45  1  0.58730000  0.24110000  0.96980000  1.0 -0.0061041466
C  C46  1  0.24110000  0.58730000  0.03020000  1.0 -0.0061041466
C  C47  1  0.29030000  0.70970000  0.33300000  1.0 0.4813994132
C  C48  1  0.70970000  0.29030000  0.66700000  1.0 0.4813994132
C  C49  1  0.43930000  0.85270000  0.86900000  1.0 0.4175483175
C  C50  1  0.85270000  0.43930000  0.13100000  1.0 0.4175483175
C  C51  1  0.56070000  0.14730000  0.13100000  1.0 0.4175483175
C  C52  1  0.14730000  0.56070000  0.86900000  1.0 0.4175483175
N  N1  1  0.04690000  0.95310000  0.90040000  1.0 -0.1945708133
N  N2  1  0.95310000  0.04690000  0.09960000  1.0 -0.1945708133
O  O1  1  0.18070000  0.81930000  0.80630000  1.0 -0.5427447892
O  O2  1  0.81930000  0.18070000  0.19370000  1.0 -0.5427447892
O  O3  1  0.21020000  0.90360000  0.48500000  1.0 -0.2669798023
O  O4  1  0.90360000  0.21020000  0.51500000  1.0 -0.2669798023
O  O5  1  0.78980000  0.09640000  0.51500000  1.0 -0.2669798023
O  O6  1  0.09640000  0.78980000  0.48500000  1.0 -0.2669798023
O  O7  1  0.26710000  0.73290000  0.83730000  1.0 -0.4499469436
O  O8  1  0.73290000  0.26710000  0.16270000  1.0 -0.4499469436
O  O9  1  0.60960000  0.01020000  0.78800000  1.0 -0.6095923819
O  O10  1  0.01020000  0.60960000  0.21200000  1.0 -0.604753498
O  O11  1  0.39040000  0.98980000  0.21200000  1.0 -0.6095923819
O  O12  1  0.98980000  0.39040000  0.78800000  1.0 -0.6095923819
O  O13  1  0.42854000  0.87726000  0.37640000  1.0 -0.6095923819
O  O14  1  0.87726000  0.42854000  0.62360000  1.0 -0.6095923819
O  O15  1  0.57146000  0.12274000  0.62360000  1.0 -0.6095923819
O  O16  1  0.12274000  0.57146000  0.37640000  1.0 -0.6095923819
