# DDEC6 charges by PACMAN v1.1 (https://github.com/mtap-research/PACMAN-charge/)
data_NOHCIZ_ASR_pacman
_symmetry_space_group_name_H-M   'P 1'
_cell_length_a   15.50480000
_cell_length_b   15.50480000
_cell_length_c   25.32250000
_cell_angle_alpha   84.25370000
_cell_angle_beta   95.74630000
_cell_angle_gamma   139.41500000
_symmetry_Int_Tables_number   1
_chemical_formula_structural   SiNi3H12C25O14
_chemical_formula_sum   'Si4 Ni12 H48 C100 O56'
_cell_volume   3937.74762567
_cell_formula_units_Z   4
loop_
 _symmetry_equiv_pos_site_id
 _symmetry_equiv_pos_as_xyz
  1  'x, y, z'
loop_
 _atom_site_type_symbol
 _atom_site_label
 _atom_site_symmetry_multiplicity
 _atom_site_fract_x
 _atom_site_fract_y
 _atom_site_fract_z
 _atom_site_occupancy
 _atom_site_charge
Si  Si1  1  0.42209000  0.55913000  0.40861000  1.0 0.7633087218
Si  Si2  1  0.55913000  0.42209000  0.09139000  1.0 0.7633087218
Si  Si3  1  0.57791000  0.44087000  0.59139000  1.0 0.7633087218
Si  Si4  1  0.44087000  0.57791000  0.90861000  1.0 0.7633087218
Ni  Ni1  1  0.36642000  0.04010000  0.33851000  1.0 0.9302457452
Ni  Ni2  1  0.04194000  0.82918000  0.32662000  1.0 1.0361223996
Ni  Ni3  1  0.19584000  0.94068000  0.44644000  1.0 1.0062143981
Ni  Ni4  1  0.04010000  0.36642000  0.16149000  1.0 0.9302457452
Ni  Ni5  1  0.82918000  0.04194000  0.17338000  1.0 1.0361223996
Ni  Ni6  1  0.94068000  0.19584000  0.05356000  1.0 1.0062143981
Ni  Ni7  1  0.63358000  0.95990000  0.66149000  1.0 0.9302457452
Ni  Ni8  1  0.95806000  0.17082000  0.67338000  1.0 1.0361223996
Ni  Ni9  1  0.80416000  0.05932000  0.55356000  1.0 1.0062143981
Ni  Ni10  1  0.95990000  0.63358000  0.83851000  1.0 0.9302457452
Ni  Ni11  1  0.17082000  0.95806000  0.82662000  1.0 1.0361223996
Ni  Ni12  1  0.05932000  0.80416000  0.94644000  1.0 1.0062143981
H  H1  1  0.54210000  0.95270000  0.27830000  1.0 0.139594759
H  H2  1  0.58280000  0.72860000  0.31620000  1.0 0.1290807475
H  H3  1  0.35160000  0.69020000  0.40110000  1.0 0.1089079261
H  H4  1  0.24420000  0.45920000  0.31600000  1.0 0.1192655146
H  H5  1  0.04160000  0.08880000  0.29740000  1.0 0.139594759
H  H6  1  0.30310000  0.29410000  0.42010000  1.0 0.1290807475
H  H7  1  0.54740000  0.53160000  0.44250000  1.0 0.1689860627
H  H8  1  0.61000000  0.62120000  0.39030000  1.0 0.17603347
H  H9  1  0.63530000  0.68150000  0.44390000  1.0 0.1689860627
H  H10  1  0.18900000  0.35700000  0.47880000  1.0 0.1290807475
H  H11  1  0.28990000  0.55390000  0.60700000  1.0 0.139594759
H  H12  1  0.52710000  0.74510000  0.48390000  1.0 0.1290807475
H  H13  1  0.95270000  0.54210000  0.22170000  1.0 0.139594759
H  H14  1  0.72860000  0.58280000  0.18380000  1.0 0.1290807475
H  H15  1  0.69020000  0.35160000  0.09890000  1.0 0.1089079261
H  H16  1  0.45920000  0.24420000  0.18400000  1.0 0.1192655146
H  H17  1  0.08880000  0.04160000  0.20260000  1.0 0.139594759
H  H18  1  0.29410000  0.30310000  0.07990000  1.0 0.1290807475
H  H19  1  0.53160000  0.54740000  0.05750000  1.0 0.1689860627
H  H20  1  0.62120000  0.61000000  0.10970000  1.0 0.17603347
H  H21  1  0.68150000  0.63530000  0.05610000  1.0 0.1689860627
H  H22  1  0.35700000  0.18900000  0.02120000  1.0 0.1290807475
H  H23  1  0.55390000  0.28990000  0.89300000  1.0 0.139594759
H  H24  1  0.74510000  0.52710000  0.01610000  1.0 0.1290807475
H  H25  1  0.45790000  0.04730000  0.72170000  1.0 0.139594759
H  H26  1  0.41720000  0.27140000  0.68380000  1.0 0.1290807475
H  H27  1  0.64840000  0.30980000  0.59890000  1.0 0.1089079261
H  H28  1  0.75580000  0.54080000  0.68400000  1.0 0.1192655146
H  H29  1  0.95840000  0.91120000  0.70260000  1.0 0.139594759
H  H30  1  0.69690000  0.70590000  0.57990000  1.0 0.1290807475
H  H31  1  0.45260000  0.46840000  0.55750000  1.0 0.1689860627
H  H32  1  0.39000000  0.37880000  0.60970000  1.0 0.17603347
H  H33  1  0.36470000  0.31850000  0.55610000  1.0 0.1689860627
H  H34  1  0.81100000  0.64300000  0.52120000  1.0 0.1290807475
H  H35  1  0.71010000  0.44610000  0.39300000  1.0 0.139594759
H  H36  1  0.47290000  0.25490000  0.51610000  1.0 0.1290807475
H  H37  1  0.04730000  0.45790000  0.77830000  1.0 0.139594759
H  H38  1  0.27140000  0.41720000  0.81620000  1.0 0.1290807475
H  H39  1  0.30980000  0.64840000  0.90110000  1.0 0.1089079261
H  H40  1  0.54080000  0.75580000  0.81600000  1.0 0.1192655146
H  H41  1  0.91120000  0.95840000  0.79740000  1.0 0.139594759
H  H42  1  0.70590000  0.69690000  0.92010000  1.0 0.1290807475
H  H43  1  0.46840000  0.45260000  0.94250000  1.0 0.1689860627
H  H44  1  0.37880000  0.39000000  0.89030000  1.0 0.17603347
H  H45  1  0.31850000  0.36470000  0.94390000  1.0 0.1689860627
H  H46  1  0.64300000  0.81100000  0.97880000  1.0 0.1290807475
H  H47  1  0.44610000  0.71010000  0.10700000  1.0 0.139594759
H  H48  1  0.25490000  0.47290000  0.98390000  1.0 0.1290807475
C  C1  1  0.37891000  0.86769000  0.35150000  1.0 0.4357907354
C  C2  1  0.43640000  0.82680000  0.34069000  1.0 -0.0201328456
C  C3  1  0.52085000  0.88635000  0.29946000  1.0 -0.0901095092
C  C4  1  0.57438000  0.84862000  0.28924000  1.0 0.006943735
C  C5  1  0.54474000  0.75206000  0.32264000  1.0 -0.0812127188
C  C6  1  0.46138000  0.68962000  0.36488000  1.0 -0.1813862816
C  C7  1  0.40799000  0.72961000  0.37311000  1.0 -0.135442362
C  C8  1  0.66683000  0.91477000  0.24486000  1.0 0.5424420118
C  C9  1  0.29112000  0.39928000  0.37378000  1.0 -0.1889895469
C  C10  1  0.22522000  0.38758000  0.32793000  1.0 -0.0901095092
C  C11  1  0.13265000  0.27255000  0.29988000  1.0 -0.0063744566
C  C12  1  0.10414000  0.16626000  0.31640000  1.0 -0.0901095092
C  C13  1  0.16851000  0.17409000  0.36142000  1.0 -0.0036401983
C  C14  1  0.26069000  0.28951000  0.38984000  1.0 -0.0901095092
C  C15  1  0.06092000  0.26008000  0.25101000  1.0 0.5828526199
C  C16  1  0.14079000  0.05901000  0.37805000  1.0 0.5828526199
C  C17  1  0.57173000  0.60367000  0.42308000  1.0 -0.7377500355
C  C18  1  0.36548000  0.54992000  0.47271000  1.0 -0.1994495213
C  C19  1  0.24906000  0.43594000  0.49655000  1.0 -0.0812127188
C  C20  1  0.21981000  0.43639000  0.54594000  1.0 -0.0063744566
C  C21  1  0.30772000  0.55408000  0.57297000  1.0 -0.0812127188
C  C22  1  0.42168000  0.67112000  0.54869000  1.0 -0.0201328456
C  C23  1  0.44919000  0.66666667  0.49963000  1.0 -0.0901095092
C  C24  1  0.09403000  0.31217000  0.57340000  1.0 0.5912519127
C  C25  1  0.51418000  0.79902000  0.57597000  1.0 0.5912519127
C  C26  1  0.86769000  0.37891000  0.14850000  1.0 0.4357907354
C  C27  1  0.82680000  0.43640000  0.15931000  1.0 -0.0201328456
C  C28  1  0.88635000  0.52085000  0.20054000  1.0 -0.0901095092
C  C29  1  0.84862000  0.57438000  0.21076000  1.0 0.006943735
C  C30  1  0.75206000  0.54474000  0.17736000  1.0 -0.0812127188
C  C31  1  0.68962000  0.46138000  0.13512000  1.0 -0.1813862816
C  C32  1  0.72961000  0.40799000  0.12689000  1.0 -0.135442362
C  C33  1  0.91477000  0.66683000  0.25514000  1.0 0.5424420118
C  C34  1  0.39928000  0.29112000  0.12622000  1.0 -0.1889895469
C  C35  1  0.38758000  0.22522000  0.17207000  1.0 -0.0901095092
C  C36  1  0.27255000  0.13265000  0.20012000  1.0 -0.0063744566
C  C37  1  0.16626000  0.10414000  0.18360000  1.0 -0.0901095092
C  C38  1  0.17409000  0.16851000  0.13858000  1.0 -0.0036401983
C  C39  1  0.28951000  0.26069000  0.11016000  1.0 -0.0901095092
C  C40  1  0.26008000  0.06092000  0.24899000  1.0 0.5828526199
C  C41  1  0.05901000  0.14079000  0.12195000  1.0 0.5828526199
C  C42  1  0.60367000  0.57173000  0.07692000  1.0 -0.7377500355
C  C43  1  0.54992000  0.36548000  0.02729000  1.0 -0.1994495213
C  C44  1  0.43594000  0.24906000  0.00345000  1.0 -0.0812127188
C  C45  1  0.43639000  0.21981000  0.95406000  1.0 -0.0063744566
C  C46  1  0.55408000  0.30772000  0.92703000  1.0 -0.0812127188
C  C47  1  0.67112000  0.42168000  0.95131000  1.0 -0.0201328456
C  C48  1  0.66666667  0.44919000  0.00037000  1.0 -0.0901095092
C  C49  1  0.31217000  0.09403000  0.92660000  1.0 0.5912519127
C  C50  1  0.79902000  0.51418000  0.92403000  1.0 0.5912519127
C  C51  1  0.62109000  0.13231000  0.64850000  1.0 0.4357907354
C  C52  1  0.56360000  0.17320000  0.65931000  1.0 -0.0201328456
C  C53  1  0.47915000  0.11365000  0.70054000  1.0 -0.0901095092
C  C54  1  0.42562000  0.15138000  0.71076000  1.0 0.006943735
C  C55  1  0.45526000  0.24794000  0.67736000  1.0 -0.0812127188
C  C56  1  0.53862000  0.31038000  0.63512000  1.0 -0.1813862816
C  C57  1  0.59201000  0.27039000  0.62689000  1.0 -0.135442362
C  C58  1  0.33317000  0.08523000  0.75514000  1.0 0.5424420118
C  C59  1  0.70888000  0.60072000  0.62622000  1.0 -0.1889895469
C  C60  1  0.77478000  0.61242000  0.67207000  1.0 -0.0901095092
C  C61  1  0.86735000  0.72745000  0.70012000  1.0 -0.0063744566
C  C62  1  0.89586000  0.83374000  0.68360000  1.0 -0.0901095092
C  C63  1  0.83149000  0.82591000  0.63858000  1.0 -0.0036401983
C  C64  1  0.73931000  0.71049000  0.61016000  1.0 -0.0901095092
C  C65  1  0.93908000  0.73992000  0.74899000  1.0 0.5828526199
C  C66  1  0.85921000  0.94099000  0.62195000  1.0 0.5828526199
C  C67  1  0.42827000  0.39633000  0.57692000  1.0 -0.7377500355
C  C68  1  0.63452000  0.45008000  0.52729000  1.0 -0.1994495213
C  C69  1  0.75094000  0.56406000  0.50345000  1.0 -0.0812127188
C  C70  1  0.78019000  0.56361000  0.45406000  1.0 -0.0063744566
C  C71  1  0.69228000  0.44592000  0.42703000  1.0 -0.0812127188
C  C72  1  0.57832000  0.32888000  0.45131000  1.0 -0.0201328456
C  C73  1  0.55081000  0.33333333  0.50037000  1.0 -0.0901095092
C  C74  1  0.90597000  0.68783000  0.42660000  1.0 0.5912519127
C  C75  1  0.48582000  0.20098000  0.42403000  1.0 0.5912519127
C  C76  1  0.13231000  0.62109000  0.85150000  1.0 0.4357907354
C  C77  1  0.17320000  0.56360000  0.84069000  1.0 -0.0201328456
C  C78  1  0.11365000  0.47915000  0.79946000  1.0 -0.0901095092
C  C79  1  0.15138000  0.42562000  0.78924000  1.0 0.006943735
C  C80  1  0.24794000  0.45526000  0.82264000  1.0 -0.0812127188
C  C81  1  0.31038000  0.53862000  0.86488000  1.0 -0.1813862816
C  C82  1  0.27039000  0.59201000  0.87311000  1.0 -0.135442362
C  C83  1  0.08523000  0.33317000  0.74486000  1.0 0.5424420118
C  C84  1  0.60072000  0.70888000  0.87378000  1.0 -0.1889895469
C  C85  1  0.61242000  0.77478000  0.82793000  1.0 -0.0901095092
C  C86  1  0.72745000  0.86735000  0.79988000  1.0 -0.0063744566
C  C87  1  0.83374000  0.89586000  0.81640000  1.0 -0.0901095092
C  C88  1  0.82591000  0.83149000  0.86142000  1.0 -0.0036401983
C  C89  1  0.71049000  0.73931000  0.88984000  1.0 -0.0901095092
C  C90  1  0.73992000  0.93908000  0.75101000  1.0 0.5828526199
C  C91  1  0.94099000  0.85921000  0.87805000  1.0 0.5828526199
C  C92  1  0.39633000  0.42827000  0.92308000  1.0 -0.7377500355
C  C93  1  0.45008000  0.63452000  0.97271000  1.0 -0.1994495213
C  C94  1  0.56406000  0.75094000  0.99655000  1.0 -0.0812127188
C  C95  1  0.56361000  0.78019000  0.04594000  1.0 -0.0063744566
C  C96  1  0.44592000  0.69228000  0.07297000  1.0 -0.0812127188
C  C97  1  0.32888000  0.57832000  0.04869000  1.0 -0.0201328456
C  C98  1  0.33333333  0.55081000  0.99963000  1.0 -0.0901095092
C  C99  1  0.68783000  0.90597000  0.07340000  1.0 0.5912519127
C  C100  1  0.20098000  0.48582000  0.07597000  1.0 0.5912519127
O  O1  1  0.27163000  0.78497000  0.37700000  1.0 0.006943735
O  O2  1  0.42798000  0.97142000  0.32833000  1.0 -0.4163736001
O  O3  1  0.69641000  0.00699000  0.21687000  1.0 -0.5098772913
O  O4  1  0.71627000  0.88113000  0.23473000  1.0 -0.5098772913
O  O5  1  0.10528000  0.36492000  0.23072000  1.0 -0.5098772913
O  O6  1  0.96654000  0.14966000  0.23332000  1.0 -0.4932446152
O  O7  1  0.04827000  0.95373000  0.35274000  1.0 -0.5404454738
O  O8  1  0.20953000  0.07427000  0.41520000  1.0 -0.5322809786
O  O9  1  0.00415000  0.21365000  0.54451000  1.0 -0.5705087751
O  O10  1  0.09006000  0.31774000  0.62137000  1.0 -0.5018083125
O  O11  1  0.50400000  0.79480000  0.62461000  1.0 -0.5018083125
O  O12  1  0.59617000  0.90423000  0.54795000  1.0 -0.5705087751
O  O13  1  0.19637000  0.89763000  0.37257000  1.0 -0.8966634244
O  O14  1  0.34630000  0.84970000  0.39930000  1.0 -0.0063744566
O  O15  1  0.78497000  0.27163000  0.12300000  1.0 0.006943735
O  O16  1  0.97142000  0.42798000  0.17167000  1.0 -0.4163736001
O  O17  1  0.00699000  0.69641000  0.28313000  1.0 -0.5098772913
O  O18  1  0.88113000  0.71627000  0.26527000  1.0 -0.5098772913
O  O19  1  0.36492000  0.10528000  0.26928000  1.0 -0.5098772913
O  O20  1  0.14966000  0.96654000  0.26668000  1.0 -0.4932446152
O  O21  1  0.95373000  0.04827000  0.14726000  1.0 -0.5404454738
O  O22  1  0.07427000  0.20953000  0.08480000  1.0 -0.5322809786
O  O23  1  0.21365000  0.00415000  0.95549000  1.0 -0.5705087751
O  O24  1  0.31774000  0.09006000  0.87863000  1.0 -0.5018083125
O  O25  1  0.79480000  0.50400000  0.87539000  1.0 -0.5018083125
O  O26  1  0.90423000  0.59617000  0.95205000  1.0 -0.5705087751
O  O27  1  0.89763000  0.19637000  0.12743000  1.0 -0.8966634244
O  O28  1  0.84970000  0.34630000  0.10070000  1.0 -0.0063744566
O  O29  1  0.72837000  0.21503000  0.62300000  1.0 0.006943735
O  O30  1  0.57202000  0.02858000  0.67167000  1.0 -0.4163736001
O  O31  1  0.30359000  0.99301000  0.78313000  1.0 -0.5098772913
O  O32  1  0.28373000  0.11887000  0.76527000  1.0 -0.5098772913
O  O33  1  0.89472000  0.63508000  0.76928000  1.0 -0.5098772913
O  O34  1  0.03346000  0.85034000  0.76668000  1.0 -0.4932446152
O  O35  1  0.95173000  0.04627000  0.64726000  1.0 -0.5404454738
O  O36  1  0.79047000  0.92573000  0.58480000  1.0 -0.5322809786
O  O37  1  0.99585000  0.78635000  0.45549000  1.0 -0.5705087751
O  O38  1  0.90994000  0.68226000  0.37863000  1.0 -0.5018083125
O  O39  1  0.49600000  0.20520000  0.37539000  1.0 -0.5018083125
O  O40  1  0.40383000  0.09577000  0.45205000  1.0 -0.5705087751
O  O41  1  0.80363000  0.10237000  0.62743000  1.0 -0.8966634244
O  O42  1  0.65370000  0.15030000  0.60070000  1.0 -0.0063744566
O  O43  1  0.21503000  0.72837000  0.87700000  1.0 0.006943735
O  O44  1  0.02858000  0.57202000  0.82833000  1.0 -0.4163736001
O  O45  1  0.99301000  0.30359000  0.71687000  1.0 -0.5098772913
O  O46  1  0.11887000  0.28373000  0.73473000  1.0 -0.5098772913
O  O47  1  0.63508000  0.89472000  0.73072000  1.0 -0.5098772913
O  O48  1  0.85034000  0.03346000  0.73332000  1.0 -0.4932446152
O  O49  1  0.04627000  0.95173000  0.85274000  1.0 -0.5404454738
O  O50  1  0.92573000  0.79047000  0.91520000  1.0 -0.5322809786
O  O51  1  0.78635000  0.99585000  0.04451000  1.0 -0.5705087751
O  O52  1  0.68226000  0.90994000  0.12137000  1.0 -0.5018083125
O  O53  1  0.20520000  0.49600000  0.12461000  1.0 -0.5018083125
O  O54  1  0.09577000  0.40383000  0.04795000  1.0 -0.5705087751
O  O55  1  0.10237000  0.80363000  0.87257000  1.0 -0.8966634244
O  O56  1  0.15030000  0.65370000  0.89930000  1.0 -0.0063744566
