# DDEC6 charges by PACMAN v1.1 (https://github.com/mtap-research/PACMAN-charge/)
data_NOHSIM_FSR_pacman
_symmetry_space_group_name_H-M   'P 1'
_cell_length_a   8.44300000
_cell_length_b   13.77900000
_cell_length_c   10.17000000
_cell_angle_alpha   90.00000000
_cell_angle_beta   91.91000000
_cell_angle_gamma   90.00000000
_symmetry_Int_Tables_number   1
_chemical_formula_structural   Zn(PO4)2
_chemical_formula_sum   'Zn4 P8 O32'
_cell_volume   1182.48077158
_cell_formula_units_Z   4
loop_
 _symmetry_equiv_pos_site_id
 _symmetry_equiv_pos_as_xyz
  1  'x, y, z'
loop_
 _atom_site_type_symbol
 _atom_site_label
 _atom_site_symmetry_multiplicity
 _atom_site_fract_x
 _atom_site_fract_y
 _atom_site_fract_z
 _atom_site_occupancy
 _atom_site_charge
Zn  Zn1  1  0.87890000  0.07358000  0.96040000  1.0 1.2106276927
Zn  Zn2  1  0.87890000  0.92642000  0.46040000  1.0 1.1989619908
Zn  Zn3  1  0.37720000  0.63090000  0.34960000  1.0 1.1437291083
Zn  Zn4  1  0.37720000  0.36910000  0.84960000  1.0 1.131687778
P  P1  1  0.18940000  0.19380000  0.97150000  1.0 1.2374224123
P  P2  1  0.18940000  0.80620000  0.47150000  1.0 1.2374224123
P  P3  1  0.84970000  0.88670000  0.77420000  1.0 1.1705832061
P  P4  1  0.84970000  0.11330000  0.27420000  1.0 1.1705832061
P  P5  1  0.68910000  0.27320000  0.94090000  1.0 1.2374224123
P  P6  1  0.68910000  0.72680000  0.44090000  1.0 1.2374224123
P  P7  1  0.34610000  0.46300000  0.14010000  1.0 1.2374224123
P  P8  1  0.34610000  0.53700000  0.64010000  1.0 1.2307763276
O  O1  1  0.09590000  0.10570000  0.92550000  1.0 -0.5566461506
O  O2  1  0.09590000  0.89430000  0.42550000  1.0 -0.5485951128
O  O3  1  0.24540000  0.25350000  0.85750000  1.0 -0.5704345825
O  O4  1  0.24540000  0.74650000  0.35750000  1.0 -0.5704345825
O  O5  1  0.33820000  0.15240000  0.05020000  1.0 -0.3592906369
O  O6  1  0.33820000  0.84760000  0.55020000  1.0 -0.3592906369
O  O7  1  0.09390000  0.25400000  0.06940000  1.0 -0.3592906369
O  O8  1  0.09390000  0.74600000  0.56940000  1.0 -0.3592906369
O  O9  1  0.84320000  0.05840000  0.14700000  1.0 -0.5995548192
O  O10  1  0.84320000  0.94160000  0.64700000  1.0 -0.6054404798
O  O11  1  0.00990000  0.83000000  0.78760000  1.0 -0.3661551299
O  O12  1  0.00990000  0.17000000  0.28760000  1.0 -0.3592906369
O  O13  1  0.83270000  0.94430000  0.89710000  1.0 -0.5095162514
O  O14  1  0.83270000  0.05570000  0.39710000  1.0 -0.5029784861
O  O15  1  0.71640000  0.80900000  0.77910000  1.0 -0.2883720073
O  O16  1  0.71640000  0.19100000  0.27910000  1.0 -0.2801145884
O  O17  1  0.74220000  0.17530000  0.89260000  1.0 -0.5799720111
O  O18  1  0.74220000  0.82470000  0.39260000  1.0 -0.5799720111
O  O19  1  0.59430000  0.32780000  0.83690000  1.0 -0.5909761014
O  O20  1  0.59430000  0.67220000  0.33690000  1.0 -0.5995548192
O  O21  1  0.83760000  0.33880000  0.97170000  1.0 -0.3294565204
O  O22  1  0.83760000  0.66120000  0.47170000  1.0 -0.3294565204
O  O23  1  0.59460000  0.26440000  0.06870000  1.0 -0.3592906369
O  O24  1  0.59460000  0.73560000  0.56870000  1.0 -0.3521884802
O  O25  1  0.33630000  0.45560000  0.99390000  1.0 -0.6215703014
O  O26  1  0.33630000  0.54440000  0.49390000  1.0 -0.6215703014
O  O27  1  0.50940000  0.42550000  0.19500000  1.0 -0.3521884802
O  O28  1  0.50940000  0.57450000  0.69500000  1.0 -0.3521884802
O  O29  1  0.21500000  0.39780000  0.20310000  1.0 -0.2883720073
O  O30  1  0.21500000  0.60220000  0.70310000  1.0 -0.2801145884
O  O31  1  0.32490000  0.56460000  0.18830000  1.0 -0.5095162514
O  O32  1  0.32490000  0.43540000  0.68830000  1.0 -0.5029784861
