# DDEC6 charges by PACMAN v1.1 (https://github.com/mtap-research/PACMAN-charge/)
data_NOMQIS_ion_pacman
_symmetry_space_group_name_H-M   'P 1'
_cell_length_a   21.48790000
_cell_length_b   21.48790000
_cell_length_c   21.48790000
_cell_angle_alpha   60.00000000
_cell_angle_beta   60.00000000
_cell_angle_gamma   60.00000000
_symmetry_Int_Tables_number   1
_chemical_formula_structural   LiCu3H12C12(N3O5)2
_chemical_formula_sum   'Li8 Cu24 H96 C96 N48 O80'
_cell_volume   7015.63401077
_cell_formula_units_Z   8
loop_
 _symmetry_equiv_pos_site_id
 _symmetry_equiv_pos_as_xyz
  1  'x, y, z'
loop_
 _atom_site_type_symbol
 _atom_site_label
 _atom_site_symmetry_multiplicity
 _atom_site_fract_x
 _atom_site_fract_y
 _atom_site_fract_z
 _atom_site_occupancy
 _atom_site_charge
Li  Li1  1  0.32320000  0.32320000  0.03040000  1.0 0.7583672158
Li  Li2  1  0.32320000  0.32320000  0.32320000  1.0 0.7583672158
Li  Li3  1  0.32320000  0.03040000  0.32320000  1.0 0.7583672158
Li  Li4  1  0.03040000  0.32320000  0.32320000  1.0 0.7583672158
Li  Li5  1  0.82320000  0.82320000  0.82320000  1.0 0.7527622493
Li  Li6  1  0.82320000  0.82320000  0.53040000  1.0 0.7527622493
Li  Li7  1  0.82320000  0.53040000  0.82320000  1.0 0.7583672158
Li  Li8  1  0.53040000  0.82320000  0.82320000  1.0 0.7527622493
Cu  Cu1  1  0.34960000  0.87758000  0.97656000  1.0 0.858785561
Cu  Cu2  1  0.87758000  0.34960000  0.79626000  1.0 0.858785561
Cu  Cu3  1  0.97656000  0.79626000  0.34960000  1.0 0.858785561
Cu  Cu4  1  0.79626000  0.97656000  0.87758000  1.0 0.858785561
Cu  Cu5  1  0.79626000  0.87758000  0.34960000  1.0 0.858785561
Cu  Cu6  1  0.97656000  0.34960000  0.87758000  1.0 0.858785561
Cu  Cu7  1  0.87758000  0.79626000  0.97656000  1.0 0.858785561
Cu  Cu8  1  0.34960000  0.97656000  0.79626000  1.0 0.858785561
Cu  Cu9  1  0.97656000  0.87758000  0.79626000  1.0 0.858785561
Cu  Cu10  1  0.79626000  0.34960000  0.97656000  1.0 0.858785561
Cu  Cu11  1  0.34960000  0.79626000  0.87758000  1.0 0.858785561
Cu  Cu12  1  0.87758000  0.97656000  0.34960000  1.0 0.858785561
Cu  Cu13  1  0.84960000  0.37758000  0.29626000  1.0 0.858785561
Cu  Cu14  1  0.37758000  0.84960000  0.47656000  1.0 0.858785561
Cu  Cu15  1  0.47656000  0.29626000  0.37758000  1.0 0.858785561
Cu  Cu16  1  0.29626000  0.47656000  0.84960000  1.0 0.858785561
Cu  Cu17  1  0.29626000  0.37758000  0.47656000  1.0 0.858785561
Cu  Cu18  1  0.47656000  0.84960000  0.29626000  1.0 0.858785561
Cu  Cu19  1  0.37758000  0.29626000  0.84960000  1.0 0.858785561
Cu  Cu20  1  0.84960000  0.47656000  0.37758000  1.0 0.858785561
Cu  Cu21  1  0.47656000  0.37758000  0.84960000  1.0 0.858785561
Cu  Cu22  1  0.29626000  0.84960000  0.37758000  1.0 0.858785561
Cu  Cu23  1  0.84960000  0.29626000  0.47656000  1.0 0.858785561
Cu  Cu24  1  0.37758000  0.47656000  0.29626000  1.0 0.858785561
H  H1  1  0.28450000  0.86416000  0.22568000  1.0 0.1223116082
H  H2  1  0.50270000  0.84676000  0.13474000  1.0 0.1223116082
H  H3  1  0.18865000  0.96495000  0.98169000  1.0 0.3461519151
H  H4  1  0.18264000  0.91212000  0.05472000  1.0 0.3461519151
H  H5  1  0.86416000  0.28450000  0.62566000  1.0 0.1223116082
H  H6  1  0.84676000  0.50270000  0.51580000  1.0 0.1223116082
H  H7  1  0.96495000  0.18865000  0.86471000  1.0 0.3461519151
H  H8  1  0.91212000  0.18264000  0.85052000  1.0 0.3461519151
H  H9  1  0.22568000  0.62566000  0.28450000  1.0 0.1223116082
H  H10  1  0.13474000  0.51580000  0.50270000  1.0 0.1223116082
H  H11  1  0.98169000  0.86471000  0.18865000  1.0 0.3461519151
H  H12  1  0.05472000  0.85052000  0.18264000  1.0 0.3461519151
H  H13  1  0.62566000  0.22568000  0.86416000  1.0 0.1223116082
H  H14  1  0.51580000  0.13474000  0.84676000  1.0 0.1223116082
H  H15  1  0.86471000  0.98169000  0.96495000  1.0 0.3461519151
H  H16  1  0.85052000  0.05472000  0.91212000  1.0 0.3461519151
H  H17  1  0.62566000  0.86416000  0.28450000  1.0 0.1223116082
H  H18  1  0.51580000  0.84676000  0.50270000  1.0 0.1223116082
H  H19  1  0.86471000  0.96495000  0.18865000  1.0 0.3461519151
H  H20  1  0.85052000  0.91212000  0.18264000  1.0 0.3461519151
H  H21  1  0.22568000  0.28450000  0.86416000  1.0 0.1223116082
H  H22  1  0.13474000  0.50270000  0.84676000  1.0 0.1223116082
H  H23  1  0.98169000  0.18865000  0.96495000  1.0 0.3461519151
H  H24  1  0.05472000  0.18264000  0.91212000  1.0 0.3461519151
H  H25  1  0.86416000  0.62566000  0.22568000  1.0 0.1223116082
H  H26  1  0.84676000  0.51580000  0.13474000  1.0 0.1223116082
H  H27  1  0.96495000  0.86471000  0.98169000  1.0 0.3461519151
H  H28  1  0.91212000  0.85052000  0.05472000  1.0 0.3461519151
H  H29  1  0.28450000  0.22568000  0.62566000  1.0 0.1223116082
H  H30  1  0.50270000  0.13474000  0.51580000  1.0 0.1223116082
H  H31  1  0.18865000  0.98169000  0.86471000  1.0 0.3461519151
H  H32  1  0.18264000  0.05472000  0.85052000  1.0 0.3461519151
H  H33  1  0.22568000  0.86416000  0.62566000  1.0 0.1223116082
H  H34  1  0.13474000  0.84676000  0.51580000  1.0 0.1223116082
H  H35  1  0.98169000  0.96495000  0.86471000  1.0 0.3461519151
H  H36  1  0.05472000  0.91212000  0.85052000  1.0 0.3461519151
H  H37  1  0.62566000  0.28450000  0.22568000  1.0 0.1223116082
H  H38  1  0.51580000  0.50270000  0.13474000  1.0 0.1223116082
H  H39  1  0.86471000  0.18865000  0.98169000  1.0 0.3461519151
H  H40  1  0.85052000  0.18264000  0.05472000  1.0 0.3461519151
H  H41  1  0.28450000  0.62566000  0.86416000  1.0 0.1223116082
H  H42  1  0.50270000  0.51580000  0.84676000  1.0 0.1223116082
H  H43  1  0.18865000  0.86471000  0.96495000  1.0 0.3461519151
H  H44  1  0.18264000  0.85052000  0.91212000  1.0 0.3461519151
H  H45  1  0.86416000  0.22568000  0.28450000  1.0 0.1223116082
H  H46  1  0.84676000  0.13474000  0.50270000  1.0 0.1223116082
H  H47  1  0.96495000  0.98169000  0.18865000  1.0 0.3461519151
H  H48  1  0.91212000  0.05472000  0.18264000  1.0 0.3461519151
H  H49  1  0.78450000  0.36416000  0.12566000  1.0 0.1223116082
H  H50  1  0.00270000  0.34676000  0.01580000  1.0 0.1223116082
H  H51  1  0.68865000  0.46495000  0.36471000  1.0 0.3461519151
H  H52  1  0.68264000  0.41212000  0.35052000  1.0 0.3461519151
H  H53  1  0.36416000  0.78450000  0.72568000  1.0 0.1223116082
H  H54  1  0.34676000  0.00270000  0.63474000  1.0 0.1223116082
H  H55  1  0.46495000  0.68865000  0.48169000  1.0 0.3461519151
H  H56  1  0.41212000  0.68264000  0.55472000  1.0 0.3461519151
H  H57  1  0.72568000  0.12566000  0.36416000  1.0 0.1223116082
H  H58  1  0.63474000  0.01580000  0.34676000  1.0 0.1223116082
H  H59  1  0.48169000  0.36471000  0.46495000  1.0 0.3461519151
H  H60  1  0.55472000  0.35052000  0.41212000  1.0 0.3461519151
H  H61  1  0.12566000  0.72568000  0.78450000  1.0 0.1223116082
H  H62  1  0.01580000  0.63474000  0.00270000  1.0 0.1223116082
H  H63  1  0.36471000  0.48169000  0.68865000  1.0 0.3461519151
H  H64  1  0.35052000  0.55472000  0.68264000  1.0 0.3461519151
H  H65  1  0.12566000  0.36416000  0.72568000  1.0 0.1223116082
H  H66  1  0.01580000  0.34676000  0.63474000  1.0 0.1223116082
H  H67  1  0.36471000  0.46495000  0.48169000  1.0 0.3461519151
H  H68  1  0.35052000  0.41212000  0.55472000  1.0 0.3461519151
H  H69  1  0.72568000  0.78450000  0.12566000  1.0 0.1223116082
H  H70  1  0.63474000  0.00270000  0.01580000  1.0 0.1223116082
H  H71  1  0.48169000  0.68865000  0.36471000  1.0 0.3461519151
H  H72  1  0.55472000  0.68264000  0.35052000  1.0 0.3461519151
H  H73  1  0.36416000  0.12566000  0.78450000  1.0 0.1223116082
H  H74  1  0.34676000  0.01580000  0.00270000  1.0 0.1223116082
H  H75  1  0.46495000  0.36471000  0.68865000  1.0 0.3461519151
H  H76  1  0.41212000  0.35052000  0.68264000  1.0 0.3461519151
H  H77  1  0.78450000  0.72568000  0.36416000  1.0 0.1223116082
H  H78  1  0.00270000  0.63474000  0.34676000  1.0 0.1223116082
H  H79  1  0.68865000  0.48169000  0.46495000  1.0 0.3461519151
H  H80  1  0.68264000  0.55472000  0.41212000  1.0 0.3461519151
H  H81  1  0.72568000  0.36416000  0.78450000  1.0 0.1223116082
H  H82  1  0.63474000  0.34676000  0.00270000  1.0 0.1223116082
H  H83  1  0.48169000  0.46495000  0.68865000  1.0 0.3461519151
H  H84  1  0.55472000  0.41212000  0.68264000  1.0 0.3461519151
H  H85  1  0.12566000  0.78450000  0.36416000  1.0 0.1223116082
H  H86  1  0.01580000  0.00270000  0.34676000  1.0 0.1223116082
H  H87  1  0.36471000  0.68865000  0.46495000  1.0 0.3461519151
H  H88  1  0.35052000  0.68264000  0.41212000  1.0 0.3461519151
H  H89  1  0.78450000  0.12566000  0.72568000  1.0 0.1223116082
H  H90  1  0.00270000  0.01580000  0.63474000  1.0 0.1223116082
H  H91  1  0.68865000  0.36471000  0.48169000  1.0 0.3461519151
H  H92  1  0.68264000  0.35052000  0.55472000  1.0 0.3461519151
H  H93  1  0.36416000  0.72568000  0.12566000  1.0 0.1223116082
H  H94  1  0.34676000  0.63474000  0.01580000  1.0 0.1223116082
H  H95  1  0.46495000  0.48169000  0.36471000  1.0 0.3461519151
H  H96  1  0.41212000  0.55472000  0.35052000  1.0 0.3461519151
C  C1  1  0.33250000  0.85970000  0.21930000  1.0 -0.0210018944
C  C2  1  0.45330000  0.85010000  0.16850000  1.0 -0.0060402865
C  C3  1  0.39580000  0.85540000  0.15380000  1.0 -0.0981999176
C  C4  1  0.39810000  0.85870000  0.08230000  1.0 0.5641574226
C  C5  1  0.85970000  0.33250000  0.58850000  1.0 -0.0210018944
C  C6  1  0.85010000  0.45330000  0.52810000  1.0 -0.0060402865
C  C7  1  0.85540000  0.39580000  0.59500000  1.0 -0.0981999176
C  C8  1  0.85870000  0.39810000  0.66090000  1.0 0.5641574226
C  C9  1  0.21930000  0.58850000  0.33250000  1.0 -0.0210018944
C  C10  1  0.16850000  0.52810000  0.45330000  1.0 -0.0060402865
C  C11  1  0.15380000  0.59500000  0.39580000  1.0 -0.0981999176
C  C12  1  0.08230000  0.66090000  0.39810000  1.0 0.5641574226
C  C13  1  0.58850000  0.21930000  0.85970000  1.0 -0.0210018944
C  C14  1  0.52810000  0.16850000  0.85010000  1.0 -0.0060402865
C  C15  1  0.59500000  0.15380000  0.85540000  1.0 -0.0981999176
C  C16  1  0.66090000  0.08230000  0.85870000  1.0 0.5641574226
C  C17  1  0.58850000  0.85970000  0.33250000  1.0 -0.0210018944
C  C18  1  0.52810000  0.85010000  0.45330000  1.0 -0.0060402865
C  C19  1  0.59500000  0.85540000  0.39580000  1.0 -0.0981999176
C  C20  1  0.66090000  0.85870000  0.39810000  1.0 0.5641574226
C  C21  1  0.21930000  0.33250000  0.85970000  1.0 -0.0210018944
C  C22  1  0.16850000  0.45330000  0.85010000  1.0 -0.0060402865
C  C23  1  0.15380000  0.39580000  0.85540000  1.0 -0.0981999176
C  C24  1  0.08230000  0.39810000  0.85870000  1.0 0.5641574226
C  C25  1  0.85970000  0.58850000  0.21930000  1.0 -0.0210018944
C  C26  1  0.85010000  0.52810000  0.16850000  1.0 -0.0060402865
C  C27  1  0.85540000  0.59500000  0.15380000  1.0 -0.0981999176
C  C28  1  0.85870000  0.66090000  0.08230000  1.0 0.5641574226
C  C29  1  0.33250000  0.21930000  0.58850000  1.0 -0.0210018944
C  C30  1  0.45330000  0.16850000  0.52810000  1.0 -0.0060402865
C  C31  1  0.39580000  0.15380000  0.59500000  1.0 -0.0981999176
C  C32  1  0.39810000  0.08230000  0.66090000  1.0 0.5641574226
C  C33  1  0.21930000  0.85970000  0.58850000  1.0 -0.0210018944
C  C34  1  0.16850000  0.85010000  0.52810000  1.0 -0.0060402865
C  C35  1  0.15380000  0.85540000  0.59500000  1.0 -0.0981999176
C  C36  1  0.08230000  0.85870000  0.66090000  1.0 0.5641574226
C  C37  1  0.58850000  0.33250000  0.21930000  1.0 -0.0210018944
C  C38  1  0.52810000  0.45330000  0.16850000  1.0 -0.0060402865
C  C39  1  0.59500000  0.39580000  0.15380000  1.0 -0.0981999176
C  C40  1  0.66090000  0.39810000  0.08230000  1.0 0.5641574226
C  C41  1  0.33250000  0.58850000  0.85970000  1.0 -0.0210018944
C  C42  1  0.45330000  0.52810000  0.85010000  1.0 -0.0060402865
C  C43  1  0.39580000  0.59500000  0.85540000  1.0 -0.0981999176
C  C44  1  0.39810000  0.66090000  0.85870000  1.0 0.5641574226
C  C45  1  0.85970000  0.21930000  0.33250000  1.0 -0.0210018944
C  C46  1  0.85010000  0.16850000  0.45330000  1.0 -0.0060402865
C  C47  1  0.85540000  0.15380000  0.39580000  1.0 -0.0981999176
C  C48  1  0.85870000  0.08230000  0.39810000  1.0 0.5641574226
C  C49  1  0.83250000  0.35970000  0.08850000  1.0 -0.0210018944
C  C50  1  0.95330000  0.35010000  0.02810000  1.0 -0.0060402865
C  C51  1  0.89580000  0.35540000  0.09500000  1.0 -0.0981999176
C  C52  1  0.89810000  0.35870000  0.16090000  1.0 0.5641574226
C  C53  1  0.35970000  0.83250000  0.71930000  1.0 -0.0210018944
C  C54  1  0.35010000  0.95330000  0.66850000  1.0 -0.0060402865
C  C55  1  0.35540000  0.89580000  0.65380000  1.0 -0.0981999176
C  C56  1  0.35870000  0.89810000  0.58230000  1.0 0.5641574226
C  C57  1  0.71930000  0.08850000  0.35970000  1.0 -0.0210018944
C  C58  1  0.66850000  0.02810000  0.35010000  1.0 -0.0060402865
C  C59  1  0.65380000  0.09500000  0.35540000  1.0 -0.0981999176
C  C60  1  0.58230000  0.16090000  0.35870000  1.0 0.5641574226
C  C61  1  0.08850000  0.71930000  0.83250000  1.0 -0.0210018944
C  C62  1  0.02810000  0.66850000  0.95330000  1.0 -0.0060402865
C  C63  1  0.09500000  0.65380000  0.89580000  1.0 -0.0981999176
C  C64  1  0.16090000  0.58230000  0.89810000  1.0 0.5641574226
C  C65  1  0.08850000  0.35970000  0.71930000  1.0 -0.0210018944
C  C66  1  0.02810000  0.35010000  0.66850000  1.0 -0.0060402865
C  C67  1  0.09500000  0.35540000  0.65380000  1.0 -0.0981999176
C  C68  1  0.16090000  0.35870000  0.58230000  1.0 0.5641574226
C  C69  1  0.71930000  0.83250000  0.08850000  1.0 -0.0210018944
C  C70  1  0.66850000  0.95330000  0.02810000  1.0 -0.0060402865
C  C71  1  0.65380000  0.89580000  0.09500000  1.0 -0.0981999176
C  C72  1  0.58230000  0.89810000  0.16090000  1.0 0.5641574226
C  C73  1  0.35970000  0.08850000  0.83250000  1.0 -0.0210018944
C  C74  1  0.35010000  0.02810000  0.95330000  1.0 -0.0060402865
C  C75  1  0.35540000  0.09500000  0.89580000  1.0 -0.0981999176
C  C76  1  0.35870000  0.16090000  0.89810000  1.0 0.5641574226
C  C77  1  0.83250000  0.71930000  0.35970000  1.0 -0.0210018944
C  C78  1  0.95330000  0.66850000  0.35010000  1.0 -0.0060402865
C  C79  1  0.89580000  0.65380000  0.35540000  1.0 -0.0981999176
C  C80  1  0.89810000  0.58230000  0.35870000  1.0 0.5641574226
C  C81  1  0.71930000  0.35970000  0.83250000  1.0 -0.0210018944
C  C82  1  0.66850000  0.35010000  0.95330000  1.0 -0.0060402865
C  C83  1  0.65380000  0.35540000  0.89580000  1.0 -0.0981999176
C  C84  1  0.58230000  0.35870000  0.89810000  1.0 0.5641574226
C  C85  1  0.08850000  0.83250000  0.35970000  1.0 -0.0210018944
C  C86  1  0.02810000  0.95330000  0.35010000  1.0 -0.0060402865
C  C87  1  0.09500000  0.89580000  0.35540000  1.0 -0.0981999176
C  C88  1  0.16090000  0.89810000  0.35870000  1.0 0.5641574226
C  C89  1  0.83250000  0.08850000  0.71930000  1.0 -0.0210018944
C  C90  1  0.95330000  0.02810000  0.66850000  1.0 -0.0060402865
C  C91  1  0.89580000  0.09500000  0.65380000  1.0 -0.0981999176
C  C92  1  0.89810000  0.16090000  0.58230000  1.0 0.5641574226
C  C93  1  0.35970000  0.71930000  0.08850000  1.0 -0.0210018944
C  C94  1  0.35010000  0.66850000  0.02810000  1.0 -0.0060402865
C  C95  1  0.35540000  0.65380000  0.09500000  1.0 -0.0981999176
C  C96  1  0.35870000  0.58230000  0.16090000  1.0 0.5641574226
N  N1  1  0.35200000  0.85600000  0.27280000  1.0 -0.1979328084
N  N2  1  0.42728000  0.85032000  0.24012000  1.0 -0.1979328084
N  N3  1  0.85600000  0.35200000  0.51920000  1.0 -0.1979328084
N  N4  1  0.85032000  0.42728000  0.48228000  1.0 -0.1979328084
N  N5  1  0.27280000  0.51920000  0.35200000  1.0 -0.1979328084
N  N6  1  0.24012000  0.48228000  0.42728000  1.0 -0.1979328084
N  N7  1  0.51920000  0.27280000  0.85600000  1.0 -0.1979328084
N  N8  1  0.48228000  0.24012000  0.85032000  1.0 -0.1979328084
N  N9  1  0.51920000  0.85600000  0.35200000  1.0 -0.1979328084
N  N10  1  0.48228000  0.85032000  0.42728000  1.0 -0.1979328084
N  N11  1  0.27280000  0.35200000  0.85600000  1.0 -0.1979328084
N  N12  1  0.24012000  0.42728000  0.85032000  1.0 -0.1979328084
N  N13  1  0.85600000  0.51920000  0.27280000  1.0 -0.1979328084
N  N14  1  0.85032000  0.48228000  0.24012000  1.0 -0.1979328084
N  N15  1  0.35200000  0.27280000  0.51920000  1.0 -0.1979328084
N  N16  1  0.42728000  0.24012000  0.48228000  1.0 -0.1979328084
N  N17  1  0.27280000  0.85600000  0.51920000  1.0 -0.1979328084
N  N18  1  0.24012000  0.85032000  0.48228000  1.0 -0.1979328084
N  N19  1  0.51920000  0.35200000  0.27280000  1.0 -0.1979328084
N  N20  1  0.48228000  0.42728000  0.24012000  1.0 -0.1979328084
N  N21  1  0.35200000  0.51920000  0.85600000  1.0 -0.1979328084
N  N22  1  0.42728000  0.48228000  0.85032000  1.0 -0.1979328084
N  N23  1  0.85600000  0.27280000  0.35200000  1.0 -0.1979328084
N  N24  1  0.85032000  0.24012000  0.42728000  1.0 -0.1979328084
N  N25  1  0.85200000  0.35600000  0.01920000  1.0 -0.1979328084
N  N26  1  0.92728000  0.35032000  0.98228000  1.0 -0.1941551305
N  N27  1  0.35600000  0.85200000  0.77280000  1.0 -0.1979328084
N  N28  1  0.35032000  0.92728000  0.74012000  1.0 -0.1979328084
N  N29  1  0.77280000  0.01920000  0.35600000  1.0 -0.1979328084
N  N30  1  0.74012000  0.98228000  0.35032000  1.0 -0.1979328084
N  N31  1  0.01920000  0.77280000  0.85200000  1.0 -0.1979328084
N  N32  1  0.98228000  0.74012000  0.92728000  1.0 -0.1979328084
N  N33  1  0.01920000  0.35600000  0.77280000  1.0 -0.1979328084
N  N34  1  0.98228000  0.35032000  0.74012000  1.0 -0.1941551305
N  N35  1  0.77280000  0.85200000  0.01920000  1.0 -0.1979328084
N  N36  1  0.74012000  0.92728000  0.98228000  1.0 -0.1979328084
N  N37  1  0.35600000  0.01920000  0.85200000  1.0 -0.1979328084
N  N38  1  0.35032000  0.98228000  0.92728000  1.0 -0.1979328084
N  N39  1  0.85200000  0.77280000  0.35600000  1.0 -0.1979328084
N  N40  1  0.92728000  0.74012000  0.35032000  1.0 -0.1979328084
N  N41  1  0.77280000  0.35600000  0.85200000  1.0 -0.1979328084
N  N42  1  0.74012000  0.35032000  0.92728000  1.0 -0.1941551305
N  N43  1  0.01920000  0.85200000  0.35600000  1.0 -0.1979328084
N  N44  1  0.98228000  0.92728000  0.35032000  1.0 -0.1979328084
N  N45  1  0.85200000  0.01920000  0.77280000  1.0 -0.1979328084
N  N46  1  0.92728000  0.98228000  0.74012000  1.0 -0.1979328084
N  N47  1  0.35600000  0.77280000  0.01920000  1.0 -0.1979328084
N  N48  1  0.35032000  0.74012000  0.98228000  1.0 -0.1979328084
O  O1  1  0.33527000  0.87587000  0.07563000  1.0 -0.5488597465
O  O2  1  0.46216000  0.84544000  0.03064000  1.0 -0.5631166908
O  O3  1  0.21120000  0.92160000  0.00840000  1.0 -0.6920081365
O  O4  1  0.87587000  0.33527000  0.71323000  1.0 -0.5488597465
O  O5  1  0.84544000  0.46216000  0.66176000  1.0 -0.5631166908
O  O6  1  0.92160000  0.21120000  0.85880000  1.0 -0.6920081365
O  O7  1  0.07563000  0.71323000  0.33527000  1.0 -0.5488597465
O  O8  1  0.03064000  0.66176000  0.46216000  1.0 -0.5631166908
O  O9  1  0.00840000  0.85880000  0.21120000  1.0 -0.6920081365
O  O10  1  0.71323000  0.07563000  0.87587000  1.0 -0.5488597465
O  O11  1  0.66176000  0.03064000  0.84544000  1.0 -0.5631166908
O  O12  1  0.85880000  0.00840000  0.92160000  1.0 -0.6920081365
O  O13  1  0.71323000  0.87587000  0.33527000  1.0 -0.5488597465
O  O14  1  0.66176000  0.84544000  0.46216000  1.0 -0.5631166908
O  O15  1  0.85880000  0.92160000  0.21120000  1.0 -0.6920081365
O  O16  1  0.07563000  0.33527000  0.87587000  1.0 -0.5488597465
O  O17  1  0.03064000  0.46216000  0.84544000  1.0 -0.5631166908
O  O18  1  0.00840000  0.21120000  0.92160000  1.0 -0.6920081365
O  O19  1  0.87587000  0.71323000  0.07563000  1.0 -0.5488597465
O  O20  1  0.84544000  0.66176000  0.03064000  1.0 -0.5631166908
O  O21  1  0.92160000  0.85880000  0.00840000  1.0 -0.6920081365
O  O22  1  0.33527000  0.07563000  0.71323000  1.0 -0.5488597465
O  O23  1  0.46216000  0.03064000  0.66176000  1.0 -0.5631166908
O  O24  1  0.21120000  0.00840000  0.85880000  1.0 -0.6920081365
O  O25  1  0.07563000  0.87587000  0.71323000  1.0 -0.5488597465
O  O26  1  0.03064000  0.84544000  0.66176000  1.0 -0.5631166908
O  O27  1  0.00840000  0.92160000  0.85880000  1.0 -0.6920081365
O  O28  1  0.71323000  0.33527000  0.07563000  1.0 -0.5488597465
O  O29  1  0.66176000  0.46216000  0.03064000  1.0 -0.5631166908
O  O30  1  0.85880000  0.21120000  0.00840000  1.0 -0.6920081365
O  O31  1  0.33527000  0.71323000  0.87587000  1.0 -0.5488597465
O  O32  1  0.46216000  0.66176000  0.84544000  1.0 -0.5631166908
O  O33  1  0.21120000  0.85880000  0.92160000  1.0 -0.6920081365
O  O34  1  0.87587000  0.07563000  0.33527000  1.0 -0.5488597465
O  O35  1  0.84544000  0.03064000  0.46216000  1.0 -0.5631166908
O  O36  1  0.92160000  0.00840000  0.21120000  1.0 -0.6920081365
O  O37  1  0.83527000  0.37587000  0.21323000  1.0 -0.5488597465
O  O38  1  0.96216000  0.34544000  0.16176000  1.0 -0.5631166908
O  O39  1  0.71120000  0.42160000  0.35880000  1.0 -0.6920081365
O  O40  1  0.37587000  0.83527000  0.57563000  1.0 -0.5488597465
O  O41  1  0.34544000  0.96216000  0.53064000  1.0 -0.5631166908
O  O42  1  0.42160000  0.71120000  0.50840000  1.0 -0.6920081365
O  O43  1  0.57563000  0.21323000  0.37587000  1.0 -0.5488597465
O  O44  1  0.53064000  0.16176000  0.34544000  1.0 -0.5631166908
O  O45  1  0.50840000  0.35880000  0.42160000  1.0 -0.6920081365
O  O46  1  0.21323000  0.57563000  0.83527000  1.0 -0.5488597465
O  O47  1  0.16176000  0.53064000  0.96216000  1.0 -0.5631166908
O  O48  1  0.35880000  0.50840000  0.71120000  1.0 -0.6920081365
O  O49  1  0.21323000  0.37587000  0.57563000  1.0 -0.5488597465
O  O50  1  0.16176000  0.34544000  0.53064000  1.0 -0.5631166908
O  O51  1  0.35880000  0.42160000  0.50840000  1.0 -0.6920081365
O  O52  1  0.57563000  0.83527000  0.21323000  1.0 -0.5488597465
O  O53  1  0.53064000  0.96216000  0.16176000  1.0 -0.5631166908
O  O54  1  0.50840000  0.71120000  0.35880000  1.0 -0.6920081365
O  O55  1  0.37587000  0.21323000  0.83527000  1.0 -0.5488597465
O  O56  1  0.34544000  0.16176000  0.96216000  1.0 -0.5631166908
O  O57  1  0.42160000  0.35880000  0.71120000  1.0 -0.6920081365
O  O58  1  0.83527000  0.57563000  0.37587000  1.0 -0.5488597465
O  O59  1  0.96216000  0.53064000  0.34544000  1.0 -0.5631166908
O  O60  1  0.71120000  0.50840000  0.42160000  1.0 -0.6920081365
O  O61  1  0.57563000  0.37587000  0.83527000  1.0 -0.5488597465
O  O62  1  0.53064000  0.34544000  0.96216000  1.0 -0.5631166908
O  O63  1  0.50840000  0.42160000  0.71120000  1.0 -0.6920081365
O  O64  1  0.21323000  0.83527000  0.37587000  1.0 -0.5488597465
O  O65  1  0.16176000  0.96216000  0.34544000  1.0 -0.5631166908
O  O66  1  0.35880000  0.71120000  0.42160000  1.0 -0.6920081365
O  O67  1  0.83527000  0.21323000  0.57563000  1.0 -0.5488597465
O  O68  1  0.96216000  0.16176000  0.53064000  1.0 -0.5631166908
O  O69  1  0.71120000  0.35880000  0.50840000  1.0 -0.6920081365
O  O70  1  0.37587000  0.57563000  0.21323000  1.0 -0.5488597465
O  O71  1  0.34544000  0.53064000  0.16176000  1.0 -0.5631166908
O  O72  1  0.42160000  0.50840000  0.35880000  1.0 -0.6920081365
O  O73  1  0.37479000  0.87507000  0.87507000  1.0 -0.8620152064
O  O74  1  0.87507000  0.37479000  0.87507000  1.0 -0.8620152064
O  O75  1  0.87507000  0.87507000  0.37479000  1.0 -0.8620152064
O  O76  1  0.87507000  0.87507000  0.87507000  1.0 -0.8620152064
O  O77  1  0.87479000  0.37507000  0.37507000  1.0 -0.8620152064
O  O78  1  0.37507000  0.87479000  0.37507000  1.0 -0.8620152064
O  O79  1  0.37507000  0.37507000  0.37507000  1.0 -0.8620152064
O  O80  1  0.37507000  0.37507000  0.87479000  1.0 -0.8620152064
