# DDEC6 charges by PACMAN v1.1 (https://github.com/mtap-research/PACMAN-charge/)
data_NONPUE_ASR_pacman
_symmetry_space_group_name_H-M   'P 1'
_cell_length_a   8.98480000
_cell_length_b   11.59200000
_cell_length_c   26.18100000
_cell_angle_alpha   90.00000000
_cell_angle_beta   101.22000000
_cell_angle_gamma   90.00000000
_symmetry_Int_Tables_number   1
_chemical_formula_structural   ZnC12(NF)4
_chemical_formula_sum   'Zn4 C48 N16 F16'
_cell_volume   2674.68182587
_cell_formula_units_Z   4
loop_
 _symmetry_equiv_pos_site_id
 _symmetry_equiv_pos_as_xyz
  1  'x, y, z'
loop_
 _atom_site_type_symbol
 _atom_site_label
 _atom_site_symmetry_multiplicity
 _atom_site_fract_x
 _atom_site_fract_y
 _atom_site_fract_z
 _atom_site_occupancy
 _atom_site_charge
Zn  Zn1  1  0.26223000  0.00063000  0.87185000  1.0 0.8870826287
Zn  Zn2  1  0.73777000  0.00063000  0.62815000  1.0 0.8870826287
Zn  Zn3  1  0.73777000  0.99937000  0.12815000  1.0 0.8870826287
Zn  Zn4  1  0.26223000  0.99937000  0.37185000  1.0 0.8870826287
C  C1  1  0.40200000  0.18390000  0.96428000  1.0 0.3134858489
C  C2  1  0.55680000  0.18570000  0.04762000  1.0 0.3226663804
C  C3  1  0.48220000  0.25020000  0.00495000  1.0 -0.1699930853
C  C4  1  0.49200000  0.37590000  0.00259000  1.0 -0.0823767758
C  C5  1  0.51280000  0.44550000  0.04649000  1.0 0.1081185563
C  C6  1  0.52070000  0.56360000  0.04410000  1.0 0.1081185563
C  C7  1  0.07900000  0.19240000  0.79163000  1.0 0.3134858489
C  C8  1  0.88260000  0.44930000  0.72189000  1.0 0.1081185563
C  C9  1  0.88290000  0.56710000  0.72158000  1.0 0.1041750608
C  C10  1  0.89630000  0.82540000  0.71522000  1.0 0.3226663804
C  C11  1  0.59800000  0.18390000  0.53572000  1.0 0.3134858489
C  C12  1  0.44320000  0.18570000  0.45238000  1.0 0.3226663804
C  C13  1  0.51780000  0.25020000  0.49505000  1.0 -0.1699930853
C  C14  1  0.50800000  0.37590000  0.49741000  1.0 -0.0898233222
C  C15  1  0.48720000  0.44550000  0.45351000  1.0 0.1081185563
C  C16  1  0.47930000  0.56360000  0.45590000  1.0 0.1081185563
C  C17  1  0.92100000  0.19240000  0.70837000  1.0 0.3134858489
C  C18  1  0.11740000  0.44930000  0.77811000  1.0 0.1081185563
C  C19  1  0.11710000  0.56710000  0.77842000  1.0 0.1041750608
C  C20  1  0.10370000  0.82540000  0.78478000  1.0 0.3226663804
C  C21  1  0.59800000  0.81610000  0.03572000  1.0 0.3134858489
C  C22  1  0.44320000  0.81430000  0.95238000  1.0 0.3253572209
C  C23  1  0.51780000  0.74980000  0.99505000  1.0 -0.1699930853
C  C24  1  0.50800000  0.62410000  0.99741000  1.0 -0.0898233222
C  C25  1  0.48720000  0.55450000  0.95351000  1.0 0.1081185563
C  C26  1  0.47930000  0.43640000  0.95590000  1.0 0.1081185563
C  C27  1  0.92100000  0.80760000  0.20837000  1.0 0.3134858489
C  C28  1  0.11740000  0.55070000  0.27811000  1.0 0.1081185563
C  C29  1  0.11710000  0.43290000  0.27842000  1.0 0.1041750608
C  C30  1  0.10370000  0.17460000  0.28478000  1.0 0.3226663804
C  C31  1  0.40200000  0.81610000  0.46428000  1.0 0.3134858489
C  C32  1  0.55680000  0.81430000  0.54762000  1.0 0.3226663804
C  C33  1  0.48220000  0.74980000  0.50495000  1.0 -0.1699930853
C  C34  1  0.49200000  0.62410000  0.50259000  1.0 -0.0898233222
C  C35  1  0.51280000  0.55450000  0.54649000  1.0 0.1081185563
C  C36  1  0.52070000  0.43640000  0.54410000  1.0 0.1081185563
C  C37  1  0.07900000  0.80760000  0.29163000  1.0 0.3226663804
C  C38  1  0.88260000  0.55070000  0.22189000  1.0 0.1081185563
C  C39  1  0.88290000  0.43290000  0.22158000  1.0 0.1041750608
C  C40  1  0.89630000  0.17460000  0.21522000  1.0 0.3226663804
C  C41  1  0.00000000  0.25730000  0.75000000  1.0 -0.1630923526
C  C42  1  0.00000000  0.38340000  0.75000000  1.0 -0.0898233222
C  C43  1  0.00000000  0.63300000  0.75000000  1.0 -0.0823767758
C  C44  1  0.00000000  0.75900000  0.75000000  1.0 -0.1699930853
C  C45  1  0.00000000  0.74270000  0.25000000  1.0 -0.1630923526
C  C46  1  0.00000000  0.61660000  0.25000000  1.0 -0.0898233222
C  C47  1  0.00000000  0.36700000  0.25000000  1.0 -0.0823767758
C  C48  1  0.00000000  0.24100000  0.25000000  1.0 -0.1699930853
N  N1  1  0.33590000  0.12472000  0.93210000  1.0 -0.4168399351
N  N2  1  0.61560000  0.12720000  0.08108000  1.0 -0.4168399351
N  N3  1  0.14100000  0.13502000  0.82513000  1.0 -0.4168399351
N  N4  1  0.81470000  0.88558000  0.68834000  1.0 -0.4124405796
N  N5  1  0.66410000  0.12472000  0.56790000  1.0 -0.4124405796
N  N6  1  0.38440000  0.12720000  0.41892000  1.0 -0.4168399351
N  N7  1  0.85900000  0.13502000  0.67487000  1.0 -0.4168399351
N  N8  1  0.18530000  0.88558000  0.81166000  1.0 -0.4124405796
N  N9  1  0.66410000  0.87528000  0.06790000  1.0 -0.4124405796
N  N10  1  0.38440000  0.87280000  0.91892000  1.0 -0.4168399351
N  N11  1  0.85900000  0.86498000  0.17487000  1.0 -0.4124405796
N  N12  1  0.18530000  0.11442000  0.31166000  1.0 -0.4124405796
N  N13  1  0.33590000  0.87528000  0.43210000  1.0 -0.4124405796
N  N14  1  0.61560000  0.87280000  0.58108000  1.0 -0.4168399351
N  N15  1  0.14100000  0.86498000  0.32513000  1.0 -0.4168399351
N  N16  1  0.81470000  0.11442000  0.18834000  1.0 -0.4124405796
F  F1  1  0.52255000  0.39606000  0.09366000  1.0 -0.1037488416
F  F2  1  0.53670000  0.62306000  0.08933000  1.0 -0.1037488416
F  F3  1  0.76039000  0.39473000  0.69358000  1.0 -0.1075955419
F  F4  1  0.76093000  0.62110000  0.69312000  1.0 -0.1037488416
F  F5  1  0.47745000  0.39606000  0.40634000  1.0 -0.1075955419
F  F6  1  0.46330000  0.62306000  0.41067000  1.0 -0.1037488416
F  F7  1  0.23961000  0.39473000  0.80642000  1.0 -0.1075955419
F  F8  1  0.23907000  0.62110000  0.80688000  1.0 -0.1037488416
F  F9  1  0.47745000  0.60394000  0.90634000  1.0 -0.1075955419
F  F10  1  0.46330000  0.37694000  0.91067000  1.0 -0.1037488416
F  F11  1  0.23961000  0.60527000  0.30642000  1.0 -0.1075955419
F  F12  1  0.23907000  0.37890000  0.30688000  1.0 -0.1037488416
F  F13  1  0.52255000  0.60394000  0.59366000  1.0 -0.1075955419
F  F14  1  0.53670000  0.37694000  0.58933000  1.0 -0.1037488416
F  F15  1  0.76039000  0.60527000  0.19358000  1.0 -0.1075955419
F  F16  1  0.76093000  0.37890000  0.19312000  1.0 -0.1037488416
