# DDEC6 charges by PACMAN v1.1 (https://github.com/mtap-research/PACMAN-charge/)
data_NOPCED_FSR_pacman
_symmetry_space_group_name_H-M   'P 1'
_cell_length_a   22.59430000
_cell_length_b   22.59430000
_cell_length_c   12.30600000
_cell_angle_alpha   90.00000000
_cell_angle_beta   90.00000000
_cell_angle_gamma   120.00000000
_symmetry_Int_Tables_number   1
_chemical_formula_structural   Ti4H8C20O17
_chemical_formula_sum   'Ti24 H48 C120 O102'
_cell_volume   5440.58154749
_cell_formula_units_Z   6
loop_
 _symmetry_equiv_pos_site_id
 _symmetry_equiv_pos_as_xyz
  1  'x, y, z'
loop_
 _atom_site_type_symbol
 _atom_site_label
 _atom_site_symmetry_multiplicity
 _atom_site_fract_x
 _atom_site_fract_y
 _atom_site_fract_z
 _atom_site_occupancy
 _atom_site_charge
Ti  Ti1  1  0.43870000  0.71935000  0.75000000  1.0 2.1086963113
Ti  Ti2  1  0.28065000  0.56130000  0.75000000  1.0 2.1086963113
Ti  Ti3  1  0.28065000  0.71935000  0.75000000  1.0 2.1086963113
Ti  Ti4  1  0.56130000  0.28065000  0.75000000  1.0 2.1086963113
Ti  Ti5  1  0.71935000  0.43870000  0.75000000  1.0 2.1086963113
Ti  Ti6  1  0.71935000  0.28065000  0.75000000  1.0 2.1086963113
Ti  Ti7  1  0.71935000  0.28065000  0.25000000  1.0 2.1086963113
Ti  Ti8  1  0.71935000  0.43870000  0.25000000  1.0 2.1086963113
Ti  Ti9  1  0.56130000  0.28065000  0.25000000  1.0 2.1086963113
Ti  Ti10  1  0.28065000  0.71935000  0.25000000  1.0 2.1086963113
Ti  Ti11  1  0.28065000  0.56130000  0.25000000  1.0 2.1086963113
Ti  Ti12  1  0.43870000  0.71935000  0.25000000  1.0 2.1086963113
Ti  Ti13  1  0.47950000  0.67420000  0.00000000  1.0 2.0636274512
Ti  Ti14  1  0.19470000  0.52050000  0.00000000  1.0 2.0636274512
Ti  Ti15  1  0.32580000  0.80530000  0.00000000  1.0 2.0636274512
Ti  Ti16  1  0.52050000  0.32580000  0.00000000  1.0 2.0636274512
Ti  Ti17  1  0.80530000  0.47950000  0.00000000  1.0 2.0636274512
Ti  Ti18  1  0.67420000  0.19470000  0.00000000  1.0 2.0636274512
Ti  Ti19  1  0.80530000  0.32580000  0.00000000  1.0 2.0636274512
Ti  Ti20  1  0.67420000  0.47950000  0.00000000  1.0 2.0636274512
Ti  Ti21  1  0.52050000  0.19470000  0.00000000  1.0 2.0636274512
Ti  Ti22  1  0.19470000  0.67420000  0.00000000  1.0 2.0636274512
Ti  Ti23  1  0.32580000  0.52050000  0.00000000  1.0 2.0636274512
Ti  Ti24  1  0.47950000  0.80530000  0.00000000  1.0 2.0636274512
H  H1  1  0.61010000  0.71560000  0.38640000  1.0 0.1287388549
H  H2  1  0.10550000  0.38990000  0.38640000  1.0 0.1287388549
H  H3  1  0.28440000  0.89450000  0.38640000  1.0 0.1287388549
H  H4  1  0.38990000  0.28440000  0.38640000  1.0 0.1287388549
H  H5  1  0.89450000  0.61010000  0.38640000  1.0 0.1287388549
H  H6  1  0.71560000  0.10550000  0.38640000  1.0 0.1287388549
H  H7  1  0.89450000  0.28440000  0.61360000  1.0 0.1287388549
H  H8  1  0.71560000  0.61010000  0.61360000  1.0 0.1287388549
H  H9  1  0.38990000  0.10550000  0.61360000  1.0 0.1287388549
H  H10  1  0.10550000  0.71560000  0.61360000  1.0 0.1287388549
H  H11  1  0.28440000  0.38990000  0.61360000  1.0 0.1287388549
H  H12  1  0.61010000  0.89450000  0.61360000  1.0 0.1287388549
H  H13  1  0.38990000  0.28440000  0.61360000  1.0 0.1287388549
H  H14  1  0.89450000  0.61010000  0.61360000  1.0 0.1287388549
H  H15  1  0.71560000  0.10550000  0.61360000  1.0 0.1287388549
H  H16  1  0.61010000  0.71560000  0.61360000  1.0 0.1287388549
H  H17  1  0.10550000  0.38990000  0.61360000  1.0 0.1287388549
H  H18  1  0.28440000  0.89450000  0.61360000  1.0 0.1287388549
H  H19  1  0.10550000  0.71560000  0.38640000  1.0 0.1287388549
H  H20  1  0.28440000  0.38990000  0.38640000  1.0 0.1287388549
H  H21  1  0.61010000  0.89450000  0.38640000  1.0 0.1287388549
H  H22  1  0.89450000  0.28440000  0.38640000  1.0 0.1287388549
H  H23  1  0.71560000  0.61010000  0.38640000  1.0 0.1287388549
H  H24  1  0.38990000  0.10550000  0.38640000  1.0 0.1287388549
H  H25  1  0.57160000  0.57160000  0.14900000  1.0 0.1403788082
H  H26  1  0.00000000  0.42840000  0.14900000  1.0 0.1403788082
H  H27  1  0.42840000  0.00000000  0.14900000  1.0 0.1403788082
H  H28  1  0.42840000  0.42840000  0.14900000  1.0 0.1403788082
H  H29  1  0.00000000  0.57160000  0.14900000  1.0 0.1403788082
H  H30  1  0.57160000  0.00000000  0.14900000  1.0 0.1403788082
H  H31  1  0.00000000  0.42840000  0.85100000  1.0 0.1403788082
H  H32  1  0.57160000  0.57160000  0.85100000  1.0 0.1403788082
H  H33  1  0.42840000  0.00000000  0.85100000  1.0 0.1403788082
H  H34  1  0.00000000  0.57160000  0.85100000  1.0 0.1403788082
H  H35  1  0.42840000  0.42840000  0.85100000  1.0 0.1403788082
H  H36  1  0.57160000  0.00000000  0.85100000  1.0 0.1403788082
H  H37  1  0.74899000  0.70805000  0.50000000  1.0 0.124959379
H  H38  1  0.95906000  0.25101000  0.50000000  1.0 0.124959379
H  H39  1  0.29195000  0.04094000  0.50000000  1.0 0.124959379
H  H40  1  0.25101000  0.29195000  0.50000000  1.0 0.124959379
H  H41  1  0.04094000  0.74899000  0.50000000  1.0 0.124959379
H  H42  1  0.70805000  0.95906000  0.50000000  1.0 0.124959379
H  H43  1  0.04094000  0.29195000  0.50000000  1.0 0.124959379
H  H44  1  0.70805000  0.74899000  0.50000000  1.0 0.124959379
H  H45  1  0.25101000  0.95906000  0.50000000  1.0 0.124959379
H  H46  1  0.95906000  0.70805000  0.50000000  1.0 0.124959379
H  H47  1  0.29195000  0.25101000  0.50000000  1.0 0.124959379
H  H48  1  0.74899000  0.04094000  0.50000000  1.0 0.124959379
C  C1  1  0.61930000  0.68150000  0.35390000  1.0 -0.1797144809
C  C2  1  0.58340000  0.64560000  0.26060000  1.0 -0.0137438033
C  C3  1  0.53110000  0.65960000  0.21090000  1.0 0.6407910879
C  C4  1  0.06220000  0.38070000  0.35390000  1.0 -0.1797144809
C  C5  1  0.06220000  0.41660000  0.26060000  1.0 -0.0137438033
C  C6  1  0.12850000  0.46890000  0.21090000  1.0 0.6407910879
C  C7  1  0.31850000  0.93780000  0.35390000  1.0 -0.1797144809
C  C8  1  0.35440000  0.93780000  0.26060000  1.0 -0.0137438033
C  C9  1  0.34040000  0.87150000  0.21090000  1.0 0.6407910879
C  C10  1  0.38070000  0.31850000  0.35390000  1.0 -0.1797144809
C  C11  1  0.41660000  0.35440000  0.26060000  1.0 -0.0137438033
C  C12  1  0.46890000  0.34040000  0.21090000  1.0 0.6407910879
C  C13  1  0.93780000  0.61930000  0.35390000  1.0 -0.1797144809
C  C14  1  0.93780000  0.58340000  0.26060000  1.0 -0.0137438033
C  C15  1  0.87150000  0.53110000  0.21090000  1.0 0.6407910879
C  C16  1  0.68150000  0.06220000  0.35390000  1.0 -0.1797144809
C  C17  1  0.64560000  0.06220000  0.26060000  1.0 -0.0137438033
C  C18  1  0.65960000  0.12850000  0.21090000  1.0 0.6407910879
C  C19  1  0.93780000  0.31850000  0.64610000  1.0 -0.1797144809
C  C20  1  0.93780000  0.35440000  0.73940000  1.0 -0.0137438033
C  C21  1  0.87150000  0.34040000  0.78910000  1.0 0.6407910879
C  C22  1  0.68150000  0.61930000  0.64610000  1.0 -0.1797144809
C  C23  1  0.64560000  0.58340000  0.73940000  1.0 -0.0137438033
C  C24  1  0.65960000  0.53110000  0.78910000  1.0 0.6407910879
C  C25  1  0.38070000  0.06220000  0.64610000  1.0 -0.1797144809
C  C26  1  0.41660000  0.06220000  0.73940000  1.0 -0.0137438033
C  C27  1  0.46890000  0.12850000  0.78910000  1.0 0.6407910879
C  C28  1  0.06220000  0.68150000  0.64610000  1.0 -0.1797144809
C  C29  1  0.06220000  0.64560000  0.73940000  1.0 -0.0137438033
C  C30  1  0.12850000  0.65960000  0.78910000  1.0 0.6407910879
C  C31  1  0.31850000  0.38070000  0.64610000  1.0 -0.1797144809
C  C32  1  0.35440000  0.41660000  0.73940000  1.0 -0.0137438033
C  C33  1  0.34040000  0.46890000  0.78910000  1.0 0.6407910879
C  C34  1  0.61930000  0.93780000  0.64610000  1.0 -0.1797144809
C  C35  1  0.58340000  0.93780000  0.73940000  1.0 -0.0137438033
C  C36  1  0.53110000  0.87150000  0.78910000  1.0 0.6407910879
C  C37  1  0.38070000  0.31850000  0.64610000  1.0 -0.1797144809
C  C38  1  0.41660000  0.35440000  0.73940000  1.0 -0.0137438033
C  C39  1  0.46890000  0.34040000  0.78910000  1.0 0.6407910879
C  C40  1  0.93780000  0.61930000  0.64610000  1.0 -0.1797144809
C  C41  1  0.93780000  0.58340000  0.73940000  1.0 -0.0137438033
C  C42  1  0.87150000  0.53110000  0.78910000  1.0 0.6407910879
C  C43  1  0.68150000  0.06220000  0.64610000  1.0 -0.1797144809
C  C44  1  0.64560000  0.06220000  0.73940000  1.0 -0.0137438033
C  C45  1  0.65960000  0.12850000  0.78910000  1.0 0.6407910879
C  C46  1  0.61930000  0.68150000  0.64610000  1.0 -0.1797144809
C  C47  1  0.58340000  0.64560000  0.73940000  1.0 -0.0137438033
C  C48  1  0.53110000  0.65960000  0.78910000  1.0 0.6407910879
C  C49  1  0.06220000  0.38070000  0.64610000  1.0 -0.1797144809
C  C50  1  0.06220000  0.41660000  0.73940000  1.0 -0.0137438033
C  C51  1  0.12850000  0.46890000  0.78910000  1.0 0.6407910879
C  C52  1  0.31850000  0.93780000  0.64610000  1.0 -0.1797144809
C  C53  1  0.35440000  0.93780000  0.73940000  1.0 -0.0137438033
C  C54  1  0.34040000  0.87150000  0.78910000  1.0 0.6407910879
C  C55  1  0.06220000  0.68150000  0.35390000  1.0 -0.1797144809
C  C56  1  0.06220000  0.64560000  0.26060000  1.0 -0.0137438033
C  C57  1  0.12850000  0.65960000  0.21090000  1.0 0.6407910879
C  C58  1  0.31850000  0.38070000  0.35390000  1.0 -0.1797144809
C  C59  1  0.35440000  0.41660000  0.26060000  1.0 -0.0137438033
C  C60  1  0.34040000  0.46890000  0.21090000  1.0 0.6407910879
C  C61  1  0.61930000  0.93780000  0.35390000  1.0 -0.1797144809
C  C62  1  0.58340000  0.93780000  0.26060000  1.0 -0.0137438033
C  C63  1  0.53110000  0.87150000  0.21090000  1.0 0.6407910879
C  C64  1  0.93780000  0.31850000  0.35390000  1.0 -0.1797144809
C  C65  1  0.93780000  0.35440000  0.26060000  1.0 -0.0137438033
C  C66  1  0.87150000  0.34040000  0.21090000  1.0 0.6407910879
C  C67  1  0.68150000  0.61930000  0.35390000  1.0 -0.1797144809
C  C68  1  0.64560000  0.58340000  0.26060000  1.0 -0.0137438033
C  C69  1  0.65960000  0.53110000  0.21090000  1.0 0.6407910879
C  C70  1  0.38070000  0.06220000  0.35390000  1.0 -0.1797144809
C  C71  1  0.41660000  0.06220000  0.26060000  1.0 -0.0137438033
C  C72  1  0.46890000  0.12850000  0.21090000  1.0 0.6407910879
C  C73  1  0.70660000  0.70660000  0.50000000  1.0 -0.2938408906
C  C74  1  0.00000000  0.29340000  0.50000000  1.0 -0.2938408906
C  C75  1  0.29340000  0.00000000  0.50000000  1.0 -0.2938408906
C  C76  1  0.29340000  0.29340000  0.50000000  1.0 -0.2938408906
C  C77  1  0.00000000  0.70660000  0.50000000  1.0 -0.2938408906
C  C78  1  0.70660000  0.00000000  0.50000000  1.0 -0.2938408906
C  C79  1  0.66830000  0.66830000  0.40050000  1.0 0.1287388549
C  C80  1  0.59660000  0.59660000  0.21400000  1.0 -0.1413605366
C  C81  1  0.00000000  0.33170000  0.40050000  1.0 0.1287388549
C  C82  1  0.00000000  0.40340000  0.21400000  1.0 -0.1413605366
C  C83  1  0.33170000  0.00000000  0.40050000  1.0 0.1287388549
C  C84  1  0.40340000  0.00000000  0.21400000  1.0 -0.1413605366
C  C85  1  0.33170000  0.33170000  0.40050000  1.0 0.1287388549
C  C86  1  0.40340000  0.40340000  0.21400000  1.0 -0.1413605366
C  C87  1  0.00000000  0.66830000  0.40050000  1.0 0.1287388549
C  C88  1  0.00000000  0.59660000  0.21400000  1.0 -0.1413605366
C  C89  1  0.66830000  0.00000000  0.40050000  1.0 0.1287388549
C  C90  1  0.59660000  0.00000000  0.21400000  1.0 -0.1413605366
C  C91  1  0.00000000  0.33170000  0.59950000  1.0 0.1287388549
C  C92  1  0.00000000  0.40340000  0.78600000  1.0 -0.1413605366
C  C93  1  0.66830000  0.66830000  0.59950000  1.0 0.1287388549
C  C94  1  0.59660000  0.59660000  0.78600000  1.0 -0.1413605366
C  C95  1  0.33170000  0.00000000  0.59950000  1.0 0.1287388549
C  C96  1  0.40340000  0.00000000  0.78600000  1.0 -0.1413605366
C  C97  1  0.00000000  0.66830000  0.59950000  1.0 0.1287388549
C  C98  1  0.00000000  0.59660000  0.78600000  1.0 -0.1413605366
C  C99  1  0.33170000  0.33170000  0.59950000  1.0 0.1287388549
C  C100  1  0.40340000  0.40340000  0.78600000  1.0 -0.1413605366
C  C101  1  0.66830000  0.00000000  0.59950000  1.0 0.1287388549
C  C102  1  0.59660000  0.00000000  0.78600000  1.0 -0.1413605366
C  C103  1  0.60650000  0.80325000  0.00000000  1.0 0.7634789443
C  C104  1  0.19675000  0.39350000  0.00000000  1.0 0.7634789443
C  C105  1  0.19675000  0.80325000  0.00000000  1.0 0.7634789443
C  C106  1  0.39350000  0.19675000  0.00000000  1.0 0.7634789443
C  C107  1  0.80325000  0.60650000  0.00000000  1.0 0.7634789443
C  C108  1  0.80325000  0.19675000  0.00000000  1.0 0.7634789443
C  C109  1  0.44100000  0.75400000  0.50000000  1.0 0.1403788082
C  C110  1  0.31300000  0.55900000  0.50000000  1.0 0.1403788082
C  C111  1  0.24600000  0.68700000  0.50000000  1.0 0.1403788082
C  C112  1  0.55900000  0.24600000  0.50000000  1.0 0.1403788082
C  C113  1  0.68700000  0.44100000  0.50000000  1.0 0.1403788082
C  C114  1  0.75400000  0.31300000  0.50000000  1.0 0.1403788082
C  C115  1  0.68700000  0.24600000  0.50000000  1.0 0.1403788082
C  C116  1  0.75400000  0.44100000  0.50000000  1.0 0.1403788082
C  C117  1  0.55900000  0.31300000  0.50000000  1.0 0.1403788082
C  C118  1  0.31300000  0.75400000  0.50000000  1.0 0.1403788082
C  C119  1  0.24600000  0.55900000  0.50000000  1.0 0.1403788082
C  C120  1  0.44100000  0.68700000  0.50000000  1.0 0.1403788082
O  O1  1  0.50270000  0.63160000  0.12140000  1.0 -0.5759458248
O  O2  1  0.51130000  0.69520000  0.26280000  1.0 -0.5968967978
O  O3  1  0.12890000  0.49730000  0.12140000  1.0 -0.5759458248
O  O4  1  0.18390000  0.48870000  0.26280000  1.0 -0.5968967978
O  O5  1  0.36840000  0.87110000  0.12140000  1.0 -0.5759458248
O  O6  1  0.30480000  0.81610000  0.26280000  1.0 -0.5968967978
O  O7  1  0.49730000  0.36840000  0.12140000  1.0 -0.5759458248
O  O8  1  0.48870000  0.30480000  0.26280000  1.0 -0.5968967978
O  O9  1  0.87110000  0.50270000  0.12140000  1.0 -0.5759458248
O  O10  1  0.81610000  0.51130000  0.26280000  1.0 -0.5968967978
O  O11  1  0.63160000  0.12890000  0.12140000  1.0 -0.5759458248
O  O12  1  0.69520000  0.18390000  0.26280000  1.0 -0.5968967978
O  O13  1  0.87110000  0.36840000  0.87860000  1.0 -0.5759458248
O  O14  1  0.81610000  0.30480000  0.73720000  1.0 -0.5968967978
O  O15  1  0.63160000  0.50270000  0.87860000  1.0 -0.5759458248
O  O16  1  0.69520000  0.51130000  0.73720000  1.0 -0.5968967978
O  O17  1  0.49730000  0.12890000  0.87860000  1.0 -0.5759458248
O  O18  1  0.48870000  0.18390000  0.73720000  1.0 -0.5968967978
O  O19  1  0.12890000  0.63160000  0.87860000  1.0 -0.5759458248
O  O20  1  0.18390000  0.69520000  0.73720000  1.0 -0.5968967978
O  O21  1  0.36840000  0.49730000  0.87860000  1.0 -0.5759458248
O  O22  1  0.30480000  0.48870000  0.73720000  1.0 -0.5968967978
O  O23  1  0.50270000  0.87110000  0.87860000  1.0 -0.5759458248
O  O24  1  0.51130000  0.81610000  0.73720000  1.0 -0.5968967978
O  O25  1  0.49730000  0.36840000  0.87860000  1.0 -0.5759458248
O  O26  1  0.48870000  0.30480000  0.73720000  1.0 -0.5968967978
O  O27  1  0.87110000  0.50270000  0.87860000  1.0 -0.5759458248
O  O28  1  0.81610000  0.51130000  0.73720000  1.0 -0.5968967978
O  O29  1  0.63160000  0.12890000  0.87860000  1.0 -0.5759458248
O  O30  1  0.69520000  0.18390000  0.73720000  1.0 -0.5968967978
O  O31  1  0.50270000  0.63160000  0.87860000  1.0 -0.5759458248
O  O32  1  0.51130000  0.69520000  0.73720000  1.0 -0.5968967978
O  O33  1  0.12890000  0.49730000  0.87860000  1.0 -0.5759458248
O  O34  1  0.18390000  0.48870000  0.73720000  1.0 -0.5968967978
O  O35  1  0.36840000  0.87110000  0.87860000  1.0 -0.5759458248
O  O36  1  0.30480000  0.81610000  0.73720000  1.0 -0.5968967978
O  O37  1  0.12890000  0.63160000  0.12140000  1.0 -0.5759458248
O  O38  1  0.18390000  0.69520000  0.26280000  1.0 -0.5968967978
O  O39  1  0.36840000  0.49730000  0.12140000  1.0 -0.5759458248
O  O40  1  0.30480000  0.48870000  0.26280000  1.0 -0.5968967978
O  O41  1  0.50270000  0.87110000  0.12140000  1.0 -0.5759458248
O  O42  1  0.51130000  0.81610000  0.26280000  1.0 -0.5968967978
O  O43  1  0.87110000  0.36840000  0.12140000  1.0 -0.5759458248
O  O44  1  0.81610000  0.30480000  0.26280000  1.0 -0.5968967978
O  O45  1  0.63160000  0.50270000  0.12140000  1.0 -0.5759458248
O  O46  1  0.69520000  0.51130000  0.26280000  1.0 -0.5968967978
O  O47  1  0.49730000  0.12890000  0.12140000  1.0 -0.5759458248
O  O48  1  0.48870000  0.18390000  0.26280000  1.0 -0.5968967978
O  O49  1  0.47220000  0.73610000  0.90100000  1.0 -1.1173362438
O  O50  1  0.42950000  0.71475000  0.40680000  1.0 -0.3522620503
O  O51  1  0.26390000  0.52780000  0.90100000  1.0 -1.1173362438
O  O52  1  0.28525000  0.57050000  0.40680000  1.0 -0.3522620503
O  O53  1  0.26390000  0.73610000  0.90100000  1.0 -1.1173362438
O  O54  1  0.28525000  0.71475000  0.40680000  1.0 -0.3522620503
O  O55  1  0.52780000  0.26390000  0.90100000  1.0 -1.1173362438
O  O56  1  0.57050000  0.28525000  0.40680000  1.0 -0.3522620503
O  O57  1  0.73610000  0.47220000  0.90100000  1.0 -1.1173362438
O  O58  1  0.71475000  0.42950000  0.40680000  1.0 -0.3522620503
O  O59  1  0.73610000  0.26390000  0.90100000  1.0 -1.1173362438
O  O60  1  0.71475000  0.28525000  0.40680000  1.0 -0.3522620503
O  O61  1  0.73610000  0.26390000  0.09900000  1.0 -1.1173362438
O  O62  1  0.71475000  0.28525000  0.59320000  1.0 -0.3522620503
O  O63  1  0.73610000  0.47220000  0.09900000  1.0 -1.1173362438
O  O64  1  0.71475000  0.42950000  0.59320000  1.0 -0.3522620503
O  O65  1  0.52780000  0.26390000  0.09900000  1.0 -1.1173362438
O  O66  1  0.57050000  0.28525000  0.59320000  1.0 -0.3522620503
O  O67  1  0.26390000  0.73610000  0.09900000  1.0 -1.1173362438
O  O68  1  0.28525000  0.71475000  0.59320000  1.0 -0.3522620503
O  O69  1  0.26390000  0.52780000  0.09900000  1.0 -1.1173362438
O  O70  1  0.28525000  0.57050000  0.59320000  1.0 -0.3522620503
O  O71  1  0.47220000  0.73610000  0.09900000  1.0 -1.1173362438
O  O72  1  0.42950000  0.71475000  0.59320000  1.0 -0.3522620503
O  O73  1  0.57720000  0.73320000  0.00000000  1.0 -0.7214172189
O  O74  1  0.15600000  0.42280000  0.00000000  1.0 -0.7214172189
O  O75  1  0.26680000  0.84400000  0.00000000  1.0 -0.7214172189
O  O76  1  0.42280000  0.26680000  0.00000000  1.0 -0.7214172189
O  O77  1  0.84400000  0.57720000  0.00000000  1.0 -0.7214172189
O  O78  1  0.73320000  0.15600000  0.00000000  1.0 -0.7214172189
O  O79  1  0.84400000  0.26680000  0.00000000  1.0 -0.7214172189
O  O80  1  0.73320000  0.57720000  0.00000000  1.0 -0.7214172189
O  O81  1  0.42280000  0.15600000  0.00000000  1.0 -0.7214172189
O  O82  1  0.15600000  0.73320000  0.00000000  1.0 -0.7214172189
O  O83  1  0.26680000  0.42280000  0.00000000  1.0 -0.7214172189
O  O84  1  0.57720000  0.84400000  0.00000000  1.0 -0.7214172189
O  O85  1  0.37300000  0.62700000  0.75960000  1.0 -0.9743479196
O  O86  1  0.25400000  0.62700000  0.75960000  1.0 -0.9743479196
O  O87  1  0.37300000  0.74600000  0.75960000  1.0 -0.9743479196
O  O88  1  0.62700000  0.37300000  0.75960000  1.0 -0.9743479196
O  O89  1  0.74600000  0.37300000  0.75960000  1.0 -0.9743479196
O  O90  1  0.62700000  0.25400000  0.75960000  1.0 -0.9743479196
O  O91  1  0.74600000  0.37300000  0.24040000  1.0 -0.9743479196
O  O92  1  0.62700000  0.37300000  0.24040000  1.0 -0.9743479196
O  O93  1  0.62700000  0.25400000  0.24040000  1.0 -0.9743479196
O  O94  1  0.25400000  0.62700000  0.24040000  1.0 -0.9743479196
O  O95  1  0.37300000  0.62700000  0.24040000  1.0 -0.9743479196
O  O96  1  0.37300000  0.74600000  0.24040000  1.0 -0.9743479196
O  O97  1  0.38080000  0.61920000  0.00000000  1.0 -0.8826654855
O  O98  1  0.23840000  0.61920000  0.00000000  1.0 -0.8826654855
O  O99  1  0.38080000  0.76160000  0.00000000  1.0 -0.8826654855
O  O100  1  0.61920000  0.38080000  0.00000000  1.0 -0.8826654855
O  O101  1  0.76160000  0.38080000  0.00000000  1.0 -0.8826654855
O  O102  1  0.61920000  0.23840000  0.00000000  1.0 -0.8826654855
