# DDEC6 charges by PACMAN v1.1 (https://github.com/mtap-research/PACMAN-charge/)
data_NORBUT_ASR_pacman
_symmetry_space_group_name_H-M   'P 1'
_cell_length_a   16.60250000
_cell_length_b   16.60250000
_cell_length_c   16.60250000
_cell_angle_alpha   113.81600000
_cell_angle_beta   113.81600000
_cell_angle_gamma   113.81600000
_symmetry_Int_Tables_number   1
_chemical_formula_structural   BaZnH16(CO)10
_chemical_formula_sum   'Ba6 Zn6 H96 C60 O60'
_cell_volume   2817.90734126
_cell_formula_units_Z   6
loop_
 _symmetry_equiv_pos_site_id
 _symmetry_equiv_pos_as_xyz
  1  'x, y, z'
loop_
 _atom_site_type_symbol
 _atom_site_label
 _atom_site_symmetry_multiplicity
 _atom_site_fract_x
 _atom_site_fract_y
 _atom_site_fract_z
 _atom_site_occupancy
 _atom_site_charge
Ba  Ba1  1  0.70629000  0.00000000  0.29371000  1.0 1.43040538
Ba  Ba2  1  0.00000000  0.29371000  0.70629000  1.0 1.43040538
Ba  Ba3  1  0.29371000  0.70629000  0.00000000  1.0 1.43040538
Ba  Ba4  1  0.29371000  0.00000000  0.70629000  1.0 1.43040538
Ba  Ba5  1  0.00000000  0.70629000  0.29371000  1.0 1.43040538
Ba  Ba6  1  0.70629000  0.29371000  0.00000000  1.0 1.43040538
Zn  Zn1  1  0.73121000  0.73121000  0.11796000  1.0 0.9621131835
Zn  Zn2  1  0.73121000  0.11796000  0.73121000  1.0 0.9621131835
Zn  Zn3  1  0.11796000  0.73121000  0.73121000  1.0 0.9621131835
Zn  Zn4  1  0.26879000  0.88204000  0.26879000  1.0 0.9621131835
Zn  Zn5  1  0.26879000  0.26879000  0.88204000  1.0 0.9621131835
Zn  Zn6  1  0.88204000  0.26879000  0.26879000  1.0 0.9621131835
H  H1  1  0.52540000  0.72920000  0.06640000  1.0 0.3584822384
H  H2  1  0.72920000  0.06640000  0.52540000  1.0 0.3584822384
H  H3  1  0.06640000  0.52540000  0.72920000  1.0 0.3584822384
H  H4  1  0.47460000  0.93360000  0.27080000  1.0 0.3584822384
H  H5  1  0.27080000  0.47460000  0.93360000  1.0 0.3584822384
H  H6  1  0.93360000  0.27080000  0.47460000  1.0 0.3584822384
H  H7  1  0.47460000  0.27080000  0.93360000  1.0 0.3584822384
H  H8  1  0.27080000  0.93360000  0.47460000  1.0 0.3584822384
H  H9  1  0.93360000  0.47460000  0.27080000  1.0 0.3584822384
H  H10  1  0.52540000  0.06640000  0.72920000  1.0 0.3584822384
H  H11  1  0.72920000  0.52540000  0.06640000  1.0 0.3584822384
H  H12  1  0.06640000  0.72920000  0.52540000  1.0 0.3584822384
H  H13  1  0.49900000  0.70780000  0.12920000  1.0 0.3723449525
H  H14  1  0.70780000  0.12920000  0.49900000  1.0 0.3723449525
H  H15  1  0.12920000  0.49900000  0.70780000  1.0 0.3723449525
H  H16  1  0.50100000  0.87080000  0.29220000  1.0 0.3723449525
H  H17  1  0.29220000  0.50100000  0.87080000  1.0 0.3723449525
H  H18  1  0.87080000  0.29220000  0.50100000  1.0 0.3723449525
H  H19  1  0.50100000  0.29220000  0.87080000  1.0 0.3723449525
H  H20  1  0.29220000  0.87080000  0.50100000  1.0 0.3723449525
H  H21  1  0.87080000  0.50100000  0.29220000  1.0 0.3723449525
H  H22  1  0.49900000  0.12920000  0.70780000  1.0 0.3723449525
H  H23  1  0.70780000  0.49900000  0.12920000  1.0 0.3723449525
H  H24  1  0.12920000  0.70780000  0.49900000  1.0 0.3723449525
H  H25  1  0.44330000  0.38690000  0.65080000  1.0 0.1312203283
H  H26  1  0.38690000  0.65080000  0.44330000  1.0 0.1312203283
H  H27  1  0.65080000  0.44330000  0.38690000  1.0 0.1312203283
H  H28  1  0.55670000  0.34920000  0.61310000  1.0 0.1312203283
H  H29  1  0.61310000  0.55670000  0.34920000  1.0 0.1312203283
H  H30  1  0.34920000  0.61310000  0.55670000  1.0 0.1312203283
H  H31  1  0.55670000  0.61310000  0.34920000  1.0 0.1312203283
H  H32  1  0.61310000  0.34920000  0.55670000  1.0 0.1312203283
H  H33  1  0.34920000  0.55670000  0.61310000  1.0 0.1312203283
H  H34  1  0.44330000  0.65080000  0.38690000  1.0 0.1312203283
H  H35  1  0.38690000  0.44330000  0.65080000  1.0 0.1312203283
H  H36  1  0.65080000  0.38690000  0.44330000  1.0 0.1312203283
H  H37  1  0.35975000  0.35975000  0.67690000  1.0 0.1312203283
H  H38  1  0.35975000  0.67690000  0.35975000  1.0 0.1312203283
H  H39  1  0.67690000  0.35975000  0.35975000  1.0 0.1312203283
H  H40  1  0.64025000  0.32310000  0.64025000  1.0 0.1312203283
H  H41  1  0.64025000  0.64025000  0.32310000  1.0 0.1312203283
H  H42  1  0.32310000  0.64025000  0.64025000  1.0 0.1312203283
H  H43  1  0.69195000  0.69195000  0.92240000  1.0 0.105143581
H  H44  1  0.69195000  0.92240000  0.69195000  1.0 0.105143581
H  H45  1  0.92240000  0.69195000  0.69195000  1.0 0.105143581
H  H46  1  0.30805000  0.07760000  0.30805000  1.0 0.105143581
H  H47  1  0.30805000  0.30805000  0.07760000  1.0 0.105143581
H  H48  1  0.07760000  0.30805000  0.30805000  1.0 0.105143581
H  H49  1  0.59190000  0.64820000  0.80190000  1.0 0.1371401019
H  H50  1  0.64820000  0.80190000  0.59190000  1.0 0.1371401019
H  H51  1  0.80190000  0.59190000  0.64820000  1.0 0.1371401019
H  H52  1  0.40810000  0.19810000  0.35180000  1.0 0.1371401019
H  H53  1  0.35180000  0.40810000  0.19810000  1.0 0.1371401019
H  H54  1  0.19810000  0.35180000  0.40810000  1.0 0.1371401019
H  H55  1  0.40810000  0.35180000  0.19810000  1.0 0.1371401019
H  H56  1  0.35180000  0.19810000  0.40810000  1.0 0.1371401019
H  H57  1  0.19810000  0.40810000  0.35180000  1.0 0.1371401019
H  H58  1  0.59190000  0.80190000  0.64820000  1.0 0.1371401019
H  H59  1  0.64820000  0.59190000  0.80190000  1.0 0.1371401019
H  H60  1  0.80190000  0.64820000  0.59190000  1.0 0.1371401019
H  H61  1  0.14325000  0.14325000  0.49610000  1.0 0.1371401019
H  H62  1  0.14325000  0.49610000  0.14325000  1.0 0.1371401019
H  H63  1  0.49610000  0.14325000  0.14325000  1.0 0.1371401019
H  H64  1  0.85675000  0.50390000  0.85675000  1.0 0.1371401019
H  H65  1  0.85675000  0.85675000  0.50390000  1.0 0.1371401019
H  H66  1  0.50390000  0.85675000  0.85675000  1.0 0.1371401019
H  H67  1  0.12990000  0.18620000  0.42690000  1.0 0.1312203283
H  H68  1  0.18620000  0.42690000  0.12990000  1.0 0.1312203283
H  H69  1  0.42690000  0.12990000  0.18620000  1.0 0.1312203283
H  H70  1  0.87010000  0.57310000  0.81380000  1.0 0.1312203283
H  H71  1  0.81380000  0.87010000  0.57310000  1.0 0.1312203283
H  H72  1  0.57310000  0.81380000  0.87010000  1.0 0.1312203283
H  H73  1  0.87010000  0.81380000  0.57310000  1.0 0.1312203283
H  H74  1  0.81380000  0.57310000  0.87010000  1.0 0.1312203283
H  H75  1  0.57310000  0.87010000  0.81380000  1.0 0.1312203283
H  H76  1  0.12990000  0.42690000  0.18620000  1.0 0.1312203283
H  H77  1  0.18620000  0.12990000  0.42690000  1.0 0.1312203283
H  H78  1  0.42690000  0.18620000  0.12990000  1.0 0.1312203283
H  H79  1  0.89990000  0.89990000  0.13230000  1.0 0.1157239295
H  H80  1  0.89990000  0.13230000  0.89990000  1.0 0.1157239295
H  H81  1  0.13230000  0.89990000  0.89990000  1.0 0.1157239295
H  H82  1  0.10010000  0.86770000  0.10010000  1.0 0.1157239295
H  H83  1  0.10010000  0.10010000  0.86770000  1.0 0.1157239295
H  H84  1  0.86770000  0.10010000  0.10010000  1.0 0.1157239295
H  H85  1  0.03710000  0.98070000  0.20350000  1.0 0.1312203283
H  H86  1  0.98070000  0.20350000  0.03710000  1.0 0.1312203283
H  H87  1  0.20350000  0.03710000  0.98070000  1.0 0.1312203283
H  H88  1  0.96290000  0.79650000  0.01930000  1.0 0.1312203283
H  H89  1  0.01930000  0.96290000  0.79650000  1.0 0.1312203283
H  H90  1  0.79650000  0.01930000  0.96290000  1.0 0.1312203283
H  H91  1  0.96290000  0.01930000  0.79650000  1.0 0.1312203283
H  H92  1  0.01930000  0.79650000  0.96290000  1.0 0.1312203283
H  H93  1  0.79650000  0.96290000  0.01930000  1.0 0.1312203283
H  H94  1  0.03710000  0.20350000  0.98070000  1.0 0.1312203283
H  H95  1  0.98070000  0.03710000  0.20350000  1.0 0.1312203283
H  H96  1  0.20350000  0.98070000  0.03710000  1.0 0.1312203283
C  C1  1  0.49224000  0.58186000  0.88180000  1.0 0.5667143282
C  C2  1  0.58186000  0.88180000  0.49224000  1.0 0.5667143282
C  C3  1  0.88180000  0.49224000  0.58186000  1.0 0.5667143282
C  C4  1  0.50776000  0.11820000  0.41814000  1.0 0.5667143282
C  C5  1  0.41814000  0.50776000  0.11820000  1.0 0.5667143282
C  C6  1  0.11820000  0.41814000  0.50776000  1.0 0.5667143282
C  C7  1  0.50776000  0.41814000  0.11820000  1.0 0.5667143282
C  C8  1  0.41814000  0.11820000  0.50776000  1.0 0.5667143282
C  C9  1  0.11820000  0.50776000  0.41814000  1.0 0.5667143282
C  C10  1  0.49224000  0.88180000  0.58186000  1.0 0.5667143282
C  C11  1  0.58186000  0.49224000  0.88180000  1.0 0.5667143282
C  C12  1  0.88180000  0.58186000  0.49224000  1.0 0.5667143282
C  C13  1  0.52765000  0.52765000  0.82050000  1.0 -0.0067522731
C  C14  1  0.52765000  0.82050000  0.52765000  1.0 -0.0067522731
C  C15  1  0.82050000  0.52765000  0.52765000  1.0 -0.0067522731
C  C16  1  0.47235000  0.17950000  0.47235000  1.0 -0.0067522731
C  C17  1  0.47235000  0.47235000  0.17950000  1.0 -0.0067522731
C  C18  1  0.17950000  0.47235000  0.47235000  1.0 -0.0067522731
C  C19  1  0.41945000  0.41945000  0.68740000  1.0 -0.4207388841
C  C20  1  0.41945000  0.68740000  0.41945000  1.0 -0.4207388841
C  C21  1  0.68740000  0.41945000  0.41945000  1.0 -0.4207388841
C  C22  1  0.58055000  0.31260000  0.58055000  1.0 -0.4207388841
C  C23  1  0.58055000  0.58055000  0.31260000  1.0 -0.4207388841
C  C24  1  0.31260000  0.58055000  0.58055000  1.0 -0.4207388841
C  C25  1  0.62400000  0.62400000  0.83840000  1.0 -0.4291335824
C  C26  1  0.62400000  0.83840000  0.62400000  1.0 -0.4291335824
C  C27  1  0.83840000  0.62400000  0.62400000  1.0 -0.4291335824
C  C28  1  0.37600000  0.16160000  0.37600000  1.0 -0.4291335824
C  C29  1  0.37600000  0.37600000  0.16160000  1.0 -0.4291335824
C  C30  1  0.16160000  0.37600000  0.37600000  1.0 -0.4291335824
C  C31  1  0.90541000  0.99454000  0.31055000  1.0 0.5642317352
C  C32  1  0.99454000  0.31055000  0.90541000  1.0 0.5642317352
C  C33  1  0.31055000  0.90541000  0.99454000  1.0 0.5642317352
C  C34  1  0.09459000  0.68945000  0.00546000  1.0 0.5642317352
C  C35  1  0.00546000  0.09459000  0.68945000  1.0 0.5642317352
C  C36  1  0.68945000  0.00546000  0.09459000  1.0 0.5642317352
C  C37  1  0.09459000  0.00546000  0.68945000  1.0 0.5642317352
C  C38  1  0.00546000  0.68945000  0.09459000  1.0 0.5642317352
C  C39  1  0.68945000  0.09459000  0.00546000  1.0 0.5642317352
C  C40  1  0.90541000  0.31055000  0.99454000  1.0 0.5642317352
C  C41  1  0.99454000  0.90541000  0.31055000  1.0 0.5642317352
C  C42  1  0.31055000  0.99454000  0.90541000  1.0 0.5642317352
C  C43  1  0.00385000  0.00385000  0.31470000  1.0 0.0067984178
C  C44  1  0.00385000  0.31470000  0.00385000  1.0 0.0067984178
C  C45  1  0.31470000  0.00385000  0.00385000  1.0 0.0067984178
C  C46  1  0.99615000  0.68530000  0.99615000  1.0 0.0067984178
C  C47  1  0.99615000  0.99615000  0.68530000  1.0 0.0067984178
C  C48  1  0.68530000  0.99615000  0.99615000  1.0 0.0067984178
C  C49  1  0.12710000  0.12710000  0.42640000  1.0 -0.4207388841
C  C50  1  0.12710000  0.42640000  0.12710000  1.0 -0.4207388841
C  C51  1  0.42640000  0.12710000  0.12710000  1.0 -0.4207388841
C  C52  1  0.87290000  0.57360000  0.87290000  1.0 -0.4207388841
C  C53  1  0.87290000  0.87290000  0.57360000  1.0 -0.4207388841
C  C54  1  0.57360000  0.87290000  0.87290000  1.0 -0.4207388841
C  C55  1  0.97795000  0.97795000  0.20300000  1.0 -0.4291335824
C  C56  1  0.97795000  0.20300000  0.97795000  1.0 -0.4291335824
C  C57  1  0.20300000  0.97795000  0.97795000  1.0 -0.4291335824
C  C58  1  0.02205000  0.79700000  0.02205000  1.0 -0.4291335824
C  C59  1  0.02205000  0.02205000  0.79700000  1.0 -0.4291335824
C  C60  1  0.79700000  0.02205000  0.02205000  1.0 -0.4291335824
O  O1  1  0.57507000  0.67544000  0.99339000  1.0 -0.5726907435
O  O2  1  0.67544000  0.99339000  0.57507000  1.0 -0.5726907435
O  O3  1  0.99339000  0.57507000  0.67544000  1.0 -0.5726907435
O  O4  1  0.42493000  0.00661000  0.32456000  1.0 -0.5726907435
O  O5  1  0.32456000  0.42493000  0.00661000  1.0 -0.5726907435
O  O6  1  0.00661000  0.32456000  0.42493000  1.0 -0.5726907435
O  O7  1  0.42493000  0.32456000  0.00661000  1.0 -0.5726907435
O  O8  1  0.32456000  0.00661000  0.42493000  1.0 -0.5726907435
O  O9  1  0.00661000  0.42493000  0.32456000  1.0 -0.5726907435
O  O10  1  0.57507000  0.99339000  0.67544000  1.0 -0.5726907435
O  O11  1  0.67544000  0.57507000  0.99339000  1.0 -0.5726907435
O  O12  1  0.99339000  0.67544000  0.57507000  1.0 -0.5726907435
O  O13  1  0.38730000  0.53610000  0.82250000  1.0 -0.4903065446
O  O14  1  0.53610000  0.82250000  0.38730000  1.0 -0.4903065446
O  O15  1  0.82250000  0.38730000  0.53610000  1.0 -0.4903065446
O  O16  1  0.61270000  0.17750000  0.46390000  1.0 -0.4903065446
O  O17  1  0.46390000  0.61270000  0.17750000  1.0 -0.4903065446
O  O18  1  0.17750000  0.46390000  0.61270000  1.0 -0.4903065446
O  O19  1  0.61270000  0.46390000  0.17750000  1.0 -0.4903065446
O  O20  1  0.46390000  0.17750000  0.61270000  1.0 -0.4903065446
O  O21  1  0.17750000  0.61270000  0.46390000  1.0 -0.4903065446
O  O22  1  0.38730000  0.82250000  0.53610000  1.0 -0.4903065446
O  O23  1  0.53610000  0.38730000  0.82250000  1.0 -0.4903065446
O  O24  1  0.82250000  0.53610000  0.38730000  1.0 -0.4903065446
O  O25  1  0.79678000  0.90057000  0.21645000  1.0 -0.6087134861
O  O26  1  0.90057000  0.21645000  0.79678000  1.0 -0.6087134861
O  O27  1  0.21645000  0.79678000  0.90057000  1.0 -0.6087134861
O  O28  1  0.20322000  0.78355000  0.09943000  1.0 -0.6087134861
O  O29  1  0.09943000  0.20322000  0.78355000  1.0 -0.6087134861
O  O30  1  0.78355000  0.09943000  0.20322000  1.0 -0.6087134861
O  O31  1  0.20322000  0.09943000  0.78355000  1.0 -0.6087134861
O  O32  1  0.09943000  0.78355000  0.20322000  1.0 -0.6087134861
O  O33  1  0.78355000  0.20322000  0.09943000  1.0 -0.6087134861
O  O34  1  0.79678000  0.21645000  0.90057000  1.0 -0.6087134861
O  O35  1  0.90057000  0.79678000  0.21645000  1.0 -0.6087134861
O  O36  1  0.21645000  0.90057000  0.79678000  1.0 -0.6087134861
O  O37  1  0.93430000  0.07881000  0.39719000  1.0 -0.5420665377
O  O38  1  0.07881000  0.39719000  0.93430000  1.0 -0.5420665377
O  O39  1  0.39719000  0.93430000  0.07881000  1.0 -0.5420665377
O  O40  1  0.06570000  0.60281000  0.92119000  1.0 -0.5420665377
O  O41  1  0.92119000  0.06570000  0.60281000  1.0 -0.5420665377
O  O42  1  0.60281000  0.92119000  0.06570000  1.0 -0.5420665377
O  O43  1  0.06570000  0.92119000  0.60281000  1.0 -0.5420665377
O  O44  1  0.92119000  0.60281000  0.06570000  1.0 -0.5420665377
O  O45  1  0.60281000  0.06570000  0.92119000  1.0 -0.5420665377
O  O46  1  0.93430000  0.39719000  0.07881000  1.0 -0.5420665377
O  O47  1  0.07881000  0.93430000  0.39719000  1.0 -0.5420665377
O  O48  1  0.39719000  0.07881000  0.93430000  1.0 -0.5420665377
O  O49  1  0.50909000  0.74740000  0.10891000  1.0 -0.7698208871
O  O50  1  0.74740000  0.10891000  0.50909000  1.0 -0.7698208871
O  O51  1  0.10891000  0.50909000  0.74740000  1.0 -0.7698208871
O  O52  1  0.49091000  0.89109000  0.25260000  1.0 -0.7698208871
O  O53  1  0.25260000  0.49091000  0.89109000  1.0 -0.7698208871
O  O54  1  0.89109000  0.25260000  0.49091000  1.0 -0.7698208871
O  O55  1  0.49091000  0.25260000  0.89109000  1.0 -0.7698208871
O  O56  1  0.25260000  0.89109000  0.49091000  1.0 -0.7698208871
O  O57  1  0.89109000  0.49091000  0.25260000  1.0 -0.7698208871
O  O58  1  0.50909000  0.10891000  0.74740000  1.0 -0.7698208871
O  O59  1  0.74740000  0.50909000  0.10891000  1.0 -0.7698208871
O  O60  1  0.10891000  0.74740000  0.50909000  1.0 -0.7698208871
