# DDEC6 charges by PACMAN v1.1 (https://github.com/mtap-research/PACMAN-charge/)
data_NORPIV_FSR_pacman
_symmetry_space_group_name_H-M   'P 1'
_cell_length_a   13.45370000
_cell_length_b   13.45370000
_cell_length_c   27.32900000
_cell_angle_alpha   90.00000000
_cell_angle_beta   90.00000000
_cell_angle_gamma   90.00000000
_symmetry_Int_Tables_number   1
_chemical_formula_structural   ZnH6C6(N2O)2
_chemical_formula_sum   'Zn16 H96 C96 N64 O32'
_cell_volume   4946.60485200
_cell_formula_units_Z   16
loop_
 _symmetry_equiv_pos_site_id
 _symmetry_equiv_pos_as_xyz
  1  'x, y, z'
loop_
 _atom_site_type_symbol
 _atom_site_label
 _atom_site_symmetry_multiplicity
 _atom_site_fract_x
 _atom_site_fract_y
 _atom_site_fract_z
 _atom_site_occupancy
 _atom_site_charge
Zn  Zn1  1  0.77227000  0.83925000  0.44673000  1.0 0.678707734
Zn  Zn2  1  0.22773000  0.16075000  0.44673000  1.0 0.678707734
Zn  Zn3  1  0.66075000  0.27227000  0.44673000  1.0 0.678707734
Zn  Zn4  1  0.33925000  0.72773000  0.44673000  1.0 0.678707734
Zn  Zn5  1  0.72773000  0.33925000  0.05327000  1.0 0.678707734
Zn  Zn6  1  0.27227000  0.66075000  0.05327000  1.0 0.678707734
Zn  Zn7  1  0.83925000  0.77227000  0.05327000  1.0 0.678707734
Zn  Zn8  1  0.16075000  0.22773000  0.05327000  1.0 0.678707734
Zn  Zn9  1  0.72773000  0.66075000  0.55327000  1.0 0.678707734
Zn  Zn10  1  0.27227000  0.33925000  0.55327000  1.0 0.678707734
Zn  Zn11  1  0.83925000  0.22773000  0.55327000  1.0 0.678707734
Zn  Zn12  1  0.16075000  0.77227000  0.55327000  1.0 0.678707734
Zn  Zn13  1  0.77227000  0.16075000  0.94673000  1.0 0.678707734
Zn  Zn14  1  0.22773000  0.83925000  0.94673000  1.0 0.678707734
Zn  Zn15  1  0.66075000  0.72773000  0.94673000  1.0 0.678707734
Zn  Zn16  1  0.33925000  0.27227000  0.94673000  1.0 0.678707734
H  H1  1  0.62180000  0.96020000  0.25350000  1.0 0.1509398663
H  H2  1  0.37820000  0.03980000  0.25350000  1.0 0.1509398663
H  H3  1  0.53980000  0.12180000  0.25350000  1.0 0.1509398663
H  H4  1  0.46020000  0.87820000  0.25350000  1.0 0.1509398663
H  H5  1  0.87820000  0.46020000  0.24650000  1.0 0.1509398663
H  H6  1  0.12180000  0.53980000  0.24650000  1.0 0.1509398663
H  H7  1  0.96020000  0.62180000  0.24650000  1.0 0.1509398663
H  H8  1  0.03980000  0.37820000  0.24650000  1.0 0.1509398663
H  H9  1  0.87820000  0.53980000  0.74650000  1.0 0.1509398663
H  H10  1  0.12180000  0.46020000  0.74650000  1.0 0.1509398663
H  H11  1  0.96020000  0.37820000  0.74650000  1.0 0.1509398663
H  H12  1  0.03980000  0.62180000  0.74650000  1.0 0.1509398663
H  H13  1  0.62180000  0.03980000  0.75350000  1.0 0.1509398663
H  H14  1  0.37820000  0.96020000  0.75350000  1.0 0.1509398663
H  H15  1  0.53980000  0.87820000  0.75350000  1.0 0.1509398663
H  H16  1  0.46020000  0.12180000  0.75350000  1.0 0.1509398663
H  H17  1  0.64280000  0.94320000  0.30640000  1.0 0.2084257447
H  H18  1  0.35720000  0.05680000  0.30640000  1.0 0.2084257447
H  H19  1  0.55680000  0.14280000  0.30640000  1.0 0.2084257447
H  H20  1  0.44320000  0.85720000  0.30640000  1.0 0.2084257447
H  H21  1  0.85720000  0.44320000  0.19360000  1.0 0.2084257447
H  H22  1  0.14280000  0.55680000  0.19360000  1.0 0.2084257447
H  H23  1  0.94320000  0.64280000  0.19360000  1.0 0.2084257447
H  H24  1  0.05680000  0.35720000  0.19360000  1.0 0.2084257447
H  H25  1  0.85720000  0.55680000  0.69360000  1.0 0.2084257447
H  H26  1  0.14280000  0.44320000  0.69360000  1.0 0.2084257447
H  H27  1  0.94320000  0.35720000  0.69360000  1.0 0.2084257447
H  H28  1  0.05680000  0.64280000  0.69360000  1.0 0.2084257447
H  H29  1  0.64280000  0.05680000  0.80640000  1.0 0.2084257447
H  H30  1  0.35720000  0.94320000  0.80640000  1.0 0.2084257447
H  H31  1  0.55680000  0.85720000  0.80640000  1.0 0.2084257447
H  H32  1  0.44320000  0.14280000  0.80640000  1.0 0.2084257447
H  H33  1  0.89070000  0.71560000  0.30820000  1.0 0.1315119837
H  H34  1  0.10930000  0.28440000  0.30820000  1.0 0.1315119837
H  H35  1  0.78440000  0.39070000  0.30820000  1.0 0.1315119837
H  H36  1  0.21560000  0.60930000  0.30820000  1.0 0.1315119837
H  H37  1  0.60930000  0.21560000  0.19180000  1.0 0.1315119837
H  H38  1  0.39070000  0.78440000  0.19180000  1.0 0.1315119837
H  H39  1  0.71560000  0.89070000  0.19180000  1.0 0.1315119837
H  H40  1  0.28440000  0.10930000  0.19180000  1.0 0.1315119837
H  H41  1  0.60930000  0.78440000  0.69180000  1.0 0.1315119837
H  H42  1  0.39070000  0.21560000  0.69180000  1.0 0.1315119837
H  H43  1  0.71560000  0.10930000  0.69180000  1.0 0.1315119837
H  H44  1  0.28440000  0.89070000  0.69180000  1.0 0.1315119837
H  H45  1  0.89070000  0.28440000  0.80820000  1.0 0.1315119837
H  H46  1  0.10930000  0.71560000  0.80820000  1.0 0.1315119837
H  H47  1  0.78440000  0.60930000  0.80820000  1.0 0.1315119837
H  H48  1  0.21560000  0.39070000  0.80820000  1.0 0.1315119837
H  H49  1  0.67400000  0.04730000  0.41630000  1.0 0.1387749988
H  H50  1  0.32600000  0.95270000  0.41630000  1.0 0.1387749988
H  H51  1  0.45270000  0.17400000  0.41630000  1.0 0.1387749988
H  H52  1  0.54730000  0.82600000  0.41630000  1.0 0.1387749988
H  H53  1  0.82600000  0.54730000  0.08370000  1.0 0.1387749988
H  H54  1  0.17400000  0.45270000  0.08370000  1.0 0.1387749988
H  H55  1  0.04730000  0.67400000  0.08370000  1.0 0.1387749988
H  H56  1  0.95270000  0.32600000  0.08370000  1.0 0.1387749988
H  H57  1  0.82600000  0.45270000  0.58370000  1.0 0.1387749988
H  H58  1  0.17400000  0.54730000  0.58370000  1.0 0.1387749988
H  H59  1  0.04730000  0.32600000  0.58370000  1.0 0.1387749988
H  H60  1  0.95270000  0.67400000  0.58370000  1.0 0.1387749988
H  H61  1  0.67400000  0.95270000  0.91630000  1.0 0.1387749988
H  H62  1  0.32600000  0.04730000  0.91630000  1.0 0.1387749988
H  H63  1  0.45270000  0.82600000  0.91630000  1.0 0.1387749988
H  H64  1  0.54730000  0.17400000  0.91630000  1.0 0.1387749988
H  H65  1  0.87000000  0.00900000  0.53000000  1.0 0.0821994872
H  H66  1  0.13000000  0.99100000  0.53000000  1.0 0.0821994872
H  H67  1  0.49100000  0.37000000  0.53000000  1.0 0.0821994872
H  H68  1  0.50900000  0.63000000  0.53000000  1.0 0.0821994872
H  H69  1  0.63000000  0.50900000  0.97000000  1.0 0.0821994872
H  H70  1  0.37000000  0.49100000  0.97000000  1.0 0.0821994872
H  H71  1  0.00900000  0.87000000  0.97000000  1.0 0.0821994872
H  H72  1  0.99100000  0.13000000  0.97000000  1.0 0.0821994872
H  H73  1  0.63000000  0.49100000  0.47000000  1.0 0.0821994872
H  H74  1  0.37000000  0.50900000  0.47000000  1.0 0.0821994872
H  H75  1  0.00900000  0.13000000  0.47000000  1.0 0.0821994872
H  H76  1  0.99100000  0.87000000  0.47000000  1.0 0.0821994872
H  H77  1  0.87000000  0.99100000  0.03000000  1.0 0.0821994872
H  H78  1  0.13000000  0.00900000  0.03000000  1.0 0.0821994872
H  H79  1  0.49100000  0.63000000  0.03000000  1.0 0.0821994872
H  H80  1  0.50900000  0.37000000  0.03000000  1.0 0.0821994872
H  H81  1  0.68110000  0.91650000  0.27350000  1.0 0.0449826273
H  H82  1  0.31890000  0.08350000  0.27350000  1.0 0.0456677864
H  H83  1  0.58350000  0.18110000  0.27350000  1.0 0.0456677864
H  H84  1  0.41650000  0.81890000  0.27350000  1.0 0.0456677864
H  H85  1  0.81890000  0.41650000  0.22650000  1.0 0.0456677864
H  H86  1  0.18110000  0.58350000  0.22650000  1.0 0.0456677864
H  H87  1  0.91650000  0.68110000  0.22650000  1.0 0.0449826273
H  H88  1  0.08350000  0.31890000  0.22650000  1.0 0.0456677864
H  H89  1  0.81890000  0.58350000  0.72650000  1.0 0.0456677864
H  H90  1  0.18110000  0.41650000  0.72650000  1.0 0.0449826273
H  H91  1  0.91650000  0.31890000  0.72650000  1.0 0.0456677864
H  H92  1  0.08350000  0.68110000  0.72650000  1.0 0.0449826273
H  H93  1  0.68110000  0.08350000  0.77350000  1.0 0.0449826273
H  H94  1  0.31890000  0.91650000  0.77350000  1.0 0.0456677864
H  H95  1  0.58350000  0.81890000  0.77350000  1.0 0.0456677864
H  H96  1  0.41650000  0.18110000  0.77350000  1.0 0.0449826273
C  C1  1  0.76620000  0.83460000  0.35307000  1.0 0.5600855353
C  C2  1  0.23380000  0.16540000  0.35307000  1.0 0.5600855353
C  C3  1  0.66540000  0.26620000  0.35307000  1.0 0.5600855353
C  C4  1  0.33460000  0.73380000  0.35307000  1.0 0.5600855353
C  C5  1  0.73380000  0.33460000  0.14693000  1.0 0.5600855353
C  C6  1  0.26620000  0.66540000  0.14693000  1.0 0.5600855353
C  C7  1  0.83460000  0.76620000  0.14693000  1.0 0.5600855353
C  C8  1  0.16540000  0.23380000  0.14693000  1.0 0.5600855353
C  C9  1  0.73380000  0.66540000  0.64693000  1.0 0.5600855353
C  C10  1  0.26620000  0.33460000  0.64693000  1.0 0.5600855353
C  C11  1  0.83460000  0.23380000  0.64693000  1.0 0.5600855353
C  C12  1  0.16540000  0.76620000  0.64693000  1.0 0.5600855353
C  C13  1  0.76620000  0.16540000  0.85307000  1.0 0.5600855353
C  C14  1  0.23380000  0.83460000  0.85307000  1.0 0.5600855353
C  C15  1  0.66540000  0.73380000  0.85307000  1.0 0.5600855353
C  C16  1  0.33460000  0.26620000  0.85307000  1.0 0.5600855353
C  C17  1  0.78220000  0.81770000  0.29987000  1.0 -0.0713371245
C  C18  1  0.21780000  0.18230000  0.29987000  1.0 -0.0713371245
C  C19  1  0.68230000  0.28220000  0.29987000  1.0 -0.0713371245
C  C20  1  0.31770000  0.71780000  0.29987000  1.0 -0.0713371245
C  C21  1  0.71780000  0.31770000  0.20013000  1.0 -0.0713371245
C  C22  1  0.28220000  0.68230000  0.20013000  1.0 -0.0713371245
C  C23  1  0.81770000  0.78220000  0.20013000  1.0 -0.0713371245
C  C24  1  0.18230000  0.21780000  0.20013000  1.0 -0.0713371245
C  C25  1  0.71780000  0.68230000  0.70013000  1.0 -0.0713371245
C  C26  1  0.28220000  0.31770000  0.70013000  1.0 -0.0713371245
C  C27  1  0.81770000  0.21780000  0.70013000  1.0 -0.0713371245
C  C28  1  0.18230000  0.78220000  0.70013000  1.0 -0.0713371245
C  C29  1  0.78220000  0.18230000  0.79987000  1.0 -0.0713371245
C  C30  1  0.21780000  0.81770000  0.79987000  1.0 -0.0713371245
C  C31  1  0.68230000  0.71780000  0.79987000  1.0 -0.0713371245
C  C32  1  0.31770000  0.28220000  0.79987000  1.0 -0.0713371245
C  C33  1  0.72920000  0.87050000  0.26433000  1.0 0.1509398663
C  C34  1  0.27080000  0.12950000  0.26433000  1.0 0.1509398663
C  C35  1  0.62950000  0.22920000  0.26433000  1.0 0.1509398663
C  C36  1  0.37050000  0.77080000  0.26433000  1.0 0.1509398663
C  C37  1  0.77080000  0.37050000  0.23567000  1.0 0.1509398663
C  C38  1  0.22920000  0.62950000  0.23567000  1.0 0.1509398663
C  C39  1  0.87050000  0.72920000  0.23567000  1.0 0.1509398663
C  C40  1  0.12950000  0.27080000  0.23567000  1.0 0.1509398663
C  C41  1  0.77080000  0.62950000  0.73567000  1.0 0.1509398663
C  C42  1  0.22920000  0.37050000  0.73567000  1.0 0.1509398663
C  C43  1  0.87050000  0.27080000  0.73567000  1.0 0.1509398663
C  C44  1  0.12950000  0.72920000  0.73567000  1.0 0.1509398663
C  C45  1  0.72920000  0.12950000  0.76433000  1.0 0.1509398663
C  C46  1  0.27080000  0.87050000  0.76433000  1.0 0.1509398663
C  C47  1  0.62950000  0.77080000  0.76433000  1.0 0.1509398663
C  C48  1  0.37050000  0.22920000  0.76433000  1.0 0.1509398663
C  C49  1  0.85350000  0.74900000  0.28475000  1.0 -0.1830679668
C  C50  1  0.14650000  0.25100000  0.28475000  1.0 -0.1830679668
C  C51  1  0.75100000  0.35350000  0.28475000  1.0 -0.190913937
C  C52  1  0.24900000  0.64650000  0.28475000  1.0 -0.1830679668
C  C53  1  0.64650000  0.24900000  0.21525000  1.0 -0.1830679668
C  C54  1  0.35350000  0.75100000  0.21525000  1.0 -0.190913937
C  C55  1  0.74900000  0.85350000  0.21525000  1.0 -0.1830679668
C  C56  1  0.25100000  0.14650000  0.21525000  1.0 -0.1830679668
C  C57  1  0.64650000  0.75100000  0.71525000  1.0 -0.190913937
C  C58  1  0.35350000  0.24900000  0.71525000  1.0 -0.1830679668
C  C59  1  0.74900000  0.14650000  0.71525000  1.0 -0.1830679668
C  C60  1  0.25100000  0.85350000  0.71525000  1.0 -0.1830679668
C  C61  1  0.85350000  0.25100000  0.78475000  1.0 -0.1830679668
C  C62  1  0.14650000  0.74900000  0.78475000  1.0 -0.190913937
C  C63  1  0.75100000  0.64650000  0.78475000  1.0 -0.190913937
C  C64  1  0.24900000  0.35350000  0.78475000  1.0 -0.190913937
C  C65  1  0.71330000  0.05630000  0.44389000  1.0 0.1696136112
C  C66  1  0.28670000  0.94370000  0.44389000  1.0 0.1696136112
C  C67  1  0.44370000  0.21330000  0.44389000  1.0 0.1696136112
C  C68  1  0.55630000  0.78670000  0.44389000  1.0 0.1696136112
C  C69  1  0.78670000  0.55630000  0.05611000  1.0 0.1696136112
C  C70  1  0.21330000  0.44370000  0.05611000  1.0 0.1696136112
C  C71  1  0.05630000  0.71330000  0.05611000  1.0 0.1696136112
C  C72  1  0.94370000  0.28670000  0.05611000  1.0 0.1696136112
C  C73  1  0.78670000  0.44370000  0.55611000  1.0 0.1696136112
C  C74  1  0.21330000  0.55630000  0.55611000  1.0 0.1696136112
C  C75  1  0.05630000  0.28670000  0.55611000  1.0 0.1696136112
C  C76  1  0.94370000  0.71330000  0.55611000  1.0 0.1696136112
C  C77  1  0.71330000  0.94370000  0.94389000  1.0 0.1696136112
C  C78  1  0.28670000  0.05630000  0.94389000  1.0 0.1696136112
C  C79  1  0.44370000  0.78670000  0.94389000  1.0 0.1696136112
C  C80  1  0.55630000  0.21330000  0.94389000  1.0 0.1696136112
C  C81  1  0.81020000  0.03070000  0.50279000  1.0 0.1591188119
C  C82  1  0.18980000  0.96930000  0.50279000  1.0 0.1591188119
C  C83  1  0.46930000  0.31020000  0.50279000  1.0 0.1591188119
C  C84  1  0.53070000  0.68980000  0.50279000  1.0 0.1591188119
C  C85  1  0.68980000  0.53070000  0.99721000  1.0 0.1591188119
C  C86  1  0.31020000  0.46930000  0.99721000  1.0 0.1591188119
C  C87  1  0.03070000  0.81020000  0.99721000  1.0 0.1591188119
C  C88  1  0.96930000  0.18980000  0.99721000  1.0 0.1591188119
C  C89  1  0.68980000  0.46930000  0.49721000  1.0 0.1591188119
C  C90  1  0.31020000  0.53070000  0.49721000  1.0 0.1591188119
C  C91  1  0.03070000  0.18980000  0.49721000  1.0 0.1591188119
C  C92  1  0.96930000  0.81020000  0.49721000  1.0 0.1591188119
C  C93  1  0.81020000  0.96930000  0.00279000  1.0 0.1591188119
C  C94  1  0.18980000  0.03070000  0.00279000  1.0 0.1591188119
C  C95  1  0.46930000  0.68980000  0.00279000  1.0 0.1591188119
C  C96  1  0.53070000  0.31020000  0.00279000  1.0 0.1591188119
N  N1  1  0.76420000  0.98290000  0.46533000  1.0 -0.3289753904
N  N2  1  0.23580000  0.01710000  0.46533000  1.0 -0.3289753904
N  N3  1  0.51710000  0.26420000  0.46533000  1.0 -0.3289753904
N  N4  1  0.48290000  0.73580000  0.46533000  1.0 -0.3289753904
N  N5  1  0.73580000  0.48290000  0.03467000  1.0 -0.3289753904
N  N6  1  0.26420000  0.51710000  0.03467000  1.0 -0.3289753904
N  N7  1  0.98290000  0.76420000  0.03467000  1.0 -0.3289753904
N  N8  1  0.01710000  0.23580000  0.03467000  1.0 -0.3289753904
N  N9  1  0.73580000  0.51710000  0.53467000  1.0 -0.3289753904
N  N10  1  0.26420000  0.48290000  0.53467000  1.0 -0.3289753904
N  N11  1  0.98290000  0.23580000  0.53467000  1.0 -0.3289753904
N  N12  1  0.01710000  0.76420000  0.53467000  1.0 -0.3289753904
N  N13  1  0.76420000  0.01710000  0.96533000  1.0 -0.3289753904
N  N14  1  0.23580000  0.98290000  0.96533000  1.0 -0.3289753904
N  N15  1  0.51710000  0.73580000  0.96533000  1.0 -0.3289753904
N  N16  1  0.48290000  0.26420000  0.96533000  1.0 -0.3289753904
N  N17  1  0.65610000  0.93180000  0.27610000  1.0 -0.4441594218
N  N18  1  0.34390000  0.06820000  0.27610000  1.0 -0.4441594218
N  N19  1  0.56820000  0.15610000  0.27610000  1.0 -0.4441594218
N  N20  1  0.43180000  0.84390000  0.27610000  1.0 -0.4441594218
N  N21  1  0.84390000  0.43180000  0.22390000  1.0 -0.4441594218
N  N22  1  0.15610000  0.56820000  0.22390000  1.0 -0.4441594218
N  N23  1  0.93180000  0.65610000  0.22390000  1.0 -0.4441594218
N  N24  1  0.06820000  0.34390000  0.22390000  1.0 -0.4441594218
N  N25  1  0.84390000  0.56820000  0.72390000  1.0 -0.4441594218
N  N26  1  0.15610000  0.43180000  0.72390000  1.0 -0.4441594218
N  N27  1  0.93180000  0.34390000  0.72390000  1.0 -0.4441594218
N  N28  1  0.06820000  0.65610000  0.72390000  1.0 -0.4441594218
N  N29  1  0.65610000  0.06820000  0.77610000  1.0 -0.4441594218
N  N30  1  0.34390000  0.93180000  0.77610000  1.0 -0.4441594218
N  N31  1  0.56820000  0.84390000  0.77610000  1.0 -0.4441594218
N  N32  1  0.43180000  0.15610000  0.77610000  1.0 -0.4441594218
N  N33  1  0.72450000  0.14220000  0.46578000  1.0 -0.1830679668
N  N34  1  0.27550000  0.85780000  0.46578000  1.0 -0.1830679668
N  N35  1  0.35780000  0.22450000  0.46578000  1.0 -0.1830679668
N  N36  1  0.64220000  0.77550000  0.46578000  1.0 -0.1830679668
N  N37  1  0.77550000  0.64220000  0.03422000  1.0 -0.1830679668
N  N38  1  0.22450000  0.35780000  0.03422000  1.0 -0.1830679668
N  N39  1  0.14220000  0.72450000  0.03422000  1.0 -0.1830679668
N  N40  1  0.85780000  0.27550000  0.03422000  1.0 -0.1830679668
N  N41  1  0.77550000  0.35780000  0.53422000  1.0 -0.1830679668
N  N42  1  0.22450000  0.64220000  0.53422000  1.0 -0.1830679668
N  N43  1  0.14220000  0.27550000  0.53422000  1.0 -0.1830679668
N  N44  1  0.85780000  0.72450000  0.53422000  1.0 -0.1830679668
N  N45  1  0.72450000  0.85780000  0.96578000  1.0 -0.1830679668
N  N46  1  0.27550000  0.14220000  0.96578000  1.0 -0.1830679668
N  N47  1  0.35780000  0.77550000  0.96578000  1.0 -0.1830679668
N  N48  1  0.64220000  0.22450000  0.96578000  1.0 -0.1830679668
N  N49  1  0.78750000  0.12570000  0.50438000  1.0 -0.190913937
N  N50  1  0.21250000  0.87430000  0.50438000  1.0 -0.190913937
N  N51  1  0.37430000  0.28750000  0.50438000  1.0 -0.190913937
N  N52  1  0.62570000  0.71250000  0.50438000  1.0 -0.190913937
N  N53  1  0.71250000  0.62570000  0.99562000  1.0 -0.190913937
N  N54  1  0.28750000  0.37430000  0.99562000  1.0 -0.190913937
N  N55  1  0.12570000  0.78750000  0.99562000  1.0 -0.190913937
N  N56  1  0.87430000  0.21250000  0.99562000  1.0 -0.190913937
N  N57  1  0.71250000  0.37430000  0.49562000  1.0 -0.190913937
N  N58  1  0.28750000  0.62570000  0.49562000  1.0 -0.190913937
N  N59  1  0.12570000  0.21250000  0.49562000  1.0 -0.190913937
N  N60  1  0.87430000  0.78750000  0.49562000  1.0 -0.190913937
N  N61  1  0.78750000  0.87430000  0.00438000  1.0 -0.190913937
N  N62  1  0.21250000  0.12570000  0.00438000  1.0 -0.190913937
N  N63  1  0.37430000  0.71250000  0.00438000  1.0 -0.190913937
N  N64  1  0.62570000  0.28750000  0.00438000  1.0 -0.190913937
O  O1  1  0.69540000  0.88860000  0.36757000  1.0 -0.5512103994
O  O2  1  0.30460000  0.11140000  0.36757000  1.0 -0.5512103994
O  O3  1  0.61140000  0.19540000  0.36757000  1.0 -0.5512103994
O  O4  1  0.38860000  0.80460000  0.36757000  1.0 -0.5512103994
O  O5  1  0.80460000  0.38860000  0.13243000  1.0 -0.5512103994
O  O6  1  0.19540000  0.61140000  0.13243000  1.0 -0.5512103994
O  O7  1  0.88860000  0.69540000  0.13243000  1.0 -0.5512103994
O  O8  1  0.11140000  0.30460000  0.13243000  1.0 -0.5512103994
O  O9  1  0.80460000  0.61140000  0.63243000  1.0 -0.5512103994
O  O10  1  0.19540000  0.38860000  0.63243000  1.0 -0.5512103994
O  O11  1  0.88860000  0.30460000  0.63243000  1.0 -0.5512103994
O  O12  1  0.11140000  0.69540000  0.63243000  1.0 -0.5512103994
O  O13  1  0.69540000  0.11140000  0.86757000  1.0 -0.5512103994
O  O14  1  0.30460000  0.88860000  0.86757000  1.0 -0.5512103994
O  O15  1  0.61140000  0.80460000  0.86757000  1.0 -0.5512103994
O  O16  1  0.38860000  0.19540000  0.86757000  1.0 -0.5512103994
O  O17  1  0.82510000  0.79490000  0.38345000  1.0 -0.5200540458
O  O18  1  0.17490000  0.20510000  0.38345000  1.0 -0.5200540458
O  O19  1  0.70510000  0.32510000  0.38345000  1.0 -0.5200540458
O  O20  1  0.29490000  0.67490000  0.38345000  1.0 -0.5200540458
O  O21  1  0.67490000  0.29490000  0.11655000  1.0 -0.5200540458
O  O22  1  0.32510000  0.70510000  0.11655000  1.0 -0.5200540458
O  O23  1  0.79490000  0.82510000  0.11655000  1.0 -0.5200540458
O  O24  1  0.20510000  0.17490000  0.11655000  1.0 -0.5200540458
O  O25  1  0.67490000  0.70510000  0.61655000  1.0 -0.5200540458
O  O26  1  0.32510000  0.29490000  0.61655000  1.0 -0.5200540458
O  O27  1  0.79490000  0.17490000  0.61655000  1.0 -0.5200540458
O  O28  1  0.20510000  0.82510000  0.61655000  1.0 -0.5200540458
O  O29  1  0.82510000  0.20510000  0.88345000  1.0 -0.5200540458
O  O30  1  0.17490000  0.79490000  0.88345000  1.0 -0.5200540458
O  O31  1  0.70510000  0.67490000  0.88345000  1.0 -0.5200540458
O  O32  1  0.29490000  0.32510000  0.88345000  1.0 -0.5200540458
