# DDEC6 charges by PACMAN v1.1 (https://github.com/mtap-research/PACMAN-charge/)
data_NOWXOP_ion_pacman
_symmetry_space_group_name_H-M   'P 1'
_cell_length_a   20.63670000
_cell_length_b   17.32970000
_cell_length_c   15.59940000
_cell_angle_alpha   77.41670000
_cell_angle_beta   55.04310000
_cell_angle_gamma   47.54020000
_symmetry_Int_Tables_number   1
_chemical_formula_structural   InH34C28(N3O4)2
_chemical_formula_sum   'In4 H136 C112 N24 O32'
_cell_volume   3238.87502880
_cell_formula_units_Z   4
loop_
 _symmetry_equiv_pos_site_id
 _symmetry_equiv_pos_as_xyz
  1  'x, y, z'
loop_
 _atom_site_type_symbol
 _atom_site_label
 _atom_site_symmetry_multiplicity
 _atom_site_fract_x
 _atom_site_fract_y
 _atom_site_fract_z
 _atom_site_occupancy
 _atom_site_charge
In  In1  1  0.44037000  0.44037000  0.05963000  1.0 1.1914414724
In  In2  1  0.19037000  0.19037000  0.80963000  1.0 1.1914414724
In  In3  1  0.05963000  0.05963000  0.44037000  1.0 1.1914414724
In  In4  1  0.80963000  0.80963000  0.19037000  1.0 1.1914414724
H  H1  1  0.53330000  0.16210000  0.17470000  1.0 0.1567551566
H  H2  1  0.54960000  0.07960000  0.24060000  1.0 0.1699476547
H  H3  1  0.43120000  0.13340000  0.43620000  1.0 0.1451622795
H  H4  1  0.14620000  0.44700000  0.59620000  1.0 0.1339438425
H  H5  1  0.20380000  0.49420000  0.43280000  1.0 0.1389136336
H  H6  1  0.56610000  0.17350000  0.19630000  1.0 0.1451622795
H  H7  1  0.57790000  0.08990000  0.25990000  1.0 0.1699476547
H  H8  1  0.15180000  0.44820000  0.59840000  1.0 0.1339438425
H  H9  1  0.21440000  0.49700000  0.43740000  1.0 0.1389136336
H  H10  1  0.16210000  0.53330000  0.12990000  1.0 0.1567551566
H  H11  1  0.07960000  0.54960000  0.13020000  1.0 0.1699476547
H  H12  1  0.13340000  0.43120000  0.99920000  1.0 0.1451622795
H  H13  1  0.44700000  0.14620000  0.81060000  1.0 0.1339438425
H  H14  1  0.49420000  0.20380000  0.86920000  1.0 0.1389136336
H  H15  1  0.17350000  0.56610000  0.06410000  1.0 0.1451622795
H  H16  1  0.08990000  0.57790000  0.07230000  1.0 0.1699476547
H  H17  1  0.44820000  0.15180000  0.80160000  1.0 0.1339438425
H  H18  1  0.49700000  0.21440000  0.85120000  1.0 0.1389136336
H  H19  1  0.07530000  0.12010000  0.71670000  1.0 0.1567551566
H  H20  1  0.00940000  0.11980000  0.70040000  1.0 0.1699476547
H  H21  1  0.81380000  0.25080000  0.81880000  1.0 0.1451622795
H  H22  1  0.65380000  0.43940000  0.10380000  1.0 0.1339438425
H  H23  1  0.81720000  0.38080000  0.04620000  1.0 0.1389136336
H  H24  1  0.05370000  0.18590000  0.68390000  1.0 0.1451622795
H  H25  1  0.99010000  0.17770000  0.67210000  1.0 0.1699476547
H  H26  1  0.65160000  0.44840000  0.09820000  1.0 0.1339438425
H  H27  1  0.81260000  0.39880000  0.03560000  1.0 0.1389136336
H  H28  1  0.12010000  0.07530000  0.08790000  1.0 0.1567551566
H  H29  1  0.11980000  0.00940000  0.17040000  1.0 0.1699476547
H  H30  1  0.25080000  0.81380000  0.11660000  1.0 0.1451622795
H  H31  1  0.43940000  0.65380000  0.80300000  1.0 0.1339438425
H  H32  1  0.38080000  0.81720000  0.75580000  1.0 0.1389136336
H  H33  1  0.18590000  0.05370000  0.07650000  1.0 0.1451622795
H  H34  1  0.17770000  0.99010000  0.16010000  1.0 0.1699476547
H  H35  1  0.44840000  0.65160000  0.80180000  1.0 0.1339438425
H  H36  1  0.39880000  0.81260000  0.75300000  1.0 0.1389136336
H  H37  1  0.17470000  0.12990000  0.53330000  1.0 0.1567551566
H  H38  1  0.24060000  0.13020000  0.54960000  1.0 0.1699476547
H  H39  1  0.43620000  0.99920000  0.43120000  1.0 0.1451622795
H  H40  1  0.59620000  0.81060000  0.14620000  1.0 0.1339438425
H  H41  1  0.43280000  0.86920000  0.20380000  1.0 0.1389136336
H  H42  1  0.19630000  0.06410000  0.56610000  1.0 0.1451622795
H  H43  1  0.25990000  0.07230000  0.57790000  1.0 0.1699476547
H  H44  1  0.59840000  0.80160000  0.15180000  1.0 0.1339438425
H  H45  1  0.43740000  0.85120000  0.21440000  1.0 0.1389136336
H  H46  1  0.12990000  0.17470000  0.16210000  1.0 0.1567551566
H  H47  1  0.13020000  0.24060000  0.07960000  1.0 0.1699476547
H  H48  1  0.99920000  0.43620000  0.13340000  1.0 0.1451622795
H  H49  1  0.81060000  0.59620000  0.44700000  1.0 0.1339438425
H  H50  1  0.86920000  0.43280000  0.49420000  1.0 0.1389136336
H  H51  1  0.06410000  0.19630000  0.17350000  1.0 0.1451622795
H  H52  1  0.07230000  0.25990000  0.08990000  1.0 0.1699476547
H  H53  1  0.80160000  0.59840000  0.44820000  1.0 0.1339438425
H  H54  1  0.85120000  0.43740000  0.49700000  1.0 0.1389136336
H  H55  1  0.71670000  0.08790000  0.07530000  1.0 0.1567551566
H  H56  1  0.70040000  0.17040000  0.00940000  1.0 0.1699476547
H  H57  1  0.81880000  0.11660000  0.81380000  1.0 0.1451622795
H  H58  1  0.10380000  0.80300000  0.65380000  1.0 0.1339438425
H  H59  1  0.04620000  0.75580000  0.81720000  1.0 0.1389136336
H  H60  1  0.68390000  0.07650000  0.05370000  1.0 0.1389136336
H  H61  1  0.67210000  0.16010000  0.99010000  1.0 0.1699476547
H  H62  1  0.09820000  0.80180000  0.65160000  1.0 0.1339438425
H  H63  1  0.03560000  0.75300000  0.81260000  1.0 0.1389136336
H  H64  1  0.08790000  0.71670000  0.12010000  1.0 0.1567551566
H  H65  1  0.17040000  0.70040000  0.11980000  1.0 0.1699476547
H  H66  1  0.11660000  0.81880000  0.25080000  1.0 0.1451622795
H  H67  1  0.80300000  0.10380000  0.43940000  1.0 0.1339438425
H  H68  1  0.75580000  0.04620000  0.38080000  1.0 0.1389136336
H  H69  1  0.07650000  0.68390000  0.18590000  1.0 0.1451622795
H  H70  1  0.16010000  0.67210000  0.17770000  1.0 0.1699476547
H  H71  1  0.80180000  0.09820000  0.44840000  1.0 0.1339438425
H  H72  1  0.75300000  0.03560000  0.39880000  1.0 0.1389136336
H  H73  1  0.73520000  0.80540000  0.51940000  1.0 0.1224233472
H  H74  1  0.78630000  0.84790000  0.51290000  1.0 0.1224233472
H  H75  1  0.78270000  0.76930000  0.58750000  1.0 0.1128518517
H  H76  1  0.89290000  0.64310000  0.43930000  1.0 0.2294641396
H  H77  1  0.89630000  0.71450000  0.37150000  1.0 0.2294641396
H  H78  1  0.05640000  0.58180000  0.33900000  1.0 0.1128518517
H  H79  1  0.00160000  0.61720000  0.46500000  1.0 0.1224233472
H  H80  1  0.00520000  0.69580000  0.39040000  1.0 0.1128518517
H  H81  1  0.80540000  0.73520000  0.94000000  1.0 0.1224233472
H  H82  1  0.84790000  0.78630000  0.85290000  1.0 0.1224233472
H  H83  1  0.76930000  0.78270000  0.86050000  1.0 0.1128518517
H  H84  1  0.64310000  0.89290000  0.02470000  1.0 0.2294641396
H  H85  1  0.71450000  0.89630000  0.01770000  1.0 0.2294641396
H  H86  1  0.58180000  0.05640000  0.02280000  1.0 0.1128518517
H  H87  1  0.61720000  0.00160000  0.91620000  1.0 0.1224233472
H  H88  1  0.69580000  0.00520000  0.90860000  1.0 0.1128518517
H  H89  1  0.51940000  0.94000000  0.73520000  1.0 0.1224233472
H  H90  1  0.51290000  0.85290000  0.78630000  1.0 0.1224233472
H  H91  1  0.58750000  0.86050000  0.78270000  1.0 0.1128518517
H  H92  1  0.43930000  0.02470000  0.89290000  1.0 0.2294641396
H  H93  1  0.37150000  0.01770000  0.89630000  1.0 0.2294641396
H  H94  1  0.33900000  0.02280000  0.05640000  1.0 0.1128518517
H  H95  1  0.46500000  0.91620000  0.00160000  1.0 0.1224233472
H  H96  1  0.39040000  0.90860000  0.00520000  1.0 0.1128518517
H  H97  1  0.94000000  0.51940000  0.80540000  1.0 0.1224233472
H  H98  1  0.85290000  0.51290000  0.84790000  1.0 0.1224233472
H  H99  1  0.86050000  0.58750000  0.76930000  1.0 0.1128518517
H  H100  1  0.02470000  0.43930000  0.64310000  1.0 0.2294641396
H  H101  1  0.01770000  0.37150000  0.71450000  1.0 0.2294641396
H  H102  1  0.02280000  0.33900000  0.58180000  1.0 0.1128518517
H  H103  1  0.91620000  0.46500000  0.61720000  1.0 0.1224233472
H  H104  1  0.90860000  0.39040000  0.69580000  1.0 0.1128518517
H  H105  1  0.51480000  0.44460000  0.73060000  1.0 0.1224233472
H  H106  1  0.46370000  0.40210000  0.73710000  1.0 0.1224233472
H  H107  1  0.46730000  0.48070000  0.66250000  1.0 0.1128518517
H  H108  1  0.35710000  0.60690000  0.81070000  1.0 0.2294641396
H  H109  1  0.35370000  0.53550000  0.87850000  1.0 0.2294641396
H  H110  1  0.19360000  0.66820000  0.91100000  1.0 0.1128518517
H  H111  1  0.24840000  0.63280000  0.78500000  1.0 0.1224233472
H  H112  1  0.24480000  0.55420000  0.85960000  1.0 0.1128518517
H  H113  1  0.44460000  0.51480000  0.31000000  1.0 0.1224233472
H  H114  1  0.40210000  0.46370000  0.39710000  1.0 0.1224233472
H  H115  1  0.48070000  0.46730000  0.38950000  1.0 0.1128518517
H  H116  1  0.60690000  0.35710000  0.22530000  1.0 0.2294641396
H  H117  1  0.53550000  0.35370000  0.23230000  1.0 0.2294641396
H  H118  1  0.66820000  0.19360000  0.22720000  1.0 0.1128518517
H  H119  1  0.63280000  0.24840000  0.33380000  1.0 0.1224233472
H  H120  1  0.55420000  0.24480000  0.34140000  1.0 0.1128518517
H  H121  1  0.73060000  0.31000000  0.51480000  1.0 0.1224233472
H  H122  1  0.73710000  0.39710000  0.46370000  1.0 0.1224233472
H  H123  1  0.66250000  0.38950000  0.46730000  1.0 0.1128518517
H  H124  1  0.81070000  0.22530000  0.35710000  1.0 0.2294641396
H  H125  1  0.87850000  0.23230000  0.35370000  1.0 0.2294641396
H  H126  1  0.91100000  0.22720000  0.19360000  1.0 0.1128518517
H  H127  1  0.78500000  0.33380000  0.24840000  1.0 0.1224233472
H  H128  1  0.85960000  0.34140000  0.24480000  1.0 0.1128518517
H  H129  1  0.31000000  0.73060000  0.44460000  1.0 0.1224233472
H  H130  1  0.39710000  0.73710000  0.40210000  1.0 0.1224233472
H  H131  1  0.38950000  0.66250000  0.48070000  1.0 0.1128518517
H  H132  1  0.22530000  0.81070000  0.60690000  1.0 0.2294641396
H  H133  1  0.23230000  0.87850000  0.53550000  1.0 0.2294641396
H  H134  1  0.22720000  0.91100000  0.66820000  1.0 0.1128518517
H  H135  1  0.33380000  0.78500000  0.63280000  1.0 0.1224233472
H  H136  1  0.34140000  0.85960000  0.55420000  1.0 0.1128518517
C  C1  1  0.38752000  0.37968000  0.23892000  1.0 0.3977632893
C  C2  1  0.35503000  0.34369000  0.33911000  1.0 -0.0554014419
C  C3  1  0.41860000  0.23400000  0.33560000  1.0 0.2160351516
C  C4  1  0.38500000  0.20680000  0.43380000  1.0 -0.3163702627
C  C5  1  0.28468000  0.28452000  0.52928000  1.0 0.0922340963
C  C6  1  0.22000000  0.39380000  0.53220000  1.0 -0.1866106878
C  C7  1  0.25710000  0.42230000  0.43610000  1.0 -0.143051289
C  C8  1  0.24897000  0.24955000  0.62985000  1.0 0.4620051382
C  C9  1  0.42530000  0.23630000  0.34070000  1.0 0.2131520973
C  C10  1  0.38630000  0.20770000  0.43610000  1.0 -0.3146958135
C  C11  1  0.21580000  0.39300000  0.53080000  1.0 -0.1866106878
C  C12  1  0.25140000  0.42100000  0.43380000  1.0 -0.143051289
C  C13  1  0.37968000  0.38752000  0.99388000  1.0 0.3977632893
C  C14  1  0.34369000  0.35503000  0.96217000  1.0 -0.0554014419
C  C15  1  0.23400000  0.41860000  0.01180000  1.0 0.2160351516
C  C16  1  0.20680000  0.38500000  0.97440000  1.0 -0.3163702627
C  C17  1  0.28452000  0.28468000  0.90152000  1.0 0.0922340963
C  C18  1  0.39380000  0.22000000  0.85400000  1.0 -0.1866106878
C  C19  1  0.42230000  0.25710000  0.88450000  1.0 -0.143051289
C  C20  1  0.24955000  0.24897000  0.87163000  1.0 0.4620051382
C  C21  1  0.23630000  0.42530000  0.99770000  1.0 0.2131520973
C  C22  1  0.20770000  0.38630000  0.96990000  1.0 -0.3146958135
C  C23  1  0.39300000  0.21580000  0.86040000  1.0 -0.1866106878
C  C24  1  0.42100000  0.25140000  0.89380000  1.0 -0.1457998792
C  C25  1  0.01108000  0.25612000  0.86248000  1.0 0.3977632893
C  C26  1  0.91089000  0.28783000  0.89497000  1.0 -0.0554014419
C  C27  1  0.91440000  0.23820000  0.83140000  1.0 0.2160351516
C  C28  1  0.81620000  0.27560000  0.86500000  1.0 -0.3163702627
C  C29  1  0.72072000  0.34848000  0.96532000  1.0 0.0922340963
C  C30  1  0.71780000  0.39600000  0.03000000  1.0 -0.1866106878
C  C31  1  0.81390000  0.36550000  0.99290000  1.0 -0.143051289
C  C32  1  0.62015000  0.37837000  0.00103000  1.0 0.4620051382
C  C33  1  0.90930000  0.25230000  0.82470000  1.0 0.2131520973
C  C34  1  0.81390000  0.28010000  0.86370000  1.0 -0.3146958135
C  C35  1  0.71920000  0.38960000  0.03420000  1.0 -0.1866106878
C  C36  1  0.81620000  0.35620000  0.99860000  1.0 -0.1457998792
C  C37  1  0.25612000  0.01108000  0.87032000  1.0 0.3977632893
C  C38  1  0.28783000  0.91089000  0.90631000  1.0 -0.0554014419
C  C39  1  0.23820000  0.91440000  0.01600000  1.0 0.2160351516
C  C40  1  0.27560000  0.81620000  0.04320000  1.0 -0.3163702627
C  C41  1  0.34848000  0.72072000  0.96548000  1.0 0.0922340963
C  C42  1  0.39600000  0.71780000  0.85620000  1.0 -0.1866106878
C  C43  1  0.36550000  0.81390000  0.82770000  1.0 -0.143051289
C  C44  1  0.37837000  0.62015000  0.00045000  1.0 0.4620051382
C  C45  1  0.25230000  0.90930000  0.01370000  1.0 0.2131520973
C  C46  1  0.28010000  0.81390000  0.04230000  1.0 -0.3146958135
C  C47  1  0.38960000  0.71920000  0.85700000  1.0 -0.1866106878
C  C48  1  0.35620000  0.81620000  0.82900000  1.0 -0.1457998792
C  C49  1  0.23892000  0.99388000  0.38752000  1.0 0.3977632893
C  C50  1  0.33911000  0.96217000  0.35503000  1.0 -0.0554014419
C  C51  1  0.33560000  0.01180000  0.41860000  1.0 0.2160351516
C  C52  1  0.43380000  0.97440000  0.38500000  1.0 -0.3163702627
C  C53  1  0.52928000  0.90152000  0.28468000  1.0 0.0922340963
C  C54  1  0.53220000  0.85400000  0.22000000  1.0 -0.1866106878
C  C55  1  0.43610000  0.88450000  0.25710000  1.0 -0.143051289
C  C56  1  0.62985000  0.87163000  0.24897000  1.0 0.4620051382
C  C57  1  0.34070000  0.99770000  0.42530000  1.0 0.2131520973
C  C58  1  0.43610000  0.96990000  0.38630000  1.0 -0.3146958135
C  C59  1  0.53080000  0.86040000  0.21580000  1.0 -0.1866106878
C  C60  1  0.43380000  0.89380000  0.25140000  1.0 -0.143051289
C  C61  1  0.99388000  0.23892000  0.37968000  1.0 0.3977632893
C  C62  1  0.96217000  0.33911000  0.34369000  1.0 -0.0554014419
C  C63  1  0.01180000  0.33560000  0.23400000  1.0 0.2160351516
C  C64  1  0.97440000  0.43380000  0.20680000  1.0 -0.3163702627
C  C65  1  0.90152000  0.52928000  0.28452000  1.0 0.0922340963
C  C66  1  0.85400000  0.53220000  0.39380000  1.0 -0.1866106878
C  C67  1  0.88450000  0.43610000  0.42230000  1.0 -0.143051289
C  C68  1  0.87163000  0.62985000  0.24955000  1.0 0.4620051382
C  C69  1  0.99770000  0.34070000  0.23630000  1.0 0.2131520973
C  C70  1  0.96990000  0.43610000  0.20770000  1.0 -0.3146958135
C  C71  1  0.86040000  0.53080000  0.39300000  1.0 -0.1866106878
C  C72  1  0.89380000  0.43380000  0.42100000  1.0 -0.1457998792
C  C73  1  0.86248000  0.87032000  0.01108000  1.0 0.3977632893
C  C74  1  0.89497000  0.90631000  0.91089000  1.0 -0.0554014419
C  C75  1  0.83140000  0.01600000  0.91440000  1.0 0.2160351516
C  C76  1  0.86500000  0.04320000  0.81620000  1.0 -0.3163702627
C  C77  1  0.96532000  0.96548000  0.72072000  1.0 0.0922340963
C  C78  1  0.03000000  0.85620000  0.71780000  1.0 -0.1866106878
C  C79  1  0.99290000  0.82770000  0.81390000  1.0 -0.143051289
C  C80  1  0.00103000  0.00045000  0.62015000  1.0 0.4620051382
C  C81  1  0.82470000  0.01370000  0.90930000  1.0 0.2131520973
C  C82  1  0.86370000  0.04230000  0.81390000  1.0 -0.3163702627
C  C83  1  0.03420000  0.85700000  0.71920000  1.0 -0.1866106878
C  C84  1  0.99860000  0.82900000  0.81620000  1.0 -0.143051289
C  C85  1  0.87032000  0.86248000  0.25612000  1.0 0.3977632893
C  C86  1  0.90631000  0.89497000  0.28783000  1.0 -0.0554014419
C  C87  1  0.01600000  0.83140000  0.23820000  1.0 0.2160351516
C  C88  1  0.04320000  0.86500000  0.27560000  1.0 -0.3163702627
C  C89  1  0.96548000  0.96532000  0.34848000  1.0 0.0922340963
C  C90  1  0.85620000  0.03000000  0.39600000  1.0 -0.1866106878
C  C91  1  0.82770000  0.99290000  0.36550000  1.0 -0.143051289
C  C92  1  0.00045000  0.00103000  0.37837000  1.0 0.4620051382
C  C93  1  0.01370000  0.82470000  0.25230000  1.0 0.2131520973
C  C94  1  0.04230000  0.86370000  0.28010000  1.0 -0.3146958135
C  C95  1  0.85700000  0.03420000  0.38960000  1.0 -0.1866106878
C  C96  1  0.82900000  0.99860000  0.35620000  1.0 -0.1457998792
C  C97  1  0.79190000  0.78630000  0.51950000  1.0 -0.2742242406
C  C98  1  0.99760000  0.64360000  0.40440000  1.0 -0.3559657188
C  C99  1  0.78630000  0.79190000  0.90230000  1.0 -0.2742242406
C  C100  1  0.64360000  0.99760000  0.95440000  1.0 -0.3559657188
C  C101  1  0.51950000  0.90230000  0.79190000  1.0 -0.2742242406
C  C102  1  0.40440000  0.95440000  0.99760000  1.0 -0.3559657188
C  C103  1  0.90230000  0.51950000  0.78630000  1.0 -0.2742242406
C  C104  1  0.95440000  0.40440000  0.64360000  1.0 -0.3559657188
C  C105  1  0.45810000  0.46370000  0.73050000  1.0 -0.2742242406
C  C106  1  0.25240000  0.60640000  0.84560000  1.0 -0.3559657188
C  C107  1  0.46370000  0.45810000  0.34770000  1.0 -0.2742242406
C  C108  1  0.60640000  0.25240000  0.29560000  1.0 -0.3559657188
C  C109  1  0.73050000  0.34770000  0.45810000  1.0 -0.2742242406
C  C110  1  0.84560000  0.29560000  0.25240000  1.0 -0.3559657188
C  C111  1  0.34770000  0.73050000  0.46370000  1.0 -0.2742242406
C  C112  1  0.29560000  0.84560000  0.60640000  1.0 -0.3559657188
N  N1  1  0.51240000  0.14760000  0.23800000  1.0 -0.178039361
N  N2  1  0.53710000  0.15650000  0.25490000  1.0 -0.1715043692
N  N3  1  0.14760000  0.51240000  0.10200000  1.0 -0.178039361
N  N4  1  0.15650000  0.53710000  0.05150000  1.0 -0.1715043692
N  N5  1  0.01200000  0.14800000  0.73760000  1.0 -0.178039361
N  N6  1  0.99510000  0.19850000  0.71290000  1.0 -0.1715043692
N  N7  1  0.14800000  0.01200000  0.10240000  1.0 -0.178039361
N  N8  1  0.19850000  0.99510000  0.09350000  1.0 -0.1715043692
N  N9  1  0.23800000  0.10200000  0.51240000  1.0 -0.178039361
N  N10  1  0.25490000  0.05150000  0.53710000  1.0 -0.1715043692
N  N11  1  0.10200000  0.23800000  0.14760000  1.0 -0.178039361
N  N12  1  0.05150000  0.25490000  0.15650000  1.0 -0.1715043692
N  N13  1  0.73760000  0.10240000  0.01200000  1.0 -0.178039361
N  N14  1  0.71290000  0.09350000  0.99510000  1.0 -0.1715043692
N  N15  1  0.10240000  0.73760000  0.14800000  1.0 -0.178039361
N  N16  1  0.09350000  0.71290000  0.19850000  1.0 -0.1715043692
N  N17  1  0.89380000  0.69600000  0.43180000  1.0 -0.143051289
N  N18  1  0.69600000  0.89380000  0.97840000  1.0 -0.1339711884
N  N19  1  0.43180000  0.97840000  0.89380000  1.0 -0.1339711884
N  N20  1  0.97840000  0.43180000  0.69600000  1.0 -0.1339711884
N  N21  1  0.35620000  0.55400000  0.81820000  1.0 -0.1339711884
N  N22  1  0.55400000  0.35620000  0.27160000  1.0 -0.1339711884
N  N23  1  0.81820000  0.27160000  0.35620000  1.0 -0.1339711884
N  N24  1  0.27160000  0.81820000  0.55400000  1.0 -0.143051289
O  O1  1  0.47455000  0.30955000  0.14725000  1.0 -0.5359528626
O  O2  1  0.32896000  0.47964000  0.24376000  1.0 -0.482684918
O  O3  1  0.16503000  0.32023000  0.72057000  1.0 -0.500489984
O  O4  1  0.30256000  0.15024000  0.62362000  1.0 -0.4907519671
O  O5  1  0.30955000  0.47455000  0.06865000  1.0 -0.5359528626
O  O6  1  0.47964000  0.32896000  0.94764000  1.0 -0.482684918
O  O7  1  0.32023000  0.16503000  0.79417000  1.0 -0.500489984
O  O8  1  0.15024000  0.30256000  0.92358000  1.0 -0.4907519671
O  O9  1  0.10275000  0.18135000  0.77545000  1.0 -0.5359528626
O  O10  1  0.00624000  0.30236000  0.92104000  1.0 -0.482684918
O  O11  1  0.52943000  0.45583000  0.08497000  1.0 -0.500489984
O  O12  1  0.62638000  0.32642000  0.94744000  1.0 -0.4907519671
O  O13  1  0.18135000  0.10275000  0.94045000  1.0 -0.5359528626
O  O14  1  0.30236000  0.00624000  0.77036000  1.0 -0.482684918
O  O15  1  0.45583000  0.52943000  0.92977000  1.0 -0.500489984
O  O16  1  0.32642000  0.62638000  0.09976000  1.0 -0.4907519671
O  O17  1  0.14725000  0.06865000  0.47455000  1.0 -0.5359528626
O  O18  1  0.24376000  0.94764000  0.32896000  1.0 -0.482684918
O  O19  1  0.72057000  0.79417000  0.16503000  1.0 -0.500489984
O  O20  1  0.62362000  0.92358000  0.30256000  1.0 -0.4907519671
O  O21  1  0.06865000  0.14725000  0.30955000  1.0 -0.5359528626
O  O22  1  0.94764000  0.24376000  0.47964000  1.0 -0.482684918
O  O23  1  0.79417000  0.72057000  0.32023000  1.0 -0.500489984
O  O24  1  0.92358000  0.62362000  0.15024000  1.0 -0.4907519671
O  O25  1  0.77545000  0.94045000  0.10275000  1.0 -0.5359528626
O  O26  1  0.92104000  0.77036000  0.00624000  1.0 -0.482684918
O  O27  1  0.08497000  0.92977000  0.52943000  1.0 -0.500489984
O  O28  1  0.94744000  0.09976000  0.62638000  1.0 -0.4907519671
O  O29  1  0.94045000  0.77545000  0.18135000  1.0 -0.5359528626
O  O30  1  0.77036000  0.92104000  0.30236000  1.0 -0.482684918
O  O31  1  0.92977000  0.08497000  0.45583000  1.0 -0.500489984
O  O32  1  0.09976000  0.94744000  0.32642000  1.0 -0.4907519671
