# DDEC6 charges by PACMAN v1.1 (https://github.com/mtap-research/PACMAN-charge/)
data_NOWYAC_ASR_pacman
_symmetry_space_group_name_H-M   'P 1'
_cell_length_a   20.76410000
_cell_length_b   17.33780000
_cell_length_c   15.58140000
_cell_angle_alpha   78.01120000
_cell_angle_beta   54.76340000
_cell_angle_gamma   47.22540000
_symmetry_Int_Tables_number   1
_chemical_formula_structural   InH20C24(NO2)4
_chemical_formula_sum   'In4 H80 C96 N16 O32'
_cell_volume   3200.55921558
_cell_formula_units_Z   4
loop_
 _symmetry_equiv_pos_site_id
 _symmetry_equiv_pos_as_xyz
  1  'x, y, z'
loop_
 _atom_site_type_symbol
 _atom_site_label
 _atom_site_symmetry_multiplicity
 _atom_site_fract_x
 _atom_site_fract_y
 _atom_site_fract_z
 _atom_site_occupancy
 _atom_site_charge
In  In1  1  0.44895000  0.44895000  0.05105000  1.0 1.2668575292
In  In2  1  0.19895000  0.19895000  0.80105000  1.0 1.2668575292
In  In3  1  0.05105000  0.05105000  0.44895000  1.0 1.2668575292
In  In4  1  0.80105000  0.80105000  0.19895000  1.0 1.2668575292
H  H1  1  0.44750000  0.14050000  0.83070000  1.0 0.0908834458
H  H2  1  0.14720000  0.45540000  0.96580000  1.0 0.0908834458
H  H3  1  0.50360000  0.20040000  0.87000000  1.0 0.0908834458
H  H4  1  0.10470000  0.60330000  0.05110000  1.0 0.1780731326
H  H5  1  0.18730000  0.57790000  0.05830000  1.0 0.1466816703
H  H6  1  0.50970000  0.23170000  0.81770000  1.0 0.0908834458
H  H7  1  0.13750000  0.42170000  0.03010000  1.0 0.0908834458
H  H8  1  0.45920000  0.16760000  0.77400000  1.0 0.0908834458
H  H9  1  0.08850000  0.55110000  0.15390000  1.0 0.1780731326
H  H10  1  0.17820000  0.53580000  0.13380000  1.0 0.1175340881
H  H11  1  0.14050000  0.44750000  0.58130000  1.0 0.0908834458
H  H12  1  0.45540000  0.14720000  0.43160000  1.0 0.0908834458
H  H13  1  0.20040000  0.50360000  0.42600000  1.0 0.0908834458
H  H14  1  0.60330000  0.10470000  0.24090000  1.0 0.1780731326
H  H15  1  0.57790000  0.18730000  0.17650000  1.0 0.1466816703
H  H16  1  0.23170000  0.50970000  0.44090000  1.0 0.0908834458
H  H17  1  0.42170000  0.13750000  0.41070000  1.0 0.0908834458
H  H18  1  0.16760000  0.45920000  0.59920000  1.0 0.0908834458
H  H19  1  0.55110000  0.08850000  0.20650000  1.0 0.1780731326
H  H20  1  0.53580000  0.17820000  0.15220000  1.0 0.1175340881
H  H21  1  0.41930000  0.66870000  0.80250000  1.0 0.0908834458
H  H22  1  0.28420000  0.81840000  0.10280000  1.0 0.0908834458
H  H23  1  0.38000000  0.82400000  0.74640000  1.0 0.0908834458
H  H24  1  0.19890000  0.00910000  0.14530000  1.0 0.1780731326
H  H25  1  0.19170000  0.07350000  0.06270000  1.0 0.1466816703
H  H26  1  0.43230000  0.80910000  0.74030000  1.0 0.0908834458
H  H27  1  0.21990000  0.83930000  0.11250000  1.0 0.0908834458
H  H28  1  0.47600000  0.65080000  0.79080000  1.0 0.0908834458
H  H29  1  0.09610000  0.04350000  0.16150000  1.0 0.1780731326
H  H30  1  0.11620000  0.09780000  0.07180000  1.0 0.1175340881
H  H31  1  0.66870000  0.41930000  0.10950000  1.0 0.0908834458
H  H32  1  0.81840000  0.28420000  0.79460000  1.0 0.0908834458
H  H33  1  0.82400000  0.38000000  0.04960000  1.0 0.0908834458
H  H34  1  0.00910000  0.19890000  0.64670000  1.0 0.1780731326
H  H35  1  0.07350000  0.19170000  0.67210000  1.0 0.1466816703
H  H36  1  0.80910000  0.43230000  0.01830000  1.0 0.0908834458
H  H37  1  0.83930000  0.21990000  0.82830000  1.0 0.0908834458
H  H38  1  0.65080000  0.47600000  0.08240000  1.0 0.0908834458
H  H39  1  0.04350000  0.09610000  0.69890000  1.0 0.1780731326
H  H40  1  0.09780000  0.11620000  0.71420000  1.0 0.1175340881
H  H41  1  0.83070000  0.58130000  0.44750000  1.0 0.0908834458
H  H42  1  0.96580000  0.43160000  0.14720000  1.0 0.0908834458
H  H43  1  0.87000000  0.42600000  0.50360000  1.0 0.0908834458
H  H44  1  0.05110000  0.24090000  0.10470000  1.0 0.1780731326
H  H45  1  0.05830000  0.17650000  0.18730000  1.0 0.1466816703
H  H46  1  0.81770000  0.44090000  0.50970000  1.0 0.0908834458
H  H47  1  0.03010000  0.41070000  0.13750000  1.0 0.0908834458
H  H48  1  0.77400000  0.59920000  0.45920000  1.0 0.0908834458
H  H49  1  0.15390000  0.20650000  0.08850000  1.0 0.1780731326
H  H50  1  0.13380000  0.15220000  0.17820000  1.0 0.1175340881
H  H51  1  0.58130000  0.83070000  0.14050000  1.0 0.0908834458
H  H52  1  0.43160000  0.96580000  0.45540000  1.0 0.0908834458
H  H53  1  0.42600000  0.87000000  0.20040000  1.0 0.0908834458
H  H54  1  0.24090000  0.05110000  0.60330000  1.0 0.1780731326
H  H55  1  0.17650000  0.05830000  0.57790000  1.0 0.1466816703
H  H56  1  0.44090000  0.81770000  0.23170000  1.0 0.0908834458
H  H57  1  0.41070000  0.03010000  0.42170000  1.0 0.0908834458
H  H58  1  0.59920000  0.77400000  0.16760000  1.0 0.0908834458
H  H59  1  0.20650000  0.15390000  0.55110000  1.0 0.1780731326
H  H60  1  0.15220000  0.13380000  0.53580000  1.0 0.1175340881
H  H61  1  0.80250000  0.10950000  0.41930000  1.0 0.0908834458
H  H62  1  0.10280000  0.79460000  0.28420000  1.0 0.0908834458
H  H63  1  0.74640000  0.04960000  0.38000000  1.0 0.0908834458
H  H64  1  0.14530000  0.64670000  0.19890000  1.0 0.1780731326
H  H65  1  0.06270000  0.67210000  0.19170000  1.0 0.1466816703
H  H66  1  0.74030000  0.01830000  0.43230000  1.0 0.0908834458
H  H67  1  0.11250000  0.82830000  0.21990000  1.0 0.0908834458
H  H68  1  0.79080000  0.08240000  0.47600000  1.0 0.0908834458
H  H69  1  0.16150000  0.69890000  0.09610000  1.0 0.1780731326
H  H70  1  0.07180000  0.71420000  0.11620000  1.0 0.1175340881
H  H71  1  0.10950000  0.80250000  0.66870000  1.0 0.0908834458
H  H72  1  0.79460000  0.10280000  0.81840000  1.0 0.0908834458
H  H73  1  0.04960000  0.74640000  0.82400000  1.0 0.0908834458
H  H74  1  0.64670000  0.14530000  0.00910000  1.0 0.1780731326
H  H75  1  0.67210000  0.06270000  0.07350000  1.0 0.1466816703
H  H76  1  0.01830000  0.74030000  0.80910000  1.0 0.0908834458
H  H77  1  0.82830000  0.11250000  0.83930000  1.0 0.0908834458
H  H78  1  0.08240000  0.79080000  0.65080000  1.0 0.0908834458
H  H79  1  0.69890000  0.16150000  0.04350000  1.0 0.1780731326
H  H80  1  0.71420000  0.07180000  0.09780000  1.0 0.1175340881
C  C1  1  0.39280000  0.39120000  0.98520000  1.0 0.4466525281
C  C2  1  0.29250000  0.29170000  0.89570000  1.0 0.0002625425
C  C3  1  0.39760000  0.21620000  0.86740000  1.0 -0.0697495033
C  C4  1  0.35440000  0.36140000  0.95300000  1.0 -0.0812031057
C  C5  1  0.25890000  0.25410000  0.86530000  1.0 0.4466525281
C  C6  1  0.21770000  0.40330000  0.95030000  1.0 -0.0697495033
C  C7  1  0.24780000  0.43740000  0.98200000  1.0 0.0908834458
C  C8  1  0.43010000  0.25130000  0.89310000  1.0 -0.0697495033
C  C9  1  0.43450000  0.26930000  0.86150000  1.0 -0.0697495033
C  C10  1  0.24340000  0.41700000  0.01820000  1.0 0.0827385915
C  C11  1  0.21310000  0.38270000  0.98770000  1.0 -0.0929659771
C  C12  1  0.40440000  0.23240000  0.83400000  1.0 -0.0697495033
C  C13  1  0.39120000  0.39280000  0.23080000  1.0 0.4466525281
C  C14  1  0.29170000  0.29250000  0.52010000  1.0 0.0002625425
C  C15  1  0.21620000  0.39760000  0.51880000  1.0 -0.0697495033
C  C16  1  0.36140000  0.35440000  0.33120000  1.0 -0.0812031057
C  C17  1  0.25410000  0.25890000  0.62170000  1.0 0.4466525281
C  C18  1  0.40330000  0.21770000  0.42870000  1.0 -0.0697495033
C  C19  1  0.43740000  0.24780000  0.33280000  1.0 0.0908834458
C  C20  1  0.25130000  0.43010000  0.42550000  1.0 -0.0697495033
C  C21  1  0.26930000  0.43450000  0.43470000  1.0 -0.0697495033
C  C22  1  0.41700000  0.24340000  0.32140000  1.0 0.0827385915
C  C23  1  0.38270000  0.21310000  0.41650000  1.0 -0.0929659771
C  C24  1  0.23240000  0.40440000  0.52920000  1.0 -0.0697495033
C  C25  1  0.26480000  0.01920000  0.85720000  1.0 0.4466525281
C  C26  1  0.35430000  0.72990000  0.95750000  1.0 0.0002625425
C  C27  1  0.38260000  0.73120000  0.85240000  1.0 -0.0697495033
C  C28  1  0.29700000  0.91880000  0.89560000  1.0 -0.0812031057
C  C29  1  0.38470000  0.62830000  0.99110000  1.0 0.4466525281
C  C30  1  0.29970000  0.82130000  0.03230000  1.0 -0.0697495033
C  C31  1  0.26800000  0.91720000  0.00220000  1.0 0.0908834458
C  C32  1  0.35690000  0.82450000  0.81990000  1.0 -0.0697495033
C  C33  1  0.38850000  0.81530000  0.81550000  1.0 -0.0697495033
C  C34  1  0.23180000  0.92860000  0.00660000  1.0 0.0827385915
C  C35  1  0.26230000  0.83350000  0.03690000  1.0 -0.0929659771
C  C36  1  0.41600000  0.72080000  0.84560000  1.0 -0.0697495033
C  C37  1  0.01920000  0.26480000  0.85880000  1.0 0.4466525281
C  C38  1  0.72990000  0.35430000  0.95830000  1.0 0.0002625425
C  C39  1  0.73120000  0.38260000  0.03380000  1.0 -0.0697495033
C  C40  1  0.91880000  0.29700000  0.88860000  1.0 -0.0812031057
C  C41  1  0.62830000  0.38470000  0.99590000  1.0 0.4466525281
C  C42  1  0.82130000  0.29970000  0.84670000  1.0 -0.0697495033
C  C43  1  0.91720000  0.26800000  0.81260000  1.0 0.0908834458
C  C44  1  0.82450000  0.35690000  0.99870000  1.0 -0.0697495033
C  C45  1  0.81530000  0.38850000  0.98070000  1.0 -0.0697495033
C  C46  1  0.92860000  0.23180000  0.83300000  1.0 0.0827385915
C  C47  1  0.83350000  0.26230000  0.86730000  1.0 -0.0929659771
C  C48  1  0.72080000  0.41600000  0.01760000  1.0 -0.0697495033
C  C49  1  0.98520000  0.23080000  0.39280000  1.0 0.4466525281
C  C50  1  0.89570000  0.52010000  0.29250000  1.0 0.0002625425
C  C51  1  0.86740000  0.51880000  0.39760000  1.0 -0.0697495033
C  C52  1  0.95300000  0.33120000  0.35440000  1.0 -0.0812031057
C  C53  1  0.86530000  0.62170000  0.25890000  1.0 0.4466525281
C  C54  1  0.95030000  0.42870000  0.21770000  1.0 -0.0697495033
C  C55  1  0.98200000  0.33280000  0.24780000  1.0 0.0908834458
C  C56  1  0.89310000  0.42550000  0.43010000  1.0 -0.0697495033
C  C57  1  0.86150000  0.43470000  0.43450000  1.0 -0.0697495033
C  C58  1  0.01820000  0.32140000  0.24340000  1.0 0.0827385915
C  C59  1  0.98770000  0.41650000  0.21310000  1.0 -0.0929659771
C  C60  1  0.83400000  0.52920000  0.40440000  1.0 -0.0697495033
C  C61  1  0.23080000  0.98520000  0.39120000  1.0 0.4466525281
C  C62  1  0.52010000  0.89570000  0.29170000  1.0 0.0002625425
C  C63  1  0.51880000  0.86740000  0.21620000  1.0 -0.0697495033
C  C64  1  0.33120000  0.95300000  0.36140000  1.0 -0.0812031057
C  C65  1  0.62170000  0.86530000  0.25410000  1.0 0.4466525281
C  C66  1  0.42870000  0.95030000  0.40330000  1.0 -0.0697495033
C  C67  1  0.33280000  0.98200000  0.43740000  1.0 0.0908834458
C  C68  1  0.42550000  0.89310000  0.25130000  1.0 -0.0697495033
C  C69  1  0.43470000  0.86150000  0.26930000  1.0 -0.0697495033
C  C70  1  0.32140000  0.01820000  0.41700000  1.0 0.0827385915
C  C71  1  0.41650000  0.98770000  0.38270000  1.0 -0.0929659771
C  C72  1  0.52920000  0.83400000  0.23240000  1.0 -0.0697495033
C  C73  1  0.85720000  0.85880000  0.26480000  1.0 0.4466525281
C  C74  1  0.95750000  0.95830000  0.35430000  1.0 0.0002625425
C  C75  1  0.85240000  0.03380000  0.38260000  1.0 -0.0697495033
C  C76  1  0.89560000  0.88860000  0.29700000  1.0 -0.0812031057
C  C77  1  0.99110000  0.99590000  0.38470000  1.0 0.4466525281
C  C78  1  0.03230000  0.84670000  0.29970000  1.0 -0.0697495033
C  C79  1  0.00220000  0.81260000  0.26800000  1.0 0.0908834458
C  C80  1  0.81990000  0.99870000  0.35690000  1.0 -0.0697495033
C  C81  1  0.81550000  0.98070000  0.38850000  1.0 -0.0697495033
C  C82  1  0.00660000  0.83300000  0.23180000  1.0 0.0827385915
C  C83  1  0.03690000  0.86730000  0.26230000  1.0 -0.0929659771
C  C84  1  0.84560000  0.01760000  0.41600000  1.0 -0.0648025515
C  C85  1  0.85880000  0.85720000  0.01920000  1.0 0.4466525281
C  C86  1  0.95830000  0.95750000  0.72990000  1.0 0.0002625425
C  C87  1  0.03380000  0.85240000  0.73120000  1.0 -0.0697495033
C  C88  1  0.88860000  0.89560000  0.91880000  1.0 -0.0812031057
C  C89  1  0.99590000  0.99110000  0.62830000  1.0 0.4466525281
C  C90  1  0.84670000  0.03230000  0.82130000  1.0 -0.0697495033
C  C91  1  0.81260000  0.00220000  0.91720000  1.0 0.0908834458
C  C92  1  0.99870000  0.81990000  0.82450000  1.0 -0.0697495033
C  C93  1  0.98070000  0.81550000  0.81530000  1.0 -0.0697495033
C  C94  1  0.83300000  0.00660000  0.92860000  1.0 0.0827385915
C  C95  1  0.86730000  0.03690000  0.83350000  1.0 -0.0929659771
C  C96  1  0.01760000  0.84560000  0.72080000  1.0 -0.0697495033
N  N1  1  0.16940000  0.55540000  0.03800000  1.0 -0.1853865493
N  N2  1  0.15860000  0.51440000  0.11500000  1.0 -0.1826911533
N  N3  1  0.55540000  0.16940000  0.23720000  1.0 -0.1853865493
N  N4  1  0.51440000  0.15860000  0.21200000  1.0 -0.1826911533
N  N5  1  0.21200000  0.01280000  0.08060000  1.0 -0.1853865493
N  N6  1  0.13500000  0.03800000  0.09140000  1.0 -0.1853865493
N  N7  1  0.01280000  0.21200000  0.69460000  1.0 -0.1853865493
N  N8  1  0.03800000  0.13500000  0.73560000  1.0 -0.1853865493
N  N9  1  0.03800000  0.23720000  0.16940000  1.0 -0.1853865493
N  N10  1  0.11500000  0.21200000  0.15860000  1.0 -0.1826911533
N  N11  1  0.23720000  0.03800000  0.55540000  1.0 -0.1826911533
N  N12  1  0.21200000  0.11500000  0.51440000  1.0 -0.1853865493
N  N13  1  0.08060000  0.69460000  0.21200000  1.0 -0.1853865493
N  N14  1  0.09140000  0.73560000  0.13500000  1.0 -0.1853865493
N  N15  1  0.69460000  0.08060000  0.01280000  1.0 -0.1853865493
N  N16  1  0.73560000  0.09140000  0.03800000  1.0 -0.1826911533
O  O1  1  0.32970000  0.17010000  0.78530000  1.0 -0.4589579048
O  O2  1  0.32180000  0.48040000  0.06000000  1.0 -0.5315771455
O  O3  1  0.15610000  0.31630000  0.91610000  1.0 -0.5369046682
O  O4  1  0.49420000  0.33280000  0.93440000  1.0 -0.4481206144
O  O5  1  0.17010000  0.32970000  0.71490000  1.0 -0.4589579048
O  O6  1  0.48040000  0.32180000  0.13780000  1.0 -0.5315771455
O  O7  1  0.31630000  0.15610000  0.61150000  1.0 -0.5369046682
O  O8  1  0.33280000  0.49420000  0.23860000  1.0 -0.4481206144
O  O9  1  0.46470000  0.53510000  0.92030000  1.0 -0.4589579048
O  O10  1  0.19000000  0.11220000  0.92820000  1.0 -0.5315771455
O  O11  1  0.33390000  0.63850000  0.09390000  1.0 -0.5369046682
O  O12  1  0.31560000  0.01140000  0.75580000  1.0 -0.4481206144
O  O13  1  0.53510000  0.46470000  0.07990000  1.0 -0.4589579048
O  O14  1  0.11220000  0.19000000  0.76960000  1.0 -0.5315771455
O  O15  1  0.63850000  0.33390000  0.93370000  1.0 -0.5369046682
O  O16  1  0.01140000  0.31560000  0.91720000  1.0 -0.4481206144
O  O17  1  0.78530000  0.71490000  0.32970000  1.0 -0.4589579048
O  O18  1  0.06000000  0.13780000  0.32180000  1.0 -0.5315771455
O  O19  1  0.91610000  0.61150000  0.15610000  1.0 -0.5369046682
O  O20  1  0.93440000  0.23860000  0.49420000  1.0 -0.4481206144
O  O21  1  0.71490000  0.78530000  0.17010000  1.0 -0.4589579048
O  O22  1  0.13780000  0.06000000  0.48040000  1.0 -0.5315771455
O  O23  1  0.61150000  0.91610000  0.31630000  1.0 -0.5369046682
O  O24  1  0.23860000  0.93440000  0.33280000  1.0 -0.4481206144
O  O25  1  0.92030000  0.07990000  0.46470000  1.0 -0.4589579048
O  O26  1  0.92820000  0.76960000  0.19000000  1.0 -0.5315771455
O  O27  1  0.09390000  0.93370000  0.33390000  1.0 -0.5369046682
O  O28  1  0.75580000  0.91720000  0.31560000  1.0 -0.4481206144
O  O29  1  0.07990000  0.92030000  0.53510000  1.0 -0.4589579048
O  O30  1  0.76960000  0.92820000  0.11220000  1.0 -0.5315771455
O  O31  1  0.93370000  0.09390000  0.63850000  1.0 -0.5315771455
O  O32  1  0.91720000  0.75580000  0.01140000  1.0 -0.4481206144
