# DDEC6 charges by PACMAN v1.1 (https://github.com/mtap-research/PACMAN-charge/)
data_NOWYEG_ion_pacman
_symmetry_space_group_name_H-M   'P 1'
_cell_length_a   20.63760000
_cell_length_b   17.59210000
_cell_length_c   15.25380000
_cell_angle_alpha   77.49010000
_cell_angle_beta   56.32470000
_cell_angle_gamma   46.18520000
_symmetry_Int_Tables_number   1
_chemical_formula_structural   InH36C28(N3O4)2
_chemical_formula_sum   'In4 H144 C112 N24 O32'
_cell_volume   3193.92048033
_cell_formula_units_Z   4
loop_
 _symmetry_equiv_pos_site_id
 _symmetry_equiv_pos_as_xyz
  1  'x, y, z'
loop_
 _atom_site_type_symbol
 _atom_site_label
 _atom_site_symmetry_multiplicity
 _atom_site_fract_x
 _atom_site_fract_y
 _atom_site_fract_z
 _atom_site_occupancy
 _atom_site_charge
In  In1  1  0.44542000  0.44542000  0.05458000  1.0 1.2155633957
In  In2  1  0.19542000  0.19542000  0.80458000  1.0 1.2155633957
In  In3  1  0.05458000  0.05458000  0.44542000  1.0 1.2155633957
In  In4  1  0.80458000  0.80458000  0.19542000  1.0 1.2155633957
H  H1  1  0.56660000  0.16860000  0.17960000  1.0 0.1493521665
H  H2  1  0.58160000  0.08520000  0.24520000  1.0 0.1421711085
H  H3  1  0.43990000  0.13510000  0.42950000  1.0 0.1493521665
H  H4  1  0.15400000  0.45360000  0.59080000  1.0 0.1421711085
H  H5  1  0.21550000  0.50110000  0.42990000  1.0 0.1421711085
H  H6  1  0.53430000  0.16750000  0.16370000  1.0 0.1576956675
H  H7  1  0.54140000  0.08400000  0.22540000  1.0 0.1421711085
H  H8  1  0.22190000  0.50170000  0.43370000  1.0 0.1421711085
H  H9  1  0.16600000  0.45340000  0.59560000  1.0 0.1421711085
H  H10  1  0.42740000  0.13360000  0.42180000  1.0 0.1421711085
H  H11  1  0.16860000  0.56660000  0.08520000  1.0 0.1493521665
H  H12  1  0.08520000  0.58160000  0.08800000  1.0 0.1421711085
H  H13  1  0.13510000  0.43990000  0.99550000  1.0 0.1493521665
H  H14  1  0.45360000  0.15400000  0.80160000  1.0 0.1421711085
H  H15  1  0.50110000  0.21550000  0.85350000  1.0 0.1421711085
H  H16  1  0.16750000  0.53430000  0.13450000  1.0 0.1576956675
H  H17  1  0.08400000  0.54140000  0.14920000  1.0 0.1421711085
H  H18  1  0.50170000  0.22190000  0.84270000  1.0 0.1421711085
H  H19  1  0.45340000  0.16600000  0.78500000  1.0 0.1421711085
H  H20  1  0.13360000  0.42740000  0.01720000  1.0 0.1421711085
H  H21  1  0.07040000  0.16480000  0.68340000  1.0 0.1493521665
H  H22  1  0.00480000  0.16200000  0.66840000  1.0 0.1421711085
H  H23  1  0.82050000  0.25450000  0.81010000  1.0 0.1493521665
H  H24  1  0.65920000  0.44840000  0.09600000  1.0 0.1421711085
H  H25  1  0.82010000  0.39650000  0.03450000  1.0 0.1421711085
H  H26  1  0.08630000  0.11550000  0.71570000  1.0 0.1576956675
H  H27  1  0.02460000  0.10080000  0.70860000  1.0 0.1421711085
H  H28  1  0.81630000  0.40730000  0.02810000  1.0 0.1421711085
H  H29  1  0.65440000  0.46500000  0.08400000  1.0 0.1421711085
H  H30  1  0.82820000  0.23280000  0.82260000  1.0 0.1421711085
H  H31  1  0.16480000  0.07040000  0.08140000  1.0 0.1493521665
H  H32  1  0.16200000  0.00480000  0.16480000  1.0 0.1421711085
H  H33  1  0.25450000  0.82050000  0.11490000  1.0 0.1493521665
H  H34  1  0.44840000  0.65920000  0.79640000  1.0 0.1421711085
H  H35  1  0.39650000  0.82010000  0.74890000  1.0 0.1421711085
H  H36  1  0.11550000  0.08630000  0.08250000  1.0 0.1576956675
H  H37  1  0.10080000  0.02460000  0.16600000  1.0 0.1421711085
H  H38  1  0.40730000  0.81630000  0.74830000  1.0 0.1421711085
H  H39  1  0.46500000  0.65440000  0.79660000  1.0 0.1421711085
H  H40  1  0.23280000  0.82820000  0.11640000  1.0 0.1421711085
H  H41  1  0.17960000  0.08520000  0.56660000  1.0 0.1493521665
H  H42  1  0.24520000  0.08800000  0.58160000  1.0 0.1421711085
H  H43  1  0.42950000  0.99550000  0.43990000  1.0 0.1493521665
H  H44  1  0.59080000  0.80160000  0.15400000  1.0 0.1421711085
H  H45  1  0.42990000  0.85350000  0.21550000  1.0 0.1421711085
H  H46  1  0.16370000  0.13450000  0.53430000  1.0 0.1576956675
H  H47  1  0.22540000  0.14920000  0.54140000  1.0 0.1421711085
H  H48  1  0.43370000  0.84270000  0.22190000  1.0 0.1421711085
H  H49  1  0.59560000  0.78500000  0.16600000  1.0 0.1421711085
H  H50  1  0.42180000  0.01720000  0.42740000  1.0 0.1421711085
H  H51  1  0.08520000  0.17960000  0.16860000  1.0 0.1493521665
H  H52  1  0.08800000  0.24520000  0.08520000  1.0 0.1421711085
H  H53  1  0.99550000  0.42950000  0.13510000  1.0 0.1493521665
H  H54  1  0.80160000  0.59080000  0.45360000  1.0 0.1421711085
H  H55  1  0.85350000  0.42990000  0.50110000  1.0 0.1421711085
H  H56  1  0.13450000  0.16370000  0.16750000  1.0 0.1576956675
H  H57  1  0.14920000  0.22540000  0.08400000  1.0 0.1421711085
H  H58  1  0.84270000  0.43370000  0.50170000  1.0 0.1421711085
H  H59  1  0.78500000  0.59560000  0.45340000  1.0 0.1421711085
H  H60  1  0.01720000  0.42180000  0.13360000  1.0 0.1421711085
H  H61  1  0.68340000  0.08140000  0.07040000  1.0 0.1493521665
H  H62  1  0.66840000  0.16480000  0.00480000  1.0 0.1421711085
H  H63  1  0.81010000  0.11490000  0.82050000  1.0 0.1493521665
H  H64  1  0.09600000  0.79640000  0.65920000  1.0 0.1421711085
H  H65  1  0.03450000  0.74890000  0.82010000  1.0 0.1421711085
H  H66  1  0.71570000  0.08250000  0.08630000  1.0 0.1576956675
H  H67  1  0.70860000  0.16600000  0.02460000  1.0 0.1421711085
H  H68  1  0.02810000  0.74830000  0.81630000  1.0 0.1421711085
H  H69  1  0.08400000  0.79660000  0.65440000  1.0 0.1421711085
H  H70  1  0.82260000  0.11640000  0.82820000  1.0 0.1421711085
H  H71  1  0.08140000  0.68340000  0.16480000  1.0 0.1493521665
H  H72  1  0.16480000  0.66840000  0.16200000  1.0 0.1421711085
H  H73  1  0.11490000  0.81010000  0.25450000  1.0 0.1493521665
H  H74  1  0.79640000  0.09600000  0.44840000  1.0 0.1421711085
H  H75  1  0.74890000  0.03450000  0.39650000  1.0 0.1421711085
H  H76  1  0.08250000  0.71570000  0.11550000  1.0 0.1576956675
H  H77  1  0.16600000  0.70860000  0.10080000  1.0 0.1421711085
H  H78  1  0.74830000  0.02810000  0.40730000  1.0 0.1421711085
H  H79  1  0.79660000  0.08400000  0.46500000  1.0 0.1421711085
H  H80  1  0.11640000  0.82260000  0.23280000  1.0 0.1421711085
H  H81  1  0.63290000  0.30330000  0.20990000  1.0 0.1089047022
H  H82  1  0.52620000  0.40160000  0.32080000  1.0 0.1218573273
H  H83  1  0.52350000  0.32910000  0.27770000  1.0 0.1089047022
H  H84  1  0.65170000  0.25010000  0.34770000  1.0 0.233204981
H  H85  1  0.64920000  0.18380000  0.30840000  1.0 0.2374548797
H  H86  1  0.56680000  0.21280000  0.48820000  1.0 0.1089047022
H  H87  1  0.48070000  0.26970000  0.45950000  1.0 0.1218573273
H  H88  1  0.48330000  0.34210000  0.50270000  1.0 0.1218573273
H  H89  1  0.30330000  0.63290000  0.85390000  1.0 0.1089047022
H  H90  1  0.40160000  0.52620000  0.75140000  1.0 0.1218573273
H  H91  1  0.32910000  0.52350000  0.86970000  1.0 0.1089047022
H  H92  1  0.25010000  0.65170000  0.75050000  1.0 0.233204981
H  H93  1  0.18380000  0.64920000  0.85860000  1.0 0.2374548797
H  H94  1  0.21280000  0.56680000  0.73220000  1.0 0.1089047022
H  H95  1  0.26970000  0.48070000  0.79010000  1.0 0.1218573273
H  H96  1  0.34210000  0.48330000  0.67190000  1.0 0.1218573273
H  H97  1  0.20990000  0.85390000  0.63290000  1.0 0.1089047022
H  H98  1  0.32080000  0.75140000  0.52620000  1.0 0.1218573273
H  H99  1  0.27770000  0.86970000  0.52350000  1.0 0.1089047022
H  H100  1  0.34770000  0.75050000  0.65170000  1.0 0.233204981
H  H101  1  0.30840000  0.85860000  0.64920000  1.0 0.2374548797
H  H102  1  0.48820000  0.73220000  0.56680000  1.0 0.1089047022
H  H103  1  0.45950000  0.79010000  0.48070000  1.0 0.1218573273
H  H104  1  0.50270000  0.67190000  0.48330000  1.0 0.1218573273
H  H105  1  0.85390000  0.20990000  0.30330000  1.0 0.1089047022
H  H106  1  0.75140000  0.32080000  0.40160000  1.0 0.1218573273
H  H107  1  0.86970000  0.27770000  0.32910000  1.0 0.1089047022
H  H108  1  0.75050000  0.34770000  0.25010000  1.0 0.233204981
H  H109  1  0.85860000  0.30840000  0.18380000  1.0 0.2374548797
H  H110  1  0.73220000  0.48820000  0.21280000  1.0 0.1089047022
H  H111  1  0.79010000  0.45950000  0.26970000  1.0 0.1218573273
H  H112  1  0.67190000  0.50270000  0.34210000  1.0 0.1218573273
H  H113  1  0.61710000  0.94670000  0.04010000  1.0 0.1089047022
H  H114  1  0.72380000  0.84840000  0.92920000  1.0 0.1218573273
H  H115  1  0.72650000  0.92090000  0.97230000  1.0 0.1089047022
H  H116  1  0.59830000  0.99990000  0.90230000  1.0 0.233204981
H  H117  1  0.60080000  0.06620000  0.94160000  1.0 0.2374548797
H  H118  1  0.68320000  0.03720000  0.76180000  1.0 0.1089047022
H  H119  1  0.76930000  0.98030000  0.79050000  1.0 0.1218573273
H  H120  1  0.76670000  0.90790000  0.74730000  1.0 0.1218573273
H  H121  1  0.94670000  0.61710000  0.39610000  1.0 0.1089047022
H  H122  1  0.84840000  0.72380000  0.49860000  1.0 0.1218573273
H  H123  1  0.92090000  0.72650000  0.38030000  1.0 0.1089047022
H  H124  1  0.99990000  0.59830000  0.49950000  1.0 0.233204981
H  H125  1  0.06620000  0.60080000  0.39140000  1.0 0.2374548797
H  H126  1  0.03720000  0.68320000  0.51780000  1.0 0.1089047022
H  H127  1  0.98030000  0.76930000  0.45990000  1.0 0.1218573273
H  H128  1  0.90790000  0.76670000  0.57810000  1.0 0.1218573273
H  H129  1  0.04010000  0.39610000  0.61710000  1.0 0.1089047022
H  H130  1  0.92920000  0.49860000  0.72380000  1.0 0.1218573273
H  H131  1  0.97230000  0.38030000  0.72650000  1.0 0.1089047022
H  H132  1  0.90230000  0.49950000  0.59830000  1.0 0.233204981
H  H133  1  0.94160000  0.39140000  0.60080000  1.0 0.2374548797
H  H134  1  0.76180000  0.51780000  0.68320000  1.0 0.1089047022
H  H135  1  0.79050000  0.45990000  0.76930000  1.0 0.1218573273
H  H136  1  0.74730000  0.57810000  0.76670000  1.0 0.1218573273
H  H137  1  0.39610000  0.04010000  0.94670000  1.0 0.1089047022
H  H138  1  0.49860000  0.92920000  0.84840000  1.0 0.1218573273
H  H139  1  0.38030000  0.97230000  0.92090000  1.0 0.1089047022
H  H140  1  0.49950000  0.90230000  0.99990000  1.0 0.233204981
H  H141  1  0.39140000  0.94160000  0.06620000  1.0 0.2374548797
H  H142  1  0.51780000  0.76180000  0.03720000  1.0 0.1089047022
H  H143  1  0.45990000  0.79050000  0.98030000  1.0 0.1218573273
H  H144  1  0.57810000  0.74730000  0.90790000  1.0 0.1218573273
C  C1  1  0.25519000  0.25359000  0.62161000  1.0 0.4594962389
C  C2  1  0.29090000  0.28730000  0.52350000  1.0 0.0875941158
C  C3  1  0.39382000  0.38382000  0.23438000  1.0 0.4222338103
C  C4  1  0.36177000  0.34677000  0.33303000  1.0 -0.0618741353
C  C5  1  0.43090000  0.23830000  0.33410000  1.0 0.1934069057
C  C6  1  0.39340000  0.20980000  0.42960000  1.0 -0.3265953198
C  C7  1  0.22360000  0.39840000  0.52520000  1.0 -0.1827621342
C  C8  1  0.26050000  0.42610000  0.42950000  1.0 -0.1572819151
C  C9  1  0.26500000  0.42640000  0.43180000  1.0 -0.1572819151
C  C10  1  0.23020000  0.39820000  0.52780000  1.0 -0.1827621342
C  C11  1  0.41580000  0.23820000  0.32740000  1.0 0.1978826314
C  C12  1  0.38390000  0.20910000  0.42430000  1.0 -0.3265953198
C  C13  1  0.25359000  0.25519000  0.86961000  1.0 0.4594962389
C  C14  1  0.28730000  0.29090000  0.89830000  1.0 0.0875941158
C  C15  1  0.38382000  0.39382000  0.98798000  1.0 0.4222338103
C  C16  1  0.34677000  0.36177000  0.95843000  1.0 -0.0618741353
C  C17  1  0.23830000  0.43090000  0.99670000  1.0 0.1934069057
C  C18  1  0.20980000  0.39340000  0.96720000  1.0 -0.3265953198
C  C19  1  0.39840000  0.22360000  0.85280000  1.0 -0.1827621342
C  C20  1  0.42610000  0.26050000  0.88390000  1.0 -0.1572819151
C  C21  1  0.42640000  0.26500000  0.87680000  1.0 -0.1572819151
C  C22  1  0.39820000  0.23020000  0.84380000  1.0 -0.1827621342
C  C23  1  0.23820000  0.41580000  0.01860000  1.0 0.1978826314
C  C24  1  0.20910000  0.38390000  0.98270000  1.0 -0.3265953198
C  C25  1  0.62839000  0.38039000  0.99481000  1.0 0.4594962389
C  C26  1  0.72650000  0.35170000  0.95910000  1.0 0.0875941158
C  C27  1  0.01562000  0.26202000  0.85618000  1.0 0.4222338103
C  C28  1  0.91697000  0.29157000  0.88823000  1.0 -0.0618741353
C  C29  1  0.91590000  0.25330000  0.81910000  1.0 0.1934069057
C  C30  1  0.82040000  0.28280000  0.85660000  1.0 -0.3265953198
C  C31  1  0.72480000  0.39720000  0.02640000  1.0 -0.1827621342
C  C32  1  0.82050000  0.36610000  0.98950000  1.0 -0.1572819151
C  C33  1  0.81820000  0.37320000  0.98500000  1.0 -0.1572819151
C  C34  1  0.72220000  0.40620000  0.01980000  1.0 -0.1827621342
C  C35  1  0.92260000  0.23140000  0.83420000  1.0 0.1978826314
C  C36  1  0.82570000  0.26730000  0.86610000  1.0 -0.3265953198
C  C37  1  0.38039000  0.62839000  0.99641000  1.0 0.4594962389
C  C38  1  0.35170000  0.72650000  0.96270000  1.0 0.0875941158
C  C39  1  0.26202000  0.01562000  0.86618000  1.0 0.4222338103
C  C40  1  0.29157000  0.91697000  0.90323000  1.0 -0.0618741353
C  C41  1  0.25330000  0.91590000  0.01170000  1.0 0.1934069057
C  C42  1  0.28280000  0.82040000  0.04020000  1.0 -0.3265953198
C  C43  1  0.39720000  0.72480000  0.85160000  1.0 -0.1827621342
C  C44  1  0.36610000  0.82050000  0.82390000  1.0 -0.1572819151
C  C45  1  0.37320000  0.81820000  0.82360000  1.0 -0.1572819151
C  C46  1  0.40620000  0.72220000  0.85180000  1.0 -0.1827621342
C  C47  1  0.23140000  0.92260000  0.01180000  1.0 0.1978826314
C  C48  1  0.26730000  0.82570000  0.04090000  1.0 -0.3265953198
C  C49  1  0.62161000  0.86961000  0.25519000  1.0 0.4594962389
C  C50  1  0.52350000  0.89830000  0.29090000  1.0 0.0875941158
C  C51  1  0.23438000  0.98798000  0.39382000  1.0 0.4222338103
C  C52  1  0.33303000  0.95843000  0.36177000  1.0 -0.0618741353
C  C53  1  0.33410000  0.99670000  0.43090000  1.0 0.1934069057
C  C54  1  0.42960000  0.96720000  0.39340000  1.0 -0.3265953198
C  C55  1  0.52520000  0.85280000  0.22360000  1.0 -0.1827621342
C  C56  1  0.42950000  0.88390000  0.26050000  1.0 -0.1572819151
C  C57  1  0.43180000  0.87680000  0.26500000  1.0 -0.1572819151
C  C58  1  0.52780000  0.84380000  0.23020000  1.0 -0.1827621342
C  C59  1  0.32740000  0.01860000  0.41580000  1.0 0.1978826314
C  C60  1  0.42430000  0.98270000  0.38390000  1.0 -0.3265953198
C  C61  1  0.86961000  0.62161000  0.25359000  1.0 0.4594962389
C  C62  1  0.89830000  0.52350000  0.28730000  1.0 0.0875941158
C  C63  1  0.98798000  0.23438000  0.38382000  1.0 0.4222338103
C  C64  1  0.95843000  0.33303000  0.34677000  1.0 -0.0618741353
C  C65  1  0.99670000  0.33410000  0.23830000  1.0 0.1934069057
C  C66  1  0.96720000  0.42960000  0.20980000  1.0 -0.3265953198
C  C67  1  0.85280000  0.52520000  0.39840000  1.0 -0.1827621342
C  C68  1  0.88390000  0.42950000  0.42610000  1.0 -0.1572819151
C  C69  1  0.87680000  0.43180000  0.42640000  1.0 -0.1572819151
C  C70  1  0.84380000  0.52780000  0.39820000  1.0 -0.1827621342
C  C71  1  0.01860000  0.32740000  0.23820000  1.0 0.1978826314
C  C72  1  0.98270000  0.42430000  0.20910000  1.0 -0.3265953198
C  C73  1  0.99481000  0.99641000  0.62839000  1.0 0.4594962389
C  C74  1  0.95910000  0.96270000  0.72650000  1.0 0.0875941158
C  C75  1  0.85618000  0.86618000  0.01562000  1.0 0.4222338103
C  C76  1  0.88823000  0.90323000  0.91697000  1.0 -0.0618741353
C  C77  1  0.81910000  0.01170000  0.91590000  1.0 0.1934069057
C  C78  1  0.85660000  0.04020000  0.82040000  1.0 -0.3265953198
C  C79  1  0.02640000  0.85160000  0.72480000  1.0 -0.1827621342
C  C80  1  0.98950000  0.82390000  0.82050000  1.0 -0.1572819151
C  C81  1  0.98500000  0.82360000  0.81820000  1.0 -0.1572819151
C  C82  1  0.01980000  0.85180000  0.72220000  1.0 -0.1827621342
C  C83  1  0.83420000  0.01180000  0.92260000  1.0 0.1978826314
C  C84  1  0.86610000  0.04090000  0.82570000  1.0 -0.3265953198
C  C85  1  0.99641000  0.99481000  0.38039000  1.0 0.4594962389
C  C86  1  0.96270000  0.95910000  0.35170000  1.0 0.0875941158
C  C87  1  0.86618000  0.85618000  0.26202000  1.0 0.4222338103
C  C88  1  0.90323000  0.88823000  0.29157000  1.0 -0.0618741353
C  C89  1  0.01170000  0.81910000  0.25330000  1.0 0.1934069057
C  C90  1  0.04020000  0.85660000  0.28280000  1.0 -0.3265953198
C  C91  1  0.85160000  0.02640000  0.39720000  1.0 -0.1827621342
C  C92  1  0.82390000  0.98950000  0.36610000  1.0 -0.1572819151
C  C93  1  0.82360000  0.98500000  0.37320000  1.0 -0.1572819151
C  C94  1  0.85180000  0.01980000  0.40620000  1.0 -0.1827621342
C  C95  1  0.01180000  0.83420000  0.23140000  1.0 0.1978826314
C  C96  1  0.04090000  0.86610000  0.26730000  1.0 -0.3265953198
C  C97  1  0.56890000  0.32810000  0.28390000  1.0 -0.3364360839
C  C98  1  0.52860000  0.27020000  0.45780000  1.0 -0.3038099702
C  C99  1  0.32810000  0.56890000  0.81910000  1.0 -0.3364360839
C  C100  1  0.27020000  0.52860000  0.74340000  1.0 -0.3038099702
C  C101  1  0.28390000  0.81910000  0.56890000  1.0 -0.3364360839
C  C102  1  0.45780000  0.74340000  0.52860000  1.0 -0.3051882296
C  C103  1  0.81910000  0.28390000  0.32810000  1.0 -0.3364360839
C  C104  1  0.74340000  0.45780000  0.27020000  1.0 -0.3038099702
C  C105  1  0.68110000  0.92190000  0.96610000  1.0 -0.3364360839
C  C106  1  0.72140000  0.97980000  0.79220000  1.0 -0.3038099702
C  C107  1  0.92190000  0.68110000  0.43090000  1.0 -0.3364360839
C  C108  1  0.97980000  0.72140000  0.50660000  1.0 -0.3038099702
C  C109  1  0.96610000  0.43090000  0.68110000  1.0 -0.3364360839
C  C110  1  0.79220000  0.50660000  0.72140000  1.0 -0.3038099702
C  C111  1  0.43090000  0.96610000  0.92190000  1.0 -0.3364360839
C  C112  1  0.50660000  0.79220000  0.97980000  1.0 -0.3038099702
N  N1  1  0.54040000  0.15320000  0.24100000  1.0 -0.1883727576
N  N2  1  0.50930000  0.15190000  0.22570000  1.0 -0.1977919884
N  N3  1  0.15320000  0.54040000  0.06540000  1.0 -0.1883727576
N  N4  1  0.15190000  0.50930000  0.11310000  1.0 -0.1977919884
N  N5  1  0.00900000  0.18460000  0.70960000  1.0 -0.1883727576
N  N6  1  0.02430000  0.13690000  0.74070000  1.0 -0.1977919884
N  N7  1  0.18460000  0.00900000  0.09680000  1.0 -0.1883727576
N  N8  1  0.13690000  0.02430000  0.09810000  1.0 -0.1977919884
N  N9  1  0.24100000  0.06540000  0.54040000  1.0 -0.1883727576
N  N10  1  0.22570000  0.11310000  0.50930000  1.0 -0.1977919884
N  N11  1  0.06540000  0.24100000  0.15320000  1.0 -0.1883727576
N  N12  1  0.11310000  0.22570000  0.15190000  1.0 -0.1977919884
N  N13  1  0.70960000  0.09680000  0.00900000  1.0 -0.1883727576
N  N14  1  0.74070000  0.09810000  0.02430000  1.0 -0.1977919884
N  N15  1  0.09680000  0.70960000  0.18460000  1.0 -0.1883727576
N  N16  1  0.09810000  0.74070000  0.13690000  1.0 -0.1977919884
N  N17  1  0.60700000  0.25200000  0.34660000  1.0 -0.1341736078
N  N18  1  0.25200000  0.60700000  0.79440000  1.0 -0.1350873917
N  N19  1  0.34660000  0.79440000  0.60700000  1.0 -0.1350873917
N  N20  1  0.79440000  0.34660000  0.25200000  1.0 -0.1341736078
N  N21  1  0.64300000  0.99800000  0.90340000  1.0 -0.1341736078
N  N22  1  0.99800000  0.64300000  0.45560000  1.0 -0.1341736078
N  N23  1  0.90340000  0.45560000  0.64300000  1.0 -0.1350873917
N  N24  1  0.45560000  0.90340000  0.99800000  1.0 -0.1350873917
O  O1  1  0.30909000  0.15261000  0.61679000  1.0 -0.5180819541
O  O2  1  0.33944000  0.48456000  0.24084000  1.0 -0.4906016238
O  O3  1  0.16906000  0.32526000  0.71454000  1.0 -0.5023628421
O  O4  1  0.47768000  0.31486000  0.13974000  1.0 -0.5180819541
O  O5  1  0.15261000  0.30909000  0.92151000  1.0 -0.5180819541
O  O6  1  0.48456000  0.33944000  0.93516000  1.0 -0.4906016238
O  O7  1  0.32526000  0.16906000  0.79114000  1.0 -0.5023628421
O  O8  1  0.31486000  0.47768000  0.06772000  1.0 -0.5146743267
O  O9  1  0.63321000  0.32849000  0.94091000  1.0 -0.5180819541
O  O10  1  0.00916000  0.31484000  0.91056000  1.0 -0.4906016238
O  O11  1  0.53546000  0.45886000  0.08094000  1.0 -0.5023628421
O  O12  1  0.11026000  0.18228000  0.77232000  1.0 -0.5146743267
O  O13  1  0.32849000  0.63321000  0.09739000  1.0 -0.5180819541
O  O14  1  0.31484000  0.00916000  0.76544000  1.0 -0.4906016238
O  O15  1  0.45886000  0.53546000  0.92474000  1.0 -0.5023628421
O  O16  1  0.18228000  0.11026000  0.93514000  1.0 -0.5146743267
O  O17  1  0.61679000  0.92151000  0.30909000  1.0 -0.5180819541
O  O18  1  0.24084000  0.93516000  0.33944000  1.0 -0.4906016238
O  O19  1  0.71454000  0.79114000  0.16906000  1.0 -0.5023628421
O  O20  1  0.13974000  0.06772000  0.47768000  1.0 -0.5146743267
O  O21  1  0.92151000  0.61679000  0.15261000  1.0 -0.5180819541
O  O22  1  0.93516000  0.24084000  0.48456000  1.0 -0.4906016238
O  O23  1  0.79114000  0.71454000  0.32526000  1.0 -0.5023628421
O  O24  1  0.06772000  0.13974000  0.31486000  1.0 -0.5146743267
O  O25  1  0.94091000  0.09739000  0.63321000  1.0 -0.5180819541
O  O26  1  0.91056000  0.76544000  0.00916000  1.0 -0.4906016238
O  O27  1  0.08094000  0.92474000  0.53546000  1.0 -0.5023628421
O  O28  1  0.77232000  0.93514000  0.11026000  1.0 -0.5146743267
O  O29  1  0.09739000  0.94091000  0.32849000  1.0 -0.5180819541
O  O30  1  0.76544000  0.91056000  0.31484000  1.0 -0.4906016238
O  O31  1  0.92474000  0.08094000  0.45886000  1.0 -0.5023628421
O  O32  1  0.93514000  0.77232000  0.18228000  1.0 -0.5180819541
