# DDEC6 charges by PACMAN v1.1 (https://github.com/mtap-research/PACMAN-charge/)
data_NUBBAP_ASR_pacman
_symmetry_space_group_name_H-M   'P 1'
_cell_length_a   20.44210000
_cell_length_b   20.44210000
_cell_length_c   20.44210000
_cell_angle_alpha   90.00000000
_cell_angle_beta   90.00000000
_cell_angle_gamma   90.00000000
_symmetry_Int_Tables_number   1
_chemical_formula_structural   Zn11H18(C3O2)18
_chemical_formula_sum   'Zn22 H36 C108 O72'
_cell_volume   8542.33355411
_cell_formula_units_Z   2
loop_
 _symmetry_equiv_pos_site_id
 _symmetry_equiv_pos_as_xyz
  1  'x, y, z'
loop_
 _atom_site_type_symbol
 _atom_site_label
 _atom_site_symmetry_multiplicity
 _atom_site_fract_x
 _atom_site_fract_y
 _atom_site_fract_z
 _atom_site_occupancy
 _atom_site_charge
Zn  Zn1  1  0.00000000  0.00000000  0.42764000  1.0 0.9216549303
Zn  Zn2  1  0.00000000  0.00000000  0.57236000  1.0 0.9216549303
Zn  Zn3  1  0.42764000  0.00000000  0.00000000  1.0 0.9216549303
Zn  Zn4  1  0.57236000  0.00000000  0.00000000  1.0 0.9216549303
Zn  Zn5  1  0.00000000  0.42764000  0.00000000  1.0 0.9216549303
Zn  Zn6  1  0.00000000  0.57236000  0.00000000  1.0 0.9216549303
Zn  Zn7  1  0.33703000  0.33703000  0.33703000  1.0 0.9676408376
Zn  Zn8  1  0.66297000  0.66297000  0.33703000  1.0 0.9676408376
Zn  Zn9  1  0.66297000  0.33703000  0.66297000  1.0 0.9676408376
Zn  Zn10  1  0.33703000  0.66297000  0.66297000  1.0 0.9676408376
Zn  Zn11  1  0.33703000  0.33703000  0.66297000  1.0 0.9676408376
Zn  Zn12  1  0.66297000  0.66297000  0.66297000  1.0 0.9676408376
Zn  Zn13  1  0.33703000  0.66297000  0.33703000  1.0 0.9676408376
Zn  Zn14  1  0.66297000  0.33703000  0.33703000  1.0 0.9676408376
Zn  Zn15  1  0.23769000  0.23769000  0.23769000  1.0 0.9554011877
Zn  Zn16  1  0.76231000  0.76231000  0.23769000  1.0 0.9554011877
Zn  Zn17  1  0.76231000  0.23769000  0.76231000  1.0 0.9554011877
Zn  Zn18  1  0.23769000  0.76231000  0.76231000  1.0 0.9554011877
Zn  Zn19  1  0.23769000  0.23769000  0.76231000  1.0 0.9554011877
Zn  Zn20  1  0.76231000  0.76231000  0.76231000  1.0 0.9554011877
Zn  Zn21  1  0.23769000  0.76231000  0.23769000  1.0 0.9554011877
Zn  Zn22  1  0.76231000  0.23769000  0.23769000  1.0 0.9554011877
H  H1  1  0.26610000  0.26610000  0.50000000  1.0 0.1111711691
H  H2  1  0.73390000  0.73390000  0.50000000  1.0 0.1111711691
H  H3  1  0.73390000  0.26610000  0.50000000  1.0 0.1111711691
H  H4  1  0.26610000  0.73390000  0.50000000  1.0 0.1111711691
H  H5  1  0.50000000  0.26610000  0.26610000  1.0 0.1111711691
H  H6  1  0.50000000  0.73390000  0.73390000  1.0 0.1111711691
H  H7  1  0.50000000  0.73390000  0.26610000  1.0 0.1111711691
H  H8  1  0.50000000  0.26610000  0.73390000  1.0 0.1111711691
H  H9  1  0.26610000  0.50000000  0.26610000  1.0 0.1111711691
H  H10  1  0.73390000  0.50000000  0.73390000  1.0 0.1111711691
H  H11  1  0.26610000  0.50000000  0.73390000  1.0 0.1111711691
H  H12  1  0.73390000  0.50000000  0.26610000  1.0 0.1111711691
H  H13  1  0.14830000  0.14830000  0.40220000  1.0 0.1243323888
H  H14  1  0.85170000  0.85170000  0.40220000  1.0 0.1243323888
H  H15  1  0.85170000  0.14830000  0.59780000  1.0 0.1243323888
H  H16  1  0.14830000  0.85170000  0.59780000  1.0 0.1243323888
H  H17  1  0.40220000  0.14830000  0.14830000  1.0 0.1243323888
H  H18  1  0.40220000  0.85170000  0.85170000  1.0 0.1243323888
H  H19  1  0.59780000  0.85170000  0.14830000  1.0 0.1243323888
H  H20  1  0.59780000  0.14830000  0.85170000  1.0 0.1243323888
H  H21  1  0.14830000  0.40220000  0.14830000  1.0 0.1243323888
H  H22  1  0.85170000  0.40220000  0.85170000  1.0 0.1243323888
H  H23  1  0.14830000  0.59780000  0.85170000  1.0 0.1243323888
H  H24  1  0.85170000  0.59780000  0.14830000  1.0 0.1243323888
H  H25  1  0.14830000  0.14830000  0.59780000  1.0 0.1243323888
H  H26  1  0.85170000  0.85170000  0.59780000  1.0 0.1243323888
H  H27  1  0.14830000  0.85170000  0.40220000  1.0 0.1243323888
H  H28  1  0.85170000  0.14830000  0.40220000  1.0 0.1243323888
H  H29  1  0.14830000  0.40220000  0.85170000  1.0 0.1243323888
H  H30  1  0.85170000  0.40220000  0.14830000  1.0 0.1243323888
H  H31  1  0.85170000  0.59780000  0.85170000  1.0 0.1243323888
H  H32  1  0.14830000  0.59780000  0.14830000  1.0 0.1243323888
H  H33  1  0.40220000  0.14830000  0.85170000  1.0 0.1243323888
H  H34  1  0.40220000  0.85170000  0.14830000  1.0 0.1243323888
H  H35  1  0.59780000  0.14830000  0.14830000  1.0 0.1243323888
H  H36  1  0.59780000  0.85170000  0.85170000  1.0 0.1243323888
C  C1  1  0.21160000  0.21160000  0.44140000  1.0 -0.0609329921
C  C2  1  0.78840000  0.78840000  0.44140000  1.0 -0.0609329921
C  C3  1  0.78840000  0.21160000  0.55860000  1.0 -0.0609329921
C  C4  1  0.21160000  0.78840000  0.55860000  1.0 -0.0609329921
C  C5  1  0.44140000  0.21160000  0.21160000  1.0 -0.0609329921
C  C6  1  0.44140000  0.78840000  0.78840000  1.0 -0.0609329921
C  C7  1  0.55860000  0.78840000  0.21160000  1.0 -0.0609329921
C  C8  1  0.55860000  0.21160000  0.78840000  1.0 -0.0609329921
C  C9  1  0.21160000  0.44140000  0.21160000  1.0 -0.0609329921
C  C10  1  0.78840000  0.44140000  0.78840000  1.0 -0.0609329921
C  C11  1  0.21160000  0.55860000  0.78840000  1.0 -0.0609329921
C  C12  1  0.78840000  0.55860000  0.21160000  1.0 -0.0609329921
C  C13  1  0.21160000  0.21160000  0.55860000  1.0 -0.0609329921
C  C14  1  0.78840000  0.78840000  0.55860000  1.0 -0.0609329921
C  C15  1  0.21160000  0.78840000  0.44140000  1.0 -0.0609329921
C  C16  1  0.78840000  0.21160000  0.44140000  1.0 -0.0609329921
C  C17  1  0.21160000  0.44140000  0.78840000  1.0 -0.0609329921
C  C18  1  0.78840000  0.44140000  0.21160000  1.0 -0.0609329921
C  C19  1  0.78840000  0.55860000  0.78840000  1.0 -0.0609329921
C  C20  1  0.21160000  0.55860000  0.21160000  1.0 -0.0609329921
C  C21  1  0.44140000  0.21160000  0.78840000  1.0 -0.0609329921
C  C22  1  0.44140000  0.78840000  0.21160000  1.0 -0.0609329921
C  C23  1  0.55860000  0.21160000  0.21160000  1.0 -0.0609329921
C  C24  1  0.55860000  0.78840000  0.78840000  1.0 -0.0609329921
C  C25  1  0.23390000  0.23390000  0.50000000  1.0 -0.088376714
C  C26  1  0.76610000  0.76610000  0.50000000  1.0 -0.088376714
C  C27  1  0.76610000  0.23390000  0.50000000  1.0 -0.088376714
C  C28  1  0.23390000  0.76610000  0.50000000  1.0 -0.088376714
C  C29  1  0.50000000  0.23390000  0.23390000  1.0 -0.088376714
C  C30  1  0.50000000  0.76610000  0.76610000  1.0 -0.088376714
C  C31  1  0.50000000  0.76610000  0.23390000  1.0 -0.088376714
C  C32  1  0.50000000  0.23390000  0.76610000  1.0 -0.088376714
C  C33  1  0.23390000  0.50000000  0.23390000  1.0 -0.088376714
C  C34  1  0.76610000  0.50000000  0.76610000  1.0 -0.088376714
C  C35  1  0.23390000  0.50000000  0.76610000  1.0 -0.088376714
C  C36  1  0.76610000  0.50000000  0.23390000  1.0 -0.088376714
C  C37  1  0.23900000  0.23900000  0.37980000  1.0 0.6008068751
C  C38  1  0.76100000  0.76100000  0.37980000  1.0 0.6008068751
C  C39  1  0.76100000  0.23900000  0.62020000  1.0 0.6008068751
C  C40  1  0.23900000  0.76100000  0.62020000  1.0 0.6008068751
C  C41  1  0.37980000  0.23900000  0.23900000  1.0 0.6008068751
C  C42  1  0.37980000  0.76100000  0.76100000  1.0 0.6008068751
C  C43  1  0.62020000  0.76100000  0.23900000  1.0 0.6008068751
C  C44  1  0.62020000  0.23900000  0.76100000  1.0 0.6008068751
C  C45  1  0.23900000  0.37980000  0.23900000  1.0 0.6008068751
C  C46  1  0.76100000  0.37980000  0.76100000  1.0 0.6008068751
C  C47  1  0.23900000  0.62020000  0.76100000  1.0 0.6008068751
C  C48  1  0.76100000  0.62020000  0.23900000  1.0 0.6008068751
C  C49  1  0.23900000  0.23900000  0.62020000  1.0 0.6008068751
C  C50  1  0.76100000  0.76100000  0.62020000  1.0 0.6008068751
C  C51  1  0.23900000  0.76100000  0.37980000  1.0 0.6008068751
C  C52  1  0.76100000  0.23900000  0.37980000  1.0 0.6008068751
C  C53  1  0.23900000  0.37980000  0.76100000  1.0 0.6008068751
C  C54  1  0.76100000  0.37980000  0.23900000  1.0 0.6008068751
C  C55  1  0.76100000  0.62020000  0.76100000  1.0 0.6008068751
C  C56  1  0.23900000  0.62020000  0.23900000  1.0 0.6008068751
C  C57  1  0.37980000  0.23900000  0.76100000  1.0 0.6008068751
C  C58  1  0.37980000  0.76100000  0.23900000  1.0 0.6008068751
C  C59  1  0.62020000  0.23900000  0.23900000  1.0 0.6008068751
C  C60  1  0.62020000  0.76100000  0.76100000  1.0 0.6008068751
C  C61  1  0.13990000  0.13990000  0.50000000  1.0 -0.0440561797
C  C62  1  0.86010000  0.86010000  0.50000000  1.0 -0.0440561797
C  C63  1  0.86010000  0.13990000  0.50000000  1.0 -0.0440561797
C  C64  1  0.13990000  0.86010000  0.50000000  1.0 -0.0440561797
C  C65  1  0.50000000  0.13990000  0.13990000  1.0 -0.0440561797
C  C66  1  0.50000000  0.86010000  0.86010000  1.0 -0.0440561797
C  C67  1  0.50000000  0.86010000  0.13990000  1.0 -0.0440561797
C  C68  1  0.50000000  0.13990000  0.86010000  1.0 -0.0440561797
C  C69  1  0.13990000  0.50000000  0.13990000  1.0 -0.0450505484
C  C70  1  0.86010000  0.50000000  0.86010000  1.0 -0.0440561797
C  C71  1  0.13990000  0.50000000  0.86010000  1.0 -0.0440561797
C  C72  1  0.86010000  0.50000000  0.13990000  1.0 -0.0440561797
C  C73  1  0.16430000  0.16430000  0.44160000  1.0 -0.088376714
C  C74  1  0.83570000  0.83570000  0.44160000  1.0 -0.088376714
C  C75  1  0.83570000  0.16430000  0.55840000  1.0 -0.088376714
C  C76  1  0.16430000  0.83570000  0.55840000  1.0 -0.088376714
C  C77  1  0.44160000  0.16430000  0.16430000  1.0 -0.088376714
C  C78  1  0.44160000  0.83570000  0.83570000  1.0 -0.088376714
C  C79  1  0.55840000  0.83570000  0.16430000  1.0 -0.088376714
C  C80  1  0.55840000  0.16430000  0.83570000  1.0 -0.088376714
C  C81  1  0.16430000  0.44160000  0.16430000  1.0 -0.088376714
C  C82  1  0.83570000  0.44160000  0.83570000  1.0 -0.088376714
C  C83  1  0.16430000  0.55840000  0.83570000  1.0 -0.088376714
C  C84  1  0.83570000  0.55840000  0.16430000  1.0 -0.088376714
C  C85  1  0.16430000  0.16430000  0.55840000  1.0 -0.088376714
C  C86  1  0.83570000  0.83570000  0.55840000  1.0 -0.088376714
C  C87  1  0.16430000  0.83570000  0.44160000  1.0 -0.088376714
C  C88  1  0.83570000  0.16430000  0.44160000  1.0 -0.088376714
C  C89  1  0.16430000  0.44160000  0.83570000  1.0 -0.088376714
C  C90  1  0.83570000  0.44160000  0.16430000  1.0 -0.088376714
C  C91  1  0.83570000  0.55840000  0.83570000  1.0 -0.088376714
C  C92  1  0.16430000  0.55840000  0.16430000  1.0 -0.088376714
C  C93  1  0.44160000  0.16430000  0.83570000  1.0 -0.088376714
C  C94  1  0.44160000  0.83570000  0.16430000  1.0 -0.088376714
C  C95  1  0.55840000  0.16430000  0.16430000  1.0 -0.088376714
C  C96  1  0.55840000  0.83570000  0.83570000  1.0 -0.088376714
C  C97  1  0.08740000  0.08740000  0.50000000  1.0 0.5829899366
C  C98  1  0.91260000  0.91260000  0.50000000  1.0 0.5829899366
C  C99  1  0.91260000  0.08740000  0.50000000  1.0 0.5829899366
C  C100  1  0.08740000  0.91260000  0.50000000  1.0 0.5829899366
C  C101  1  0.50000000  0.08740000  0.08740000  1.0 0.5829899366
C  C102  1  0.50000000  0.91260000  0.91260000  1.0 0.5829899366
C  C103  1  0.50000000  0.91260000  0.08740000  1.0 0.5829899366
C  C104  1  0.50000000  0.08740000  0.91260000  1.0 0.5829899366
C  C105  1  0.08740000  0.50000000  0.08740000  1.0 0.5829899366
C  C106  1  0.91260000  0.50000000  0.91260000  1.0 0.5829899366
C  C107  1  0.08740000  0.50000000  0.91260000  1.0 0.5829899366
C  C108  1  0.91260000  0.50000000  0.08740000  1.0 0.5829899366
O  O1  1  0.28190000  0.28190000  0.38700000  1.0 -0.5986818665
O  O2  1  0.71810000  0.71810000  0.38700000  1.0 -0.5986818665
O  O3  1  0.71810000  0.28190000  0.61300000  1.0 -0.5986818665
O  O4  1  0.28190000  0.71810000  0.61300000  1.0 -0.5986818665
O  O5  1  0.38700000  0.28190000  0.28190000  1.0 -0.5986818665
O  O6  1  0.38700000  0.71810000  0.71810000  1.0 -0.5986818665
O  O7  1  0.61300000  0.71810000  0.28190000  1.0 -0.5986818665
O  O8  1  0.61300000  0.28190000  0.71810000  1.0 -0.5986818665
O  O9  1  0.28190000  0.38700000  0.28190000  1.0 -0.5986818665
O  O10  1  0.71810000  0.38700000  0.71810000  1.0 -0.5986818665
O  O11  1  0.28190000  0.61300000  0.71810000  1.0 -0.5986818665
O  O12  1  0.71810000  0.61300000  0.28190000  1.0 -0.5986818665
O  O13  1  0.28190000  0.28190000  0.61300000  1.0 -0.5986818665
O  O14  1  0.71810000  0.71810000  0.61300000  1.0 -0.5986818665
O  O15  1  0.28190000  0.71810000  0.38700000  1.0 -0.5986818665
O  O16  1  0.71810000  0.28190000  0.38700000  1.0 -0.5986818665
O  O17  1  0.28190000  0.38700000  0.71810000  1.0 -0.5986818665
O  O18  1  0.71810000  0.38700000  0.28190000  1.0 -0.5986818665
O  O19  1  0.71810000  0.61300000  0.71810000  1.0 -0.5986818665
O  O20  1  0.28190000  0.61300000  0.28190000  1.0 -0.5986818665
O  O21  1  0.38700000  0.28190000  0.71810000  1.0 -0.5986818665
O  O22  1  0.38700000  0.71810000  0.28190000  1.0 -0.5986818665
O  O23  1  0.61300000  0.28190000  0.28190000  1.0 -0.5986818665
O  O24  1  0.61300000  0.71810000  0.71810000  1.0 -0.5986818665
O  O25  1  0.21700000  0.21700000  0.32790000  1.0 -0.5759408965
O  O26  1  0.78300000  0.78300000  0.32790000  1.0 -0.5759408965
O  O27  1  0.78300000  0.21700000  0.67210000  1.0 -0.5759408965
O  O28  1  0.21700000  0.78300000  0.67210000  1.0 -0.5759408965
O  O29  1  0.32790000  0.21700000  0.21700000  1.0 -0.5759408965
O  O30  1  0.32790000  0.78300000  0.78300000  1.0 -0.5759408965
O  O31  1  0.67210000  0.78300000  0.21700000  1.0 -0.5759408965
O  O32  1  0.67210000  0.21700000  0.78300000  1.0 -0.5759408965
O  O33  1  0.21700000  0.32790000  0.21700000  1.0 -0.5759408965
O  O34  1  0.78300000  0.32790000  0.78300000  1.0 -0.5759408965
O  O35  1  0.21700000  0.67210000  0.78300000  1.0 -0.5759408965
O  O36  1  0.78300000  0.67210000  0.21700000  1.0 -0.5759408965
O  O37  1  0.21700000  0.21700000  0.67210000  1.0 -0.5759408965
O  O38  1  0.78300000  0.78300000  0.67210000  1.0 -0.5759408965
O  O39  1  0.21700000  0.78300000  0.32790000  1.0 -0.5759408965
O  O40  1  0.78300000  0.21700000  0.32790000  1.0 -0.5759408965
O  O41  1  0.21700000  0.32790000  0.78300000  1.0 -0.5759408965
O  O42  1  0.78300000  0.32790000  0.21700000  1.0 -0.5759408965
O  O43  1  0.78300000  0.67210000  0.78300000  1.0 -0.5759408965
O  O44  1  0.21700000  0.67210000  0.21700000  1.0 -0.5759408965
O  O45  1  0.32790000  0.21700000  0.78300000  1.0 -0.5759408965
O  O46  1  0.32790000  0.78300000  0.21700000  1.0 -0.5759408965
O  O47  1  0.67210000  0.21700000  0.21700000  1.0 -0.5759408965
O  O48  1  0.67210000  0.78300000  0.78300000  1.0 -0.5759408965
O  O49  1  0.06881000  0.06881000  0.44450000  1.0 -0.5534572099
O  O50  1  0.93119000  0.93119000  0.44450000  1.0 -0.5534572099
O  O51  1  0.93119000  0.06881000  0.55550000  1.0 -0.5534572099
O  O52  1  0.06881000  0.93119000  0.55550000  1.0 -0.5534572099
O  O53  1  0.44450000  0.06881000  0.06881000  1.0 -0.5534572099
O  O54  1  0.44450000  0.93119000  0.93119000  1.0 -0.5534572099
O  O55  1  0.55550000  0.93119000  0.06881000  1.0 -0.5534572099
O  O56  1  0.55550000  0.06881000  0.93119000  1.0 -0.5534572099
O  O57  1  0.06881000  0.44450000  0.06881000  1.0 -0.5534572099
O  O58  1  0.93119000  0.44450000  0.93119000  1.0 -0.5534572099
O  O59  1  0.06881000  0.55550000  0.93119000  1.0 -0.5534572099
O  O60  1  0.93119000  0.55550000  0.06881000  1.0 -0.5534572099
O  O61  1  0.06881000  0.06881000  0.55550000  1.0 -0.5534572099
O  O62  1  0.93119000  0.93119000  0.55550000  1.0 -0.5534572099
O  O63  1  0.06881000  0.93119000  0.44450000  1.0 -0.5534572099
O  O64  1  0.93119000  0.06881000  0.44450000  1.0 -0.5534572099
O  O65  1  0.06881000  0.44450000  0.93119000  1.0 -0.5534572099
O  O66  1  0.93119000  0.44450000  0.06881000  1.0 -0.5534572099
O  O67  1  0.93119000  0.55550000  0.93119000  1.0 -0.5534572099
O  O68  1  0.06881000  0.55550000  0.06881000  1.0 -0.5534572099
O  O69  1  0.44450000  0.06881000  0.93119000  1.0 -0.5534572099
O  O70  1  0.44450000  0.93119000  0.06881000  1.0 -0.5534572099
O  O71  1  0.55550000  0.06881000  0.06881000  1.0 -0.5534572099
O  O72  1  0.55550000  0.93119000  0.93119000  1.0 -0.5534572099
