# DDEC6 charges by PACMAN v1.1 (https://github.com/mtap-research/PACMAN-charge/)
data_NUBPAE04_FSR_pacman
_symmetry_space_group_name_H-M   'P 1'
_cell_length_a   9.09196000
_cell_length_b   9.09196000
_cell_length_c   22.83000000
_cell_angle_alpha   81.12360000
_cell_angle_beta   98.87640000
_cell_angle_gamma   80.20260000
_symmetry_Int_Tables_number   1
_chemical_formula_structural   FeH22C28(SN3)2
_chemical_formula_sum   'Fe2 H44 C56 S4 N12'
_cell_volume   1805.54300101
_cell_formula_units_Z   2
loop_
 _symmetry_equiv_pos_site_id
 _symmetry_equiv_pos_as_xyz
  1  'x, y, z'
loop_
 _atom_site_type_symbol
 _atom_site_label
 _atom_site_symmetry_multiplicity
 _atom_site_fract_x
 _atom_site_fract_y
 _atom_site_fract_z
 _atom_site_occupancy
 _atom_site_charge
Fe  Fe1  1  0.75277000  0.75277000  0.75000000  1.0 0.6957419777
Fe  Fe2  1  0.24723000  0.24723000  0.25000000  1.0 0.6957419777
H  H1  1  0.65922000  0.82756000  0.60524000  1.0 0.1087236995
H  H2  1  0.72659000  0.75861000  0.51919000  1.0 0.1305863722
H  H3  1  0.06190000  0.44192000  0.62006000  1.0 0.1206094334
H  H4  1  0.98332000  0.51574000  0.70334000  1.0 0.0837525094
H  H5  1  0.88528000  0.60846000  0.46641000  1.0 0.1206094334
H  H6  1  0.96760000  0.90334000  0.67132000  1.0 0.0987231696
H  H7  1  0.12995000  0.06249000  0.66954000  1.0 0.1206094334
H  H8  1  0.18659000  0.29707000  0.79517000  1.0 0.1206094334
H  H9  1  0.72677000  0.42567000  0.72928000  1.0 0.0987231696
H  H10  1  0.56191000  0.26079000  0.72450000  1.0 0.1206094334
H  H11  1  0.33793000  0.20177000  0.70556000  1.0 0.1087236995
H  H12  1  0.82756000  0.65922000  0.89476000  1.0 0.1087236995
H  H13  1  0.75861000  0.72659000  0.98081000  1.0 0.1305863722
H  H14  1  0.44192000  0.06190000  0.87994000  1.0 0.1206094334
H  H15  1  0.51574000  0.98332000  0.79666000  1.0 0.0837525094
H  H16  1  0.60846000  0.88528000  0.03359000  1.0 0.1206094334
H  H17  1  0.90334000  0.96760000  0.82868000  1.0 0.0987231696
H  H18  1  0.06249000  0.12995000  0.83046000  1.0 0.1206094334
H  H19  1  0.29707000  0.18659000  0.70483000  1.0 0.1206094334
H  H20  1  0.42567000  0.72677000  0.77072000  1.0 0.0987231696
H  H21  1  0.26079000  0.56191000  0.77550000  1.0 0.1206094334
H  H22  1  0.20177000  0.33793000  0.79444000  1.0 0.1087236995
H  H23  1  0.34078000  0.17244000  0.39476000  1.0 0.1087236995
H  H24  1  0.27341000  0.24139000  0.48081000  1.0 0.1305863722
H  H25  1  0.93810000  0.55808000  0.37994000  1.0 0.1206094334
H  H26  1  0.01668000  0.48426000  0.29666000  1.0 0.0837525094
H  H27  1  0.11472000  0.39154000  0.53359000  1.0 0.1206094334
H  H28  1  0.03240000  0.09666000  0.32868000  1.0 0.0987231696
H  H29  1  0.87005000  0.93751000  0.33046000  1.0 0.1206094334
H  H30  1  0.81341000  0.70293000  0.20483000  1.0 0.1206094334
H  H31  1  0.27323000  0.57433000  0.27072000  1.0 0.0987231696
H  H32  1  0.43809000  0.73921000  0.27550000  1.0 0.1206094334
H  H33  1  0.66207000  0.79823000  0.29444000  1.0 0.1087236995
H  H34  1  0.17244000  0.34078000  0.10524000  1.0 0.1087236995
H  H35  1  0.24139000  0.27341000  0.01919000  1.0 0.1305863722
H  H36  1  0.55808000  0.93810000  0.12006000  1.0 0.1206094334
H  H37  1  0.48426000  0.01668000  0.20334000  1.0 0.0837525094
H  H38  1  0.39154000  0.11472000  0.96641000  1.0 0.1206094334
H  H39  1  0.09666000  0.03240000  0.17132000  1.0 0.0987231696
H  H40  1  0.93751000  0.87005000  0.16954000  1.0 0.1206094334
H  H41  1  0.70293000  0.81341000  0.29517000  1.0 0.1206094334
H  H42  1  0.57433000  0.27323000  0.22928000  1.0 0.0987231696
H  H43  1  0.73921000  0.43809000  0.22450000  1.0 0.1206094334
H  H44  1  0.79823000  0.66207000  0.20556000  1.0 0.1087236995
C  C1  1  0.74240000  0.74940000  0.60870000  1.0 0.086649228
C  C2  1  0.78310000  0.70770000  0.55650000  1.0 -0.1811198926
C  C3  1  0.90380000  0.59400000  0.55860000  1.0 0.1530473867
C  C4  1  0.97940000  0.52160000  0.61540000  1.0 -0.211133877
C  C5  1  0.93150000  0.56830000  0.66560000  1.0 0.069781921
C  C6  1  0.94500000  0.55260000  0.50230000  1.0 -0.1144970244
C  C7  1  0.98640000  0.94920000  0.70470000  1.0 0.069781921
C  C8  1  0.08470000  0.04570000  0.70320000  1.0 -0.2502832784
C  C9  1  0.20680000  0.24080000  0.76560000  1.0 -0.0438917501
C  C10  1  0.63010000  0.45570000  0.73740000  1.0 0.0987231696
C  C11  1  0.53230000  0.35410000  0.73550000  1.0 -0.2502832784
C  C12  1  0.31280000  0.25980000  0.73400000  1.0 -0.0550370513
C  C13  1  0.51480000  0.01860000  0.65800000  1.0 0.2307342069
C  C14  1  0.74940000  0.74240000  0.89130000  1.0 0.086649228
C  C15  1  0.70770000  0.78310000  0.94350000  1.0 -0.1811198926
C  C16  1  0.59400000  0.90380000  0.94140000  1.0 0.1530473867
C  C17  1  0.52160000  0.97940000  0.88460000  1.0 -0.211133877
C  C18  1  0.56830000  0.93150000  0.83440000  1.0 0.069781921
C  C19  1  0.55260000  0.94500000  0.99770000  1.0 -0.1144970244
C  C20  1  0.94920000  0.98640000  0.79530000  1.0 0.069781921
C  C21  1  0.04570000  0.08470000  0.79680000  1.0 -0.2502832784
C  C22  1  0.24080000  0.20680000  0.73440000  1.0 -0.0438917501
C  C23  1  0.45570000  0.63010000  0.76260000  1.0 0.0987231696
C  C24  1  0.35410000  0.53230000  0.76450000  1.0 -0.2502832784
C  C25  1  0.25980000  0.31280000  0.76600000  1.0 -0.0550370513
C  C26  1  0.01860000  0.51480000  0.84200000  1.0 0.2307342069
C  C27  1  0.25760000  0.25060000  0.39130000  1.0 0.086649228
C  C28  1  0.21690000  0.29230000  0.44350000  1.0 -0.1811198926
C  C29  1  0.09620000  0.40600000  0.44140000  1.0 0.1530473867
C  C30  1  0.02060000  0.47840000  0.38460000  1.0 -0.211133877
C  C31  1  0.06850000  0.43170000  0.33440000  1.0 0.069781921
C  C32  1  0.05500000  0.44740000  0.49770000  1.0 -0.1144970244
C  C33  1  0.01360000  0.05080000  0.29530000  1.0 0.069781921
C  C34  1  0.91530000  0.95430000  0.29680000  1.0 -0.2502832784
C  C35  1  0.79320000  0.75920000  0.23440000  1.0 -0.0438917501
C  C36  1  0.36990000  0.54430000  0.26260000  1.0 0.0987231696
C  C37  1  0.46770000  0.64590000  0.26450000  1.0 -0.2502832784
C  C38  1  0.68720000  0.74020000  0.26600000  1.0 -0.0550370513
C  C39  1  0.48520000  0.98140000  0.34200000  1.0 0.2307342069
C  C40  1  0.25060000  0.25760000  0.10870000  1.0 0.086649228
C  C41  1  0.29230000  0.21690000  0.05650000  1.0 -0.1811198926
C  C42  1  0.40600000  0.09620000  0.05860000  1.0 0.1530473867
C  C43  1  0.47840000  0.02060000  0.11540000  1.0 -0.211133877
C  C44  1  0.43170000  0.06850000  0.16560000  1.0 0.069781921
C  C45  1  0.44740000  0.05500000  0.00230000  1.0 -0.1144970244
C  C46  1  0.05080000  0.01360000  0.20470000  1.0 0.069781921
C  C47  1  0.95430000  0.91530000  0.20320000  1.0 -0.2502832784
C  C48  1  0.75920000  0.79320000  0.26560000  1.0 -0.0438917501
C  C49  1  0.54430000  0.36990000  0.23740000  1.0 0.0987231696
C  C50  1  0.64590000  0.46770000  0.23550000  1.0 -0.2502832784
C  C51  1  0.74020000  0.68720000  0.23400000  1.0 -0.0546213722
C  C52  1  0.98140000  0.48520000  0.15800000  1.0 0.2307342069
C  C53  1  0.11880000  0.11880000  0.75000000  1.0 0.1087236995
C  C54  1  0.39220000  0.39220000  0.75000000  1.0 0.1305863722
C  C55  1  0.88120000  0.88120000  0.25000000  1.0 0.1087236995
C  C56  1  0.60780000  0.60780000  0.25000000  1.0 0.1305863722
S  S1  1  0.42395000  0.14595000  0.60122000  1.0 -0.3745982981
S  S2  1  0.14595000  0.42395000  0.89878000  1.0 -0.3745982981
S  S3  1  0.57605000  0.85405000  0.39878000  1.0 -0.3745982981
S  S4  1  0.85405000  0.57605000  0.10122000  1.0 -0.3754994011
N  N1  1  0.81850000  0.68130000  0.66381000  1.0 -0.219583417
N  N2  1  0.58170000  0.92690000  0.69840000  1.0 -0.4905033892
N  N3  1  0.68130000  0.81850000  0.83619000  1.0 -0.219583417
N  N4  1  0.92690000  0.58170000  0.80160000  1.0 -0.4905033892
N  N5  1  0.18150000  0.31870000  0.33619000  1.0 -0.219583417
N  N6  1  0.41830000  0.07310000  0.30160000  1.0 -0.4905033892
N  N7  1  0.31870000  0.18150000  0.16381000  1.0 -0.219583417
N  N8  1  0.07310000  0.41830000  0.19840000  1.0 -0.4905033892
N  N9  1  0.91460000  0.91460000  0.75000000  1.0 -0.219583417
N  N10  1  0.59330000  0.59330000  0.75000000  1.0 -0.211133877
N  N11  1  0.08540000  0.08540000  0.25000000  1.0 -0.219583417
N  N12  1  0.40670000  0.40670000  0.25000000  1.0 -0.219583417
