# DDEC6 charges by PACMAN v1.1 (https://github.com/mtap-research/PACMAN-charge/)
data_NUBPAE02_FSR_pacman
_symmetry_space_group_name_H-M   'P 1'
_cell_length_a   9.69930000
_cell_length_b   13.85570000
_cell_length_c   14.42670000
_cell_angle_alpha   90.00000000
_cell_angle_beta   112.46500000
_cell_angle_gamma   90.00000000
_symmetry_Int_Tables_number   1
_chemical_formula_structural   FeH24C30(SN3)2
_chemical_formula_sum   'Fe2 H48 C60 S4 N12'
_cell_volume   1791.68230539
_cell_formula_units_Z   2
loop_
 _symmetry_equiv_pos_site_id
 _symmetry_equiv_pos_as_xyz
  1  'x, y, z'
loop_
 _atom_site_type_symbol
 _atom_site_label
 _atom_site_symmetry_multiplicity
 _atom_site_fract_x
 _atom_site_fract_y
 _atom_site_fract_z
 _atom_site_occupancy
 _atom_site_charge
Fe  Fe1  1  0.00000000  0.60497000  0.75000000  1.0 0.7131212126
Fe  Fe2  1  0.00000000  0.39503000  0.25000000  1.0 0.7131212126
H  H1  1  0.02400000  0.61250000  0.97890000  1.0 0.1033135176
H  H2  1  0.34530000  0.60650000  0.88090000  1.0 0.1033135176
H  H3  1  0.21580000  0.78110000  0.79610000  1.0 0.1101347694
H  H4  1  0.19650000  0.61230000  0.14210000  1.0 0.1178685577
H  H5  1  0.51990000  0.60790000  0.03790000  1.0 0.1178685577
H  H6  1  0.22230000  0.94480000  0.79820000  1.0 0.1178685577
H  H7  1  0.60290000  0.60450000  0.20570000  1.0 0.1178685577
H  H8  1  0.17130000  0.25940000  0.88220000  1.0 0.1178685577
H  H9  1  0.16630000  0.42400000  0.87880000  1.0 0.1033135176
H  H10  1  0.37040000  0.61650000  0.26600000  1.0 0.1178685577
H  H11  1  0.84860000  0.08840000  0.69080000  1.0 0.1101347694
H  H12  1  0.84610000  0.11520000  0.69240000  1.0 0.1101347694
H  H13  1  0.97600000  0.61250000  0.52110000  1.0 0.1033135176
H  H14  1  0.65470000  0.60650000  0.61910000  1.0 0.1033135176
H  H15  1  0.78420000  0.78110000  0.70390000  1.0 0.1101347694
H  H16  1  0.80350000  0.61230000  0.35790000  1.0 0.1178685577
H  H17  1  0.48010000  0.60790000  0.46210000  1.0 0.1178685577
H  H18  1  0.77770000  0.94480000  0.70180000  1.0 0.1178685577
H  H19  1  0.39710000  0.60450000  0.29430000  1.0 0.1178685577
H  H20  1  0.82870000  0.25940000  0.61780000  1.0 0.1178685577
H  H21  1  0.83370000  0.42400000  0.62120000  1.0 0.1033135176
H  H22  1  0.62960000  0.61650000  0.23400000  1.0 0.1178685577
H  H23  1  0.15140000  0.08840000  0.80920000  1.0 0.1101347694
H  H24  1  0.15390000  0.11520000  0.80760000  1.0 0.1101347694
H  H25  1  0.97600000  0.38750000  0.02110000  1.0 0.1033135176
H  H26  1  0.65470000  0.39350000  0.11910000  1.0 0.1033135176
H  H27  1  0.78420000  0.21890000  0.20390000  1.0 0.1101347694
H  H28  1  0.80350000  0.38770000  0.85790000  1.0 0.1178685577
H  H29  1  0.48010000  0.39210000  0.96210000  1.0 0.1178685577
H  H30  1  0.77770000  0.05520000  0.20180000  1.0 0.1178685577
H  H31  1  0.39710000  0.39550000  0.79430000  1.0 0.1178685577
H  H32  1  0.82870000  0.74060000  0.11780000  1.0 0.1178685577
H  H33  1  0.83370000  0.57600000  0.12120000  1.0 0.1033135176
H  H34  1  0.62960000  0.38350000  0.73400000  1.0 0.1178685577
H  H35  1  0.15140000  0.91160000  0.30920000  1.0 0.1101347694
H  H36  1  0.15390000  0.88480000  0.30760000  1.0 0.1101347694
H  H37  1  0.02400000  0.38750000  0.47890000  1.0 0.1033135176
H  H38  1  0.34530000  0.39350000  0.38090000  1.0 0.1033135176
H  H39  1  0.21580000  0.21890000  0.29610000  1.0 0.1101347694
H  H40  1  0.19650000  0.38770000  0.64210000  1.0 0.1178685577
H  H41  1  0.51990000  0.39210000  0.53790000  1.0 0.1178685577
H  H42  1  0.22230000  0.05520000  0.29820000  1.0 0.1178685577
H  H43  1  0.60290000  0.39550000  0.70570000  1.0 0.1178685577
H  H44  1  0.17130000  0.74060000  0.38220000  1.0 0.1178685577
H  H45  1  0.16630000  0.57600000  0.37880000  1.0 0.1033135176
H  H46  1  0.37040000  0.38350000  0.76600000  1.0 0.1178685577
H  H47  1  0.84860000  0.91160000  0.19080000  1.0 0.1101347694
H  H48  1  0.84610000  0.88480000  0.19240000  1.0 0.1101347694
C  C1  1  0.12500000  0.61080000  0.99040000  1.0 0.0900345999
C  C2  1  0.31330000  0.60750000  0.93400000  1.0 0.061688406
C  C3  1  0.12630000  0.81480000  0.77710000  1.0 0.0813237517
C  C4  1  0.25090000  0.63290000  0.65980000  1.0 0.255273975
C  C5  1  0.22940000  0.61080000  0.08950000  1.0 -0.2559662093
C  C6  1  0.41970000  0.60800000  0.02880000  1.0 -0.2254827697
C  C7  1  0.13100000  0.91310000  0.77830000  1.0 -0.236295857
C  C8  1  0.38170000  0.60860000  0.11010000  1.0 0.1178685577
C  C9  1  0.50720000  0.60610000  0.20590000  1.0 -0.0587166627
C  C10  1  0.94660000  0.07070000  0.72870000  1.0 -0.0493297528
C  C11  1  0.94460000  0.13280000  0.72960000  1.0 -0.0493297528
C  C12  1  0.10100000  0.29140000  0.82800000  1.0 -0.2546543111
C  C13  1  0.09720000  0.39050000  0.82520000  1.0 0.0064774929
C  C14  1  0.43400000  0.61390000  0.23140000  1.0 -0.0493297528
C  C15  1  0.87500000  0.61080000  0.50960000  1.0 0.0900345999
C  C16  1  0.68670000  0.60750000  0.56600000  1.0 0.061688406
C  C17  1  0.87370000  0.81480000  0.72290000  1.0 0.0813237517
C  C18  1  0.74910000  0.63290000  0.84020000  1.0 0.255273975
C  C19  1  0.77060000  0.61080000  0.41050000  1.0 -0.2559662093
C  C20  1  0.58030000  0.60800000  0.47120000  1.0 -0.2254827697
C  C21  1  0.86900000  0.91310000  0.72170000  1.0 -0.236295857
C  C22  1  0.61830000  0.60860000  0.38990000  1.0 0.1178685577
C  C23  1  0.49280000  0.60610000  0.29410000  1.0 -0.0587166627
C  C24  1  0.05340000  0.07070000  0.77130000  1.0 -0.0493297528
C  C25  1  0.05540000  0.13280000  0.77040000  1.0 -0.0493297528
C  C26  1  0.89900000  0.29140000  0.67200000  1.0 -0.2559662093
C  C27  1  0.90280000  0.39050000  0.67480000  1.0 0.0064774929
C  C28  1  0.56600000  0.61390000  0.26860000  1.0 -0.0493297528
C  C29  1  0.00000000  0.96580000  0.75000000  1.0 0.1550491075
C  C30  1  0.00000000  0.23970000  0.75000000  1.0 0.1426556479
C  C31  1  0.87500000  0.38920000  0.00960000  1.0 0.0900345999
C  C32  1  0.68670000  0.39250000  0.06600000  1.0 0.061688406
C  C33  1  0.87370000  0.18520000  0.22290000  1.0 0.0813237517
C  C34  1  0.74910000  0.36710000  0.34020000  1.0 0.255273975
C  C35  1  0.77060000  0.38920000  0.91050000  1.0 -0.2559662093
C  C36  1  0.58030000  0.39200000  0.97120000  1.0 -0.2254827697
C  C37  1  0.86900000  0.08690000  0.22170000  1.0 -0.236295857
C  C38  1  0.61830000  0.39140000  0.88990000  1.0 0.1178685577
C  C39  1  0.49280000  0.39390000  0.79410000  1.0 -0.0587166627
C  C40  1  0.05340000  0.92930000  0.27130000  1.0 -0.0493297528
C  C41  1  0.05540000  0.86720000  0.27040000  1.0 -0.0493297528
C  C42  1  0.89900000  0.70860000  0.17200000  1.0 -0.2559662093
C  C43  1  0.90280000  0.60950000  0.17480000  1.0 0.0064774929
C  C44  1  0.56600000  0.38610000  0.76860000  1.0 -0.0493297528
C  C45  1  0.12500000  0.38920000  0.49040000  1.0 0.0900345999
C  C46  1  0.31330000  0.39250000  0.43400000  1.0 0.061688406
C  C47  1  0.12630000  0.18520000  0.27710000  1.0 0.0813237517
C  C48  1  0.25090000  0.36710000  0.15980000  1.0 0.255273975
C  C49  1  0.22940000  0.38920000  0.58950000  1.0 -0.2546543111
C  C50  1  0.41970000  0.39200000  0.52880000  1.0 -0.2185013108
C  C51  1  0.13100000  0.08690000  0.27830000  1.0 -0.236295857
C  C52  1  0.38170000  0.39140000  0.61010000  1.0 0.1178685577
C  C53  1  0.50720000  0.39390000  0.70590000  1.0 -0.0587166627
C  C54  1  0.94660000  0.92930000  0.22870000  1.0 -0.0493297528
C  C55  1  0.94460000  0.86720000  0.22960000  1.0 -0.0493297528
C  C56  1  0.10100000  0.70860000  0.32800000  1.0 -0.2559662093
C  C57  1  0.09720000  0.60950000  0.32520000  1.0 0.0064774929
C  C58  1  0.43400000  0.38610000  0.73140000  1.0 -0.0493297528
C  C59  1  0.00000000  0.03420000  0.25000000  1.0 0.1527206819
C  C60  1  0.00000000  0.76030000  0.25000000  1.0 0.1426556479
S  S1  1  0.35071000  0.67164000  0.60070000  1.0 -0.3598539759
S  S2  1  0.64929000  0.67164000  0.89930000  1.0 -0.3598539759
S  S3  1  0.64929000  0.32836000  0.39930000  1.0 -0.3598539759
S  S4  1  0.35071000  0.32836000  0.10070000  1.0 -0.3598539759
N  N1  1  0.16604000  0.60850000  0.91194000  1.0 -0.2185013108
N  N2  1  0.17733000  0.60490000  0.70143000  1.0 -0.4901816179
N  N3  1  0.83396000  0.60850000  0.58806000  1.0 -0.2185013108
N  N4  1  0.82267000  0.60490000  0.79857000  1.0 -0.4901816179
N  N5  1  0.00000000  0.76440000  0.75000000  1.0 -0.2185013108
N  N6  1  0.00000000  0.44180000  0.75000000  1.0 -0.2185013108
N  N7  1  0.83396000  0.39150000  0.08806000  1.0 -0.2185013108
N  N8  1  0.82267000  0.39510000  0.29857000  1.0 -0.4901816179
N  N9  1  0.16604000  0.39150000  0.41194000  1.0 -0.2185013108
N  N10  1  0.17733000  0.39510000  0.20143000  1.0 -0.4901816179
N  N11  1  0.00000000  0.23560000  0.25000000  1.0 -0.2185013108
N  N12  1  0.00000000  0.55820000  0.25000000  1.0 -0.2185013108
