# DDEC6 charges by PACMAN v1.1 (https://github.com/mtap-research/PACMAN-charge/)
data_NUBPAE06_ASR_pacman
_symmetry_space_group_name_H-M   'P 1'
_cell_length_a   9.68550000
_cell_length_b   13.86750000
_cell_length_c   14.41870000
_cell_angle_alpha   90.00000000
_cell_angle_beta   112.34900000
_cell_angle_gamma   90.00000000
_symmetry_Int_Tables_number   1
_chemical_formula_structural   FeH32C42(SN4)2
_chemical_formula_sum   'Fe2 H64 C84 S4 N16'
_cell_volume   1791.15841781
_cell_formula_units_Z   2
loop_
 _symmetry_equiv_pos_site_id
 _symmetry_equiv_pos_as_xyz
  1  'x, y, z'
loop_
 _atom_site_type_symbol
 _atom_site_label
 _atom_site_symmetry_multiplicity
 _atom_site_fract_x
 _atom_site_fract_y
 _atom_site_fract_z
 _atom_site_occupancy
 _atom_site_charge
Fe  Fe1  1  0.00000000  0.60505000  0.75000000  1.0 0.6493843811
Fe  Fe2  1  0.00000000  0.39495000  0.25000000  1.0 0.6493843811
H  H1  1  0.98118000  0.61226000  0.52235000  1.0 0.1331718283
H  H2  1  0.80636000  0.61170000  0.35662000  1.0 0.0892667676
H  H3  1  0.47652000  0.60726000  0.46266000  1.0 0.099706048
H  H4  1  0.65544000  0.60613000  0.62150000  1.0 0.1199053785
H  H5  1  0.39340000  0.62600000  0.28130000  1.0 0.0892667676
H  H6  1  0.80289000  0.79052000  0.70792000  1.0 0.099706048
H  H7  1  0.24001000  0.77232000  0.80173000  1.0 0.0802900324
H  H8  1  0.81187000  0.95811000  0.71316000  1.0 0.0802900324
H  H9  1  0.26384000  0.93885000  0.81358000  1.0 0.0802900324
H  H10  1  0.14900000  0.10510000  0.80900000  1.0 0.1199053785
H  H11  1  0.82198000  0.43236000  0.61339000  1.0 0.0892667676
H  H12  1  0.15640000  0.41704000  0.87468000  1.0 0.1199053785
H  H13  1  0.79746000  0.26615000  0.60564000  1.0 0.0696468979
H  H14  1  0.14671000  0.24978000  0.87192000  1.0 0.0892667676
H  H15  1  0.85600000  0.10710000  0.69000000  1.0 0.1199053785
H  H16  1  0.62566000  0.58500000  0.23040000  1.0 0.0802900324
H  H17  1  0.01882000  0.61226000  0.97765000  1.0 0.1331718283
H  H18  1  0.19364000  0.61170000  0.14338000  1.0 0.0892667676
H  H19  1  0.52348000  0.60726000  0.03734000  1.0 0.099706048
H  H20  1  0.34456000  0.60613000  0.87850000  1.0 0.1199053785
H  H21  1  0.60660000  0.62600000  0.21870000  1.0 0.0892667676
H  H22  1  0.19711000  0.79052000  0.79208000  1.0 0.099706048
H  H23  1  0.75999000  0.77232000  0.69827000  1.0 0.0802900324
H  H24  1  0.18813000  0.95811000  0.78684000  1.0 0.0802900324
H  H25  1  0.73616000  0.93885000  0.68642000  1.0 0.0802900324
H  H26  1  0.85100000  0.10510000  0.69100000  1.0 0.1199053785
H  H27  1  0.17802000  0.43236000  0.88661000  1.0 0.0892667676
H  H28  1  0.84360000  0.41704000  0.62532000  1.0 0.1199053785
H  H29  1  0.20254000  0.26615000  0.89436000  1.0 0.0696468979
H  H30  1  0.85329000  0.24978000  0.62808000  1.0 0.0892667676
H  H31  1  0.14400000  0.10710000  0.81000000  1.0 0.1199053785
H  H32  1  0.37434000  0.58500000  0.26960000  1.0 0.0802900324
H  H33  1  0.01882000  0.38774000  0.47765000  1.0 0.1331718283
H  H34  1  0.19364000  0.38830000  0.64338000  1.0 0.0892667676
H  H35  1  0.52348000  0.39274000  0.53734000  1.0 0.099706048
H  H36  1  0.34456000  0.39387000  0.37850000  1.0 0.1199053785
H  H37  1  0.60660000  0.37400000  0.71870000  1.0 0.0892667676
H  H38  1  0.19711000  0.20948000  0.29208000  1.0 0.099706048
H  H39  1  0.75999000  0.22768000  0.19827000  1.0 0.0802900324
H  H40  1  0.18813000  0.04189000  0.28684000  1.0 0.0802900324
H  H41  1  0.73616000  0.06115000  0.18642000  1.0 0.0802900324
H  H42  1  0.85100000  0.89490000  0.19100000  1.0 0.1199053785
H  H43  1  0.17802000  0.56764000  0.38661000  1.0 0.0892667676
H  H44  1  0.84360000  0.58296000  0.12532000  1.0 0.1199053785
H  H45  1  0.20254000  0.73385000  0.39436000  1.0 0.0696468979
H  H46  1  0.85329000  0.75022000  0.12808000  1.0 0.0892667676
H  H47  1  0.14400000  0.89290000  0.31000000  1.0 0.1199053785
H  H48  1  0.37434000  0.41500000  0.76960000  1.0 0.0802900324
H  H49  1  0.98118000  0.38774000  0.02235000  1.0 0.1331718283
H  H50  1  0.80636000  0.38830000  0.85662000  1.0 0.0892667676
H  H51  1  0.47652000  0.39274000  0.96266000  1.0 0.099706048
H  H52  1  0.65544000  0.39387000  0.12150000  1.0 0.1199053785
H  H53  1  0.39340000  0.37400000  0.78130000  1.0 0.0892667676
H  H54  1  0.80289000  0.20948000  0.20792000  1.0 0.099706048
H  H55  1  0.24001000  0.22768000  0.30173000  1.0 0.0802900324
H  H56  1  0.81187000  0.04189000  0.21316000  1.0 0.0802900324
H  H57  1  0.26384000  0.06115000  0.31358000  1.0 0.0802900324
H  H58  1  0.14900000  0.89490000  0.30900000  1.0 0.1199053785
H  H59  1  0.82198000  0.56764000  0.11339000  1.0 0.0892667676
H  H60  1  0.15640000  0.58296000  0.37468000  1.0 0.1199053785
H  H61  1  0.79746000  0.73385000  0.10564000  1.0 0.0696468979
H  H62  1  0.14671000  0.75022000  0.37192000  1.0 0.0892667676
H  H63  1  0.85600000  0.89290000  0.19000000  1.0 0.1199053785
H  H64  1  0.62566000  0.41500000  0.73040000  1.0 0.0802900324
C  C1  1  0.74970000  0.63317000  0.84030000  1.0 0.0233923084
C  C2  1  0.87660000  0.61060000  0.51000000  1.0 -0.0788205864
C  C3  1  0.77350000  0.61040000  0.41160000  1.0 -0.1179741679
C  C4  1  0.61160000  0.60820000  0.39260000  1.0 0.0892667676
C  C5  1  0.57950000  0.60760000  0.47070000  1.0 -0.175692035
C  C6  1  0.68800000  0.60730000  0.56640000  1.0 -0.0788205864
C  C7  1  0.49350000  0.60690000  0.29110000  1.0 -0.0788205864
C  C8  1  0.89860000  0.82150000  0.72940000  1.0 0.0696468979
C  C9  1  0.15130000  0.81080000  0.78410000  1.0 0.0696468979
C  C10  1  0.90230000  0.92110000  0.73270000  1.0 -0.0169062448
C  C11  1  0.16660000  0.90980000  0.79100000  1.0 -0.1179741679
C  C12  1  0.04090000  0.96630000  0.76510000  1.0 0.0233923084
C  C13  1  0.05690000  0.07180000  0.77210000  1.0 -0.0788205864
C  C14  1  0.88890000  0.39470000  0.66780000  1.0 0.0404287873
C  C15  1  0.08240000  0.38590000  0.81810000  1.0 0.0628712753
C  C16  1  0.87400000  0.29550000  0.66230000  1.0 -0.1282364336
C  C17  1  0.07670000  0.28610000  0.81760000  1.0 -0.050740353
C  C18  1  0.96860000  0.23900000  0.73780000  1.0 0.0628712753
C  C19  1  0.95110000  0.13320000  0.73120000  1.0 -0.0940605962
C  C20  1  0.65980000  0.61070000  0.38110000  1.0 0.0892667676
C  C21  1  0.57870000  0.60960000  0.27360000  1.0 -0.050740353
C  C22  1  0.25030000  0.63317000  0.65970000  1.0 0.0233923084
C  C23  1  0.12340000  0.61060000  0.99000000  1.0 -0.0788205864
C  C24  1  0.22650000  0.61040000  0.08840000  1.0 -0.1179741679
C  C25  1  0.38840000  0.60820000  0.10740000  1.0 0.0892667676
C  C26  1  0.42050000  0.60760000  0.02930000  1.0 -0.175692035
C  C27  1  0.31200000  0.60730000  0.93360000  1.0 -0.0788205864
C  C28  1  0.50650000  0.60690000  0.20890000  1.0 -0.0788205864
C  C29  1  0.10140000  0.82150000  0.77060000  1.0 0.0696468979
C  C30  1  0.84870000  0.81080000  0.71590000  1.0 0.0696468979
C  C31  1  0.09770000  0.92110000  0.76730000  1.0 -0.0169062448
C  C32  1  0.83340000  0.90980000  0.70900000  1.0 -0.1179741679
C  C33  1  0.95910000  0.96630000  0.73490000  1.0 0.0233923084
C  C34  1  0.94310000  0.07180000  0.72790000  1.0 -0.0788205864
C  C35  1  0.11110000  0.39470000  0.83220000  1.0 0.0404287873
C  C36  1  0.91760000  0.38590000  0.68190000  1.0 0.0628712753
C  C37  1  0.12600000  0.29550000  0.83770000  1.0 -0.1282364336
C  C38  1  0.92330000  0.28610000  0.68240000  1.0 -0.050740353
C  C39  1  0.03140000  0.23900000  0.76220000  1.0 0.0628712753
C  C40  1  0.04890000  0.13320000  0.76880000  1.0 -0.0940605962
C  C41  1  0.34020000  0.61070000  0.11890000  1.0 0.0892667676
C  C42  1  0.42130000  0.60960000  0.22640000  1.0 -0.050740353
C  C43  1  0.25030000  0.36683000  0.15970000  1.0 0.0260137877
C  C44  1  0.12340000  0.38940000  0.49000000  1.0 -0.0788205864
C  C45  1  0.22650000  0.38960000  0.58840000  1.0 -0.1179741679
C  C46  1  0.38840000  0.39180000  0.60740000  1.0 0.0892667676
C  C47  1  0.42050000  0.39240000  0.52930000  1.0 -0.175692035
C  C48  1  0.31200000  0.39270000  0.43360000  1.0 -0.0788205864
C  C49  1  0.50650000  0.39310000  0.70890000  1.0 -0.0788205864
C  C50  1  0.10140000  0.17850000  0.27060000  1.0 0.0696468979
C  C51  1  0.84870000  0.18920000  0.21590000  1.0 0.0696468979
C  C52  1  0.09770000  0.07890000  0.26730000  1.0 -0.0169062448
C  C53  1  0.83340000  0.09020000  0.20900000  1.0 -0.1179741679
C  C54  1  0.95910000  0.03370000  0.23490000  1.0 0.0233923084
C  C55  1  0.94310000  0.92820000  0.22790000  1.0 -0.0788205864
C  C56  1  0.11110000  0.60530000  0.33220000  1.0 0.0404287873
C  C57  1  0.91760000  0.61410000  0.18190000  1.0 0.0628712753
C  C58  1  0.12600000  0.70450000  0.33770000  1.0 -0.1282364336
C  C59  1  0.92330000  0.71390000  0.18240000  1.0 -0.050740353
C  C60  1  0.03140000  0.76100000  0.26220000  1.0 0.0628712753
C  C61  1  0.04890000  0.86680000  0.26880000  1.0 -0.0940605962
C  C62  1  0.34020000  0.38930000  0.61890000  1.0 0.0892667676
C  C63  1  0.42130000  0.39040000  0.72640000  1.0 -0.050740353
C  C64  1  0.74970000  0.36683000  0.34030000  1.0 0.0260137877
C  C65  1  0.87660000  0.38940000  0.01000000  1.0 -0.0788205864
C  C66  1  0.77350000  0.38960000  0.91160000  1.0 -0.1179741679
C  C67  1  0.61160000  0.39180000  0.89260000  1.0 0.0892667676
C  C68  1  0.57950000  0.39240000  0.97070000  1.0 -0.175692035
C  C69  1  0.68800000  0.39270000  0.06640000  1.0 -0.0788205864
C  C70  1  0.49350000  0.39310000  0.79110000  1.0 -0.0788205864
C  C71  1  0.89860000  0.17850000  0.22940000  1.0 0.0696468979
C  C72  1  0.15130000  0.18920000  0.28410000  1.0 0.0696468979
C  C73  1  0.90230000  0.07890000  0.23270000  1.0 -0.0169062448
C  C74  1  0.16660000  0.09020000  0.29100000  1.0 -0.1179741679
C  C75  1  0.04090000  0.03370000  0.26510000  1.0 0.0233923084
C  C76  1  0.05690000  0.92820000  0.27210000  1.0 -0.0788205864
C  C77  1  0.88890000  0.60530000  0.16780000  1.0 0.0404287873
C  C78  1  0.08240000  0.61410000  0.31810000  1.0 0.0628712753
C  C79  1  0.87400000  0.70450000  0.16230000  1.0 -0.1282364336
C  C80  1  0.07670000  0.71390000  0.31760000  1.0 -0.050740353
C  C81  1  0.96860000  0.76100000  0.23780000  1.0 0.0628712753
C  C82  1  0.95110000  0.86680000  0.23120000  1.0 -0.0940605962
C  C83  1  0.65980000  0.38930000  0.88110000  1.0 0.0892667676
C  C84  1  0.57870000  0.39040000  0.77360000  1.0 -0.050740353
S  S1  1  0.64965000  0.67209000  0.89945000  1.0 -0.3480780629
S  S2  1  0.35035000  0.67209000  0.60055000  1.0 -0.3480780629
S  S3  1  0.35035000  0.32791000  0.10055000  1.0 -0.3480780629
S  S4  1  0.64965000  0.32791000  0.39945000  1.0 -0.3480780629
N  N1  1  0.82255000  0.60521000  0.79855000  1.0 -0.3854869289
N  N2  1  0.83366000  0.60856000  0.58789000  1.0 -0.2090586444
N  N3  1  0.01961000  0.76562000  0.75431000  1.0 -0.2090586444
N  N4  1  0.99150000  0.44132000  0.74470000  1.0 -0.1975767744
N  N5  1  0.17745000  0.60521000  0.70145000  1.0 -0.3854869289
N  N6  1  0.16634000  0.60856000  0.91211000  1.0 -0.2090586444
N  N7  1  0.98039000  0.76562000  0.74569000  1.0 -0.2090586444
N  N8  1  0.00850000  0.44132000  0.75530000  1.0 -0.1975767744
N  N9  1  0.17745000  0.39479000  0.20145000  1.0 -0.3854869289
N  N10  1  0.16634000  0.39144000  0.41211000  1.0 -0.2090586444
N  N11  1  0.98039000  0.23438000  0.24569000  1.0 -0.2090586444
N  N12  1  0.00850000  0.55868000  0.25530000  1.0 -0.1975767744
N  N13  1  0.82255000  0.39479000  0.29855000  1.0 -0.3854869289
N  N14  1  0.83366000  0.39144000  0.08789000  1.0 -0.2090586444
N  N15  1  0.01961000  0.23438000  0.25431000  1.0 -0.2090586444
N  N16  1  0.99150000  0.55868000  0.24470000  1.0 -0.1975767744
