# DDEC6 charges by PACMAN v1.1 (https://github.com/mtap-research/PACMAN-charge/)
data_NUBPIL_ASR_pacman
_symmetry_space_group_name_H-M   'P 1'
_cell_length_a   15.56230000
_cell_length_b   15.56230000
_cell_length_c   14.61160000
_cell_angle_alpha   84.12470000
_cell_angle_beta   95.87530000
_cell_angle_gamma   67.11300000
_symmetry_Int_Tables_number   1
_chemical_formula_structural   CuH6C11(NO2)2
_chemical_formula_sum   'Cu4 H24 C44 N8 O16'
_cell_volume   3203.73381778
_cell_formula_units_Z   4
loop_
 _symmetry_equiv_pos_site_id
 _symmetry_equiv_pos_as_xyz
  1  'x, y, z'
loop_
 _atom_site_type_symbol
 _atom_site_label
 _atom_site_symmetry_multiplicity
 _atom_site_fract_x
 _atom_site_fract_y
 _atom_site_fract_z
 _atom_site_occupancy
 _atom_site_charge
Cu  Cu1  1  0.92203000  0.07797000  0.48711000  1.0 0.8597513885
Cu  Cu2  1  0.07797000  0.92203000  0.51289000  1.0 0.8597513885
Cu  Cu3  1  0.00000000  0.50000000  0.00000000  1.0 0.7290455551
Cu  Cu4  1  0.50000000  0.00000000  0.00000000  1.0 0.7290455551
H  H1  1  0.09660000  0.48460000  0.21140000  1.0 0.138646769
H  H2  1  0.48460000  0.09660000  0.78860000  1.0 0.138646769
H  H3  1  0.90340000  0.51540000  0.78860000  1.0 0.138646769
H  H4  1  0.51540000  0.90340000  0.21140000  1.0 0.138646769
H  H5  1  0.04240000  0.60620000  0.30600000  1.0 0.138646769
H  H6  1  0.60620000  0.04240000  0.69400000  1.0 0.138646769
H  H7  1  0.95760000  0.39380000  0.69400000  1.0 0.138646769
H  H8  1  0.39380000  0.95760000  0.30600000  1.0 0.138646769
H  H9  1  0.89130000  0.69670000  0.05580000  1.0 0.1205628869
H  H10  1  0.69670000  0.89130000  0.94420000  1.0 0.1205628869
H  H11  1  0.10870000  0.30330000  0.94420000  1.0 0.1205628869
H  H12  1  0.30330000  0.10870000  0.05580000  1.0 0.1205628869
H  H13  1  0.99520000  0.77440000  0.31090000  1.0 0.138646769
H  H14  1  0.77440000  0.99520000  0.68910000  1.0 0.138646769
H  H15  1  0.00480000  0.22560000  0.68910000  1.0 0.138646769
H  H16  1  0.22560000  0.00480000  0.31090000  1.0 0.138646769
H  H17  1  0.75930000  0.01270000  0.26930000  1.0 0.138646769
H  H18  1  0.01270000  0.75930000  0.73070000  1.0 0.138646769
H  H19  1  0.24070000  0.98730000  0.73070000  1.0 0.138646769
H  H20  1  0.98730000  0.24070000  0.26930000  1.0 0.138646769
H  H21  1  0.77590000  0.80410000  0.12400000  1.0 0.1205628869
H  H22  1  0.80410000  0.77590000  0.87600000  1.0 0.1205628869
H  H23  1  0.22410000  0.19590000  0.87600000  1.0 0.1205628869
H  H24  1  0.19590000  0.22410000  0.12400000  1.0 0.1205628869
C  C1  1  0.04690000  0.54330000  0.19220000  1.0 -0.0263548884
C  C2  1  0.54330000  0.04690000  0.80780000  1.0 -0.018866416
C  C3  1  0.95310000  0.45670000  0.80780000  1.0 -0.018866416
C  C4  1  0.45670000  0.95310000  0.19220000  1.0 -0.0263548884
C  C5  1  0.01870000  0.60950000  0.24400000  1.0 -0.1177184786
C  C6  1  0.60950000  0.01870000  0.75600000  1.0 -0.1177184786
C  C7  1  0.98130000  0.39050000  0.75600000  1.0 -0.1177184786
C  C8  1  0.39050000  0.98130000  0.24400000  1.0 -0.1177184786
C  C9  1  0.93540000  0.65840000  0.10660000  1.0 0.1269859449
C  C10  1  0.65840000  0.93540000  0.89340000  1.0 0.1269859449
C  C11  1  0.06460000  0.34160000  0.89340000  1.0 0.1269859449
C  C12  1  0.34160000  0.06460000  0.10660000  1.0 0.1269859449
C  C13  1  0.89420000  0.77740000  0.21190000  1.0 0.138646769
C  C14  1  0.77740000  0.89420000  0.78810000  1.0 0.1453412027
C  C15  1  0.10580000  0.22260000  0.78810000  1.0 0.138646769
C  C16  1  0.22260000  0.10580000  0.21190000  1.0 0.138646769
C  C17  1  0.93430000  0.81090000  0.28000000  1.0 -0.1677423119
C  C18  1  0.81090000  0.93430000  0.72000000  1.0 -0.1677423119
C  C19  1  0.06570000  0.18910000  0.72000000  1.0 -0.1677423119
C  C20  1  0.18910000  0.06570000  0.28000000  1.0 -0.1677423119
C  C21  1  0.88400000  0.89880000  0.30250000  1.0 -0.018866416
C  C22  1  0.89880000  0.88400000  0.69750000  1.0 -0.018866416
C  C23  1  0.11600000  0.10120000  0.69750000  1.0 -0.018866416
C  C24  1  0.10120000  0.11600000  0.30250000  1.0 -0.018866416
C  C25  1  0.79280000  0.95280000  0.25530000  1.0 -0.0935165658
C  C26  1  0.95280000  0.79280000  0.74470000  1.0 -0.0935165658
C  C27  1  0.20720000  0.04720000  0.74470000  1.0 -0.0935165658
C  C28  1  0.04720000  0.20720000  0.25530000  1.0 -0.0935165658
C  C29  1  0.75130000  0.91810000  0.18720000  1.0 0.0003787662
C  C30  1  0.91810000  0.75130000  0.81280000  1.0 0.0003787662
C  C31  1  0.24870000  0.08190000  0.81280000  1.0 0.0003787662
C  C32  1  0.08190000  0.24870000  0.18720000  1.0 0.0003787662
C  C33  1  0.80300000  0.82940000  0.16770000  1.0 -0.2009848467
C  C34  1  0.82940000  0.80300000  0.83230000  1.0 -0.2009848467
C  C35  1  0.19700000  0.17060000  0.83230000  1.0 -0.2009848467
C  C36  1  0.17060000  0.19700000  0.16770000  1.0 -0.2009848467
C  C37  1  0.92540000  0.93700000  0.37640000  1.0 0.5806231947
C  C38  1  0.93700000  0.92540000  0.62360000  1.0 0.5806231947
C  C39  1  0.07460000  0.06300000  0.62360000  1.0 0.5806231947
C  C40  1  0.06300000  0.07460000  0.37640000  1.0 0.5806231947
C  C41  1  0.65450000  0.97870000  0.13370000  1.0 0.5462168009
C  C42  1  0.97870000  0.65450000  0.86630000  1.0 0.5462168009
C  C43  1  0.34550000  0.02130000  0.86630000  1.0 0.5462168009
C  C44  1  0.02130000  0.34550000  0.13370000  1.0 0.5462168009
N  N1  1  0.99267000  0.57247000  0.10490000  1.0 -0.2799053117
N  N2  1  0.57247000  0.99267000  0.89510000  1.0 -0.2799053117
N  N3  1  0.00733000  0.42753000  0.89510000  1.0 -0.2799053117
N  N4  1  0.42753000  0.00733000  0.10490000  1.0 -0.2799053117
N  N5  1  0.94558000  0.68638000  0.18720000  1.0 0.0117093605
N  N6  1  0.68638000  0.94558000  0.81280000  1.0 0.0117093605
N  N7  1  0.05442000  0.31362000  0.81280000  1.0 0.0117093605
N  N8  1  0.31362000  0.05442000  0.18720000  1.0 0.0117093605
O  O1  1  0.00798000  0.88618000  0.41540000  1.0 -0.5256175547
O  O2  1  0.88618000  0.00798000  0.58460000  1.0 -0.5256175547
O  O3  1  0.99202000  0.11382000  0.58460000  1.0 -0.5256175547
O  O4  1  0.11382000  0.99202000  0.41540000  1.0 -0.5256175547
O  O5  1  0.87642000  0.01762000  0.39350000  1.0 -0.5112864821
O  O6  1  0.01762000  0.87642000  0.60650000  1.0 -0.5151642113
O  O7  1  0.12358000  0.98238000  0.60650000  1.0 -0.5112864821
O  O8  1  0.98238000  0.12358000  0.39350000  1.0 -0.5112864821
O  O9  1  0.61670000  0.06050000  0.14050000  1.0 -0.5001455396
O  O10  1  0.06050000  0.61670000  0.85950000  1.0 -0.5112864821
O  O11  1  0.38330000  0.93950000  0.85950000  1.0 -0.5112864821
O  O12  1  0.93950000  0.38330000  0.14050000  1.0 -0.5112864821
O  O13  1  0.61810000  0.93570000  0.08460000  1.0 -0.5486264675
O  O14  1  0.93570000  0.61810000  0.91540000  1.0 -0.5486264675
O  O15  1  0.38190000  0.06430000  0.91540000  1.0 -0.5486264675
O  O16  1  0.06430000  0.38190000  0.08460000  1.0 -0.5486264675
