# DDEC6 charges by PACMAN v1.1 (https://github.com/mtap-research/PACMAN-charge/)
data_NUBZES_FSR_pacman
_symmetry_space_group_name_H-M   'P 1'
_cell_length_a   16.97810000
_cell_length_b   16.97810000
_cell_length_c   16.97810000
_cell_angle_alpha   105.92300000
_cell_angle_beta   105.92300000
_cell_angle_gamma   116.82800000
_symmetry_Int_Tables_number   1
_chemical_formula_structural   Zn3H19C21NO14
_chemical_formula_sum   'Zn12 H76 C84 N4 O56'
_cell_volume   3720.26911620
_cell_formula_units_Z   4
loop_
 _symmetry_equiv_pos_site_id
 _symmetry_equiv_pos_as_xyz
  1  'x, y, z'
loop_
 _atom_site_type_symbol
 _atom_site_label
 _atom_site_symmetry_multiplicity
 _atom_site_fract_x
 _atom_site_fract_y
 _atom_site_fract_z
 _atom_site_occupancy
 _atom_site_charge
Zn  Zn1  1  0.46822000  0.09157000  0.13899000  1.0 0.9665910187
Zn  Zn2  1  0.95258000  0.32923000  0.86101000  1.0 0.9665910187
Zn  Zn3  1  0.09157000  0.95258000  0.62335000  1.0 0.9665910187
Zn  Zn4  1  0.32923000  0.46822000  0.37665000  1.0 0.9665910187
Zn  Zn5  1  0.96822000  0.82923000  0.37665000  1.0 0.9665910187
Zn  Zn6  1  0.45258000  0.59157000  0.62335000  1.0 0.9665910187
Zn  Zn7  1  0.59157000  0.96822000  0.13899000  1.0 0.9665910187
Zn  Zn8  1  0.82923000  0.45258000  0.86101000  1.0 0.9665910187
Zn  Zn9  1  0.20063000  0.01115000  0.50000000  1.0 1.0022574249
Zn  Zn10  1  0.51115000  0.70063000  0.50000000  1.0 1.0022574249
Zn  Zn11  1  0.01115000  0.51115000  0.81052000  1.0 1.0022574249
Zn  Zn12  1  0.70063000  0.20063000  0.18948000  1.0 1.0022574249
H  H1  1  0.18641000  0.79681000  0.03144000  1.0 0.129834608
H  H2  1  0.27049000  0.95587000  0.29862000  1.0 0.1393744028
H  H3  1  0.00449000  0.69244000  0.14007000  1.0 0.1393744028
H  H4  1  0.50664000  0.18711000  0.52987000  1.0 0.0705115405
H  H5  1  0.49486000  0.19362000  0.43744000  1.0 0.0705115405
H  H6  1  0.57394000  0.28942000  0.53270000  1.0 0.059420349
H  H7  1  0.43906000  0.36813000  0.53833000  1.0 0.0768532562
H  H8  1  0.52979000  0.37834000  0.52367000  1.0 0.059420349
H  H9  1  0.42634000  0.32466000  0.43800000  1.0 0.0705115405
H  H10  1  0.76537000  0.15497000  0.96856000  1.0 0.129834608
H  H11  1  0.65725000  0.97187000  0.70138000  1.0 0.1393744028
H  H12  1  0.55237000  0.86442000  0.85993000  1.0 0.1393744028
H  H13  1  0.65724000  0.97677000  0.47013000  1.0 0.0705115405
H  H14  1  0.75618000  0.05742000  0.56256000  1.0 0.0705115405
H  H15  1  0.75672000  0.04124000  0.46730000  1.0 0.059420349
H  H16  1  0.82980000  0.90073000  0.46167000  1.0 0.0768532562
H  H17  1  0.85467000  0.00612000  0.47633000  1.0 0.059420349
H  H18  1  0.88666000  0.98834000  0.56200000  1.0 0.0705115405
H  H19  1  0.79681000  0.76537000  0.61040000  1.0 0.129834608
H  H20  1  0.95587000  0.65725000  0.68538000  1.0 0.1393744028
H  H21  1  0.69244000  0.55237000  0.68795000  1.0 0.1393744028
H  H22  1  0.18711000  0.65724000  0.68047000  1.0 0.0705115405
H  H23  1  0.19362000  0.75618000  0.69876000  1.0 0.0705115405
H  H24  1  0.28942000  0.75672000  0.71548000  1.0 0.059420349
H  H25  1  0.36813000  0.82980000  0.92907000  1.0 0.0768532562
H  H26  1  0.37834000  0.85467000  0.84855000  1.0 0.059420349
H  H27  1  0.32466000  0.88666000  0.89832000  1.0 0.0705115405
H  H28  1  0.15497000  0.18641000  0.38960000  1.0 0.129834608
H  H29  1  0.97187000  0.27049000  0.31462000  1.0 0.1393744028
H  H30  1  0.86442000  0.00449000  0.31205000  1.0 0.1393744028
H  H31  1  0.97677000  0.50664000  0.31953000  1.0 0.0705115405
H  H32  1  0.05742000  0.49486000  0.30124000  1.0 0.0705115405
H  H33  1  0.04124000  0.57394000  0.28452000  1.0 0.059420349
H  H34  1  0.90073000  0.43906000  0.07093000  1.0 0.0768532562
H  H35  1  0.00612000  0.52979000  0.15145000  1.0 0.059420349
H  H36  1  0.98834000  0.42634000  0.10168000  1.0 0.0705115405
H  H37  1  0.68641000  0.65497000  0.38960000  1.0 0.129834608
H  H38  1  0.77049000  0.47187000  0.31462000  1.0 0.1393744028
H  H39  1  0.50449000  0.36442000  0.31205000  1.0 0.1393744028
H  H40  1  0.00664000  0.47677000  0.31953000  1.0 0.0705115405
H  H41  1  0.99486000  0.55742000  0.30124000  1.0 0.0705115405
H  H42  1  0.07394000  0.54124000  0.28452000  1.0 0.059420349
H  H43  1  0.93906000  0.40073000  0.07093000  1.0 0.0768532562
H  H44  1  0.02979000  0.50612000  0.15145000  1.0 0.059420349
H  H45  1  0.92634000  0.48834000  0.10168000  1.0 0.0705115405
H  H46  1  0.26537000  0.29681000  0.61040000  1.0 0.129834608
H  H47  1  0.15725000  0.45587000  0.68538000  1.0 0.1393744028
H  H48  1  0.05237000  0.19244000  0.68795000  1.0 0.1393744028
H  H49  1  0.15724000  0.68711000  0.68047000  1.0 0.0705115405
H  H50  1  0.25618000  0.69362000  0.69876000  1.0 0.0705115405
H  H51  1  0.25672000  0.78942000  0.71548000  1.0 0.059420349
H  H52  1  0.32980000  0.86813000  0.92907000  1.0 0.0768532562
H  H53  1  0.35467000  0.87834000  0.84855000  1.0 0.059420349
H  H54  1  0.38666000  0.82466000  0.89832000  1.0 0.0705115405
H  H55  1  0.29681000  0.68641000  0.03144000  1.0 0.129834608
H  H56  1  0.45587000  0.77049000  0.29862000  1.0 0.1393744028
H  H57  1  0.19244000  0.50449000  0.14007000  1.0 0.1393744028
H  H58  1  0.68711000  0.00664000  0.52987000  1.0 0.0705115405
H  H59  1  0.69362000  0.99486000  0.43744000  1.0 0.0705115405
H  H60  1  0.78942000  0.07394000  0.53270000  1.0 0.059420349
H  H61  1  0.86813000  0.93906000  0.53833000  1.0 0.0768532562
H  H62  1  0.87834000  0.02979000  0.52367000  1.0 0.059420349
H  H63  1  0.82466000  0.92634000  0.43800000  1.0 0.0705115405
H  H64  1  0.65497000  0.26537000  0.96856000  1.0 0.129834608
H  H65  1  0.47187000  0.15725000  0.70138000  1.0 0.1393744028
H  H66  1  0.36442000  0.05237000  0.85993000  1.0 0.1393744028
H  H67  1  0.47677000  0.15724000  0.47013000  1.0 0.0705115405
H  H68  1  0.55742000  0.25618000  0.56256000  1.0 0.0705115405
H  H69  1  0.54124000  0.25672000  0.46730000  1.0 0.059420349
H  H70  1  0.40073000  0.32980000  0.46167000  1.0 0.0768532562
H  H71  1  0.50612000  0.35467000  0.47633000  1.0 0.059420349
H  H72  1  0.48834000  0.38666000  0.56200000  1.0 0.0705115405
H  H73  1  0.30600000  0.20164000  0.50000000  1.0 0.129834608
H  H74  1  0.70164000  0.80600000  0.50000000  1.0 0.129834608
H  H75  1  0.20164000  0.70164000  0.89564000  1.0 0.129834608
H  H76  1  0.80600000  0.30600000  0.10436000  1.0 0.129834608
C  C1  1  0.33660000  0.97370000  0.17910000  1.0 0.5407672483
C  C2  1  0.24360000  0.88890000  0.16770000  1.0 -0.0202246572
C  C3  1  0.01320000  0.63560000  0.98240000  1.0 0.5732791903
C  C4  1  0.17390000  0.80310000  0.08200000  1.0 -0.1035225601
C  C5  1  0.11040000  0.84210000  0.31110000  1.0 0.5963644567
C  C6  1  0.22390000  0.89940000  0.24190000  1.0 -0.0868899268
C  C7  1  0.06530000  0.74090000  0.14740000  1.0 -0.0810033926
C  C8  1  0.08690000  0.72840000  0.07330000  1.0 -0.0333087528
C  C9  1  0.13380000  0.82510000  0.23210000  1.0 -0.0202246572
C  C10  1  0.79460000  0.15750000  0.82090000  1.0 0.5407672483
C  C11  1  0.72120000  0.07590000  0.83230000  1.0 -0.0202246572
C  C12  1  0.65320000  0.03080000  0.01760000  1.0 0.5732791903
C  C13  1  0.72110000  0.09190000  0.91800000  1.0 -0.1035225601
C  C14  1  0.53100000  0.79930000  0.68890000  1.0 0.5963644567
C  C15  1  0.65750000  0.98200000  0.75810000  1.0 -0.0868899268
C  C16  1  0.59350000  0.91790000  0.85260000  1.0 -0.0810033926
C  C17  1  0.65510000  0.01360000  0.92670000  1.0 -0.0333087528
C  C18  1  0.59300000  0.90170000  0.76790000  1.0 -0.0202246572
C  C19  1  0.97370000  0.79460000  0.63710000  1.0 0.5407672483
C  C20  1  0.88890000  0.72120000  0.64530000  1.0 -0.0202246572
C  C21  1  0.63560000  0.65320000  0.62240000  1.0 0.5732791903
C  C22  1  0.80310000  0.72110000  0.62920000  1.0 -0.1035225601
C  C23  1  0.84210000  0.53100000  0.73170000  1.0 0.5963644567
C  C24  1  0.89940000  0.65750000  0.67550000  1.0 -0.0868899268
C  C25  1  0.74090000  0.59350000  0.67560000  1.0 -0.0810033926
C  C26  1  0.72840000  0.65510000  0.64150000  1.0 -0.0333087528
C  C27  1  0.82510000  0.59300000  0.69130000  1.0 -0.0202246572
C  C28  1  0.15750000  0.33660000  0.36290000  1.0 0.5407672483
C  C29  1  0.07590000  0.24360000  0.35470000  1.0 -0.0202246572
C  C30  1  0.03080000  0.01320000  0.37760000  1.0 0.5732791903
C  C31  1  0.09190000  0.17390000  0.37080000  1.0 -0.1035225601
C  C32  1  0.79930000  0.11040000  0.26830000  1.0 0.5963644567
C  C33  1  0.98200000  0.22390000  0.32450000  1.0 -0.0868899268
C  C34  1  0.91790000  0.06530000  0.32440000  1.0 -0.0810033926
C  C35  1  0.01360000  0.08690000  0.35850000  1.0 -0.0333087528
C  C36  1  0.90170000  0.13380000  0.30870000  1.0 -0.0202246572
C  C37  1  0.83660000  0.65750000  0.36290000  1.0 0.5407672483
C  C38  1  0.74360000  0.57590000  0.35470000  1.0 -0.0202246572
C  C39  1  0.51320000  0.53080000  0.37760000  1.0 0.5732791903
C  C40  1  0.67390000  0.59190000  0.37080000  1.0 -0.1035225601
C  C41  1  0.61040000  0.29930000  0.26830000  1.0 0.5963644567
C  C42  1  0.72390000  0.48200000  0.32450000  1.0 -0.0868899268
C  C43  1  0.56530000  0.41790000  0.32440000  1.0 -0.0810033926
C  C44  1  0.58690000  0.51360000  0.35850000  1.0 -0.0333087528
C  C45  1  0.63380000  0.40170000  0.30870000  1.0 -0.0202246572
C  C46  1  0.29460000  0.47370000  0.63710000  1.0 0.5407672483
C  C47  1  0.22120000  0.38890000  0.64530000  1.0 -0.0202246572
C  C48  1  0.15320000  0.13560000  0.62240000  1.0 0.5732791903
C  C49  1  0.22110000  0.30310000  0.62920000  1.0 -0.1035225601
C  C50  1  0.03100000  0.34210000  0.73170000  1.0 0.5963644567
C  C51  1  0.15750000  0.39940000  0.67550000  1.0 -0.0868899268
C  C52  1  0.09350000  0.24090000  0.67560000  1.0 -0.0810033926
C  C53  1  0.15510000  0.22840000  0.64150000  1.0 -0.0333087528
C  C54  1  0.09300000  0.32510000  0.69130000  1.0 -0.0202246572
C  C55  1  0.47370000  0.83660000  0.17910000  1.0 0.5407672483
C  C56  1  0.38890000  0.74360000  0.16770000  1.0 -0.0202246572
C  C57  1  0.13560000  0.51320000  0.98240000  1.0 0.5732791903
C  C58  1  0.30310000  0.67390000  0.08200000  1.0 -0.1035225601
C  C59  1  0.34210000  0.61040000  0.31110000  1.0 0.5963644567
C  C60  1  0.39940000  0.72390000  0.24190000  1.0 -0.0868899268
C  C61  1  0.24090000  0.56530000  0.14740000  1.0 -0.0810033926
C  C62  1  0.22840000  0.58690000  0.07330000  1.0 -0.0333087528
C  C63  1  0.32510000  0.63380000  0.23210000  1.0 -0.0202246572
C  C64  1  0.65750000  0.29460000  0.82090000  1.0 0.5407672483
C  C65  1  0.57590000  0.22120000  0.83230000  1.0 -0.0202246572
C  C66  1  0.53080000  0.15320000  0.01760000  1.0 0.5732791903
C  C67  1  0.59190000  0.22110000  0.91800000  1.0 -0.1035225601
C  C68  1  0.29930000  0.03100000  0.68890000  1.0 0.5963644567
C  C69  1  0.48200000  0.15750000  0.75810000  1.0 -0.0868899268
C  C70  1  0.41790000  0.09350000  0.85260000  1.0 -0.0810033926
C  C71  1  0.51360000  0.15510000  0.92670000  1.0 -0.0333087528
C  C72  1  0.40170000  0.09300000  0.76790000  1.0 -0.0202246572
C  C73  1  0.35090000  0.18450000  0.50000000  1.0 0.2965987506
C  C74  1  0.45890000  0.33630000  0.50000000  1.0 -0.2369207521
C  C75  1  0.50890000  0.22810000  0.50000000  1.0 -0.2692261306
C  C76  1  0.68450000  0.85090000  0.50000000  1.0 0.2965987506
C  C77  1  0.83630000  0.95890000  0.50000000  1.0 -0.2369207521
C  C78  1  0.72810000  0.00890000  0.50000000  1.0 -0.2692261306
C  C79  1  0.18450000  0.68450000  0.83360000  1.0 0.2965987506
C  C80  1  0.33630000  0.83630000  0.87740000  1.0 -0.2369207521
C  C81  1  0.22810000  0.72810000  0.71920000  1.0 -0.2692261306
C  C82  1  0.85090000  0.35090000  0.16640000  1.0 0.2965987506
C  C83  1  0.95890000  0.45890000  0.12260000  1.0 -0.2369207521
C  C84  1  0.00890000  0.50890000  0.28080000  1.0 -0.2692261306
N  N1  1  0.43330000  0.24970000  0.50000000  1.0 -0.1191277695
N  N2  1  0.74970000  0.93330000  0.50000000  1.0 -0.1191277695
N  N3  1  0.24970000  0.74970000  0.81640000  1.0 -0.1191277695
N  N4  1  0.93330000  0.43330000  0.18360000  1.0 -0.1191277695
O  O1  1  0.03290000  0.62990000  0.91760000  1.0 -0.5090538256
O  O2  1  0.18430000  0.90100000  0.39170000  1.0 -0.4731913326
O  O3  1  0.93590000  0.57070000  0.98080000  1.0 -0.5090538256
O  O4  1  0.01940000  0.79710000  0.29170000  1.0 -0.5160169718
O  O5  1  0.34070000  0.97390000  0.10480000  1.0 -0.5090538256
O  O6  1  0.40380000  0.03860000  0.25560000  1.0 -0.4390320671
O  O7  1  0.71230000  0.11530000  0.08240000  1.0 -0.5090538256
O  O8  1  0.50930000  0.79260000  0.60830000  1.0 -0.4731913326
O  O9  1  0.58990000  0.95510000  0.01920000  1.0 -0.5090538256
O  O10  1  0.50540000  0.72770000  0.70830000  1.0 -0.5160169718
O  O11  1  0.86910000  0.23590000  0.89520000  1.0 -0.5090538256
O  O12  1  0.78300000  0.14820000  0.74440000  1.0 -0.4390320671
O  O13  1  0.62990000  0.71230000  0.59700000  1.0 -0.5090538256
O  O14  1  0.90100000  0.50930000  0.71670000  1.0 -0.4731913326
O  O15  1  0.57070000  0.58990000  0.63480000  1.0 -0.5090538256
O  O16  1  0.79710000  0.50540000  0.77770000  1.0 -0.5160169718
O  O17  1  0.97390000  0.86910000  0.63320000  1.0 -0.5090538256
O  O18  1  0.03860000  0.78300000  0.63480000  1.0 -0.4390320671
O  O19  1  0.11530000  0.03290000  0.40300000  1.0 -0.5090538256
O  O20  1  0.79260000  0.18430000  0.28330000  1.0 -0.4731913326
O  O21  1  0.95510000  0.93590000  0.36520000  1.0 -0.5090538256
O  O22  1  0.72770000  0.01940000  0.22230000  1.0 -0.5160169718
O  O23  1  0.23590000  0.34070000  0.36680000  1.0 -0.5090538256
O  O24  1  0.14820000  0.40380000  0.36520000  1.0 -0.4390320671
O  O25  1  0.53290000  0.61530000  0.40300000  1.0 -0.5090538256
O  O26  1  0.68430000  0.29260000  0.28330000  1.0 -0.4731913326
O  O27  1  0.43590000  0.45510000  0.36520000  1.0 -0.5090538256
O  O28  1  0.51940000  0.22770000  0.22230000  1.0 -0.5160169718
O  O29  1  0.84070000  0.73590000  0.36680000  1.0 -0.5090538256
O  O30  1  0.90380000  0.64820000  0.36520000  1.0 -0.4390320671
O  O31  1  0.21230000  0.12990000  0.59700000  1.0 -0.5090538256
O  O32  1  0.00930000  0.40100000  0.71670000  1.0 -0.4731913326
O  O33  1  0.08990000  0.07070000  0.63480000  1.0 -0.5090538256
O  O34  1  0.00540000  0.29710000  0.77770000  1.0 -0.5160169718
O  O35  1  0.36910000  0.47390000  0.63320000  1.0 -0.5090538256
O  O36  1  0.28300000  0.53860000  0.63480000  1.0 -0.4390320671
O  O37  1  0.12990000  0.53290000  0.91760000  1.0 -0.5090538256
O  O38  1  0.40100000  0.68430000  0.39170000  1.0 -0.4731913326
O  O39  1  0.07070000  0.43590000  0.98080000  1.0 -0.5090538256
O  O40  1  0.29710000  0.51940000  0.29170000  1.0 -0.5160169718
O  O41  1  0.47390000  0.84070000  0.10480000  1.0 -0.5090538256
O  O42  1  0.53860000  0.90380000  0.25560000  1.0 -0.4390320671
O  O43  1  0.61530000  0.21230000  0.08240000  1.0 -0.5090538256
O  O44  1  0.29260000  0.00930000  0.60830000  1.0 -0.4731913326
O  O45  1  0.45510000  0.08990000  0.01920000  1.0 -0.5090538256
O  O46  1  0.22770000  0.00540000  0.70830000  1.0 -0.5160169718
O  O47  1  0.73590000  0.36910000  0.89520000  1.0 -0.5090538256
O  O48  1  0.64820000  0.28300000  0.74440000  1.0 -0.4390320671
O  O49  1  0.32820000  0.10780000  0.50000000  1.0 -0.3898620349
O  O50  1  0.60780000  0.82820000  0.50000000  1.0 -0.3898620349
O  O51  1  0.10780000  0.60780000  0.77960000  1.0 -0.3898620349
O  O52  1  0.82820000  0.32820000  0.22040000  1.0 -0.3898620349
O  O53  1  0.57960000  0.07960000  0.18240000  1.0 -0.7980303136
O  O54  1  0.89720000  0.39720000  0.81760000  1.0 -0.7980303136
O  O55  1  0.07960000  0.89720000  0.50000000  1.0 -0.7980303136
O  O56  1  0.39720000  0.57960000  0.50000000  1.0 -0.7980303136
