# DDEC6 charges by PACMAN v1.1 (https://github.com/mtap-research/PACMAN-charge/)
data_NUCCEV_ASR_pacman
_symmetry_space_group_name_H-M   'P 1'
_cell_length_a   17.68440000
_cell_length_b   17.68440000
_cell_length_c   17.68440000
_cell_angle_alpha   96.32080000
_cell_angle_beta   96.32080000
_cell_angle_gamma   141.24300000
_symmetry_Int_Tables_number   1
_chemical_formula_structural   CuH22C24(NO)4
_chemical_formula_sum   'Cu4 H88 C96 N16 O16'
_cell_volume   3266.10638747
_cell_formula_units_Z   4
loop_
 _symmetry_equiv_pos_site_id
 _symmetry_equiv_pos_as_xyz
  1  'x, y, z'
loop_
 _atom_site_type_symbol
 _atom_site_label
 _atom_site_symmetry_multiplicity
 _atom_site_fract_x
 _atom_site_fract_y
 _atom_site_fract_z
 _atom_site_occupancy
 _atom_site_charge
Cu  Cu1  1  0.62500000  0.87500000  0.25000000  1.0 0.7690440121
Cu  Cu2  1  0.62500000  0.37500000  0.25000000  1.0 0.7690440121
Cu  Cu3  1  0.62500000  0.37500000  0.75000000  1.0 0.7690440121
Cu  Cu4  1  0.12500000  0.37500000  0.75000000  1.0 0.7690440121
H  H1  1  0.64350000  0.34510000  0.08660000  1.0 0.3027553263
H  H2  1  0.80690000  0.39350000  0.79840000  1.0 0.3027553263
H  H3  1  0.25850000  0.55690000  0.91340000  1.0 0.3027553263
H  H4  1  0.59510000  0.00850000  0.20160000  1.0 0.3027553263
H  H5  1  0.60650000  0.40490000  0.41340000  1.0 0.3027553263
H  H6  1  0.44310000  0.35650000  0.70160000  1.0 0.3027553263
H  H7  1  0.99150000  0.19310000  0.58660000  1.0 0.3027553263
H  H8  1  0.65490000  0.74150000  0.29840000  1.0 0.3027553263
H  H9  1  0.32660000  0.79610000  0.26330000  1.0 0.127538264
H  H10  1  0.31330000  0.07660000  0.03050000  1.0 0.127538264
H  H11  1  0.53280000  0.06330000  0.73670000  1.0 0.127538264
H  H12  1  0.04610000  0.28280000  0.96950000  1.0 0.127538264
H  H13  1  0.92340000  0.95390000  0.23670000  1.0 0.127538264
H  H14  1  0.93670000  0.67340000  0.46950000  1.0 0.127538264
H  H15  1  0.71720000  0.68670000  0.76330000  1.0 0.127538264
H  H16  1  0.20390000  0.46720000  0.53050000  1.0 0.127538264
H  H17  1  0.13670000  0.70720000  0.25150000  1.0 0.1230152574
H  H18  1  0.13520000  0.88670000  0.92950000  1.0 0.1230152574
H  H19  1  0.45570000  0.88520000  0.74850000  1.0 0.1230152574
H  H20  1  0.95720000  0.20570000  0.07050000  1.0 0.1230152574
H  H21  1  0.11330000  0.04280000  0.24850000  1.0 0.1230152574
H  H22  1  0.11480000  0.86330000  0.57050000  1.0 0.1230152574
H  H23  1  0.79430000  0.86480000  0.75150000  1.0 0.1230152574
H  H24  1  0.29280000  0.54430000  0.42950000  1.0 0.1230152574
H  H25  1  0.95420000  0.40200000  0.07540000  1.0 0.1230152574
H  H26  1  0.12880000  0.70420000  0.05220000  1.0 0.1230152574
H  H27  1  0.32660000  0.87880000  0.92460000  1.0 0.1230152574
H  H28  1  0.65200000  0.07660000  0.94780000  1.0 0.1230152574
H  H29  1  0.29580000  0.34800000  0.42460000  1.0 0.1230152574
H  H30  1  0.12120000  0.04580000  0.44780000  1.0 0.1230152574
H  H31  1  0.92340000  0.87120000  0.57540000  1.0 0.1230152574
H  H32  1  0.59800000  0.67340000  0.55220000  1.0 0.1230152574
H  H33  1  0.74070000  0.40010000  0.97760000  1.0 0.1590608212
H  H34  1  0.01310000  0.49070000  0.84060000  1.0 0.1590608212
H  H35  1  0.42250000  0.76310000  0.02240000  1.0 0.1590608212
H  H36  1  0.65010000  0.17250000  0.15940000  1.0 0.1590608212
H  H37  1  0.50930000  0.34990000  0.52240000  1.0 0.1590608212
H  H38  1  0.23690000  0.25930000  0.65940000  1.0 0.1590608212
H  H39  1  0.82750000  0.98690000  0.47760000  1.0 0.1590608212
H  H40  1  0.59990000  0.57750000  0.34060000  1.0 0.1590608212
H  H41  1  0.87260000  0.46410000  0.99730000  1.0 0.1419257003
H  H42  1  0.12530000  0.62260000  0.90850000  1.0 0.1419257003
H  H43  1  0.46680000  0.87530000  0.00270000  1.0 0.1419257003
H  H44  1  0.71410000  0.21680000  0.09150000  1.0 0.1419257003
H  H45  1  0.37740000  0.28590000  0.50270000  1.0 0.1419257003
H  H46  1  0.12470000  0.12740000  0.59150000  1.0 0.1419257003
H  H47  1  0.78320000  0.87470000  0.49730000  1.0 0.1419257003
H  H48  1  0.53590000  0.53320000  0.40850000  1.0 0.1419257003
H  H49  1  0.74780000  0.31770000  0.98290000  1.0 0.1490648205
H  H50  1  0.01490000  0.49780000  0.93010000  1.0 0.1490648205
H  H51  1  0.33480000  0.76490000  0.01710000  1.0 0.1490648205
H  H52  1  0.56770000  0.08480000  0.06990000  1.0 0.1490648205
H  H53  1  0.50220000  0.43230000  0.51710000  1.0 0.1490648205
H  H54  1  0.23510000  0.25220000  0.56990000  1.0 0.1490648205
H  H55  1  0.91520000  0.98510000  0.48290000  1.0 0.1490648205
H  H56  1  0.68230000  0.66520000  0.43010000  1.0 0.1490648205
H  H57  1  0.14430000  0.49110000  0.08760000  1.0 0.1230152574
H  H58  1  0.30670000  0.89430000  0.15320000  1.0 0.1230152574
H  H59  1  0.40350000  0.05670000  0.91240000  1.0 0.1230152574
H  H60  1  0.74110000  0.15350000  0.84680000  1.0 0.1230152574
H  H61  1  0.10570000  0.25890000  0.41240000  1.0 0.1230152574
H  H62  1  0.94330000  0.85570000  0.34680000  1.0 0.1230152574
H  H63  1  0.84650000  0.69330000  0.58760000  1.0 0.1230152574
H  H64  1  0.50890000  0.59650000  0.65320000  1.0 0.1230152574
H  H65  1  0.86500000  0.47250000  0.33930000  1.0 0.1490648205
H  H66  1  0.77570000  0.61500000  0.89250000  1.0 0.1490648205
H  H67  1  0.13320000  0.52570000  0.66070000  1.0 0.1490648205
H  H68  1  0.72250000  0.88320000  0.10750000  1.0 0.1490648205
H  H69  1  0.38500000  0.27750000  0.16070000  1.0 0.1490648205
H  H70  1  0.47430000  0.13500000  0.60750000  1.0 0.1490648205
H  H71  1  0.11680000  0.22430000  0.83930000  1.0 0.1490648205
H  H72  1  0.52750000  0.86680000  0.39250000  1.0 0.1490648205
H  H73  1  0.97800000  0.52030000  0.31770000  1.0 0.1419257003
H  H74  1  0.91030000  0.72800000  0.95770000  1.0 0.1419257003
H  H75  1  0.20260000  0.66030000  0.68230000  1.0 0.1419257003
H  H76  1  0.77030000  0.95260000  0.04230000  1.0 0.1419257003
H  H77  1  0.27200000  0.22970000  0.18230000  1.0 0.1419257003
H  H78  1  0.33970000  0.02200000  0.54230000  1.0 0.1419257003
H  H79  1  0.04740000  0.08970000  0.81770000  1.0 0.1419257003
H  H80  1  0.47970000  0.79740000  0.45770000  1.0 0.1419257003
H  H81  1  0.98100000  0.61160000  0.33560000  1.0 0.1490648205
H  H82  1  0.89540000  0.73100000  0.86940000  1.0 0.1490648205
H  H83  1  0.27600000  0.64540000  0.66440000  1.0 0.1490648205
H  H84  1  0.86160000  0.02600000  0.13060000  1.0 0.1490648205
H  H85  1  0.26900000  0.13840000  0.16440000  1.0 0.1490648205
H  H86  1  0.35460000  0.01900000  0.63060000  1.0 0.1490648205
H  H87  1  0.97400000  0.10460000  0.83560000  1.0 0.1490648205
H  H88  1  0.38840000  0.72400000  0.36940000  1.0 0.1490648205
C  C1  1  0.25175000  0.71667000  0.22602000  1.0 -0.1113897187
C  C2  1  0.27573000  0.00175000  0.03508000  1.0 -0.1113897187
C  C3  1  0.49065000  0.02573000  0.77398000  1.0 -0.1113897187
C  C4  1  0.96667000  0.24065000  0.96492000  1.0 -0.1113897187
C  C5  1  0.99825000  0.03333000  0.27398000  1.0 -0.1113897187
C  C6  1  0.97427000  0.74825000  0.46492000  1.0 -0.1113897187
C  C7  1  0.75935000  0.72427000  0.72602000  1.0 -0.1113897187
C  C8  1  0.28333000  0.50935000  0.53508000  1.0 -0.1113897187
C  C9  1  0.90286000  0.48590000  0.15956000  1.0 -0.1665623763
C  C10  1  0.99330000  0.65286000  0.91696000  1.0 -0.1665623763
C  C11  1  0.32634000  0.74330000  0.84044000  1.0 -0.1665623763
C  C12  1  0.73590000  0.07634000  0.08304000  1.0 -0.1665623763
C  C13  1  0.34714000  0.26410000  0.34044000  1.0 -0.1665623763
C  C14  1  0.25670000  0.09714000  0.58304000  1.0 -0.1665623763
C  C15  1  0.92366000  0.00670000  0.65956000  1.0 -0.1665623763
C  C16  1  0.51410000  0.67366000  0.41696000  1.0 -0.1665623763
C  C17  1  0.25464000  0.65165000  0.17749000  1.0 -0.0233167817
C  C18  1  0.32715000  0.00464000  0.10299000  1.0 -0.0233167817
C  C19  1  0.47416000  0.07715000  0.82251000  1.0 -0.0233167817
C  C20  1  0.90165000  0.22416000  0.89701000  1.0 -0.0233167817
C  C21  1  0.99536000  0.09835000  0.32251000  1.0 -0.0233167817
C  C22  1  0.92285000  0.74536000  0.39701000  1.0 -0.0233167817
C  C23  1  0.77584000  0.67285000  0.67749000  1.0 -0.0233167817
C  C24  1  0.34835000  0.52584000  0.60299000  1.0 -0.0233167817
C  C25  1  0.13762000  0.66308000  0.21890000  1.0 -0.1521494982
C  C26  1  0.16872000  0.88762000  0.97454000  1.0 -0.1521494982
C  C27  1  0.44418000  0.91872000  0.78110000  1.0 -0.1521494982
C  C28  1  0.91308000  0.19418000  0.02546000  1.0 -0.1521494982
C  C29  1  0.11238000  0.08692000  0.28110000  1.0 -0.1521494982
C  C30  1  0.08128000  0.86238000  0.52546000  1.0 -0.1521494982
C  C31  1  0.80582000  0.83128000  0.71890000  1.0 -0.1521494982
C  C32  1  0.33692000  0.55582000  0.47454000  1.0 -0.1521494982
C  C33  1  0.02420000  0.54377000  0.16337000  1.0 0.1069833313
C  C34  1  0.11083000  0.77420000  0.98043000  1.0 0.1069833313
C  C35  1  0.38040000  0.86083000  0.83663000  1.0 0.1069833313
C  C36  1  0.79377000  0.13040000  0.01957000  1.0 0.1069833313
C  C37  1  0.22580000  0.20623000  0.33663000  1.0 0.1069833313
C  C38  1  0.13917000  0.97580000  0.51957000  1.0 0.1069833313
C  C39  1  0.86960000  0.88917000  0.66337000  1.0 0.1069833313
C  C40  1  0.45623000  0.61960000  0.48043000  1.0 0.1069833313
C  C41  1  0.86115000  0.47920000  0.22535000  1.0 0.2355339529
C  C42  1  0.88580000  0.61115000  0.88195000  1.0 0.2355339529
C  C43  1  0.25385000  0.63580000  0.77465000  1.0 0.2355339529
C  C44  1  0.72920000  0.00385000  0.11805000  1.0 0.2355339529
C  C45  1  0.38885000  0.27080000  0.27465000  1.0 0.2355339529
C  C46  1  0.36420000  0.13885000  0.61805000  1.0 0.2355339529
C  C47  1  0.99615000  0.11420000  0.72535000  1.0 0.2355339529
C  C48  1  0.52080000  0.74615000  0.38195000  1.0 0.2355339529
C  C49  1  0.80539000  0.42496000  0.09195000  1.0 0.2152709479
C  C50  1  0.96344000  0.55539000  0.88043000  1.0 0.2152709479
C  C51  1  0.33301000  0.71344000  0.90805000  1.0 0.2152709479
C  C52  1  0.67496000  0.08301000  0.11957000  1.0 0.2152709479
C  C53  1  0.44461000  0.32504000  0.40805000  1.0 0.2152709479
C  C54  1  0.28656000  0.19461000  0.61957000  1.0 0.2152709479
C  C55  1  0.91699000  0.03656000  0.59195000  1.0 0.2152709479
C  C56  1  0.57504000  0.66699000  0.38043000  1.0 0.2152709479
C  C57  1  0.02851000  0.48056000  0.11367000  1.0 -0.143776261
C  C58  1  0.16484000  0.77851000  0.04795000  1.0 -0.143776261
C  C59  1  0.36689000  0.91484000  0.88633000  1.0 -0.143776261
C  C60  1  0.73056000  0.11689000  0.95205000  1.0 -0.143776261
C  C61  1  0.22149000  0.26944000  0.38633000  1.0 -0.143776261
C  C62  1  0.08516000  0.97149000  0.45205000  1.0 -0.143776261
C  C63  1  0.88311000  0.83516000  0.61367000  1.0 -0.143776261
C  C64  1  0.51944000  0.63311000  0.54795000  1.0 -0.143776261
C  C65  1  0.37824000  0.70813000  0.18877000  1.0 0.547709197
C  C66  1  0.43947000  0.12824000  0.17011000  1.0 0.547709197
C  C67  1  0.51936000  0.18947000  0.81123000  1.0 0.547709197
C  C68  1  0.95813000  0.26936000  0.82989000  1.0 0.547709197
C  C69  1  0.87176000  0.04187000  0.31123000  1.0 0.547709197
C  C70  1  0.81053000  0.62176000  0.32989000  1.0 0.547709197
C  C71  1  0.73064000  0.56053000  0.68877000  1.0 0.547709197
C  C72  1  0.29187000  0.48064000  0.67011000  1.0 0.547709197
C  C73  1  0.79025000  0.39942000  0.00467000  1.0 -0.5087726337
C  C74  1  0.03558000  0.54025000  0.89083000  1.0 -0.5087726337
C  C75  1  0.39475000  0.78558000  0.99533000  1.0 -0.5087726337
C  C76  1  0.64942000  0.14475000  0.10917000  1.0 -0.5087726337
C  C77  1  0.45975000  0.35058000  0.49533000  1.0 -0.5087726337
C  C78  1  0.21442000  0.20975000  0.60917000  1.0 -0.5087726337
C  C79  1  0.85525000  0.96442000  0.50467000  1.0 -0.5087726337
C  C80  1  0.60058000  0.60525000  0.39083000  1.0 -0.5087726337
C  C81  1  0.14269000  0.53419000  0.12088000  1.0 -0.1009687481
C  C82  1  0.27181000  0.89269000  0.10850000  1.0 -0.1009687481
C  C83  1  0.41331000  0.02181000  0.87912000  1.0 -0.1009687481
C  C84  1  0.78419000  0.16331000  0.89150000  1.0 -0.1009687481
C  C85  1  0.10731000  0.21581000  0.37912000  1.0 -0.1009687481
C  C86  1  0.97819000  0.85731000  0.39150000  1.0 -0.1009687481
C  C87  1  0.83669000  0.72819000  0.62088000  1.0 -0.1009687481
C  C88  1  0.46581000  0.58669000  0.60850000  1.0 -0.1009687481
C  C89  1  0.92713000  0.52494000  0.31227000  1.0 -0.4570390952
C  C90  1  0.86486000  0.67713000  0.90219000  1.0 -0.4570390952
C  C91  1  0.21267000  0.61486000  0.68773000  1.0 -0.4570390952
C  C92  1  0.77494000  0.96267000  0.09781000  1.0 -0.4570390952
C  C93  1  0.32287000  0.22506000  0.18773000  1.0 -0.4570390952
C  C94  1  0.38514000  0.07287000  0.59781000  1.0 -0.4570390952
C  C95  1  0.03733000  0.13514000  0.81227000  1.0 -0.4570390952
C  C96  1  0.47506000  0.78733000  0.40219000  1.0 -0.4570390952
N  N1  1  0.71411000  0.38588000  0.11779000  1.0 -0.143776261
N  N2  1  0.84632000  0.46411000  0.82823000  1.0 -0.143776261
N  N3  1  0.26809000  0.59632000  0.88221000  1.0 -0.143776261
N  N4  1  0.63588000  0.01809000  0.17177000  1.0 -0.143776261
N  N5  1  0.53589000  0.36412000  0.38221000  1.0 -0.143776261
N  N6  1  0.40368000  0.28589000  0.67177000  1.0 -0.143776261
N  N7  1  0.98191000  0.15368000  0.61779000  1.0 -0.143776261
N  N8  1  0.61412000  0.73191000  0.32823000  1.0 -0.143776261
N  N9  1  0.74588000  0.41805000  0.19923000  1.0 -0.2628128228
N  N10  1  0.79665000  0.49588000  0.82783000  1.0 -0.2628128228
N  N11  1  0.21882000  0.54665000  0.80077000  1.0 -0.2628128228
N  N12  1  0.66805000  0.96882000  0.17217000  1.0 -0.2628128228
N  N13  1  0.50412000  0.33195000  0.30077000  1.0 -0.2628128228
N  N14  1  0.45335000  0.25412000  0.67217000  1.0 -0.2628128228
N  N15  1  0.03118000  0.20335000  0.69923000  1.0 -0.2628128228
N  N16  1  0.58195000  0.78118000  0.32783000  1.0 -0.2628128228
O  O1  1  0.47603000  0.81902000  0.23859000  1.0 -0.5461085809
O  O2  1  0.48744000  0.22603000  0.15701000  1.0 -0.5461085809
O  O3  1  0.58043000  0.23744000  0.76141000  1.0 -0.5461085809
O  O4  1  0.06902000  0.33043000  0.84299000  1.0 -0.5461085809
O  O5  1  0.77397000  0.93098000  0.26141000  1.0 -0.5461085809
O  O6  1  0.76256000  0.52397000  0.34299000  1.0 -0.5461085809
O  O7  1  0.66957000  0.51256000  0.73859000  1.0 -0.5461085809
O  O8  1  0.18098000  0.41957000  0.65701000  1.0 -0.5461085809
O  O9  1  0.38089000  0.64626000  0.15155000  1.0 -0.5627927033
O  O10  1  0.47934000  0.13089000  0.23463000  1.0 -0.5627927033
O  O11  1  0.49471000  0.22934000  0.84845000  1.0 -0.5627927033
O  O12  1  0.89626000  0.24471000  0.76537000  1.0 -0.5627927033
O  O13  1  0.86911000  0.10374000  0.34845000  1.0 -0.5627927033
O  O14  1  0.77066000  0.61911000  0.26537000  1.0 -0.5627927033
O  O15  1  0.75529000  0.52066000  0.65155000  1.0 -0.5627927033
O  O16  1  0.35374000  0.50529000  0.73463000  1.0 -0.5627927033
