# DDEC6 charges by PACMAN v1.1 (https://github.com/mtap-research/PACMAN-charge/)
data_NUCPIM_ASR_pacman
_symmetry_space_group_name_H-M   'P 1'
_cell_length_a   14.11920000
_cell_length_b   33.38900000
_cell_length_c   17.59760000
_cell_angle_alpha   90.00000000
_cell_angle_beta   116.55200000
_cell_angle_gamma   90.00000000
_symmetry_Int_Tables_number   1
_chemical_formula_structural   Zn2H9C23O12
_chemical_formula_sum   'Zn16 H72 C184 O96'
_cell_volume   7420.98214300
_cell_formula_units_Z   8
loop_
 _symmetry_equiv_pos_site_id
 _symmetry_equiv_pos_as_xyz
  1  'x, y, z'
loop_
 _atom_site_type_symbol
 _atom_site_label
 _atom_site_symmetry_multiplicity
 _atom_site_fract_x
 _atom_site_fract_y
 _atom_site_fract_z
 _atom_site_occupancy
 _atom_site_charge
Zn  Zn1  1  0.26175000  0.13430000  0.59736000  1.0 0.8124450508
Zn  Zn2  1  0.73825000  0.63430000  0.90264000  1.0 0.8124450508
Zn  Zn3  1  0.73825000  0.86570000  0.40264000  1.0 0.8124450508
Zn  Zn4  1  0.26175000  0.36570000  0.09736000  1.0 0.8124450508
Zn  Zn5  1  0.07990000  0.21115000  0.58520000  1.0 0.8890324596
Zn  Zn6  1  0.92010000  0.71115000  0.91480000  1.0 0.8890324596
Zn  Zn7  1  0.92010000  0.78885000  0.41480000  1.0 0.8890324596
Zn  Zn8  1  0.07990000  0.28885000  0.08520000  1.0 0.8890324596
Zn  Zn9  1  0.48911000  0.05949000  0.17640000  1.0 0.8579892877
Zn  Zn10  1  0.51089000  0.55949000  0.32360000  1.0 0.8579892877
Zn  Zn11  1  0.51089000  0.94051000  0.82360000  1.0 0.8579892877
Zn  Zn12  1  0.48911000  0.44051000  0.67640000  1.0 0.8579892877
Zn  Zn13  1  0.24447000  0.08720000  0.14870000  1.0 0.9306069973
Zn  Zn14  1  0.75553000  0.58720000  0.35130000  1.0 0.9306069973
Zn  Zn15  1  0.75553000  0.91280000  0.85130000  1.0 0.9306069973
Zn  Zn16  1  0.24447000  0.41280000  0.64870000  1.0 0.9306069973
H  H1  1  0.94140000  0.21260000  0.33930000  1.0 0.1199248142
H  H2  1  0.05860000  0.71260000  0.16070000  1.0 0.1199248142
H  H3  1  0.05860000  0.78740000  0.66070000  1.0 0.1199248142
H  H4  1  0.94140000  0.28740000  0.83930000  1.0 0.1199248142
H  H5  1  0.94680000  0.19390000  0.11780000  1.0 0.1199248142
H  H6  1  0.05320000  0.69390000  0.38220000  1.0 0.1199248142
H  H7  1  0.05320000  0.80610000  0.88220000  1.0 0.1199248142
H  H8  1  0.94680000  0.30610000  0.61780000  1.0 0.1199248142
H  H9  1  0.15240000  0.13640000  0.32140000  1.0 0.1388699413
H  H10  1  0.84760000  0.63640000  0.17860000  1.0 0.1388699413
H  H11  1  0.84760000  0.86360000  0.67860000  1.0 0.1388699413
H  H12  1  0.15240000  0.36360000  0.82140000  1.0 0.1388699413
H  H13  1  0.74180000  0.31360000  0.06520000  1.0 0.1199248142
H  H14  1  0.25820000  0.81360000  0.43480000  1.0 0.1199248142
H  H15  1  0.25820000  0.68640000  0.93480000  1.0 0.1199248142
H  H16  1  0.74180000  0.18640000  0.56520000  1.0 0.1199248142
H  H17  1  0.59670000  0.29960000  0.08580000  1.0 0.1199248142
H  H18  1  0.40330000  0.79960000  0.41420000  1.0 0.1199248142
H  H19  1  0.40330000  0.70040000  0.91420000  1.0 0.1199248142
H  H20  1  0.59670000  0.20040000  0.58580000  1.0 0.1199248142
H  H21  1  0.75120000  0.20480000  0.22920000  1.0 0.1103135946
H  H22  1  0.24880000  0.70480000  0.27080000  1.0 0.1103135946
H  H23  1  0.24880000  0.79520000  0.77080000  1.0 0.1103135946
H  H24  1  0.75120000  0.29520000  0.72920000  1.0 0.1103135946
H  H25  1  0.59600000  0.17710000  0.17860000  1.0 0.1103135946
H  H26  1  0.40400000  0.67710000  0.32140000  1.0 0.1103135946
H  H27  1  0.40400000  0.82290000  0.82140000  1.0 0.1103135946
H  H28  1  0.59600000  0.32290000  0.67860000  1.0 0.1103135946
H  H29  1  0.31660000  0.20250000  0.17480000  1.0 0.1388699413
H  H30  1  0.68340000  0.70250000  0.32520000  1.0 0.1388699413
H  H31  1  0.68340000  0.79750000  0.82520000  1.0 0.1388699413
H  H32  1  0.31660000  0.29750000  0.67480000  1.0 0.1388699413
H  H33  1  0.49860000  0.29200000  0.16080000  1.0 0.1282678887
H  H34  1  0.50140000  0.79200000  0.33920000  1.0 0.1282678887
H  H35  1  0.50140000  0.70800000  0.83920000  1.0 0.1282678887
H  H36  1  0.49860000  0.20800000  0.66080000  1.0 0.1282678887
H  H37  1  0.49360000  0.03900000  0.69350000  1.0 0.1199248142
H  H38  1  0.50640000  0.53900000  0.80650000  1.0 0.1199248142
H  H39  1  0.50640000  0.96100000  0.30650000  1.0 0.1199248142
H  H40  1  0.49360000  0.46100000  0.19350000  1.0 0.1199248142
H  H41  1  0.78410000  0.01560000  0.71920000  1.0 0.1199248142
H  H42  1  0.21590000  0.51560000  0.78080000  1.0 0.1199248142
H  H43  1  0.21590000  0.98440000  0.28080000  1.0 0.1199248142
H  H44  1  0.78410000  0.48440000  0.21920000  1.0 0.1199248142
H  H45  1  0.63790000  0.11610000  0.60390000  1.0 0.1103135946
H  H46  1  0.36210000  0.61610000  0.89610000  1.0 0.1103135946
H  H47  1  0.36210000  0.88390000  0.39610000  1.0 0.1103135946
H  H48  1  0.63790000  0.38390000  0.10390000  1.0 0.1103135946
H  H49  1  0.75300000  0.11080000  0.54220000  1.0 0.1282678887
H  H50  1  0.24700000  0.61080000  0.95780000  1.0 0.1282678887
H  H51  1  0.24700000  0.88920000  0.45780000  1.0 0.1282678887
H  H52  1  0.75300000  0.38920000  0.04220000  1.0 0.1282678887
H  H53  1  0.90540000  0.12330000  0.52880000  1.0 0.1103135946
H  H54  1  0.09460000  0.62330000  0.97120000  1.0 0.1103135946
H  H55  1  0.09460000  0.87670000  0.47120000  1.0 0.1103135946
H  H56  1  0.90540000  0.37670000  0.02880000  1.0 0.1103135946
H  H57  1  0.92860000  0.05350000  0.76100000  1.0 0.1282678887
H  H58  1  0.07140000  0.55350000  0.73900000  1.0 0.1282678887
H  H59  1  0.07140000  0.94650000  0.23900000  1.0 0.1282678887
H  H60  1  0.92860000  0.44650000  0.26100000  1.0 0.1282678887
H  H61  1  0.10530000  0.08230000  0.87180000  1.0 0.1282678887
H  H62  1  0.89470000  0.58230000  0.62820000  1.0 0.1282678887
H  H63  1  0.89470000  0.91770000  0.12820000  1.0 0.1282678887
H  H64  1  0.10530000  0.41770000  0.37180000  1.0 0.1282678887
H  H65  1  0.36430000  0.01520000  0.94050000  1.0 0.1388699413
H  H66  1  0.63570000  0.51520000  0.55950000  1.0 0.1388699413
H  H67  1  0.63570000  0.98480000  0.05950000  1.0 0.1388699413
H  H68  1  0.36430000  0.48480000  0.44050000  1.0 0.1388699413
H  H69  1  0.16200000  0.02990000  0.69280000  1.0 0.1103135946
H  H70  1  0.83800000  0.52990000  0.80720000  1.0 0.1103135946
H  H71  1  0.83800000  0.97010000  0.30720000  1.0 0.1103135946
H  H72  1  0.16200000  0.47010000  0.19280000  1.0 0.1103135946
C  C1  1  0.10630000  0.16820000  0.44170000  1.0 0.5837897423
C  C2  1  0.89370000  0.66820000  0.05830000  1.0 0.5837897423
C  C3  1  0.89370000  0.83180000  0.55830000  1.0 0.5837897423
C  C4  1  0.10630000  0.33180000  0.94170000  1.0 0.5837897423
C  C5  1  0.05890000  0.17430000  0.35110000  1.0 -0.0802593866
C  C6  1  0.94110000  0.67430000  0.14890000  1.0 -0.0802593866
C  C7  1  0.94110000  0.82570000  0.64890000  1.0 -0.0802593866
C  C8  1  0.05890000  0.32570000  0.85110000  1.0 -0.0802593866
C  C9  1  0.97210000  0.20020000  0.30840000  1.0 -0.121421573
C  C10  1  0.02790000  0.70020000  0.19160000  1.0 -0.121421573
C  C11  1  0.02790000  0.79980000  0.69160000  1.0 -0.121421573
C  C12  1  0.97210000  0.29980000  0.80840000  1.0 -0.121421573
C  C13  1  0.93170000  0.20760000  0.22400000  1.0 0.0646538909
C  C14  1  0.06830000  0.70760000  0.27600000  1.0 0.0646538909
C  C15  1  0.06830000  0.79240000  0.77600000  1.0 0.0646538909
C  C16  1  0.93170000  0.29240000  0.72400000  1.0 0.0646538909
C  C17  1  0.97480000  0.18860000  0.17570000  1.0 -0.121421573
C  C18  1  0.02520000  0.68860000  0.32430000  1.0 -0.121421573
C  C19  1  0.02520000  0.81140000  0.82430000  1.0 -0.121421573
C  C20  1  0.97480000  0.31140000  0.67570000  1.0 -0.121421573
C  C21  1  0.05940000  0.16170000  0.21330000  1.0 -0.0165023098
C  C22  1  0.94060000  0.66170000  0.28670000  1.0 -0.0165023098
C  C23  1  0.94060000  0.83830000  0.78670000  1.0 -0.0165023098
C  C24  1  0.05940000  0.33830000  0.71330000  1.0 -0.0165023098
C  C25  1  0.09760000  0.15490000  0.29670000  1.0 -0.0802593866
C  C26  1  0.90240000  0.65490000  0.20330000  1.0 -0.0902228857
C  C27  1  0.90240000  0.84510000  0.70330000  1.0 -0.0902228857
C  C28  1  0.09760000  0.34510000  0.79670000  1.0 -0.0802593866
C  C29  1  0.10500000  0.14170000  0.16100000  1.0 0.5667792323
C  C30  1  0.89500000  0.64170000  0.33900000  1.0 0.5667792323
C  C31  1  0.89500000  0.85830000  0.83900000  1.0 0.5667792323
C  C32  1  0.10500000  0.35830000  0.66100000  1.0 0.5667792323
C  C33  1  0.83860000  0.23490000  0.18290000  1.0 0.0698561815
C  C34  1  0.16140000  0.73490000  0.31710000  1.0 0.0698561815
C  C35  1  0.16140000  0.76510000  0.81710000  1.0 0.0698561815
C  C36  1  0.83860000  0.26510000  0.68290000  1.0 0.0698561815
C  C37  1  0.83230000  0.26840000  0.13160000  1.0 -0.0501611753
C  C38  1  0.16770000  0.76840000  0.36840000  1.0 -0.0501611753
C  C39  1  0.16770000  0.73160000  0.86840000  1.0 -0.0501611753
C  C40  1  0.83230000  0.23160000  0.63160000  1.0 -0.0501611753
C  C41  1  0.74320000  0.29140000  0.09750000  1.0 -0.1021490631
C  C42  1  0.25680000  0.79140000  0.40250000  1.0 -0.1021490631
C  C43  1  0.25680000  0.70860000  0.90250000  1.0 -0.1021490631
C  C44  1  0.74320000  0.20860000  0.59750000  1.0 -0.1021490631
C  C45  1  0.65590000  0.28300000  0.10880000  1.0 -0.1476835397
C  C46  1  0.34410000  0.78300000  0.39120000  1.0 -0.1476835397
C  C47  1  0.34410000  0.71700000  0.89120000  1.0 -0.1476835397
C  C48  1  0.65590000  0.21700000  0.60880000  1.0 -0.1476835397
C  C49  1  0.65700000  0.24820000  0.15660000  1.0 0.0861514571
C  C50  1  0.34300000  0.74820000  0.34340000  1.0 0.0861514571
C  C51  1  0.34300000  0.75180000  0.84340000  1.0 0.0861514571
C  C52  1  0.65700000  0.25180000  0.65660000  1.0 0.0861514571
C  C53  1  0.74860000  0.22620000  0.19450000  1.0 -0.2003744799
C  C54  1  0.25140000  0.72620000  0.30550000  1.0 -0.2003744799
C  C55  1  0.25140000  0.77380000  0.80550000  1.0 -0.2003744799
C  C56  1  0.74860000  0.27380000  0.69450000  1.0 -0.2003744799
C  C57  1  0.92600000  0.27970000  0.11600000  1.0 0.5338794354
C  C58  1  0.07400000  0.77970000  0.38400000  1.0 0.5338794354
C  C59  1  0.07400000  0.72030000  0.88400000  1.0 0.5338794354
C  C60  1  0.92600000  0.22030000  0.61600000  1.0 0.5338794354
C  C61  1  0.55910000  0.23660000  0.16380000  1.0 0.0698561815
C  C62  1  0.44090000  0.73660000  0.33620000  1.0 0.0698561815
C  C63  1  0.44090000  0.76340000  0.83620000  1.0 0.0698561815
C  C64  1  0.55910000  0.26340000  0.66380000  1.0 0.0698561815
C  C65  1  0.54430000  0.19560000  0.17340000  1.0 -0.1673850802
C  C66  1  0.45570000  0.69560000  0.32660000  1.0 -0.1673850802
C  C67  1  0.45570000  0.80440000  0.82660000  1.0 -0.1673850802
C  C68  1  0.54430000  0.30440000  0.67340000  1.0 -0.1673850802
C  C69  1  0.45030000  0.18300000  0.17490000  1.0 -0.0501611753
C  C70  1  0.54970000  0.68300000  0.32510000  1.0 -0.0501611753
C  C71  1  0.54970000  0.81700000  0.82510000  1.0 -0.0501611753
C  C72  1  0.45030000  0.31700000  0.67490000  1.0 -0.0501611753
C  C73  1  0.37820000  0.21090000  0.17280000  1.0 -0.0902228857
C  C74  1  0.62180000  0.71090000  0.32720000  1.0 -0.0902228857
C  C75  1  0.62180000  0.78910000  0.82720000  1.0 -0.0902228857
C  C76  1  0.37820000  0.28910000  0.67280000  1.0 -0.0902228857
C  C77  1  0.39570000  0.25170000  0.16780000  1.0 -0.0165023098
C  C78  1  0.60430000  0.75170000  0.33220000  1.0 -0.0165023098
C  C79  1  0.60430000  0.74830000  0.83220000  1.0 -0.0165023098
C  C80  1  0.39570000  0.24830000  0.66780000  1.0 -0.0165023098
C  C81  1  0.48640000  0.26480000  0.16360000  1.0 -0.1414527816
C  C82  1  0.51360000  0.76480000  0.33640000  1.0 -0.1414527816
C  C83  1  0.51360000  0.73520000  0.83640000  1.0 -0.1414527816
C  C84  1  0.48640000  0.23520000  0.66360000  1.0 -0.1414527816
C  C85  1  0.31450000  0.28300000  0.15830000  1.0 0.5935843053
C  C86  1  0.68550000  0.78300000  0.34170000  1.0 0.5935843053
C  C87  1  0.68550000  0.71700000  0.84170000  1.0 0.5935843053
C  C88  1  0.31450000  0.21700000  0.65830000  1.0 0.5935843053
C  C89  1  0.43000000  0.14000000  0.17700000  1.0 0.4860960829
C  C90  1  0.57000000  0.64000000  0.32300000  1.0 0.4860960829
C  C91  1  0.57000000  0.86000000  0.82300000  1.0 0.4860960829
C  C92  1  0.43000000  0.36000000  0.67700000  1.0 0.4860960829
C  C93  1  0.45660000  0.10970000  0.61010000  1.0 0.5590848091
C  C94  1  0.54340000  0.60970000  0.88990000  1.0 0.5590848091
C  C95  1  0.54340000  0.89030000  0.38990000  1.0 0.5590848091
C  C96  1  0.45660000  0.39030000  0.11010000  1.0 0.5590848091
C  C97  1  0.55000000  0.08180000  0.64200000  1.0 -0.0116765921
C  C98  1  0.45000000  0.58180000  0.85800000  1.0 -0.0116765921
C  C99  1  0.45000000  0.91820000  0.35800000  1.0 -0.0116765921
C  C100  1  0.55000000  0.41820000  0.14200000  1.0 -0.0116765921
C  C101  1  0.55150000  0.04620000  0.68470000  1.0 -0.106390252
C  C102  1  0.44850000  0.54620000  0.81530000  1.0 -0.106390252
C  C103  1  0.44850000  0.95380000  0.31530000  1.0 -0.106390252
C  C104  1  0.55150000  0.45380000  0.18470000  1.0 -0.106390252
C  C105  1  0.63980000  0.02200000  0.71370000  1.0 -0.032900003
C  C106  1  0.36020000  0.52200000  0.78630000  1.0 -0.032900003
C  C107  1  0.36020000  0.97800000  0.28630000  1.0 -0.032900003
C  C108  1  0.63980000  0.47800000  0.21370000  1.0 -0.032900003
C  C109  1  0.72660000  0.03290000  0.70110000  1.0 -0.1325408903
C  C110  1  0.27340000  0.53290000  0.79890000  1.0 -0.1325408903
C  C111  1  0.27340000  0.96710000  0.29890000  1.0 -0.1325408903
C  C112  1  0.72660000  0.46710000  0.20110000  1.0 -0.1325408903
C  C113  1  0.73070000  0.06790000  0.66340000  1.0 0.0512640258
C  C114  1  0.26930000  0.56790000  0.83660000  1.0 0.0512640258
C  C115  1  0.26930000  0.93210000  0.33660000  1.0 0.0512640258
C  C116  1  0.73070000  0.43210000  0.16340000  1.0 0.0512640258
C  C117  1  0.63880000  0.09240000  0.63200000  1.0 -0.1414527816
C  C118  1  0.36120000  0.59240000  0.86800000  1.0 -0.1414527816
C  C119  1  0.36120000  0.90760000  0.36800000  1.0 -0.1414527816
C  C120  1  0.63880000  0.40760000  0.13200000  1.0 -0.1414527816
C  C121  1  0.64140000  0.98330000  0.75780000  1.0 0.6081287029
C  C122  1  0.35860000  0.48330000  0.74220000  1.0 0.6081287029
C  C123  1  0.35860000  0.01670000  0.24220000  1.0 0.6081287029
C  C124  1  0.64140000  0.51670000  0.25780000  1.0 0.6081287029
C  C125  1  0.82380000  0.07900000  0.65110000  1.0 0.0966659511
C  C126  1  0.17620000  0.57900000  0.84890000  1.0 0.0966659511
C  C127  1  0.17620000  0.92100000  0.34890000  1.0 0.0966659511
C  C128  1  0.82380000  0.42100000  0.15110000  1.0 0.0966659511
C  C129  1  0.81780000  0.10120000  0.58280000  1.0 -0.1414527816
C  C130  1  0.18220000  0.60120000  0.91720000  1.0 -0.1414527816
C  C131  1  0.18220000  0.89880000  0.41720000  1.0 -0.1414527816
C  C132  1  0.81780000  0.39880000  0.08280000  1.0 -0.1414527816
C  C133  1  0.91020000  0.10910000  0.57580000  1.0 -0.0902228857
C  C134  1  0.08980000  0.60910000  0.92420000  1.0 -0.0902228857
C  C135  1  0.08980000  0.89090000  0.42420000  1.0 -0.0902228857
C  C136  1  0.91020000  0.39090000  0.07580000  1.0 -0.0902228857
C  C137  1  0.00650000  0.09700000  0.63430000  1.0 -0.1414527816
C  C138  1  0.99350000  0.59700000  0.86570000  1.0 -0.1414527816
C  C139  1  0.99350000  0.90300000  0.36570000  1.0 -0.1414527816
C  C140  1  0.00650000  0.40300000  0.13430000  1.0 -0.1414527816
C  C141  1  0.01620000  0.07550000  0.70520000  1.0 0.0646538909
C  C142  1  0.98380000  0.57550000  0.79480000  1.0 0.0646538909
C  C143  1  0.98380000  0.92450000  0.29480000  1.0 0.0646538909
C  C144  1  0.01620000  0.42450000  0.20520000  1.0 0.0646538909
C  C145  1  0.92350000  0.06720000  0.71320000  1.0 -0.1907706705
C  C146  1  0.07650000  0.56720000  0.78680000  1.0 -0.1907706705
C  C147  1  0.07650000  0.93280000  0.28680000  1.0 -0.1907706705
C  C148  1  0.92350000  0.43280000  0.21320000  1.0 -0.1907706705
C  C149  1  0.09500000  0.11060000  0.61600000  1.0 0.3769149321
C  C150  1  0.90500000  0.61060000  0.88400000  1.0 0.3769149321
C  C151  1  0.90500000  0.88940000  0.38400000  1.0 0.3769149321
C  C152  1  0.09500000  0.38940000  0.11600000  1.0 0.3769149321
C  C153  1  0.11810000  0.05900000  0.77230000  1.0 0.0512640258
C  C154  1  0.88190000  0.55900000  0.72770000  1.0 0.0512640258
C  C155  1  0.88190000  0.94100000  0.22770000  1.0 0.0512640258
C  C156  1  0.11810000  0.44100000  0.27230000  1.0 0.0512640258
C  C157  1  0.14820000  0.06630000  0.85680000  1.0 -0.121421573
C  C158  1  0.85180000  0.56630000  0.64320000  1.0 -0.121421573
C  C159  1  0.85180000  0.93370000  0.14320000  1.0 -0.121421573
C  C160  1  0.14820000  0.43370000  0.35680000  1.0 -0.121421573
C  C161  1  0.24240000  0.05040000  0.92180000  1.0 -0.043295489
C  C162  1  0.75760000  0.55040000  0.57820000  1.0 -0.043295489
C  C163  1  0.75760000  0.94960000  0.07820000  1.0 -0.043295489
C  C164  1  0.24240000  0.44960000  0.42180000  1.0 -0.043295489
C  C165  1  0.30220000  0.02610000  0.89870000  1.0 -0.0902228857
C  C166  1  0.69780000  0.52610000  0.60130000  1.0 -0.0902228857
C  C167  1  0.69780000  0.97390000  0.10130000  1.0 -0.0902228857
C  C168  1  0.30220000  0.47390000  0.39870000  1.0 -0.0902228857
C  C169  1  0.27160000  0.01670000  0.81140000  1.0 -0.0600223926
C  C170  1  0.72840000  0.51670000  0.68860000  1.0 -0.0600223926
C  C171  1  0.72840000  0.98330000  0.18860000  1.0 -0.0600223926
C  C172  1  0.27160000  0.48330000  0.31140000  1.0 -0.0600223926
C  C173  1  0.18090000  0.03450000  0.74990000  1.0 -0.2003744799
C  C174  1  0.81910000  0.53450000  0.75010000  1.0 -0.1907706705
C  C175  1  0.81910000  0.96550000  0.25010000  1.0 -0.2003744799
C  C176  1  0.18090000  0.46550000  0.24990000  1.0 -0.2003744799
C  C177  1  0.27680000  0.05870000  0.01080000  1.0 0.5935843053
C  C178  1  0.72320000  0.55870000  0.48920000  1.0 0.5935843053
C  C179  1  0.72320000  0.94130000  0.98920000  1.0 0.5935843053
C  C180  1  0.27680000  0.44130000  0.51080000  1.0 0.5935843053
C  C181  1  0.33500000  0.98890000  0.78600000  1.0 0.4559654358
C  C182  1  0.66500000  0.48890000  0.71400000  1.0 0.4559654358
C  C183  1  0.66500000  0.01110000  0.21400000  1.0 0.4559654358
C  C184  1  0.33500000  0.51110000  0.28600000  1.0 0.4530412319
O  O1  1  0.15700000  0.09520000  0.61400000  1.0 0.1474452901
O  O2  1  0.84300000  0.59520000  0.88600000  1.0 0.1474452901
O  O3  1  0.84300000  0.90480000  0.38600000  1.0 0.1474452901
O  O4  1  0.15700000  0.40480000  0.11400000  1.0 0.1474452901
O  O5  1  0.06340000  0.18490000  0.48020000  1.0 -0.5488449173
O  O6  1  0.93660000  0.68490000  0.01980000  1.0 -0.5488449173
O  O7  1  0.93660000  0.81510000  0.51980000  1.0 -0.5488449173
O  O8  1  0.06340000  0.31510000  0.98020000  1.0 -0.5488449173
O  O9  1  0.18710000  0.14720000  0.47520000  1.0 -0.5177592498
O  O10  1  0.81290000  0.64720000  0.02480000  1.0 -0.5177592498
O  O11  1  0.81290000  0.85280000  0.52480000  1.0 -0.5177592498
O  O12  1  0.18710000  0.35280000  0.97520000  1.0 -0.5177592498
O  O13  1  0.15350000  0.10930000  0.19340000  1.0 -0.5488449173
O  O14  1  0.84650000  0.60930000  0.30660000  1.0 -0.5488449173
O  O15  1  0.84650000  0.89070000  0.80660000  1.0 -0.5488449173
O  O16  1  0.15350000  0.39070000  0.69340000  1.0 -0.5488449173
O  O17  1  0.09470000  0.15660000  0.09460000  1.0 -0.5177592498
O  O18  1  0.90530000  0.65660000  0.40540000  1.0 -0.5177592498
O  O19  1  0.90530000  0.84340000  0.90540000  1.0 -0.5177592498
O  O20  1  0.09470000  0.34340000  0.59460000  1.0 -0.5177592498
O  O21  1  0.01710000  0.27600000  0.16900000  1.0 -0.4723288652
O  O22  1  0.98290000  0.77600000  0.33100000  1.0 -0.4723288652
O  O23  1  0.98290000  0.72400000  0.83100000  1.0 -0.4723288652
O  O24  1  0.01710000  0.22400000  0.66900000  1.0 -0.4723288652
O  O25  1  0.90760000  0.29350000  0.04590000  1.0 -0.5025599835
O  O26  1  0.09240000  0.79350000  0.45410000  1.0 -0.5025599835
O  O27  1  0.09240000  0.70650000  0.95410000  1.0 -0.5025599835
O  O28  1  0.90760000  0.20650000  0.54590000  1.0 -0.5025599835
O  O29  1  0.47000000  0.11740000  0.13800000  1.0 -0.0802593866
O  O30  1  0.53000000  0.61740000  0.36200000  1.0 -0.0802593866
O  O31  1  0.53000000  0.88260000  0.86200000  1.0 -0.0802593866
O  O32  1  0.47000000  0.38260000  0.63800000  1.0 -0.0802593866
O  O33  1  0.35570000  0.12990000  0.19060000  1.0 -0.487100133
O  O34  1  0.64430000  0.62990000  0.30940000  1.0 -0.487100133
O  O35  1  0.64430000  0.87010000  0.80940000  1.0 -0.487100133
O  O36  1  0.35570000  0.37010000  0.69060000  1.0 -0.487100133
O  O37  1  0.22480000  0.26940000  0.14730000  1.0 -0.5582229134
O  O38  1  0.77520000  0.76940000  0.35270000  1.0 -0.5582229134
O  O39  1  0.77520000  0.73060000  0.85270000  1.0 -0.5582229134
O  O40  1  0.22480000  0.23060000  0.64730000  1.0 -0.5582229134
O  O41  1  0.33650000  0.31860000  0.15920000  1.0 -0.5354378906
O  O42  1  0.66350000  0.81860000  0.34080000  1.0 -0.5354378906
O  O43  1  0.66350000  0.68140000  0.84080000  1.0 -0.5354378906
O  O44  1  0.33650000  0.18140000  0.65920000  1.0 -0.5354378906
O  O45  1  0.37590000  0.09690000  0.61960000  1.0 -0.5835264859
O  O46  1  0.62410000  0.59690000  0.88040000  1.0 -0.5835264859
O  O47  1  0.62410000  0.90310000  0.38040000  1.0 -0.5835264859
O  O48  1  0.37590000  0.40310000  0.11960000  1.0 -0.5835264859
O  O49  1  0.45740000  0.14070000  0.57480000  1.0 -0.5129727361
O  O50  1  0.54260000  0.64070000  0.92520000  1.0 -0.5129727361
O  O51  1  0.54260000  0.85930000  0.42520000  1.0 -0.5129727361
O  O52  1  0.45740000  0.35930000  0.07480000  1.0 -0.5129727361
O  O53  1  0.55260000  0.97290000  0.75290000  1.0 -0.586980888
O  O54  1  0.44740000  0.47290000  0.74710000  1.0 -0.586980888
O  O55  1  0.44740000  0.02710000  0.24710000  1.0 -0.586980888
O  O56  1  0.55260000  0.52710000  0.25290000  1.0 -0.586980888
O  O57  1  0.72250000  0.96390000  0.78890000  1.0 -0.5129727361
O  O58  1  0.27750000  0.46390000  0.71110000  1.0 -0.5129727361
O  O59  1  0.27750000  0.03610000  0.21110000  1.0 -0.5129727361
O  O60  1  0.72250000  0.53610000  0.28890000  1.0 -0.5129727361
O  O61  1  0.12400000  0.15040000  0.63900000  1.0 -0.0802593866
O  O62  1  0.87600000  0.65040000  0.86100000  1.0 -0.0902228857
O  O63  1  0.87600000  0.84960000  0.36100000  1.0 -0.0902228857
O  O64  1  0.12400000  0.34960000  0.13900000  1.0 -0.0902228857
O  O65  1  0.21350000  0.07840000  0.03090000  1.0 -0.5488449173
O  O66  1  0.78650000  0.57840000  0.46910000  1.0 -0.5488449173
O  O67  1  0.78650000  0.92160000  0.96910000  1.0 -0.5488449173
O  O68  1  0.21350000  0.42160000  0.53090000  1.0 -0.5488449173
O  O69  1  0.36640000  0.04650000  0.06570000  1.0 -0.5835264859
O  O70  1  0.63360000  0.54650000  0.43430000  1.0 -0.5835264859
O  O71  1  0.63360000  0.95350000  0.93430000  1.0 -0.5835264859
O  O72  1  0.36640000  0.45350000  0.56570000  1.0 -0.5835264859
O  O73  1  0.29800000  0.97540000  0.71400000  1.0 0.0512640258
O  O74  1  0.70200000  0.47540000  0.78600000  1.0 0.0512640258
O  O75  1  0.70200000  0.02460000  0.28600000  1.0 0.0512640258
O  O76  1  0.29800000  0.52460000  0.21400000  1.0 0.0413564692
O  O77  1  0.40900000  0.97180000  0.84580000  1.0 -0.487100133
O  O78  1  0.59100000  0.47180000  0.65420000  1.0 -0.487100133
O  O79  1  0.59100000  0.02820000  0.15420000  1.0 -0.487100133
O  O80  1  0.40900000  0.52820000  0.34580000  1.0 -0.487100133
O  O81  1  0.11700000  0.08310000  0.56200000  1.0 -0.1414527816
O  O82  1  0.88300000  0.58310000  0.93800000  1.0 -0.1414527816
O  O83  1  0.88300000  0.91690000  0.43800000  1.0 -0.1414527816
O  O84  1  0.11700000  0.41690000  0.06200000  1.0 -0.1414527816
O  O85  1  0.50300000  0.11640000  0.18200000  1.0 -0.0902228857
O  O86  1  0.49700000  0.61640000  0.31800000  1.0 -0.0902228857
O  O87  1  0.49700000  0.88360000  0.81800000  1.0 -0.0902228857
O  O88  1  0.50300000  0.38360000  0.68200000  1.0 -0.0902228857
O  O89  1  0.16600000  0.13100000  0.65800000  1.0 0.0512640258
O  O90  1  0.83400000  0.63100000  0.84200000  1.0 0.0512640258
O  O91  1  0.83400000  0.86900000  0.34200000  1.0 0.0512640258
O  O92  1  0.16600000  0.36900000  0.15800000  1.0 0.0512640258
O  O93  1  0.32300000  0.99250000  0.71100000  1.0 -0.0501611753
O  O94  1  0.67700000  0.49250000  0.78900000  1.0 -0.0501611753
O  O95  1  0.67700000  0.00750000  0.28900000  1.0 -0.0501611753
O  O96  1  0.32300000  0.50750000  0.21100000  1.0 -0.0600223926
