# DDEC6 charges by PACMAN v1.1 (https://github.com/mtap-research/PACMAN-charge/)
data_NUFHII_FSR_pacman
_symmetry_space_group_name_H-M   'P 1'
_cell_length_a   24.26250000
_cell_length_b   23.88300000
_cell_length_c   12.57750000
_cell_angle_alpha   76.53240000
_cell_angle_beta   73.19360000
_cell_angle_gamma   30.27400000
_symmetry_Int_Tables_number   1
_chemical_formula_structural   CuH46C48S2(N3O2)2
_chemical_formula_sum   'Cu2 H92 C96 S4 N12 O8'
_cell_volume   3515.15801109
_cell_formula_units_Z   2
loop_
 _symmetry_equiv_pos_site_id
 _symmetry_equiv_pos_as_xyz
  1  'x, y, z'
loop_
 _atom_site_type_symbol
 _atom_site_label
 _atom_site_symmetry_multiplicity
 _atom_site_fract_x
 _atom_site_fract_y
 _atom_site_fract_z
 _atom_site_occupancy
 _atom_site_charge
Cu  Cu1  1  0.25000000  0.25000000  0.25000000  1.0 0.7224367704
Cu  Cu2  1  0.50000000  0.50000000  0.50000000  1.0 0.1401302547
H  H1  1  0.27552000  0.05322000  0.75380000  1.0 0.1219362367
H  H2  1  0.32329000  0.84153000  0.84193000  1.0 0.1219362367
H  H3  1  0.44036000  0.58860000  0.71076000  1.0 0.099246617
H  H4  1  0.37608000  0.80874000  0.47184000  1.0 0.1401302547
H  H5  1  0.41326000  0.69168000  0.42014000  1.0 0.1103843347
H  H6  1  0.42049000  0.68789000  0.77675000  1.0 0.1401302547
H  H7  1  0.33110000  0.97602000  0.41256000  1.0 0.1495344076
H  H8  1  0.27378000  0.12664000  0.62662000  1.0 0.1495344076
H  H9  1  0.26296000  0.20990000  0.48578000  1.0 0.1103843347
H  H10  1  0.33731000  0.05067000  0.26947000  1.0 0.1219362367
H  H11  1  0.35547000  0.98347000  0.90443000  1.0 0.1103843347
H  H12  1  0.32731000  0.01647000  0.08727000  1.0 0.1103843347
H  H13  1  0.15842000  0.01168000  0.18460000  1.0 0.1401302547
H  H14  1  0.18658000  0.97868000  0.00176000  1.0 0.1103843347
H  H15  1  0.18483000  0.03199000  0.43941000  1.0 0.099246617
H  H16  1  0.23132000  0.94404000  0.37728000  1.0 0.099246617
H  H17  1  0.11729000  0.07109000  0.35893000  1.0 0.0594237243
H  H18  1  0.06698000  0.54932000  0.45774000  1.0 0.0923254896
H  H19  1  0.93719000  0.65701000  0.47357000  1.0 0.1103843347
H  H20  1  0.00946000  0.60378000  0.35432000  1.0 0.0700809011
H  H21  1  0.89521000  0.56875000  0.60595000  1.0 0.0923254896
H  H22  1  0.90724000  0.51804000  0.52252000  1.0 0.0335544493
H  H23  1  0.83391000  0.63641000  0.50389000  1.0 0.1219362367
H  H24  1  0.05322000  0.27552000  0.91746000  1.0 0.1219362367
H  H25  1  0.84153000  0.32329000  0.99325000  1.0 0.1219362367
H  H26  1  0.58860000  0.44036000  0.26028000  1.0 0.099246617
H  H27  1  0.80874000  0.37608000  0.34334000  1.0 0.1401302547
H  H28  1  0.69168000  0.41326000  0.47492000  1.0 0.1103843347
H  H29  1  0.68789000  0.42049000  0.11487000  1.0 0.1401302547
H  H30  1  0.97602000  0.33110000  0.28032000  1.0 0.1495344076
H  H31  1  0.12664000  0.27378000  0.97296000  1.0 0.1495344076
H  H32  1  0.20990000  0.26296000  0.04136000  1.0 0.1103843347
H  H33  1  0.05067000  0.33731000  0.34255000  1.0 0.1219362367
H  H34  1  0.98347000  0.35547000  0.75663000  1.0 0.1103843347
H  H35  1  0.01647000  0.32731000  0.56895000  1.0 0.1103843347
H  H36  1  0.01168000  0.15842000  0.64530000  1.0 0.1401302547
H  H37  1  0.97868000  0.18658000  0.83298000  1.0 0.1103843347
H  H38  1  0.03199000  0.18483000  0.34377000  1.0 0.099246617
H  H39  1  0.94404000  0.23132000  0.44736000  1.0 0.099246617
H  H40  1  0.07109000  0.11729000  0.45269000  1.0 0.0594237243
H  H41  1  0.54932000  0.06698000  0.92596000  1.0 0.0923254896
H  H42  1  0.65701000  0.93719000  0.93223000  1.0 0.1103843347
H  H43  1  0.60378000  0.00946000  0.03244000  1.0 0.0700809011
H  H44  1  0.56875000  0.89521000  0.93009000  1.0 0.0923254896
H  H45  1  0.51804000  0.90724000  0.05220000  1.0 0.0335544493
H  H46  1  0.63641000  0.83391000  0.02579000  1.0 0.1219362367
H  H47  1  0.75380000  0.91746000  0.27552000  1.0 0.1219362367
H  H48  1  0.84193000  0.99325000  0.32329000  1.0 0.1219362367
H  H49  1  0.71076000  0.26028000  0.44036000  1.0 0.099246617
H  H50  1  0.47184000  0.34334000  0.37608000  1.0 0.1401302547
H  H51  1  0.42014000  0.47492000  0.41326000  1.0 0.1103843347
H  H52  1  0.77675000  0.11487000  0.42049000  1.0 0.1401302547
H  H53  1  0.41256000  0.28032000  0.33110000  1.0 0.1495344076
H  H54  1  0.62662000  0.97296000  0.27378000  1.0 0.1495344076
H  H55  1  0.48578000  0.04136000  0.26296000  1.0 0.1103843347
H  H56  1  0.26947000  0.34255000  0.33731000  1.0 0.1219362367
H  H57  1  0.90443000  0.75663000  0.35547000  1.0 0.1103843347
H  H58  1  0.08727000  0.56895000  0.32731000  1.0 0.1103843347
H  H59  1  0.18460000  0.64530000  0.15842000  1.0 0.1401302547
H  H60  1  0.00176000  0.83298000  0.18658000  1.0 0.1103843347
H  H61  1  0.43941000  0.34377000  0.18483000  1.0 0.099246617
H  H62  1  0.37728000  0.44736000  0.23132000  1.0 0.099246617
H  H63  1  0.35893000  0.45269000  0.11729000  1.0 0.0594237243
H  H64  1  0.45774000  0.92596000  0.06698000  1.0 0.0923254896
H  H65  1  0.47357000  0.93223000  0.93719000  1.0 0.1103843347
H  H66  1  0.35432000  0.03244000  0.00946000  1.0 0.0700809011
H  H67  1  0.60595000  0.93009000  0.89521000  1.0 0.0923254896
H  H68  1  0.52252000  0.05220000  0.90724000  1.0 0.0335544493
H  H69  1  0.50389000  0.02579000  0.83391000  1.0 0.1219362367
H  H70  1  0.91746000  0.75380000  0.05322000  1.0 0.1219362367
H  H71  1  0.99325000  0.84193000  0.84153000  1.0 0.1219362367
H  H72  1  0.26028000  0.71076000  0.58860000  1.0 0.099246617
H  H73  1  0.34334000  0.47184000  0.80874000  1.0 0.1401302547
H  H74  1  0.47492000  0.42014000  0.69168000  1.0 0.1103843347
H  H75  1  0.11487000  0.77675000  0.68789000  1.0 0.1401302547
H  H76  1  0.28032000  0.41256000  0.97602000  1.0 0.1495344076
H  H77  1  0.97296000  0.62662000  0.12664000  1.0 0.1495344076
H  H78  1  0.04136000  0.48578000  0.20990000  1.0 0.1103843347
H  H79  1  0.34255000  0.26947000  0.05067000  1.0 0.1219362367
H  H80  1  0.75663000  0.90443000  0.98347000  1.0 0.1103843347
H  H81  1  0.56895000  0.08727000  0.01647000  1.0 0.1103843347
H  H82  1  0.64530000  0.18460000  0.01168000  1.0 0.1401302547
H  H83  1  0.83298000  0.00176000  0.97868000  1.0 0.1103843347
H  H84  1  0.34377000  0.43941000  0.03199000  1.0 0.099246617
H  H85  1  0.44736000  0.37728000  0.94404000  1.0 0.099246617
H  H86  1  0.45269000  0.35893000  0.07109000  1.0 0.0594237243
H  H87  1  0.92596000  0.45774000  0.54932000  1.0 0.0923254896
H  H88  1  0.93223000  0.47357000  0.65701000  1.0 0.1103843347
H  H89  1  0.03244000  0.35432000  0.60378000  1.0 0.0700809011
H  H90  1  0.93009000  0.60595000  0.56875000  1.0 0.0923254896
H  H91  1  0.05220000  0.52252000  0.51804000  1.0 0.0335544493
H  H92  1  0.02579000  0.50389000  0.63641000  1.0 0.1219362367
C  C1  1  0.31985000  0.97845000  0.62275000  1.0 0.1894596811
C  C2  1  0.29385000  0.00265000  0.73415000  1.0 -0.2401142124
C  C3  1  0.29510000  0.95130000  0.81630000  1.0 0.1219362367
C  C4  1  0.32244000  0.87584000  0.78696000  1.0 -0.2401142124
C  C5  1  0.34844000  0.85164000  0.67556000  1.0 0.1800771799
C  C6  1  0.43569000  0.62769000  0.66071000  1.0 0.0594237243
C  C7  1  0.38960000  0.76440000  0.52420000  1.0 -0.1824419875
C  C8  1  0.38136000  0.77336000  0.63564000  1.0 0.0923254896
C  C9  1  0.41780000  0.68900000  0.49260000  1.0 0.0594237243
C  C10  1  0.41380000  0.69480000  0.70380000  1.0 -0.2065508356
C  C11  1  0.31467000  0.03187000  0.53213000  1.0 0.0780872922
C  C12  1  0.32310000  0.01930000  0.42770000  1.0 -0.1319439216
C  C13  1  0.28660000  0.11060000  0.55420000  1.0 -0.1716842357
C  C14  1  0.27910000  0.16010000  0.47050000  1.0 0.0594237243
C  C15  1  0.32017000  0.06917000  0.34263000  1.0 0.0700809011
C  C16  1  0.31600000  0.98920000  0.96060000  1.0 -0.1319439216
C  C17  1  0.29910000  0.00890000  0.07010000  1.0 -0.2199693475
C  C18  1  0.24010000  0.01730000  0.15410000  1.0 0.2307679277
C  C19  1  0.19800000  0.00600000  0.12840000  1.0 -0.2065508356
C  C20  1  0.21470000  0.98630000  0.01890000  1.0 -0.1319439216
C  C21  1  0.27380000  0.97780000  0.93500000  1.0 0.036636313
C  C22  1  0.19040000  0.01440000  0.37160000  1.0 -0.2525548492
C  C23  1  0.00620000  0.58820000  0.43180000  1.0 -0.3602011059
C  C24  1  0.90020000  0.56320000  0.52980000  1.0 -0.3203406487
C  C25  1  0.97845000  0.31985000  0.07895000  1.0 0.1894596811
C  C26  1  0.00265000  0.29385000  0.96935000  1.0 -0.2401142124
C  C27  1  0.95130000  0.29510000  0.93730000  1.0 0.1219362367
C  C28  1  0.87584000  0.32244000  0.01476000  1.0 -0.2401142124
C  C29  1  0.85164000  0.34844000  0.12436000  1.0 0.1800771799
C  C30  1  0.62769000  0.43569000  0.27591000  1.0 0.0594237243
C  C31  1  0.76440000  0.38960000  0.32180000  1.0 -0.1824419875
C  C32  1  0.77336000  0.38136000  0.20964000  1.0 0.0923254896
C  C33  1  0.68900000  0.41780000  0.40060000  1.0 0.0594237243
C  C34  1  0.69480000  0.41380000  0.18760000  1.0 -0.2065508356
C  C35  1  0.03187000  0.31467000  0.12133000  1.0 0.0780872922
C  C36  1  0.01930000  0.32310000  0.22990000  1.0 -0.1319439216
C  C37  1  0.11060000  0.28660000  0.04860000  1.0 -0.1716842357
C  C38  1  0.16010000  0.27910000  0.09030000  1.0 0.0594237243
C  C39  1  0.06917000  0.32017000  0.26803000  1.0 0.0700809011
C  C40  1  0.98920000  0.31600000  0.73420000  1.0 -0.1319439216
C  C41  1  0.00890000  0.29910000  0.62190000  1.0 -0.2199693475
C  C42  1  0.01730000  0.24010000  0.58850000  1.0 0.2307679277
C  C43  1  0.00600000  0.19800000  0.66760000  1.0 -0.2065508356
C  C44  1  0.98630000  0.21470000  0.78010000  1.0 -0.1319439216
C  C45  1  0.97780000  0.27380000  0.81340000  1.0 0.036636313
C  C46  1  0.01440000  0.19040000  0.42360000  1.0 -0.2525548492
C  C47  1  0.58820000  0.00620000  0.97380000  1.0 -0.3602011059
C  C48  1  0.56320000  0.90020000  0.00680000  1.0 -0.3203406487
C  C49  1  0.62275000  0.07895000  0.31985000  1.0 0.1894596811
C  C50  1  0.73415000  0.96935000  0.29385000  1.0 -0.2401142124
C  C51  1  0.81630000  0.93730000  0.29510000  1.0 0.1219362367
C  C52  1  0.78696000  0.01476000  0.32244000  1.0 -0.2401142124
C  C53  1  0.67556000  0.12436000  0.34844000  1.0 0.1800771799
C  C54  1  0.66071000  0.27591000  0.43569000  1.0 0.0594237243
C  C55  1  0.52420000  0.32180000  0.38960000  1.0 -0.1824419875
C  C56  1  0.63564000  0.20964000  0.38136000  1.0 0.0923254896
C  C57  1  0.49260000  0.40060000  0.41780000  1.0 0.0594237243
C  C58  1  0.70380000  0.18760000  0.41380000  1.0 -0.2065508356
C  C59  1  0.53213000  0.12133000  0.31467000  1.0 0.0780872922
C  C60  1  0.42770000  0.22990000  0.32310000  1.0 -0.1319439216
C  C61  1  0.55420000  0.04860000  0.28660000  1.0 -0.1716842357
C  C62  1  0.47050000  0.09030000  0.27910000  1.0 0.0594237243
C  C63  1  0.34263000  0.26803000  0.32017000  1.0 0.0700809011
C  C64  1  0.96060000  0.73420000  0.31600000  1.0 -0.1319439216
C  C65  1  0.07010000  0.62190000  0.29910000  1.0 -0.2199693475
C  C66  1  0.15410000  0.58850000  0.24010000  1.0 0.2307679277
C  C67  1  0.12840000  0.66760000  0.19800000  1.0 -0.2065508356
C  C68  1  0.01890000  0.78010000  0.21470000  1.0 -0.1319439216
C  C69  1  0.93500000  0.81340000  0.27380000  1.0 0.036636313
C  C70  1  0.37160000  0.42360000  0.19040000  1.0 -0.2525548492
C  C71  1  0.43180000  0.97380000  0.00620000  1.0 -0.3602011059
C  C72  1  0.52980000  0.00680000  0.90020000  1.0 -0.3203406487
C  C73  1  0.07895000  0.62275000  0.97845000  1.0 0.1894596811
C  C74  1  0.96935000  0.73415000  0.00265000  1.0 -0.2401142124
C  C75  1  0.93730000  0.81630000  0.95130000  1.0 0.1219362367
C  C76  1  0.01476000  0.78696000  0.87584000  1.0 -0.2401142124
C  C77  1  0.12436000  0.67556000  0.85164000  1.0 0.1800771799
C  C78  1  0.27591000  0.66071000  0.62769000  1.0 0.0594237243
C  C79  1  0.32180000  0.52420000  0.76440000  1.0 -0.1824419875
C  C80  1  0.20964000  0.63564000  0.77336000  1.0 0.0923254896
C  C81  1  0.40060000  0.49260000  0.68900000  1.0 0.0594237243
C  C82  1  0.18760000  0.70380000  0.69480000  1.0 -0.2065508356
C  C83  1  0.12133000  0.53213000  0.03187000  1.0 0.0780872922
C  C84  1  0.22990000  0.42770000  0.01930000  1.0 -0.1319439216
C  C85  1  0.04860000  0.55420000  0.11060000  1.0 -0.1716842357
C  C86  1  0.09030000  0.47050000  0.16010000  1.0 0.0594237243
C  C87  1  0.26803000  0.34263000  0.06917000  1.0 0.0700809011
C  C88  1  0.73420000  0.96060000  0.98920000  1.0 -0.1319439216
C  C89  1  0.62190000  0.07010000  0.00890000  1.0 -0.2199693475
C  C90  1  0.58850000  0.15410000  0.01730000  1.0 0.2307679277
C  C91  1  0.66760000  0.12840000  0.00600000  1.0 -0.2065508356
C  C92  1  0.78010000  0.01890000  0.98630000  1.0 -0.1319439216
C  C93  1  0.81340000  0.93500000  0.97780000  1.0 0.036636313
C  C94  1  0.42360000  0.37160000  0.01440000  1.0 -0.2525548492
C  C95  1  0.97380000  0.43180000  0.58820000  1.0 -0.3602011059
C  C96  1  0.00680000  0.52980000  0.56320000  1.0 -0.3203406487
S  S1  1  0.01600000  0.50500000  0.44820000  1.0 0.3268359746
S  S2  1  0.50500000  0.01600000  0.03080000  1.0 0.3268359746
S  S3  1  0.44820000  0.03080000  0.01600000  1.0 0.3268359746
S  S4  1  0.03080000  0.44820000  0.50500000  1.0 0.3268359746
N  N1  1  0.45020000  0.61500000  0.55580000  1.0 -0.2065508356
N  N2  1  0.29290000  0.14450000  0.36370000  1.0 -0.2825430486
N  N3  1  0.34715000  0.90295000  0.59345000  1.0 -0.3685108353
N  N4  1  0.61500000  0.45020000  0.37900000  1.0 -0.2044269148
N  N5  1  0.14450000  0.29290000  0.19890000  1.0 -0.2825430486
N  N6  1  0.90295000  0.34715000  0.15645000  1.0 -0.3685108353
N  N7  1  0.55580000  0.37900000  0.45020000  1.0 -0.2065508356
N  N8  1  0.36370000  0.19890000  0.29290000  1.0 -0.2825430486
N  N9  1  0.59345000  0.15645000  0.34715000  1.0 -0.3685108353
N  N10  1  0.37900000  0.55580000  0.61500000  1.0 -0.2065508356
N  N11  1  0.19890000  0.36370000  0.14450000  1.0 -0.2825430486
N  N12  1  0.15645000  0.59345000  0.90295000  1.0 -0.3685108353
O  O1  1  0.22260000  0.03820000  0.26960000  1.0 -0.2723974664
O  O2  1  0.13150000  0.37270000  0.39050000  1.0 -0.3092551236
O  O3  1  0.03820000  0.22260000  0.46960000  1.0 -0.2723974664
O  O4  1  0.37270000  0.13150000  0.10530000  1.0 -0.3092551236
O  O5  1  0.26960000  0.46960000  0.22260000  1.0 -0.2723974664
O  O6  1  0.39050000  0.10530000  0.13150000  1.0 -0.3092551236
O  O7  1  0.46960000  0.26960000  0.03820000  1.0 -0.2723974664
O  O8  1  0.10530000  0.39050000  0.37270000  1.0 -0.3092551236
