# DDEC6 charges by PACMAN v1.1 (https://github.com/mtap-research/PACMAN-charge/)
data_NUHQAK_FSR_pacman
_symmetry_space_group_name_H-M   'P 1'
_cell_length_a   13.89090000
_cell_length_b   13.89090000
_cell_length_c   14.86800000
_cell_angle_alpha   83.99390000
_cell_angle_beta   96.00610000
_cell_angle_gamma   124.82400000
_symmetry_Int_Tables_number   1
_chemical_formula_structural   EuH18C18NO8
_chemical_formula_sum   'Eu4 H72 C72 N4 O32'
_cell_volume   2338.62786207
_cell_formula_units_Z   4
loop_
 _symmetry_equiv_pos_site_id
 _symmetry_equiv_pos_as_xyz
  1  'x, y, z'
loop_
 _atom_site_type_symbol
 _atom_site_label
 _atom_site_symmetry_multiplicity
 _atom_site_fract_x
 _atom_site_fract_y
 _atom_site_fract_z
 _atom_site_occupancy
 _atom_site_charge
Eu  Eu1  1  0.53019000  0.87453000  0.53321000  1.0 2.0487455684
Eu  Eu2  1  0.87453000  0.53019000  0.96679000  1.0 2.0487455684
Eu  Eu3  1  0.46981000  0.12547000  0.46679000  1.0 2.0487455684
Eu  Eu4  1  0.12547000  0.46981000  0.03321000  1.0 2.0487455684
H  H1  1  0.22530000  0.68550000  0.28680000  1.0 0.1312650587
H  H2  1  0.68550000  0.22530000  0.21320000  1.0 0.1312650587
H  H3  1  0.77470000  0.31450000  0.71320000  1.0 0.1312650587
H  H4  1  0.31450000  0.77470000  0.78680000  1.0 0.1312650587
H  H5  1  0.15130000  0.86310000  0.43070000  1.0 0.1312650587
H  H6  1  0.86310000  0.15130000  0.06930000  1.0 0.1312650587
H  H7  1  0.84870000  0.13690000  0.56930000  1.0 0.1312650587
H  H8  1  0.13690000  0.84870000  0.93070000  1.0 0.1312650587
H  H9  1  0.92880000  0.67040000  0.22730000  1.0 0.1203025463
H  H10  1  0.67040000  0.92880000  0.27270000  1.0 0.1203025463
H  H11  1  0.07120000  0.32960000  0.77270000  1.0 0.1203025463
H  H12  1  0.32960000  0.07120000  0.72730000  1.0 0.1203025463
H  H13  1  0.79120000  0.62940000  0.33360000  1.0 0.099949054
H  H14  1  0.62940000  0.79120000  0.16640000  1.0 0.099949054
H  H15  1  0.20880000  0.37060000  0.66640000  1.0 0.099949054
H  H16  1  0.37060000  0.20880000  0.83360000  1.0 0.099949054
H  H17  1  0.65740000  0.65780000  0.38460000  1.0 0.1203025463
H  H18  1  0.65780000  0.65740000  0.11540000  1.0 0.1203025463
H  H19  1  0.34260000  0.34220000  0.61540000  1.0 0.1203025463
H  H20  1  0.34220000  0.34260000  0.88460000  1.0 0.1203025463
H  H21  1  0.91690000  0.98410000  0.44270000  1.0 0.1117841206
H  H22  1  0.98410000  0.91690000  0.05730000  1.0 0.1117841206
H  H23  1  0.08310000  0.01590000  0.55730000  1.0 0.1117841206
H  H24  1  0.01590000  0.08310000  0.94270000  1.0 0.1117841206
H  H25  1  0.05210000  0.95730000  0.39300000  1.0 0.1117841206
H  H26  1  0.95730000  0.05210000  0.10700000  1.0 0.1117841206
H  H27  1  0.94790000  0.04270000  0.60700000  1.0 0.1117841206
H  H28  1  0.04270000  0.94790000  0.89300000  1.0 0.1117841206
H  H29  1  0.62140000  0.98820000  0.74970000  1.0 0.099949054
H  H30  1  0.98820000  0.62140000  0.75030000  1.0 0.099949054
H  H31  1  0.37860000  0.01180000  0.25030000  1.0 0.099949054
H  H32  1  0.01180000  0.37860000  0.24970000  1.0 0.099949054
H  H33  1  0.82990000  0.90770000  0.86990000  1.0 0.1203025463
H  H34  1  0.90770000  0.82990000  0.63010000  1.0 0.1203025463
H  H35  1  0.17010000  0.09230000  0.13010000  1.0 0.1203025463
H  H36  1  0.09230000  0.17010000  0.36990000  1.0 0.1203025463
H  H37  1  0.71350000  0.80910000  0.82070000  1.0 0.1117841206
H  H38  1  0.80910000  0.71350000  0.67930000  1.0 0.1117841206
H  H39  1  0.28650000  0.19090000  0.17930000  1.0 0.1117841206
H  H40  1  0.19090000  0.28650000  0.32070000  1.0 0.1117841206
H  H41  1  0.81810000  0.90870000  0.76390000  1.0 0.1117841206
H  H42  1  0.90870000  0.81810000  0.73610000  1.0 0.1117841206
H  H43  1  0.18190000  0.09130000  0.23610000  1.0 0.1117841206
H  H44  1  0.09130000  0.18190000  0.26390000  1.0 0.1117841206
H  H45  1  0.71990000  0.07510000  0.85820000  1.0 0.1380116153
H  H46  1  0.07510000  0.71990000  0.64180000  1.0 0.1380116153
H  H47  1  0.28010000  0.92490000  0.14180000  1.0 0.1380116153
H  H48  1  0.92490000  0.28010000  0.35820000  1.0 0.1380116153
H  H49  1  0.73020000  0.99640000  0.93680000  1.0 0.1312650587
H  H50  1  0.99640000  0.73020000  0.56320000  1.0 0.1312650587
H  H51  1  0.26980000  0.00360000  0.06320000  1.0 0.1312650587
H  H52  1  0.00360000  0.26980000  0.43680000  1.0 0.1312650587
H  H53  1  0.84170000  0.09470000  0.88560000  1.0 0.1312650587
H  H54  1  0.09470000  0.84170000  0.61440000  1.0 0.1312650587
H  H55  1  0.15830000  0.90530000  0.11440000  1.0 0.1312650587
H  H56  1  0.90530000  0.15830000  0.38560000  1.0 0.1312650587
H  H57  1  0.44570000  0.62830000  0.64500000  1.0 0.4187919158
H  H58  1  0.62830000  0.44570000  0.85500000  1.0 0.4187919158
H  H59  1  0.55430000  0.37170000  0.35500000  1.0 0.4187919158
H  H60  1  0.37170000  0.55430000  0.14500000  1.0 0.4187919158
H  H61  1  0.33400000  0.63000000  0.60100000  1.0 0.4187919158
H  H62  1  0.63000000  0.33400000  0.89900000  1.0 0.4187919158
H  H63  1  0.66600000  0.37000000  0.39900000  1.0 0.4187919158
H  H64  1  0.37000000  0.66600000  0.10100000  1.0 0.4187919158
H  H65  1  0.69500000  0.96700000  0.70400000  1.0 0.177496742
H  H66  1  0.96700000  0.69500000  0.79600000  1.0 0.177496742
H  H67  1  0.30500000  0.03300000  0.29600000  1.0 0.177496742
H  H68  1  0.03300000  0.30500000  0.20400000  1.0 0.177496742
H  H69  1  0.60400000  0.83000000  0.73000000  1.0 0.2374544698
H  H70  1  0.83000000  0.60400000  0.77000000  1.0 0.2374544698
H  H71  1  0.39600000  0.17000000  0.27000000  1.0 0.2374544698
H  H72  1  0.17000000  0.39600000  0.23000000  1.0 0.2374544698
C  C1  1  0.07490000  0.67050000  0.24330000  1.0 -0.0199793393
C  C2  1  0.67050000  0.07490000  0.25670000  1.0 -0.0199793393
C  C3  1  0.92510000  0.32950000  0.75670000  1.0 -0.0199793393
C  C4  1  0.32950000  0.92510000  0.74330000  1.0 -0.0199793393
C  C5  1  0.17625000  0.70815000  0.29750000  1.0 -0.1385676754
C  C6  1  0.70815000  0.17625000  0.20250000  1.0 -0.1385676754
C  C7  1  0.82375000  0.29185000  0.70250000  1.0 -0.1385676754
C  C8  1  0.29185000  0.82375000  0.79750000  1.0 -0.1385676754
C  C9  1  0.20467000  0.77993000  0.36820000  1.0 -0.0199793393
C  C10  1  0.77993000  0.20467000  0.13180000  1.0 -0.0199793393
C  C11  1  0.79533000  0.22007000  0.63180000  1.0 -0.0199793393
C  C12  1  0.22007000  0.79533000  0.86820000  1.0 -0.0199793393
C  C13  1  0.13001000  0.81199000  0.38540000  1.0 -0.1709982645
C  C14  1  0.81199000  0.13001000  0.11460000  1.0 -0.1709982645
C  C15  1  0.86999000  0.18801000  0.61460000  1.0 -0.1709982645
C  C16  1  0.18801000  0.86999000  0.88540000  1.0 -0.1709982645
C  C17  1  0.02374000  0.76806000  0.33510000  1.0 0.0682796887
C  C18  1  0.76806000  0.02374000  0.16490000  1.0 0.0682796887
C  C19  1  0.97626000  0.23194000  0.66490000  1.0 0.0682796887
C  C20  1  0.23194000  0.97626000  0.83510000  1.0 0.0682796887
C  C21  1  0.99804000  0.69836000  0.26280000  1.0 -0.1490291361
C  C22  1  0.69836000  0.99804000  0.23720000  1.0 -0.1490291361
C  C23  1  0.00196000  0.30164000  0.73720000  1.0 -0.1490291361
C  C24  1  0.30164000  0.00196000  0.76280000  1.0 -0.1490291361
C  C25  1  0.93740000  0.79000000  0.36050000  1.0 0.0682796887
C  C26  1  0.79000000  0.93740000  0.13950000  1.0 0.0682796887
C  C27  1  0.06260000  0.21000000  0.63950000  1.0 0.0682796887
C  C28  1  0.21000000  0.06260000  0.86050000  1.0 0.0682796887
C  C29  1  0.81754000  0.70066000  0.35690000  1.0 -0.15883055
C  C30  1  0.70066000  0.81754000  0.14310000  1.0 -0.15883055
C  C31  1  0.18246000  0.29934000  0.64310000  1.0 -0.15883055
C  C32  1  0.29934000  0.18246000  0.85690000  1.0 -0.15883055
C  C33  1  0.73710000  0.71770000  0.38790000  1.0 -0.1074511153
C  C34  1  0.71770000  0.73710000  0.11210000  1.0 -0.1074511153
C  C35  1  0.26290000  0.28230000  0.61210000  1.0 -0.1074511153
C  C36  1  0.28230000  0.26290000  0.88790000  1.0 -0.1074511153
C  C37  1  0.77413000  0.82167000  0.42310000  1.0 -0.0199793393
C  C38  1  0.82167000  0.77413000  0.07690000  1.0 -0.0199793393
C  C39  1  0.22587000  0.17833000  0.57690000  1.0 -0.0199793393
C  C40  1  0.17833000  0.22587000  0.92310000  1.0 -0.0199793393
C  C41  1  0.89143000  0.91157000  0.42250000  1.0 -0.1172083434
C  C42  1  0.91157000  0.89143000  0.07750000  1.0 -0.1172083434
C  C43  1  0.10857000  0.08843000  0.57750000  1.0 -0.1172083434
C  C44  1  0.08843000  0.10857000  0.92250000  1.0 -0.1172083434
C  C45  1  0.97302000  0.89578000  0.39200000  1.0 -0.15883055
C  C46  1  0.89578000  0.97302000  0.10800000  1.0 -0.15883055
C  C47  1  0.02698000  0.10422000  0.60800000  1.0 -0.15883055
C  C48  1  0.10422000  0.02698000  0.89200000  1.0 -0.15883055
C  C49  1  0.04601000  0.59859000  0.16270000  1.0 0.6229679692
C  C50  1  0.59859000  0.04601000  0.33730000  1.0 0.6229679692
C  C51  1  0.95399000  0.40141000  0.83730000  1.0 0.6229679692
C  C52  1  0.40141000  0.95399000  0.66270000  1.0 0.6229679692
C  C53  1  0.31494000  0.82026000  0.42680000  1.0 0.6067297417
C  C54  1  0.82026000  0.31494000  0.07320000  1.0 0.6067297417
C  C55  1  0.68506000  0.17974000  0.57320000  1.0 0.6067297417
C  C56  1  0.17974000  0.68506000  0.92680000  1.0 0.6067297417
C  C57  1  0.69048000  0.83772000  0.46530000  1.0 0.5555026489
C  C58  1  0.83772000  0.69048000  0.03470000  1.0 0.5555026489
C  C59  1  0.30952000  0.16228000  0.53470000  1.0 0.5555026489
C  C60  1  0.16228000  0.30952000  0.96530000  1.0 0.5555026489
C  C61  1  0.65840000  0.95000000  0.74690000  1.0 0.0523447101
C  C62  1  0.95000000  0.65840000  0.75310000  1.0 0.0523447101
C  C63  1  0.34160000  0.05000000  0.25310000  1.0 0.0523447101
C  C64  1  0.05000000  0.34160000  0.24690000  1.0 0.0523447101
C  C65  1  0.77680000  0.89080000  0.81770000  1.0 -0.2501064283
C  C66  1  0.89080000  0.77680000  0.68230000  1.0 -0.2501064283
C  C67  1  0.22320000  0.10920000  0.18230000  1.0 -0.2501064283
C  C68  1  0.10920000  0.22320000  0.31770000  1.0 -0.2501064283
C  C69  1  0.75860000  0.03700000  0.87920000  1.0 -0.3547292692
C  C70  1  0.03700000  0.75860000  0.62080000  1.0 -0.3547292692
C  C71  1  0.24140000  0.96300000  0.12080000  1.0 -0.3547292692
C  C72  1  0.96300000  0.24140000  0.37920000  1.0 -0.3552546543
N  N1  1  0.73460000  0.95520000  0.81560000  1.0 -0.0199793393
N  N2  1  0.95520000  0.73460000  0.68440000  1.0 -0.0199793393
N  N3  1  0.26540000  0.04480000  0.18440000  1.0 -0.0199793393
N  N4  1  0.04480000  0.26540000  0.31560000  1.0 -0.0199793393
O  O1  1  0.95121000  0.56599000  0.11895000  1.0 -0.6500030797
O  O2  1  0.56599000  0.95121000  0.38105000  1.0 -0.6500030797
O  O3  1  0.04879000  0.43401000  0.88105000  1.0 -0.6500030797
O  O4  1  0.43401000  0.04879000  0.61895000  1.0 -0.6500030797
O  O5  1  0.11834000  0.57606000  0.14690000  1.0 -0.6742169303
O  O6  1  0.57606000  0.11834000  0.35310000  1.0 -0.6742169303
O  O7  1  0.88166000  0.42394000  0.85310000  1.0 -0.6742169303
O  O8  1  0.42394000  0.88166000  0.64690000  1.0 -0.6742169303
O  O9  1  0.37039000  0.91961000  0.46043000  1.0 -0.7399332863
O  O10  1  0.91961000  0.37039000  0.03957000  1.0 -0.7399332863
O  O11  1  0.62961000  0.08039000  0.53957000  1.0 -0.7399332863
O  O12  1  0.08039000  0.62961000  0.96043000  1.0 -0.7399332863
O  O13  1  0.34791000  0.75309000  0.44200000  1.0 -0.6070948285
O  O14  1  0.75309000  0.34791000  0.05800000  1.0 -0.6070948285
O  O15  1  0.65209000  0.24691000  0.55800000  1.0 -0.6070948285
O  O16  1  0.24691000  0.65209000  0.94200000  1.0 -0.6070948285
O  O17  1  0.58173000  0.75587000  0.46350000  1.0 -0.6382474345
O  O18  1  0.75587000  0.58173000  0.03650000  1.0 -0.6382474345
O  O19  1  0.41827000  0.24413000  0.53650000  1.0 -0.6382474345
O  O20  1  0.24413000  0.41827000  0.96350000  1.0 -0.6382474345
O  O21  1  0.72974000  0.93146000  0.50140000  1.0 -0.6259270054
O  O22  1  0.93146000  0.72974000  0.99860000  1.0 -0.6259270054
O  O23  1  0.27026000  0.06854000  0.49860000  1.0 -0.6259270054
O  O24  1  0.06854000  0.27026000  0.00140000  1.0 -0.6259270054
O  O25  1  0.63890000  0.88970000  0.67700000  1.0 -0.4959903103
O  O26  1  0.88970000  0.63890000  0.82300000  1.0 -0.4959903103
O  O27  1  0.36110000  0.11030000  0.32300000  1.0 -0.4959903103
O  O28  1  0.11030000  0.36110000  0.17700000  1.0 -0.4946466726
O  O29  1  0.42140000  0.67640000  0.60930000  1.0 -0.8295221371
O  O30  1  0.67640000  0.42140000  0.89070000  1.0 -0.8295221371
O  O31  1  0.57860000  0.32360000  0.39070000  1.0 -0.8295221371
O  O32  1  0.32360000  0.57860000  0.10930000  1.0 -0.8295221371
