# DDEC6 charges by PACMAN v1.1 (https://github.com/mtap-research/PACMAN-charge/)
data_NUJCEA_ASR_pacman
_symmetry_space_group_name_H-M   'P 1'
_cell_length_a   13.83800000
_cell_length_b   7.54300000
_cell_length_c   30.04620000
_cell_angle_alpha   90.00000000
_cell_angle_beta   116.49900000
_cell_angle_gamma   90.00000000
_symmetry_Int_Tables_number   1
_chemical_formula_structural   CdNiC7N6
_chemical_formula_sum   'Cd8 Ni8 C56 N48'
_cell_volume   2806.73848954
_cell_formula_units_Z   8
loop_
 _symmetry_equiv_pos_site_id
 _symmetry_equiv_pos_as_xyz
  1  'x, y, z'
loop_
 _atom_site_type_symbol
 _atom_site_label
 _atom_site_symmetry_multiplicity
 _atom_site_fract_x
 _atom_site_fract_y
 _atom_site_fract_z
 _atom_site_occupancy
 _atom_site_charge
Cd  Cd1  1  0.10368000  0.62048000  0.36960000  1.0 1.0212395947
Cd  Cd2  1  0.89632000  0.12048000  0.13040000  1.0 1.0212395947
Cd  Cd3  1  0.89632000  0.37952000  0.63040000  1.0 1.0212395947
Cd  Cd4  1  0.10368000  0.87952000  0.86960000  1.0 1.0212395947
Cd  Cd5  1  0.44549000  0.62063000  0.63703000  1.0 1.010735632
Cd  Cd6  1  0.55451000  0.12063000  0.86297000  1.0 1.010735632
Cd  Cd7  1  0.55451000  0.37937000  0.36297000  1.0 1.010735632
Cd  Cd8  1  0.44549000  0.87937000  0.13703000  1.0 1.010735632
Ni  Ni1  1  0.30337000  0.12770000  0.50006000  1.0 0.085855185
Ni  Ni2  1  0.69663000  0.62770000  0.99994000  1.0 0.0848344203
Ni  Ni3  1  0.69663000  0.87230000  0.49994000  1.0 0.085855185
Ni  Ni4  1  0.30337000  0.37230000  0.00006000  1.0 0.085855185
Ni  Ni5  1  0.24016000  0.73960000  0.23606000  1.0 0.085855185
Ni  Ni6  1  0.75984000  0.23960000  0.26394000  1.0 0.085855185
Ni  Ni7  1  0.75984000  0.26040000  0.76394000  1.0 0.085855185
Ni  Ni8  1  0.24016000  0.76040000  0.73606000  1.0 0.085855185
C  C1  1  0.23900000  0.95600000  0.45060000  1.0 0.1554550589
C  C2  1  0.76100000  0.45600000  0.04940000  1.0 0.1554550589
C  C3  1  0.76100000  0.04400000  0.54940000  1.0 0.1528163563
C  C4  1  0.23900000  0.54400000  0.95060000  1.0 0.1554550589
C  C5  1  0.25090000  0.30600000  0.45190000  1.0 0.1813771115
C  C6  1  0.74910000  0.80600000  0.04810000  1.0 0.1813771115
C  C7  1  0.74910000  0.69400000  0.54810000  1.0 0.1813771115
C  C8  1  0.25090000  0.19400000  0.95190000  1.0 0.1813771115
C  C9  1  0.20800000  0.66700000  0.28690000  1.0 0.1813771115
C  C10  1  0.79200000  0.16700000  0.21310000  1.0 0.1813771115
C  C11  1  0.79200000  0.33300000  0.71310000  1.0 0.1813771115
C  C12  1  0.20800000  0.83300000  0.78690000  1.0 0.1813771115
C  C13  1  0.89770000  0.33600000  0.29690000  1.0 0.1369217794
C  C14  1  0.10230000  0.83600000  0.20310000  1.0 0.1369217794
C  C15  1  0.10230000  0.66400000  0.70310000  1.0 0.1369217794
C  C16  1  0.89770000  0.16400000  0.79690000  1.0 0.1369217794
C  C17  1  0.34710000  0.94900000  0.54770000  1.0 0.1342028986
C  C18  1  0.65290000  0.44900000  0.95230000  1.0 0.1369217794
C  C19  1  0.65290000  0.05100000  0.45230000  1.0 0.1369217794
C  C20  1  0.34710000  0.55100000  0.04770000  1.0 0.1342028986
C  C21  1  0.36270000  0.29600000  0.55100000  1.0 0.1813771115
C  C22  1  0.63730000  0.79600000  0.94900000  1.0 0.1813771115
C  C23  1  0.63730000  0.70400000  0.44900000  1.0 0.1813771115
C  C24  1  0.36270000  0.20400000  0.05100000  1.0 0.1813771115
C  C25  1  0.27710000  0.81900000  0.18680000  1.0 0.1704190943
C  C26  1  0.72290000  0.31900000  0.31320000  1.0 0.1704190943
C  C27  1  0.72290000  0.18100000  0.81320000  1.0 0.1704190943
C  C28  1  0.27710000  0.68100000  0.68680000  1.0 0.1704190943
C  C29  1  0.37690000  0.64200000  0.27090000  1.0 0.1342028986
C  C30  1  0.62310000  0.14200000  0.22910000  1.0 0.1342028986
C  C31  1  0.62310000  0.35800000  0.72910000  1.0 0.1342028986
C  C32  1  0.37690000  0.85800000  0.77090000  1.0 0.1342028986
C  C33  1  0.89220000  0.85200000  0.32120000  1.0 0.1884291988
C  C34  1  0.10780000  0.35200000  0.17880000  1.0 0.1884291988
C  C35  1  0.10780000  0.14800000  0.67880000  1.0 0.1884291988
C  C36  1  0.89220000  0.64800000  0.82120000  1.0 0.1884291988
C  C37  1  0.89680000  0.81100000  0.36680000  1.0 0.1967422334
C  C38  1  0.10320000  0.31100000  0.13320000  1.0 0.1884291988
C  C39  1  0.10320000  0.18900000  0.63320000  1.0 0.1967422334
C  C40  1  0.89680000  0.68900000  0.86680000  1.0 0.1967422334
C  C41  1  0.79300000  0.83300000  0.37300000  1.0 0.0490162132
C  C42  1  0.20700000  0.33300000  0.12700000  1.0 0.0490162132
C  C43  1  0.20700000  0.16700000  0.62700000  1.0 0.0490162132
C  C44  1  0.79300000  0.66700000  0.87300000  1.0 0.0490162132
C  C45  1  0.62910000  0.88600000  0.69710000  1.0 0.1369217794
C  C46  1  0.37090000  0.38600000  0.80290000  1.0 0.1369217794
C  C47  1  0.37090000  0.11400000  0.30290000  1.0 0.1369217794
C  C48  1  0.62910000  0.61400000  0.19710000  1.0 0.1369217794
C  C49  1  0.67070000  0.81300000  0.66980000  1.0 0.1967422334
C  C50  1  0.32930000  0.31300000  0.83020000  1.0 0.1967422334
C  C51  1  0.32930000  0.18700000  0.33020000  1.0 0.1967422334
C  C52  1  0.67070000  0.68700000  0.16980000  1.0 0.1967422334
C  C53  1  0.78170000  0.85300000  0.67610000  1.0 0.1225251883
C  C54  1  0.21830000  0.35300000  0.82390000  1.0 0.1225251883
C  C55  1  0.21830000  0.14700000  0.32390000  1.0 0.1225251883
C  C56  1  0.78170000  0.64700000  0.17610000  1.0 0.1225251883
N  N1  1  0.19950000  0.85200000  0.42150000  1.0 -0.383475483
N  N2  1  0.80050000  0.35200000  0.07850000  1.0 -0.383475483
N  N3  1  0.80050000  0.14800000  0.57850000  1.0 -0.383475483
N  N4  1  0.19950000  0.64800000  0.92150000  1.0 -0.383475483
N  N5  1  0.21300000  0.41300000  0.42270000  1.0 -0.383475483
N  N6  1  0.78700000  0.91300000  0.07730000  1.0 -0.3867052633
N  N7  1  0.78700000  0.58700000  0.57730000  1.0 -0.383475483
N  N8  1  0.21300000  0.08700000  0.92270000  1.0 -0.3867052633
N  N9  1  0.18820000  0.62800000  0.31840000  1.0 -0.4107166965
N  N10  1  0.81180000  0.12800000  0.18160000  1.0 -0.4107166965
N  N11  1  0.81180000  0.37200000  0.68160000  1.0 -0.4107166965
N  N12  1  0.18820000  0.87200000  0.81840000  1.0 -0.4107166965
N  N13  1  0.98200000  0.39800000  0.31620000  1.0 -0.383475483
N  N14  1  0.01800000  0.89800000  0.18380000  1.0 -0.383475483
N  N15  1  0.01800000  0.60200000  0.68380000  1.0 -0.383475483
N  N16  1  0.98200000  0.10200000  0.81620000  1.0 -0.3867052633
N  N17  1  0.98730000  0.84300000  0.31390000  1.0 -0.2675027886
N  N18  1  0.01270000  0.34300000  0.18610000  1.0 -0.2615534801
N  N19  1  0.01270000  0.15700000  0.68610000  1.0 -0.2675027886
N  N20  1  0.98730000  0.65700000  0.81390000  1.0 -0.2675027886
N  N21  1  0.96363000  0.66200000  0.39243000  1.0 -0.4509310786
N  N22  1  0.03637000  0.16200000  0.10757000  1.0 -0.4509310786
N  N23  1  0.03637000  0.33800000  0.60757000  1.0 -0.4509310786
N  N24  1  0.96363000  0.83800000  0.89243000  1.0 -0.4509310786
N  N25  1  0.37050000  0.83700000  0.57570000  1.0 -0.3489817264
N  N26  1  0.62950000  0.33700000  0.92430000  1.0 -0.3439216752
N  N27  1  0.62950000  0.16300000  0.42430000  1.0 -0.3489817264
N  N28  1  0.37050000  0.66300000  0.07570000  1.0 -0.3489817264
N  N29  1  0.39600000  0.39600000  0.58210000  1.0 -0.3678130199
N  N30  1  0.60400000  0.89600000  0.91790000  1.0 -0.3678130199
N  N31  1  0.60400000  0.60400000  0.41790000  1.0 -0.3678130199
N  N32  1  0.39600000  0.10400000  0.08210000  1.0 -0.3678130199
N  N33  1  0.30450000  0.87000000  0.15790000  1.0 -0.439218453
N  N34  1  0.69550000  0.37000000  0.34210000  1.0 -0.439218453
N  N35  1  0.69550000  0.13000000  0.84210000  1.0 -0.439218453
N  N36  1  0.30450000  0.63000000  0.65790000  1.0 -0.439218453
N  N37  1  0.46090000  0.58000000  0.29300000  1.0 -0.3678130199
N  N38  1  0.53910000  0.08000000  0.20700000  1.0 -0.3678130199
N  N39  1  0.53910000  0.42000000  0.70700000  1.0 -0.3678130199
N  N40  1  0.46090000  0.92000000  0.79300000  1.0 -0.3678130199
N  N41  1  0.52570000  0.85600000  0.69440000  1.0 -0.2172062783
N  N42  1  0.47430000  0.35600000  0.80560000  1.0 -0.2172062783
N  N43  1  0.47430000  0.14400000  0.30560000  1.0 -0.2172062783
N  N44  1  0.52570000  0.64400000  0.19440000  1.0 -0.2112086404
N  N45  1  0.61080000  0.67400000  0.63460000  1.0 -0.3489817264
N  N46  1  0.38920000  0.17400000  0.86540000  1.0 -0.3489817264
N  N47  1  0.38920000  0.32600000  0.36540000  1.0 -0.3489817264
N  N48  1  0.61080000  0.82600000  0.13460000  1.0 -0.3489817264
