# DDEC6 charges by PACMAN v1.1 (https://github.com/mtap-research/PACMAN-charge/)
data_NULMAJ_FSR_pacman
_symmetry_space_group_name_H-M   'P 1'
_cell_length_a   19.72980000
_cell_length_b   16.57610000
_cell_length_c   15.99810000
_cell_angle_alpha   74.53320000
_cell_angle_beta   54.06940000
_cell_angle_gamma   51.39740000
_symmetry_Int_Tables_number   1
_chemical_formula_structural   Ni2MoH56(C2N)16
_chemical_formula_sum   'Ni4 Mo2 H112 C64 N32'
_cell_volume   3269.70242127
_cell_formula_units_Z   2
loop_
 _symmetry_equiv_pos_site_id
 _symmetry_equiv_pos_as_xyz
  1  'x, y, z'
loop_
 _atom_site_type_symbol
 _atom_site_label
 _atom_site_symmetry_multiplicity
 _atom_site_fract_x
 _atom_site_fract_y
 _atom_site_fract_z
 _atom_site_occupancy
 _atom_site_charge
Ni  Ni1  1  0.62500000  0.12500000  0.12500000  1.0 0.6568907718
Ni  Ni2  1  0.12500000  0.12500000  0.12500000  1.0 0.6568907718
Ni  Ni3  1  0.12500000  0.62500000  0.12500000  1.0 0.6568907718
Ni  Ni4  1  0.12500000  0.12500000  0.62500000  1.0 0.6568907718
Mo  Mo1  1  0.25000000  0.25000000  0.25000000  1.0 0.6568907718
Mo  Mo2  1  0.00000000  0.00000000  0.00000000  1.0 0.6568907718
H  H1  1  0.77730000  0.92870000  0.95290000  1.0 0.0905806007
H  H2  1  0.34110000  0.95290000  0.92870000  1.0 0.0905806007
H  H3  1  0.92870000  0.77730000  0.34110000  1.0 0.0905806007
H  H4  1  0.95290000  0.34110000  0.77730000  1.0 0.0905806007
H  H5  1  0.47270000  0.32130000  0.29710000  1.0 0.0905806007
H  H6  1  0.90890000  0.29710000  0.32130000  1.0 0.0905806007
H  H7  1  0.32130000  0.47270000  0.90890000  1.0 0.0905806007
H  H8  1  0.29710000  0.90890000  0.47270000  1.0 0.0905806007
H  H9  1  0.75530000  0.80710000  0.98210000  1.0 0.1110809711
H  H10  1  0.45550000  0.98210000  0.80710000  1.0 0.1110809711
H  H11  1  0.80710000  0.75530000  0.45550000  1.0 0.1110809711
H  H12  1  0.98210000  0.45550000  0.75530000  1.0 0.1110809711
H  H13  1  0.49470000  0.44290000  0.26790000  1.0 0.1110809711
H  H14  1  0.79450000  0.26790000  0.44290000  1.0 0.1110809711
H  H15  1  0.44290000  0.49470000  0.79450000  1.0 0.1110809711
H  H16  1  0.26790000  0.79450000  0.49470000  1.0 0.1110809711
H  H17  1  0.64090000  0.88770000  0.00970000  1.0 0.129439346
H  H18  1  0.46170000  0.00970000  0.88770000  1.0 0.129439346
H  H19  1  0.88770000  0.64090000  0.46170000  1.0 0.129439346
H  H20  1  0.00970000  0.46170000  0.64090000  1.0 0.129439346
H  H21  1  0.60910000  0.36230000  0.24030000  1.0 0.129439346
H  H22  1  0.78830000  0.24030000  0.36230000  1.0 0.129439346
H  H23  1  0.36230000  0.60910000  0.78830000  1.0 0.129439346
H  H24  1  0.24030000  0.78830000  0.60910000  1.0 0.129439346
H  H25  1  0.73970000  0.80850000  0.84230000  1.0 0.0905806007
H  H26  1  0.60950000  0.84230000  0.80850000  1.0 0.0905806007
H  H27  1  0.80850000  0.73970000  0.60950000  1.0 0.0905806007
H  H28  1  0.84230000  0.60950000  0.73970000  1.0 0.0905806007
H  H29  1  0.51030000  0.44150000  0.40770000  1.0 0.0905806007
H  H30  1  0.64050000  0.40770000  0.44150000  1.0 0.0905806007
H  H31  1  0.44150000  0.51030000  0.64050000  1.0 0.0905806007
H  H32  1  0.40770000  0.64050000  0.51030000  1.0 0.0905806007
H  H33  1  0.82710000  0.81710000  0.80770000  1.0 0.0905806007
H  H34  1  0.54810000  0.80770000  0.81710000  1.0 0.0905806007
H  H35  1  0.81710000  0.82710000  0.54810000  1.0 0.0905806007
H  H36  1  0.80770000  0.54810000  0.82710000  1.0 0.0905806007
H  H37  1  0.42290000  0.43290000  0.44230000  1.0 0.0905806007
H  H38  1  0.70190000  0.44230000  0.43290000  1.0 0.0905806007
H  H39  1  0.43290000  0.42290000  0.70190000  1.0 0.0905806007
H  H40  1  0.44230000  0.70190000  0.42290000  1.0 0.0905806007
H  H41  1  0.63560000  0.97740000  0.83100000  1.0 0.1110809711
H  H42  1  0.55600000  0.83100000  0.97740000  1.0 0.1110809711
H  H43  1  0.97740000  0.63560000  0.55600000  1.0 0.1110809711
H  H44  1  0.83100000  0.55600000  0.63560000  1.0 0.1110809711
H  H45  1  0.61440000  0.27260000  0.41900000  1.0 0.1110809711
H  H46  1  0.69400000  0.41900000  0.27260000  1.0 0.1110809711
H  H47  1  0.27260000  0.61440000  0.69400000  1.0 0.1110809711
H  H48  1  0.41900000  0.69400000  0.61440000  1.0 0.1110809711
H  H49  1  0.74740000  0.93380000  0.72900000  1.0 0.0905806007
H  H50  1  0.58980000  0.72900000  0.93380000  1.0 0.0905806007
H  H51  1  0.93380000  0.74740000  0.58980000  1.0 0.0905806007
H  H52  1  0.72900000  0.58980000  0.74740000  1.0 0.0905806007
H  H53  1  0.50260000  0.31620000  0.52100000  1.0 0.0905806007
H  H54  1  0.66020000  0.52100000  0.31620000  1.0 0.0905806007
H  H55  1  0.31620000  0.50260000  0.66020000  1.0 0.0905806007
H  H56  1  0.52100000  0.66020000  0.50260000  1.0 0.0905806007
H  H57  1  0.66060000  0.09760000  0.81460000  1.0 0.1214058133
H  H58  1  0.42720000  0.81460000  0.09760000  1.0 0.1214058133
H  H59  1  0.09760000  0.66060000  0.42720000  1.0 0.1214058133
H  H60  1  0.81460000  0.42720000  0.66060000  1.0 0.1214058133
H  H61  1  0.58940000  0.15240000  0.43540000  1.0 0.1214058133
H  H62  1  0.82280000  0.43540000  0.15240000  1.0 0.1214058133
H  H63  1  0.15240000  0.58940000  0.82280000  1.0 0.1214058133
H  H64  1  0.43540000  0.82280000  0.58940000  1.0 0.1214058133
H  H65  1  0.77300000  0.01240000  0.79060000  1.0 0.1110809711
H  H66  1  0.42400000  0.79060000  0.01240000  1.0 0.1110809711
H  H67  1  0.01240000  0.77300000  0.42400000  1.0 0.1110809711
H  H68  1  0.79060000  0.42400000  0.77300000  1.0 0.1110809711
H  H69  1  0.47700000  0.23760000  0.45940000  1.0 0.1110809711
H  H70  1  0.82600000  0.45940000  0.23760000  1.0 0.1110809711
H  H71  1  0.23760000  0.47700000  0.82600000  1.0 0.1110809711
H  H72  1  0.45940000  0.82600000  0.47700000  1.0 0.1110809711
H  H73  1  0.58770000  0.08190000  0.98010000  1.0 0.1110809711
H  H74  1  0.35030000  0.98010000  0.08190000  1.0 0.1110809711
H  H75  1  0.08190000  0.58770000  0.35030000  1.0 0.1110809711
H  H76  1  0.98010000  0.35030000  0.58770000  1.0 0.1110809711
H  H77  1  0.66230000  0.16810000  0.26990000  1.0 0.1110809711
H  H78  1  0.89970000  0.26990000  0.16810000  1.0 0.1110809711
H  H79  1  0.16810000  0.66230000  0.89970000  1.0 0.1110809711
H  H80  1  0.26990000  0.89970000  0.66230000  1.0 0.1110809711
H  H81  1  0.60340000  0.98380000  0.14280000  1.0 0.2891215305
H  H82  1  0.27000000  0.14280000  0.98380000  1.0 0.2891215305
H  H83  1  0.98380000  0.60340000  0.27000000  1.0 0.2891215305
H  H84  1  0.14280000  0.27000000  0.60340000  1.0 0.2891215305
H  H85  1  0.64660000  0.26620000  0.10720000  1.0 0.2891215305
H  H86  1  0.98000000  0.10720000  0.26620000  1.0 0.2891215305
H  H87  1  0.26620000  0.64660000  0.98000000  1.0 0.2891215305
H  H88  1  0.10720000  0.98000000  0.64660000  1.0 0.2891215305
H  H89  1  0.70870000  0.93030000  0.11490000  1.0 0.2783312961
H  H90  1  0.24610000  0.11490000  0.93030000  1.0 0.2783312961
H  H91  1  0.93030000  0.70870000  0.24610000  1.0 0.2783312961
H  H92  1  0.11490000  0.24610000  0.70870000  1.0 0.2783312961
H  H93  1  0.54130000  0.31970000  0.13510000  1.0 0.2783312961
H  H94  1  0.00390000  0.13510000  0.31970000  1.0 0.2783312961
H  H95  1  0.31970000  0.54130000  0.00390000  1.0 0.2783312961
H  H96  1  0.13510000  0.00390000  0.54130000  1.0 0.2783312961
H  H97  1  0.71880000  0.12100000  0.92720000  1.0 0.2746487776
H  H98  1  0.23300000  0.92720000  0.12100000  1.0 0.2746487776
H  H99  1  0.12100000  0.71880000  0.23300000  1.0 0.2746487776
H  H100  1  0.92720000  0.23300000  0.71880000  1.0 0.2746487776
H  H101  1  0.53120000  0.12900000  0.32280000  1.0 0.2746487776
H  H102  1  0.01700000  0.32280000  0.12900000  1.0 0.2746487776
H  H103  1  0.12900000  0.53120000  0.01700000  1.0 0.2746487776
H  H104  1  0.32280000  0.01700000  0.53120000  1.0 0.2746487776
H  H105  1  0.60730000  0.19490000  0.97070000  1.0 0.2783312961
H  H106  1  0.22710000  0.97070000  0.19490000  1.0 0.2783312961
H  H107  1  0.19490000  0.60730000  0.22710000  1.0 0.2783312961
H  H108  1  0.97070000  0.22710000  0.60730000  1.0 0.2783312961
H  H109  1  0.64270000  0.05510000  0.27930000  1.0 0.2783312961
H  H110  1  0.02290000  0.27930000  0.05510000  1.0 0.2783312961
H  H111  1  0.05510000  0.64270000  0.02290000  1.0 0.2783312961
H  H112  1  0.27930000  0.02290000  0.64270000  1.0 0.2783312961
C  C1  1  0.39029000  0.21743000  0.20907000  1.0 0.0076446799
C  C2  1  0.18321000  0.20907000  0.21743000  1.0 0.0076446799
C  C3  1  0.21743000  0.39029000  0.18321000  1.0 0.0076446799
C  C4  1  0.20907000  0.18321000  0.39029000  1.0 0.0076446799
C  C5  1  0.85971000  0.03257000  0.04093000  1.0 0.0076446799
C  C6  1  0.06679000  0.04093000  0.03257000  1.0 0.0076446799
C  C7  1  0.03257000  0.85971000  0.06679000  1.0 0.0076446799
C  C8  1  0.04093000  0.06679000  0.85971000  1.0 0.0076446799
C  C9  1  0.21268000  0.34532000  0.36152000  1.0 -0.0228116414
C  C10  1  0.08048000  0.36152000  0.34532000  1.0 -0.0228116414
C  C11  1  0.34532000  0.21268000  0.08048000  1.0 -0.0228116414
C  C12  1  0.36152000  0.08048000  0.21268000  1.0 -0.0228116414
C  C13  1  0.03732000  0.90468000  0.88848000  1.0 -0.0228116414
C  C14  1  0.16952000  0.88848000  0.90468000  1.0 -0.0228116414
C  C15  1  0.90468000  0.03732000  0.16952000  1.0 -0.0228116414
C  C16  1  0.88848000  0.16952000  0.03732000  1.0 -0.0228116414
C  C17  1  0.70386000  0.95720000  0.99000000  1.0 0.0799481342
C  C18  1  0.34894000  0.99000000  0.95720000  1.0 0.0799481342
C  C19  1  0.95720000  0.70386000  0.34894000  1.0 0.0799481342
C  C20  1  0.99000000  0.34894000  0.70386000  1.0 0.0799481342
C  C21  1  0.54614000  0.29280000  0.26000000  1.0 0.0799481342
C  C22  1  0.90106000  0.26000000  0.29280000  1.0 0.0799481342
C  C23  1  0.29280000  0.54614000  0.90106000  1.0 0.0799481342
C  C24  1  0.26000000  0.90106000  0.54614000  1.0 0.0799481342
C  C25  1  0.70999000  0.87125000  0.96569000  1.0 -0.2472275612
C  C26  1  0.45307000  0.96569000  0.87125000  1.0 -0.2472275612
C  C27  1  0.87125000  0.70999000  0.45307000  1.0 -0.2472275612
C  C28  1  0.96569000  0.45307000  0.70999000  1.0 -0.2472275612
C  C29  1  0.54001000  0.37875000  0.28431000  1.0 -0.2472275612
C  C30  1  0.79693000  0.28431000  0.37875000  1.0 -0.2472275612
C  C31  1  0.37875000  0.54001000  0.79693000  1.0 -0.2472275612
C  C32  1  0.28431000  0.79693000  0.54001000  1.0 -0.2472275612
C  C33  1  0.75215000  0.85373000  0.84927000  1.0 -0.1676855613
C  C34  1  0.54485000  0.84927000  0.85373000  1.0 -0.1676855613
C  C35  1  0.85373000  0.75215000  0.54485000  1.0 -0.1676855613
C  C36  1  0.84927000  0.54485000  0.75215000  1.0 -0.1676855613
C  C37  1  0.49785000  0.39627000  0.40073000  1.0 -0.1676855613
C  C38  1  0.70515000  0.40073000  0.39627000  1.0 -0.1676855613
C  C39  1  0.39627000  0.49785000  0.70515000  1.0 -0.1676855613
C  C40  1  0.40073000  0.70515000  0.49785000  1.0 -0.1676855613
C  C41  1  0.70574000  0.95066000  0.80454000  1.0 -0.1758864303
C  C42  1  0.53906000  0.80454000  0.95066000  1.0 -0.1758864303
C  C43  1  0.95066000  0.70574000  0.53906000  1.0 -0.1758864303
C  C44  1  0.80454000  0.53906000  0.70574000  1.0 -0.1758864303
C  C45  1  0.54426000  0.29934000  0.44546000  1.0 -0.1758864303
C  C46  1  0.71094000  0.44546000  0.29934000  1.0 -0.1758864303
C  C47  1  0.29934000  0.54426000  0.71094000  1.0 -0.1758864303
C  C48  1  0.44546000  0.71094000  0.54426000  1.0 -0.1758864303
C  C49  1  0.70245000  0.03247000  0.83333000  1.0 -0.2358374377
C  C50  1  0.43175000  0.83333000  0.03247000  1.0 -0.2358374377
C  C51  1  0.03247000  0.70245000  0.43175000  1.0 -0.2358374377
C  C52  1  0.83333000  0.43175000  0.70245000  1.0 -0.2358374377
C  C53  1  0.54755000  0.21753000  0.41667000  1.0 -0.234868445
C  C54  1  0.81825000  0.41667000  0.21753000  1.0 -0.234868445
C  C55  1  0.21753000  0.54755000  0.81825000  1.0 -0.2358374377
C  C56  1  0.41667000  0.81825000  0.54755000  1.0 -0.2358374377
C  C57  1  0.66137000  0.05267000  0.94273000  1.0 0.0716712805
C  C58  1  0.34323000  0.94273000  0.05267000  1.0 0.0716712805
C  C59  1  0.05267000  0.66137000  0.34323000  1.0 0.0716712805
C  C60  1  0.94273000  0.34323000  0.66137000  1.0 0.0716712805
C  C61  1  0.58863000  0.19733000  0.30727000  1.0 0.0716712805
C  C62  1  0.90677000  0.30727000  0.19733000  1.0 0.0716712805
C  C63  1  0.19733000  0.58863000  0.90677000  1.0 0.0716712805
C  C64  1  0.30727000  0.90677000  0.58863000  1.0 0.0716712805
N  N1  1  0.46723000  0.19661000  0.18539000  1.0 -0.4337041792
N  N2  1  0.15077000  0.18539000  0.19661000  1.0 -0.4337041792
N  N3  1  0.19661000  0.46723000  0.15077000  1.0 -0.4337041792
N  N4  1  0.18539000  0.15077000  0.46723000  1.0 -0.4337041792
N  N5  1  0.78277000  0.05339000  0.06461000  1.0 -0.4337041792
N  N6  1  0.09923000  0.06461000  0.05339000  1.0 -0.4337041792
N  N7  1  0.05339000  0.78277000  0.09923000  1.0 -0.4337041792
N  N8  1  0.06461000  0.09923000  0.78277000  1.0 -0.4337041792
N  N9  1  0.19930000  0.38938000  0.41740000  1.0 -0.4469344211
N  N10  1  0.99392000  0.41740000  0.38938000  1.0 -0.4469344211
N  N11  1  0.38938000  0.19930000  0.99392000  1.0 -0.4469344211
N  N12  1  0.41740000  0.99392000  0.19930000  1.0 -0.4469344211
N  N13  1  0.05070000  0.86062000  0.83260000  1.0 -0.4469344211
N  N14  1  0.25608000  0.83260000  0.86062000  1.0 -0.4469344211
N  N15  1  0.86062000  0.05070000  0.25608000  1.0 -0.4469344211
N  N16  1  0.83260000  0.25608000  0.05070000  1.0 -0.4469344211
N  N17  1  0.66130000  0.98102000  0.10022000  1.0 -0.550005768
N  N18  1  0.25746000  0.10022000  0.98102000  1.0 -0.550005768
N  N19  1  0.98102000  0.66130000  0.25746000  1.0 -0.550005768
N  N20  1  0.10022000  0.25746000  0.66130000  1.0 -0.550005768
N  N21  1  0.58870000  0.26898000  0.14978000  1.0 -0.550005768
N  N22  1  0.99254000  0.14978000  0.26898000  1.0 -0.550005768
N  N23  1  0.26898000  0.58870000  0.99254000  1.0 -0.550005768
N  N24  1  0.14978000  0.99254000  0.58870000  1.0 -0.550005768
N  N25  1  0.65724000  0.13104000  0.97298000  1.0 -0.550005768
N  N26  1  0.23874000  0.97298000  0.13104000  1.0 -0.550005768
N  N27  1  0.13104000  0.65724000  0.23874000  1.0 -0.550005768
N  N28  1  0.97298000  0.23874000  0.65724000  1.0 -0.550005768
N  N29  1  0.59276000  0.11896000  0.27702000  1.0 -0.550005768
N  N30  1  0.01126000  0.27702000  0.11896000  1.0 -0.550005768
N  N31  1  0.11896000  0.59276000  0.01126000  1.0 -0.550005768
N  N32  1  0.27702000  0.01126000  0.59276000  1.0 -0.550005768
