# DDEC6 charges by PACMAN v1.1 (https://github.com/mtap-research/PACMAN-charge/)
data_NUMPAO_ASR_pacman
_symmetry_space_group_name_H-M   'P 1'
_cell_length_a   8.65380000
_cell_length_b   14.41440000
_cell_length_c   37.48840000
_cell_angle_alpha   90.00000000
_cell_angle_beta   90.00000000
_cell_angle_gamma   90.00000000
_symmetry_Int_Tables_number   1
_chemical_formula_structural   Zn2H27C24(NO2)2
_chemical_formula_sum   'Zn8 H108 C96 N8 O16'
_cell_volume   4676.27807572
_cell_formula_units_Z   4
loop_
 _symmetry_equiv_pos_site_id
 _symmetry_equiv_pos_as_xyz
  1  'x, y, z'
loop_
 _atom_site_type_symbol
 _atom_site_label
 _atom_site_symmetry_multiplicity
 _atom_site_fract_x
 _atom_site_fract_y
 _atom_site_fract_z
 _atom_site_occupancy
 _atom_site_charge
Zn  Zn1  1  0.06017000  0.28394000  0.85857000  1.0 0.6928391252
Zn  Zn2  1  0.93983000  0.71606000  0.35857000  1.0 0.6928391252
Zn  Zn3  1  0.56017000  0.21606000  0.64143000  1.0 0.6928391252
Zn  Zn4  1  0.43983000  0.78394000  0.14143000  1.0 0.6928391252
Zn  Zn5  1  0.93983000  0.71606000  0.14143000  1.0 0.6928391252
Zn  Zn6  1  0.06017000  0.28394000  0.64143000  1.0 0.6928391252
Zn  Zn7  1  0.43983000  0.78394000  0.35857000  1.0 0.6928391252
Zn  Zn8  1  0.56017000  0.21606000  0.85857000  1.0 0.6928391252
H  H1  1  0.84260000  0.00600000  0.99120000  1.0 0.1082318898
H  H2  1  0.15740000  0.99400000  0.49120000  1.0 0.1082318898
H  H3  1  0.34260000  0.49400000  0.50880000  1.0 0.1082318898
H  H4  1  0.65740000  0.50600000  0.00880000  1.0 0.1082318898
H  H5  1  0.15740000  0.99400000  0.00880000  1.0 0.1082318898
H  H6  1  0.84260000  0.00600000  0.50880000  1.0 0.1082318898
H  H7  1  0.65740000  0.50600000  0.49120000  1.0 0.1082318898
H  H8  1  0.34260000  0.49400000  0.99120000  1.0 0.1082318898
H  H9  1  0.92920000  0.07850000  0.01500000  1.0 0.097819438
H  H10  1  0.07080000  0.92150000  0.51500000  1.0 0.097819438
H  H11  1  0.42920000  0.42150000  0.48500000  1.0 0.097819438
H  H12  1  0.57080000  0.57850000  0.98500000  1.0 0.097819438
H  H13  1  0.07080000  0.92150000  0.98500000  1.0 0.097819438
H  H14  1  0.92920000  0.07850000  0.48500000  1.0 0.097819438
H  H15  1  0.57080000  0.57850000  0.51500000  1.0 0.097819438
H  H16  1  0.42920000  0.42150000  0.01500000  1.0 0.097819438
H  H17  1  0.86820000  0.27730000  0.92160000  1.0 0.0845813175
H  H18  1  0.13180000  0.72270000  0.42160000  1.0 0.0845813175
H  H19  1  0.36820000  0.22270000  0.57840000  1.0 0.0845813175
H  H20  1  0.63180000  0.77730000  0.07840000  1.0 0.0845813175
H  H21  1  0.13180000  0.72270000  0.07840000  1.0 0.0845813175
H  H22  1  0.86820000  0.27730000  0.57840000  1.0 0.0845813175
H  H23  1  0.63180000  0.77730000  0.42160000  1.0 0.0845813175
H  H24  1  0.36820000  0.22270000  0.92160000  1.0 0.0845813175
H  H25  1  0.19060000  0.10680000  0.89160000  1.0 0.1082318898
H  H26  1  0.80940000  0.89320000  0.39160000  1.0 0.1082318898
H  H27  1  0.69060000  0.39320000  0.60840000  1.0 0.1082318898
H  H28  1  0.30940000  0.60680000  0.10840000  1.0 0.1082318898
H  H29  1  0.80940000  0.89320000  0.10840000  1.0 0.1082318898
H  H30  1  0.19060000  0.10680000  0.60840000  1.0 0.1082318898
H  H31  1  0.30940000  0.60680000  0.39160000  1.0 0.1082318898
H  H32  1  0.69060000  0.39320000  0.89160000  1.0 0.1082318898
H  H33  1  0.15430000  0.01750000  0.94140000  1.0 0.1226457004
H  H34  1  0.84570000  0.98250000  0.44140000  1.0 0.1226457004
H  H35  1  0.65430000  0.48250000  0.55860000  1.0 0.1226457004
H  H36  1  0.34570000  0.51750000  0.05860000  1.0 0.1226457004
H  H37  1  0.84570000  0.98250000  0.05860000  1.0 0.1226457004
H  H38  1  0.15430000  0.01750000  0.55860000  1.0 0.1226457004
H  H39  1  0.34570000  0.51750000  0.44140000  1.0 0.1226457004
H  H40  1  0.65430000  0.48250000  0.94140000  1.0 0.1226457004
H  H41  1  0.81650000  0.19060000  0.97070000  1.0 0.1226457004
H  H42  1  0.18350000  0.80940000  0.47070000  1.0 0.1226457004
H  H43  1  0.31650000  0.30940000  0.52930000  1.0 0.1226457004
H  H44  1  0.68350000  0.69060000  0.02930000  1.0 0.1226457004
H  H45  1  0.18350000  0.80940000  0.02930000  1.0 0.1226457004
H  H46  1  0.81650000  0.19060000  0.52930000  1.0 0.1226457004
H  H47  1  0.68350000  0.69060000  0.47070000  1.0 0.1226457004
H  H48  1  0.31650000  0.30940000  0.97070000  1.0 0.1226457004
H  H49  1  0.17850000  0.22020000  0.75000000  1.0 0.1422838029
H  H50  1  0.82150000  0.77980000  0.25000000  1.0 0.1422838029
H  H51  1  0.67850000  0.27980000  0.75000000  1.0 0.1422838029
H  H52  1  0.32150000  0.72020000  0.25000000  1.0 0.1422838029
H  H53  1  0.50550000  0.07940000  0.80340000  1.0 0.1082318898
H  H54  1  0.49450000  0.92060000  0.30340000  1.0 0.1082318898
H  H55  1  0.00550000  0.42060000  0.69660000  1.0 0.1082318898
H  H56  1  0.99450000  0.57940000  0.19660000  1.0 0.1082318898
H  H57  1  0.49450000  0.92060000  0.19660000  1.0 0.1082318898
H  H58  1  0.50550000  0.07940000  0.69660000  1.0 0.1082318898
H  H59  1  0.99450000  0.57940000  0.30340000  1.0 0.1082318898
H  H60  1  0.00550000  0.42060000  0.80340000  1.0 0.1082318898
H  H61  1  0.67230000  0.97470000  0.69620000  1.0 0.091408051
H  H62  1  0.32770000  0.02530000  0.19620000  1.0 0.091408051
H  H63  1  0.17230000  0.52530000  0.80380000  1.0 0.091408051
H  H64  1  0.82770000  0.47470000  0.30380000  1.0 0.091408051
H  H65  1  0.32770000  0.02530000  0.30380000  1.0 0.091408051
H  H66  1  0.67230000  0.97470000  0.80380000  1.0 0.091408051
H  H67  1  0.82770000  0.47470000  0.19620000  1.0 0.091408051
H  H68  1  0.17230000  0.52530000  0.69620000  1.0 0.091408051
H  H69  1  0.75040000  0.89530000  0.71840000  1.0 0.1082318898
H  H70  1  0.24960000  0.10470000  0.21840000  1.0 0.1082318898
H  H71  1  0.25040000  0.60470000  0.78160000  1.0 0.1082318898
H  H72  1  0.74960000  0.39530000  0.28160000  1.0 0.1082318898
H  H73  1  0.24960000  0.10470000  0.28160000  1.0 0.1082318898
H  H74  1  0.75040000  0.89530000  0.78160000  1.0 0.1082318898
H  H75  1  0.74960000  0.39530000  0.21840000  1.0 0.1082318898
H  H76  1  0.25040000  0.60470000  0.71840000  1.0 0.1082318898
H  H77  1  0.56980000  0.90260000  0.71670000  1.0 0.097819438
H  H78  1  0.43020000  0.09740000  0.21670000  1.0 0.097819438
H  H79  1  0.06980000  0.59740000  0.78330000  1.0 0.097819438
H  H80  1  0.93020000  0.40260000  0.28330000  1.0 0.097819438
H  H81  1  0.43020000  0.09740000  0.28330000  1.0 0.097819438
H  H82  1  0.56980000  0.90260000  0.78330000  1.0 0.097819438
H  H83  1  0.93020000  0.40260000  0.21670000  1.0 0.091408051
H  H84  1  0.06980000  0.59740000  0.71670000  1.0 0.097819438
H  H85  1  0.89910000  0.01890000  0.75350000  1.0 0.091408051
H  H86  1  0.10090000  0.98110000  0.25350000  1.0 0.091408051
H  H87  1  0.39910000  0.48110000  0.74650000  1.0 0.091408051
H  H88  1  0.60090000  0.51890000  0.24650000  1.0 0.091408051
H  H89  1  0.10090000  0.98110000  0.24650000  1.0 0.091408051
H  H90  1  0.89910000  0.01890000  0.74650000  1.0 0.091408051
H  H91  1  0.60090000  0.51890000  0.25350000  1.0 0.091408051
H  H92  1  0.39910000  0.48110000  0.75350000  1.0 0.091408051
H  H93  1  0.82000000  0.08980000  0.72760000  1.0 0.091408051
H  H94  1  0.18000000  0.91020000  0.22760000  1.0 0.091408051
H  H95  1  0.32000000  0.41020000  0.77240000  1.0 0.091408051
H  H96  1  0.68000000  0.58980000  0.27240000  1.0 0.091408051
H  H97  1  0.18000000  0.91020000  0.27240000  1.0 0.091408051
H  H98  1  0.82000000  0.08980000  0.77240000  1.0 0.091408051
H  H99  1  0.68000000  0.58980000  0.22760000  1.0 0.091408051
H  H100  1  0.32000000  0.41020000  0.72760000  1.0 0.091408051
H  H101  1  0.80540000  0.10290000  0.76890000  1.0 0.091408051
H  H102  1  0.19460000  0.89710000  0.26890000  1.0 0.091408051
H  H103  1  0.30540000  0.39710000  0.73110000  1.0 0.091408051
H  H104  1  0.69460000  0.60290000  0.23110000  1.0 0.091408051
H  H105  1  0.19460000  0.89710000  0.23110000  1.0 0.091408051
H  H106  1  0.80540000  0.10290000  0.73110000  1.0 0.091408051
H  H107  1  0.69460000  0.60290000  0.26890000  1.0 0.091408051
H  H108  1  0.30540000  0.39710000  0.76890000  1.0 0.091408051
C  C1  1  0.94130000  0.03638000  0.99498000  1.0 -0.2485469085
C  C2  1  0.05870000  0.96362000  0.49498000  1.0 -0.2485469085
C  C3  1  0.44130000  0.46362000  0.50502000  1.0 -0.2485469085
C  C4  1  0.55870000  0.53638000  0.00502000  1.0 -0.2485469085
C  C5  1  0.05870000  0.96362000  0.00502000  1.0 -0.2485469085
C  C6  1  0.94130000  0.03638000  0.50502000  1.0 -0.2485469085
C  C7  1  0.55870000  0.53638000  0.49498000  1.0 -0.2485469085
C  C8  1  0.44130000  0.46362000  0.99498000  1.0 -0.2485469085
C  C9  1  0.92550000  0.22362000  0.92542000  1.0 0.0336973272
C  C10  1  0.07450000  0.77638000  0.42542000  1.0 0.0336973272
C  C11  1  0.42550000  0.27638000  0.57458000  1.0 0.0336973272
C  C12  1  0.57450000  0.72362000  0.07458000  1.0 0.0336973272
C  C13  1  0.07450000  0.77638000  0.07458000  1.0 0.0336973272
C  C14  1  0.92550000  0.22362000  0.57458000  1.0 0.0336973272
C  C15  1  0.57450000  0.72362000  0.42542000  1.0 0.0336973272
C  C16  1  0.42550000  0.27638000  0.92542000  1.0 0.0336973272
C  C17  1  0.97910000  0.09270000  0.96218000  1.0 0.1451913734
C  C18  1  0.02090000  0.90730000  0.46218000  1.0 0.1422838029
C  C19  1  0.47910000  0.40730000  0.53782000  1.0 0.1451913734
C  C20  1  0.52090000  0.59270000  0.03782000  1.0 0.1422838029
C  C21  1  0.02090000  0.90730000  0.03782000  1.0 0.1422838029
C  C22  1  0.97910000  0.09270000  0.53782000  1.0 0.1451913734
C  C23  1  0.52090000  0.59270000  0.46218000  1.0 0.1422838029
C  C24  1  0.47910000  0.40730000  0.96218000  1.0 0.1451913734
C  C25  1  0.11530000  0.12424000  0.90796000  1.0 0.0520566516
C  C26  1  0.88470000  0.87576000  0.40796000  1.0 0.0520566516
C  C27  1  0.61530000  0.37576000  0.59204000  1.0 0.0520566516
C  C28  1  0.38470000  0.62424000  0.09204000  1.0 0.0520566516
C  C29  1  0.88470000  0.87576000  0.09204000  1.0 0.0520566516
C  C30  1  0.11530000  0.12424000  0.59204000  1.0 0.0520566516
C  C31  1  0.38470000  0.62424000  0.40796000  1.0 0.0520566516
C  C32  1  0.61530000  0.37576000  0.90796000  1.0 0.0520566516
C  C33  1  0.09310000  0.06961000  0.93773000  1.0 -0.222300792
C  C34  1  0.90690000  0.93039000  0.43773000  1.0 -0.222300792
C  C35  1  0.59310000  0.43039000  0.56227000  1.0 -0.222300792
C  C36  1  0.40690000  0.56961000  0.06227000  1.0 -0.222300792
C  C37  1  0.90690000  0.93039000  0.06227000  1.0 -0.222300792
C  C38  1  0.09310000  0.06961000  0.56227000  1.0 -0.222300792
C  C39  1  0.40690000  0.56961000  0.43773000  1.0 -0.222300792
C  C40  1  0.59310000  0.43039000  0.93773000  1.0 -0.222300792
C  C41  1  0.89450000  0.17222000  0.95513000  1.0 -0.2299556731
C  C42  1  0.10550000  0.82778000  0.45513000  1.0 -0.2299556731
C  C43  1  0.39450000  0.32778000  0.54487000  1.0 -0.2299556731
C  C44  1  0.60550000  0.67222000  0.04487000  1.0 -0.2299556731
C  C45  1  0.10550000  0.82778000  0.04487000  1.0 -0.2299556731
C  C46  1  0.89450000  0.17222000  0.54487000  1.0 -0.2299556731
C  C47  1  0.60550000  0.67222000  0.45513000  1.0 -0.2299556731
C  C48  1  0.39450000  0.32778000  0.95513000  1.0 -0.2299556731
C  C49  1  0.33440000  0.15620000  0.78193000  1.0 -0.0498893279
C  C50  1  0.66560000  0.84380000  0.28193000  1.0 -0.0498893279
C  C51  1  0.83440000  0.34380000  0.71807000  1.0 -0.0498893279
C  C52  1  0.16560000  0.65620000  0.21807000  1.0 -0.0498893279
C  C53  1  0.66560000  0.84380000  0.21807000  1.0 -0.0498893279
C  C54  1  0.33440000  0.15620000  0.71807000  1.0 -0.0498893279
C  C55  1  0.16560000  0.65620000  0.28193000  1.0 -0.0498893279
C  C56  1  0.83440000  0.34380000  0.78193000  1.0 -0.0498893279
C  C57  1  0.26640000  0.18951000  0.81630000  1.0 0.5510990341
C  C58  1  0.73360000  0.81049000  0.31630000  1.0 0.5510990341
C  C59  1  0.76640000  0.31049000  0.68370000  1.0 0.5510990341
C  C60  1  0.23360000  0.68951000  0.18370000  1.0 0.5510990341
C  C61  1  0.73360000  0.81049000  0.18370000  1.0 0.5510990341
C  C62  1  0.26640000  0.18951000  0.68370000  1.0 0.5510990341
C  C63  1  0.23360000  0.68951000  0.31630000  1.0 0.5510990341
C  C64  1  0.76640000  0.31049000  0.81630000  1.0 0.5510990341
C  C65  1  0.26720000  0.18380000  0.75000000  1.0 -0.081858117
C  C66  1  0.73280000  0.81620000  0.25000000  1.0 -0.081858117
C  C67  1  0.76720000  0.31620000  0.75000000  1.0 -0.081858117
C  C68  1  0.23280000  0.68380000  0.25000000  1.0 -0.081858117
C  C69  1  0.52540000  0.06510000  0.75000000  1.0 0.0640695301
C  C70  1  0.47460000  0.93490000  0.25000000  1.0 0.0640695301
C  C71  1  0.02540000  0.43490000  0.75000000  1.0 0.0640695301
C  C72  1  0.97460000  0.56510000  0.25000000  1.0 0.0640695301
C  C73  1  0.66550000  0.99970000  0.75000000  1.0 0.2330403149
C  C74  1  0.33450000  0.00030000  0.25000000  1.0 0.235774221
C  C75  1  0.16550000  0.50030000  0.75000000  1.0 0.2330403149
C  C76  1  0.83450000  0.49970000  0.25000000  1.0 0.2330403149
C  C77  1  0.46180000  0.09746000  0.78181000  1.0 -0.1766582634
C  C78  1  0.53820000  0.90254000  0.28181000  1.0 -0.1766582634
C  C79  1  0.96180000  0.40254000  0.71819000  1.0 -0.1766582634
C  C80  1  0.03820000  0.59746000  0.21819000  1.0 -0.1766582634
C  C81  1  0.53820000  0.90254000  0.21819000  1.0 -0.1766582634
C  C82  1  0.46180000  0.09746000  0.71819000  1.0 -0.1766582634
C  C83  1  0.03820000  0.59746000  0.28181000  1.0 -0.1766582634
C  C84  1  0.96180000  0.40254000  0.78181000  1.0 -0.1766582634
C  C85  1  0.66440000  0.93730000  0.71728000  1.0 -0.4382921204
C  C86  1  0.33560000  0.06270000  0.21728000  1.0 -0.4382921204
C  C87  1  0.16440000  0.56270000  0.78272000  1.0 -0.4382921204
C  C88  1  0.83560000  0.43730000  0.28272000  1.0 -0.4382921204
C  C89  1  0.33560000  0.06270000  0.28272000  1.0 -0.4346043299
C  C90  1  0.66440000  0.93730000  0.78272000  1.0 -0.4382921204
C  C91  1  0.83560000  0.43730000  0.21728000  1.0 -0.4382921204
C  C92  1  0.16440000  0.56270000  0.71728000  1.0 -0.4382921204
C  C93  1  0.81080000  0.05820000  0.75000000  1.0 -0.4229512047
C  C94  1  0.18920000  0.94180000  0.25000000  1.0 -0.4229512047
C  C95  1  0.31080000  0.44180000  0.75000000  1.0 -0.4229512047
C  C96  1  0.68920000  0.55820000  0.25000000  1.0 -0.4229512047
N  N1  1  0.03350000  0.20111000  0.90153000  1.0 -0.2485469085
N  N2  1  0.96650000  0.79889000  0.40153000  1.0 -0.2485469085
N  N3  1  0.53350000  0.29889000  0.59847000  1.0 -0.2485469085
N  N4  1  0.46650000  0.70111000  0.09847000  1.0 -0.2485469085
N  N5  1  0.96650000  0.79889000  0.09847000  1.0 -0.2485469085
N  N6  1  0.03350000  0.20111000  0.59847000  1.0 -0.2485469085
N  N7  1  0.46650000  0.70111000  0.40153000  1.0 -0.2485469085
N  N8  1  0.53350000  0.29889000  0.90153000  1.0 -0.2485469085
O  O1  1  0.12890000  0.21802000  0.81553000  1.0 -0.5435250233
O  O2  1  0.87110000  0.78198000  0.31553000  1.0 -0.5435250233
O  O3  1  0.62890000  0.28198000  0.68447000  1.0 -0.5435250233
O  O4  1  0.37110000  0.71802000  0.18447000  1.0 -0.5435250233
O  O5  1  0.87110000  0.78198000  0.18447000  1.0 -0.5435250233
O  O6  1  0.12890000  0.21802000  0.68447000  1.0 -0.5435250233
O  O7  1  0.37110000  0.71802000  0.31553000  1.0 -0.5435250233
O  O8  1  0.62890000  0.28198000  0.81553000  1.0 -0.5435250233
O  O9  1  0.34314000  0.18818000  0.84498000  1.0 -0.6070795189
O  O10  1  0.65686000  0.81182000  0.34498000  1.0 -0.6070795189
O  O11  1  0.84314000  0.31182000  0.65502000  1.0 -0.6070795189
O  O12  1  0.15686000  0.68818000  0.15502000  1.0 -0.6070795189
O  O13  1  0.65686000  0.81182000  0.15502000  1.0 -0.6070795189
O  O14  1  0.34314000  0.18818000  0.65502000  1.0 -0.6070795189
O  O15  1  0.15686000  0.68818000  0.34498000  1.0 -0.6070795189
O  O16  1  0.84314000  0.31182000  0.84498000  1.0 -0.6070795189
