# DDEC6 charges by PACMAN v1.1 (https://github.com/mtap-research/PACMAN-charge/)
data_NUNCEG_ASR_pacman
_symmetry_space_group_name_H-M   'P 1'
_cell_length_a   13.72500000
_cell_length_b   14.07400000
_cell_length_c   14.18700000
_cell_angle_alpha   114.15000000
_cell_angle_beta   114.20000000
_cell_angle_gamma   98.24000000
_symmetry_Int_Tables_number   1
_chemical_formula_structural   Li4SiH16(C7O2)4
_chemical_formula_sum   'Li8 Si2 H32 C56 O16'
_cell_volume   2115.58710413
_cell_formula_units_Z   2
loop_
 _symmetry_equiv_pos_site_id
 _symmetry_equiv_pos_as_xyz
  1  'x, y, z'
loop_
 _atom_site_type_symbol
 _atom_site_label
 _atom_site_symmetry_multiplicity
 _atom_site_fract_x
 _atom_site_fract_y
 _atom_site_fract_z
 _atom_site_occupancy
 _atom_site_charge
Li  Li1  1  0.18280000  0.92590000  0.85280000  1.0 0.8099546594
Li  Li2  1  0.81720000  0.07410000  0.14720000  1.0 0.8099546594
Li  Li3  1  0.91690000  0.93800000  0.50300000  1.0 0.8099546594
Li  Li4  1  0.08310000  0.06200000  0.49700000  1.0 0.8099546594
Li  Li5  1  0.96440000  0.56670000  0.45710000  1.0 0.8040762109
Li  Li6  1  0.03560000  0.43330000  0.54290000  1.0 0.8040762109
Li  Li7  1  0.08210000  0.82550000  0.59990000  1.0 0.8246003551
Li  Li8  1  0.91790000  0.17450000  0.40010000  1.0 0.8246003551
Si  Si1  1  0.32817000  0.56007000  0.09972000  1.0 0.6435724659
Si  Si2  1  0.67183000  0.43993000  0.90028000  1.0 0.6435724659
H  H1  1  0.39320000  0.36310000  0.09360000  1.0 0.1017808991
H  H2  1  0.60680000  0.63690000  0.90640000  1.0 0.1017808991
H  H3  1  0.31640000  0.17130000  0.95160000  1.0 0.1017808991
H  H4  1  0.68360000  0.82870000  0.04840000  1.0 0.1017808991
H  H5  1  0.05560000  0.21290000  0.72100000  1.0 0.1272019459
H  H6  1  0.94440000  0.78710000  0.27900000  1.0 0.1272019459
H  H7  1  0.12620000  0.40170000  0.86600000  1.0 0.1076963095
H  H8  1  0.87380000  0.59830000  0.13400000  1.0 0.1076963095
H  H9  1  0.54930000  0.70680000  0.15910000  1.0 0.1076963095
H  H10  1  0.45070000  0.29320000  0.84090000  1.0 0.1076963095
H  H11  1  0.74320000  0.77000000  0.30580000  1.0 0.1017808991
H  H12  1  0.25680000  0.23000000  0.69420000  1.0 0.1017808991
H  H13  1  0.65680000  0.57480000  0.42550000  1.0 0.1184387717
H  H14  1  0.34320000  0.42520000  0.57450000  1.0 0.1184387717
H  H15  1  0.46280000  0.52630000  0.29310000  1.0 0.1017808991
H  H16  1  0.53720000  0.47370000  0.70690000  1.0 0.1017808991
H  H17  1  0.39300000  0.74530000  0.33460000  1.0 0.1017808991
H  H18  1  0.60700000  0.25470000  0.66540000  1.0 0.1017808991
H  H19  1  0.30760000  0.80070000  0.44850000  1.0 0.1184387717
H  H20  1  0.69240000  0.19930000  0.55150000  1.0 0.1184387717
H  H21  1  0.01990000  0.52130000  0.18940000  1.0 0.1076963095
H  H22  1  0.98010000  0.47870000  0.81060000  1.0 0.1076963095
H  H23  1  0.10210000  0.47010000  0.07090000  1.0 0.1017808991
H  H24  1  0.89790000  0.52990000  0.92910000  1.0 0.1017808991
H  H25  1  0.35630000  0.52800000  0.89700000  1.0 0.1076963095
H  H26  1  0.64370000  0.47200000  0.10300000  1.0 0.1076963095
H  H27  1  0.27560000  0.56250000  0.74050000  1.0 0.1184387717
H  H28  1  0.72440000  0.43750000  0.25950000  1.0 0.1184387717
H  H29  1  0.15770000  0.77150000  0.92060000  1.0 0.1017808991
H  H30  1  0.84230000  0.22850000  0.07940000  1.0 0.1017808991
H  H31  1  0.22520000  0.72510000  0.06940000  1.0 0.1076963095
H  H32  1  0.77480000  0.27490000  0.93060000  1.0 0.1076963095
C  C1  1  0.26840000  0.40377000  0.99523000  1.0 -0.2002017634
C  C2  1  0.73160000  0.59623000  0.00477000  1.0 -0.2002017634
C  C3  1  0.32397000  0.33276000  0.01843000  1.0 -0.0908514202
C  C4  1  0.67603000  0.66724000  0.98157000  1.0 -0.0908514202
C  C5  1  0.27939000  0.21876000  0.93328000  1.0 -0.1211914035
C  C6  1  0.72061000  0.78124000  0.06672000  1.0 -0.1211914035
C  C7  1  0.18045000  0.17428000  0.82117000  1.0 -0.0382217678
C  C8  1  0.81955000  0.82572000  0.17883000  1.0 -0.0382217678
C  C9  1  0.12383000  0.24329000  0.79693000  1.0 -0.1047452303
C  C10  1  0.87617000  0.75671000  0.20307000  1.0 -0.1047452303
C  C11  1  0.16660000  0.35580000  0.88305000  1.0 -0.0743448274
C  C12  1  0.83340000  0.64420000  0.11695000  1.0 -0.0743448274
C  C13  1  0.13762000  0.05468000  0.72255000  1.0 0.6630338891
C  C14  1  0.86238000  0.94532000  0.27745000  1.0 0.6630338891
C  C15  1  0.48492000  0.60959000  0.20959000  1.0 -0.2216417032
C  C16  1  0.51508000  0.39041000  0.79041000  1.0 -0.2216417032
C  C17  1  0.57021000  0.68177000  0.21484000  1.0 -0.0816471266
C  C18  1  0.42979000  0.31823000  0.78516000  1.0 -0.0816471266
C  C19  1  0.68628000  0.71797000  0.30091000  1.0 -0.1211914035
C  C20  1  0.31372000  0.28203000  0.69909000  1.0 -0.1211914035
C  C21  1  0.71876000  0.67817000  0.37932000  1.0 -0.0201015787
C  C22  1  0.28124000  0.32183000  0.62068000  1.0 -0.0201015787
C  C23  1  0.63498000  0.60416000  0.37373000  1.0 -0.1047452303
C  C24  1  0.36502000  0.39584000  0.62627000  1.0 -0.1047452303
C  C25  1  0.51963000  0.57314000  0.29269000  1.0 -0.0908514202
C  C26  1  0.48037000  0.42686000  0.70731000  1.0 -0.0908514202
C  C27  1  0.84402000  0.71003000  0.46765000  1.0 0.6241873665
C  C28  1  0.15598000  0.28997000  0.53235000  1.0 0.6241873665
C  C29  1  0.25693000  0.60115000  0.18970000  1.0 -0.2349040943
C  C30  1  0.74307000  0.39885000  0.81030000  1.0 -0.2349040943
C  C31  1  0.31663000  0.69995000  0.30388000  1.0 -0.0908514202
C  C32  1  0.68337000  0.30005000  0.69612000  1.0 -0.0908514202
C  C33  1  0.26616000  0.73248000  0.37241000  1.0 -0.1092562662
C  C34  1  0.73384000  0.26752000  0.62759000  1.0 -0.1092562662
C  C35  1  0.15530000  0.66642000  0.33125000  1.0 0.007174713
C  C36  1  0.84470000  0.33358000  0.66875000  1.0 0.007174713
C  C37  1  0.09525000  0.56768000  0.21852000  1.0 -0.1092562662
C  C38  1  0.90475000  0.43232000  0.78148000  1.0 -0.1092562662
C  C39  1  0.14504000  0.53662000  0.14845000  1.0 -0.0908514202
C  C40  1  0.85496000  0.46338000  0.85155000  1.0 -0.0908514202
C  C41  1  0.10194000  0.69919000  0.40781000  1.0 0.5938454134
C  C42  1  0.89806000  0.30081000  0.59219000  1.0 0.5938454134
C  C43  1  0.29549000  0.61875000  0.99817000  1.0 -0.2058154183
C  C44  1  0.70451000  0.38125000  0.00183000  1.0 -0.2058154183
C  C45  1  0.31226000  0.57423000  0.90013000  1.0 -0.0816471266
C  C46  1  0.68774000  0.42577000  0.09987000  1.0 -0.0816471266
C  C47  1  0.26603000  0.59625000  0.80770000  1.0 -0.1047452303
C  C48  1  0.73397000  0.40375000  0.19230000  1.0 -0.1047452303
C  C49  1  0.20551000  0.66790000  0.81335000  1.0 -0.0201015787
C  C50  1  0.79449000  0.33210000  0.18665000  1.0 -0.0201015787
C  C51  1  0.19430000  0.71869000  0.91346000  1.0 -0.1288510101
C  C52  1  0.80570000  0.28131000  0.08654000  1.0 -0.1288510101
C  C53  1  0.23658000  0.69241000  0.00329000  1.0 -0.0816471266
C  C54  1  0.76342000  0.30759000  0.99671000  1.0 -0.0816471266
C  C55  1  0.14519000  0.68146000  0.70626000  1.0 0.6705668134
C  C56  1  0.85481000  0.31854000  0.29374000  1.0 0.6705668134
O  O1  1  0.16164000  0.98305000  0.74869000  1.0 -0.7341867225
O  O2  1  0.83836000  0.01695000  0.25131000  1.0 -0.7341867225
O  O3  1  0.07863000  0.03280000  0.61576000  1.0 -0.7611236708
O  O4  1  0.92137000  0.96720000  0.38424000  1.0 -0.7611236708
O  O5  1  0.91537000  0.80409000  0.50727000  1.0 -0.7475071984
O  O6  1  0.08463000  0.19591000  0.49273000  1.0 -0.7475071984
O  O7  1  0.86907000  0.64076000  0.49754000  1.0 -0.6449695664
O  O8  1  0.13093000  0.35924000  0.50246000  1.0 -0.6449695664
O  O9  1  0.14617000  0.80051000  0.49402000  1.0 -0.657076283
O  O10  1  0.85383000  0.19949000  0.50598000  1.0 -0.657076283
O  O11  1  0.01805000  0.62396000  0.38121000  1.0 -0.6846198874
O  O12  1  0.98195000  0.37604000  0.61879000  1.0 -0.6846198874
O  O13  1  0.09506000  0.59376000  0.60421000  1.0 -0.6891887026
O  O14  1  0.90494000  0.40624000  0.39579000  1.0 -0.6891887026
O  O15  1  0.14772000  0.77744000  0.72450000  1.0 -0.738098784
O  O16  1  0.85228000  0.22256000  0.27550000  1.0 -0.738098784
