# DDEC6 charges by PACMAN v1.1 (https://github.com/mtap-research/PACMAN-charge/)
data_NUNZUT_FSR_pacman
_symmetry_space_group_name_H-M   'P 1'
_cell_length_a   16.41700000
_cell_length_b   16.41700000
_cell_length_c   6.59800000
_cell_angle_alpha   90.00000000
_cell_angle_beta   90.00000000
_cell_angle_gamma   90.00000000
_symmetry_Int_Tables_number   1
_chemical_formula_structural   CuH48(C9N)4
_chemical_formula_sum   'Cu2 H96 C72 N8'
_cell_volume   1778.27903162
_cell_formula_units_Z   2
loop_
 _symmetry_equiv_pos_site_id
 _symmetry_equiv_pos_as_xyz
  1  'x, y, z'
loop_
 _atom_site_type_symbol
 _atom_site_label
 _atom_site_symmetry_multiplicity
 _atom_site_fract_x
 _atom_site_fract_y
 _atom_site_fract_z
 _atom_site_occupancy
 _atom_site_charge
Cu  Cu1  1  0.50000000  0.50000000  0.50000000  1.0 0.6021961705
Cu  Cu2  1  0.00000000  0.00000000  0.50000000  1.0 0.6021961705
H  H1  1  0.37050000  0.50340000  0.18390000  1.0 0.0995484158
H  H2  1  0.00340000  0.12950000  0.18390000  1.0 0.0995484158
H  H3  1  0.62950000  0.49660000  0.18390000  1.0 0.0995484158
H  H4  1  0.99660000  0.87050000  0.18390000  1.0 0.0995484158
H  H5  1  0.12950000  0.99660000  0.81610000  1.0 0.0995484158
H  H6  1  0.49660000  0.37050000  0.81610000  1.0 0.0995484158
H  H7  1  0.87050000  0.00340000  0.81610000  1.0 0.0995484158
H  H8  1  0.50340000  0.62950000  0.81610000  1.0 0.0995484158
H  H9  1  0.28930000  0.41900000  0.99840000  1.0 0.1148661511
H  H10  1  0.91900000  0.21070000  0.99840000  1.0 0.1148661511
H  H11  1  0.71070000  0.58100000  0.99840000  1.0 0.1148661511
H  H12  1  0.08100000  0.78930000  0.99840000  1.0 0.1148661511
H  H13  1  0.21070000  0.08100000  0.00160000  1.0 0.1148661511
H  H14  1  0.58100000  0.28930000  0.00160000  1.0 0.1148661511
H  H15  1  0.78930000  0.91900000  0.00160000  1.0 0.1148661511
H  H16  1  0.41900000  0.71070000  0.00160000  1.0 0.1148661511
H  H17  1  0.41030000  0.23130000  0.22680000  1.0 0.1205699561
H  H18  1  0.73130000  0.08970000  0.22680000  1.0 0.1205699561
H  H19  1  0.58970000  0.76870000  0.22680000  1.0 0.1205699561
H  H20  1  0.26870000  0.91030000  0.22680000  1.0 0.1205699561
H  H21  1  0.08970000  0.26870000  0.77320000  1.0 0.1205699561
H  H22  1  0.76870000  0.41030000  0.77320000  1.0 0.1205699561
H  H23  1  0.91030000  0.73130000  0.77320000  1.0 0.1205699561
H  H24  1  0.23130000  0.58970000  0.77320000  1.0 0.1205699561
H  H25  1  0.48760000  0.32000000  0.40810000  1.0 0.0995484158
H  H26  1  0.82000000  0.01240000  0.40810000  1.0 0.0995484158
H  H27  1  0.51240000  0.68000000  0.40810000  1.0 0.0995484158
H  H28  1  0.18000000  0.98760000  0.40810000  1.0 0.0995484158
H  H29  1  0.01240000  0.18000000  0.59190000  1.0 0.0995484158
H  H30  1  0.68000000  0.48760000  0.59190000  1.0 0.0995484158
H  H31  1  0.98760000  0.82000000  0.59190000  1.0 0.0995484158
H  H32  1  0.32000000  0.51240000  0.59190000  1.0 0.0995484158
H  H33  1  0.31420000  0.19230000  0.00750000  1.0 0.0510933441
H  H34  1  0.69230000  0.18580000  0.00750000  1.0 0.0510933441
H  H35  1  0.68580000  0.80770000  0.00750000  1.0 0.0510933441
H  H36  1  0.30770000  0.81420000  0.00750000  1.0 0.0510933441
H  H37  1  0.18580000  0.30770000  0.99250000  1.0 0.0510933441
H  H38  1  0.80770000  0.31420000  0.99250000  1.0 0.0510933441
H  H39  1  0.81420000  0.69230000  0.99250000  1.0 0.0510933441
H  H40  1  0.19230000  0.68580000  0.99250000  1.0 0.0510933441
H  H41  1  0.28860000  0.32180000  0.71470000  1.0 0.0510933441
H  H42  1  0.82180000  0.21140000  0.71470000  1.0 0.0510933441
H  H43  1  0.71140000  0.67820000  0.71470000  1.0 0.0510933441
H  H44  1  0.17820000  0.78860000  0.71470000  1.0 0.0510933441
H  H45  1  0.21140000  0.17820000  0.28530000  1.0 0.0510933441
H  H46  1  0.67820000  0.28860000  0.28530000  1.0 0.0510933441
H  H47  1  0.78860000  0.82180000  0.28530000  1.0 0.0510933441
H  H48  1  0.32180000  0.71140000  0.28530000  1.0 0.0510933441
H  H49  1  0.36560000  0.26520000  0.71360000  1.0 0.0995484158
H  H50  1  0.76520000  0.13440000  0.71360000  1.0 0.0995484158
H  H51  1  0.63440000  0.73480000  0.71360000  1.0 0.0995484158
H  H52  1  0.23480000  0.86560000  0.71360000  1.0 0.0995484158
H  H53  1  0.13440000  0.23480000  0.28640000  1.0 0.0995484158
H  H54  1  0.73480000  0.36560000  0.28640000  1.0 0.0995484158
H  H55  1  0.86560000  0.76520000  0.28640000  1.0 0.0995484158
H  H56  1  0.26520000  0.63440000  0.28640000  1.0 0.0995484158
H  H57  1  0.27990000  0.22940000  0.65860000  1.0 0.0781287537
H  H58  1  0.72940000  0.22010000  0.65860000  1.0 0.0781287537
H  H59  1  0.72010000  0.77060000  0.65860000  1.0 0.0781287537
H  H60  1  0.27060000  0.77990000  0.65860000  1.0 0.0781287537
H  H61  1  0.22010000  0.27060000  0.34140000  1.0 0.0781287537
H  H62  1  0.77060000  0.27990000  0.34140000  1.0 0.0781287537
H  H63  1  0.77990000  0.72940000  0.34140000  1.0 0.0781287537
H  H64  1  0.22940000  0.72010000  0.34140000  1.0 0.0781287537
H  H65  1  0.25030000  0.31930000  0.86530000  1.0 0.0426737243
H  H66  1  0.81930000  0.24970000  0.86530000  1.0 0.0426737243
H  H67  1  0.74970000  0.68070000  0.86530000  1.0 0.0426737243
H  H68  1  0.18070000  0.75030000  0.86530000  1.0 0.0426737243
H  H69  1  0.24970000  0.18070000  0.13470000  1.0 0.0426737243
H  H70  1  0.68070000  0.25030000  0.13470000  1.0 0.0426737243
H  H71  1  0.75030000  0.81930000  0.13470000  1.0 0.0426737243
H  H72  1  0.31930000  0.74970000  0.13470000  1.0 0.0426737243
H  H73  1  0.28020000  0.20480000  0.68830000  1.0 0.0781287537
H  H74  1  0.70480000  0.21980000  0.68830000  1.0 0.0781287537
H  H75  1  0.71980000  0.79520000  0.68830000  1.0 0.0781287537
H  H76  1  0.29520000  0.78020000  0.68830000  1.0 0.0781287537
H  H77  1  0.21980000  0.29520000  0.31170000  1.0 0.0781287537
H  H78  1  0.79520000  0.28020000  0.31170000  1.0 0.0781287537
H  H79  1  0.78020000  0.70480000  0.31170000  1.0 0.0781287537
H  H80  1  0.20480000  0.71980000  0.31170000  1.0 0.0781287537
H  H81  1  0.35440000  0.26480000  0.69570000  1.0 0.0888824617
H  H82  1  0.76480000  0.14560000  0.69570000  1.0 0.0888824617
H  H83  1  0.64560000  0.73520000  0.69570000  1.0 0.0888824617
H  H84  1  0.23520000  0.85440000  0.69570000  1.0 0.0888824617
H  H85  1  0.14560000  0.23520000  0.30430000  1.0 0.0888824617
H  H86  1  0.73520000  0.35440000  0.30430000  1.0 0.0888824617
H  H87  1  0.85440000  0.76480000  0.30430000  1.0 0.0888824617
H  H88  1  0.26480000  0.64560000  0.30430000  1.0 0.0888824617
H  H89  1  0.35330000  0.18740000  0.83500000  1.0 0.0663843458
H  H90  1  0.68740000  0.14670000  0.83500000  1.0 0.0663843458
H  H91  1  0.64670000  0.81260000  0.83500000  1.0 0.0663843458
H  H92  1  0.31260000  0.85330000  0.83500000  1.0 0.0663843458
H  H93  1  0.14670000  0.31260000  0.16500000  1.0 0.0663843458
H  H94  1  0.81260000  0.35330000  0.16500000  1.0 0.0663843458
H  H95  1  0.85330000  0.68740000  0.16500000  1.0 0.0663843458
H  H96  1  0.18740000  0.64670000  0.16500000  1.0 0.0663843458
C  C1  1  0.37857000  0.44755000  0.19480000  1.0 -0.0085825049
C  C2  1  0.94755000  0.12143000  0.19480000  1.0 -0.0085825049
C  C3  1  0.62143000  0.55245000  0.19480000  1.0 -0.0085825049
C  C4  1  0.05245000  0.87857000  0.19480000  1.0 -0.0085825049
C  C5  1  0.12143000  0.05245000  0.80520000  1.0 -0.0085825049
C  C6  1  0.55245000  0.37857000  0.80520000  1.0 -0.0085825049
C  C7  1  0.87857000  0.94755000  0.80520000  1.0 -0.0085825049
C  C8  1  0.44755000  0.62143000  0.80520000  1.0 -0.0085825049
C  C9  1  0.32980000  0.39710000  0.08070000  1.0 -0.2844507133
C  C10  1  0.89710000  0.17020000  0.08070000  1.0 -0.2844507133
C  C11  1  0.67020000  0.60290000  0.08070000  1.0 -0.2844507133
C  C12  1  0.10290000  0.82980000  0.08070000  1.0 -0.285935299
C  C13  1  0.17020000  0.10290000  0.91930000  1.0 -0.2844507133
C  C14  1  0.60290000  0.32980000  0.91930000  1.0 -0.2844507133
C  C15  1  0.82980000  0.89710000  0.91930000  1.0 -0.2844507133
C  C16  1  0.39710000  0.67020000  0.91930000  1.0 -0.2844507133
C  C17  1  0.34110000  0.31430000  0.08910000  1.0 0.0663843458
C  C18  1  0.81430000  0.15890000  0.08910000  1.0 0.0663843458
C  C19  1  0.65890000  0.68570000  0.08910000  1.0 0.0663843458
C  C20  1  0.18570000  0.84110000  0.08910000  1.0 0.0663843458
C  C21  1  0.15890000  0.18570000  0.91090000  1.0 0.0663843458
C  C22  1  0.68570000  0.34110000  0.91090000  1.0 0.0663843458
C  C23  1  0.84110000  0.81430000  0.91090000  1.0 0.0663843458
C  C24  1  0.31430000  0.65890000  0.91090000  1.0 0.0663843458
C  C25  1  0.40070000  0.28691000  0.21510000  1.0 -0.2964249527
C  C26  1  0.78691000  0.09930000  0.21510000  1.0 -0.2964249527
C  C27  1  0.59930000  0.71309000  0.21510000  1.0 -0.2964249527
C  C28  1  0.21309000  0.90070000  0.21510000  1.0 -0.2964249527
C  C29  1  0.09930000  0.21309000  0.78490000  1.0 -0.2964249527
C  C30  1  0.71309000  0.40070000  0.78490000  1.0 -0.2964249527
C  C31  1  0.90070000  0.78691000  0.78490000  1.0 -0.2964249527
C  C32  1  0.28691000  0.59930000  0.78490000  1.0 -0.2964249527
C  C33  1  0.44683000  0.34081000  0.32500000  1.0 -0.0181681002
C  C34  1  0.84081000  0.05317000  0.32500000  1.0 -0.0181681002
C  C35  1  0.55317000  0.65919000  0.32500000  1.0 -0.0181681002
C  C36  1  0.15919000  0.94683000  0.32500000  1.0 -0.0181681002
C  C37  1  0.05317000  0.15919000  0.67500000  1.0 -0.0181681002
C  C38  1  0.65919000  0.44683000  0.67500000  1.0 -0.0181681002
C  C39  1  0.94683000  0.84081000  0.67500000  1.0 -0.0181681002
C  C40  1  0.34081000  0.55317000  0.67500000  1.0 -0.0181681002
C  C41  1  0.29320000  0.24660000  0.97400000  1.0 0.0206202591
C  C42  1  0.74660000  0.20680000  0.97400000  1.0 0.0206202591
C  C43  1  0.70680000  0.75340000  0.97400000  1.0 0.0206202591
C  C44  1  0.25340000  0.79320000  0.97400000  1.0 0.0206202591
C  C45  1  0.20680000  0.25340000  0.02600000  1.0 0.0206202591
C  C46  1  0.75340000  0.29320000  0.02600000  1.0 0.0206202591
C  C47  1  0.79320000  0.74660000  0.02600000  1.0 0.0206202591
C  C48  1  0.24660000  0.70680000  0.02600000  1.0 0.0206202591
C  C49  1  0.30830000  0.26790000  0.74200000  1.0 -0.1924659624
C  C50  1  0.76790000  0.19170000  0.74200000  1.0 -0.1924659624
C  C51  1  0.69170000  0.73210000  0.74200000  1.0 -0.1924659624
C  C52  1  0.23210000  0.80830000  0.74200000  1.0 -0.1924659624
C  C53  1  0.19170000  0.23210000  0.25800000  1.0 -0.1924659624
C  C54  1  0.73210000  0.30830000  0.25800000  1.0 -0.1924659624
C  C55  1  0.80830000  0.76790000  0.25800000  1.0 -0.1924659624
C  C56  1  0.26790000  0.69170000  0.25800000  1.0 -0.1924659624
C  C57  1  0.28100000  0.27500000  0.93000000  1.0 0.0206202591
C  C58  1  0.77500000  0.21900000  0.93000000  1.0 0.0206202591
C  C59  1  0.71900000  0.72500000  0.93000000  1.0 0.0206202591
C  C60  1  0.22500000  0.78100000  0.93000000  1.0 0.0206202591
C  C61  1  0.21900000  0.22500000  0.07000000  1.0 0.0206202591
C  C62  1  0.72500000  0.28100000  0.07000000  1.0 0.0206202591
C  C63  1  0.78100000  0.77500000  0.07000000  1.0 0.0206202591
C  C64  1  0.27500000  0.71900000  0.07000000  1.0 0.0206202591
C  C65  1  0.32000000  0.22900000  0.77500000  1.0 -0.2184438644
C  C66  1  0.72900000  0.18000000  0.77500000  1.0 -0.2184438644
C  C67  1  0.68000000  0.77100000  0.77500000  1.0 -0.2184438644
C  C68  1  0.27100000  0.82000000  0.77500000  1.0 -0.2184438644
C  C69  1  0.18000000  0.27100000  0.22500000  1.0 -0.2184438644
C  C70  1  0.77100000  0.32000000  0.22500000  1.0 -0.2184438644
C  C71  1  0.82000000  0.72900000  0.22500000  1.0 -0.2184438644
C  C72  1  0.22900000  0.68000000  0.22500000  1.0 -0.2184438644
N  N1  1  0.43652000  0.42140000  0.31940000  1.0 -0.2299183174
N  N2  1  0.92140000  0.06348000  0.31940000  1.0 -0.2299183174
N  N3  1  0.56348000  0.57860000  0.31940000  1.0 -0.2299183174
N  N4  1  0.07860000  0.93652000  0.31940000  1.0 -0.2299183174
N  N5  1  0.06348000  0.07860000  0.68060000  1.0 -0.2299183174
N  N6  1  0.57860000  0.43652000  0.68060000  1.0 -0.2299183174
N  N7  1  0.93652000  0.92140000  0.68060000  1.0 -0.2299183174
N  N8  1  0.42140000  0.56348000  0.68060000  1.0 -0.2299183174
