# DDEC6 charges by PACMAN v1.1 (https://github.com/mtap-research/PACMAN-charge/)
data_NUTQEZ_ASR_pacman
_symmetry_space_group_name_H-M   'P 1'
_cell_length_a   15.12620000
_cell_length_b   15.12620000
_cell_length_c   15.12620000
_cell_angle_alpha   103.59400000
_cell_angle_beta   103.59400000
_cell_angle_gamma   103.59400000
_symmetry_Int_Tables_number   1
_chemical_formula_structural   CuH3C9O4
_chemical_formula_sum   'Cu6 H18 C54 O24'
_cell_volume   3111.54108991
_cell_formula_units_Z   6
loop_
 _symmetry_equiv_pos_site_id
 _symmetry_equiv_pos_as_xyz
  1  'x, y, z'
loop_
 _atom_site_type_symbol
 _atom_site_label
 _atom_site_symmetry_multiplicity
 _atom_site_fract_x
 _atom_site_fract_y
 _atom_site_fract_z
 _atom_site_occupancy
 _atom_site_charge
Cu  Cu1  1  0.02003000  0.42501000  0.02003000  1.0 0.8470695083
Cu  Cu2  1  0.42501000  0.02003000  0.02003000  1.0 0.8470695083
Cu  Cu3  1  0.02002000  0.02002000  0.42501000  1.0 0.8449537223
Cu  Cu4  1  0.57499000  0.97997000  0.97998000  1.0 0.8470695083
Cu  Cu5  1  0.97998000  0.57499000  0.97998000  1.0 0.8470695083
Cu  Cu6  1  0.97997000  0.97997000  0.57499000  1.0 0.8470695083
H  H1  1  0.25975000  0.74025000  0.00000000  1.0 0.1401383114
H  H2  1  0.74025000  0.00000000  0.25975000  1.0 0.1401383114
H  H3  1  0.00000000  0.25975000  0.74025000  1.0 0.1401383114
H  H4  1  0.74025000  0.25975000  0.00000000  1.0 0.1401383114
H  H5  1  0.25975000  0.00000000  0.74025000  1.0 0.1401383114
H  H6  1  0.00000000  0.74025000  0.25975000  1.0 0.1401383114
H  H7  1  0.30430000  0.49190000  0.01830000  1.0 0.1401383114
H  H8  1  0.49190000  0.01830000  0.30430000  1.0 0.1401383114
H  H9  1  0.01830000  0.30430000  0.49190000  1.0 0.1401383114
H  H10  1  0.50810000  0.69570000  0.98170000  1.0 0.1401383114
H  H11  1  0.98170000  0.50810000  0.69570000  1.0 0.1401383114
H  H12  1  0.69570000  0.98170000  0.50810000  1.0 0.1401383114
H  H13  1  0.69570000  0.50810000  0.98170000  1.0 0.1401383114
H  H14  1  0.50810000  0.98170000  0.69570000  1.0 0.1401383114
H  H15  1  0.98170000  0.69570000  0.50810000  1.0 0.1401383114
H  H16  1  0.49190000  0.30430000  0.01830000  1.0 0.1401383114
H  H17  1  0.01830000  0.49190000  0.30430000  1.0 0.1401383114
H  H18  1  0.30430000  0.01830000  0.49190000  1.0 0.1401383114
C  C1  1  0.17000000  0.57500000  0.01550000  1.0 0.5739461844
C  C2  1  0.57500000  0.01550000  0.17000000  1.0 0.5739461844
C  C3  1  0.01550000  0.17000000  0.57500000  1.0 0.5739461844
C  C4  1  0.42500000  0.83000000  0.98450000  1.0 0.5739461844
C  C5  1  0.98450000  0.42500000  0.83000000  1.0 0.5739461844
C  C6  1  0.83000000  0.98450000  0.42500000  1.0 0.5739461844
C  C7  1  0.83000000  0.42500000  0.98450000  1.0 0.5739461844
C  C8  1  0.42500000  0.98450000  0.83000000  1.0 0.5739461844
C  C9  1  0.98450000  0.83000000  0.42500000  1.0 0.5739461844
C  C10  1  0.57500000  0.17000000  0.01550000  1.0 0.5739461844
C  C11  1  0.01550000  0.57500000  0.17000000  1.0 0.5739461844
C  C12  1  0.17000000  0.01550000  0.57500000  1.0 0.5739461844
C  C13  1  0.26800000  0.61110000  0.01070000  1.0 -0.0357609699
C  C14  1  0.61110000  0.01070000  0.26800000  1.0 -0.0346252443
C  C15  1  0.01070000  0.26800000  0.61110000  1.0 -0.0357609699
C  C16  1  0.38890000  0.73200000  0.98930000  1.0 -0.0346252443
C  C17  1  0.98930000  0.38890000  0.73200000  1.0 -0.0346252443
C  C18  1  0.73200000  0.98930000  0.38890000  1.0 -0.0346252443
C  C19  1  0.73200000  0.38890000  0.98930000  1.0 -0.0346252443
C  C20  1  0.38890000  0.98930000  0.73200000  1.0 -0.0346252443
C  C21  1  0.98930000  0.73200000  0.38890000  1.0 -0.0346252443
C  C22  1  0.61110000  0.26800000  0.01070000  1.0 -0.0357609699
C  C23  1  0.01070000  0.61110000  0.26800000  1.0 -0.0346252443
C  C24  1  0.26800000  0.01070000  0.61110000  1.0 -0.0346252443
C  C25  1  0.29975000  0.70025000  0.00000000  1.0 -0.081061692
C  C26  1  0.70025000  0.00000000  0.29975000  1.0 -0.081061692
C  C27  1  0.00000000  0.29975000  0.70025000  1.0 -0.081061692
C  C28  1  0.70025000  0.29975000  0.00000000  1.0 -0.081061692
C  C29  1  0.29975000  0.00000000  0.70025000  1.0 -0.081061692
C  C30  1  0.00000000  0.70025000  0.29975000  1.0 -0.081061692
C  C31  1  0.32580000  0.55320000  0.01080000  1.0 -0.1203181648
C  C32  1  0.55320000  0.01080000  0.32580000  1.0 -0.1203181648
C  C33  1  0.01080000  0.32580000  0.55320000  1.0 -0.1203181648
C  C34  1  0.44680000  0.67420000  0.98920000  1.0 -0.1203181648
C  C35  1  0.98920000  0.44680000  0.67420000  1.0 -0.1203181648
C  C36  1  0.67420000  0.98920000  0.44680000  1.0 -0.1203181648
C  C37  1  0.67420000  0.44680000  0.98920000  1.0 -0.1203181648
C  C38  1  0.44680000  0.98920000  0.67420000  1.0 -0.1203181648
C  C39  1  0.98920000  0.67420000  0.44680000  1.0 -0.1203181648
C  C40  1  0.55320000  0.32580000  0.01080000  1.0 -0.1203181648
C  C41  1  0.01080000  0.55320000  0.32580000  1.0 -0.1203181648
C  C42  1  0.32580000  0.01080000  0.55320000  1.0 -0.1203181648
C  C43  1  0.41565000  0.58435000  0.00000000  1.0 0.1163458541
C  C44  1  0.58435000  0.00000000  0.41565000  1.0 0.1163458541
C  C45  1  0.00000000  0.41565000  0.58435000  1.0 0.1163458541
C  C46  1  0.58435000  0.41565000  0.00000000  1.0 0.1163458541
C  C47  1  0.41565000  0.00000000  0.58435000  1.0 0.1163458541
C  C48  1  0.00000000  0.58435000  0.41565000  1.0 0.1163458541
C  C49  1  0.47525000  0.52475000  0.00000000  1.0 -0.0991716991
C  C50  1  0.52475000  0.00000000  0.47525000  1.0 -0.0991716991
C  C51  1  0.00000000  0.47525000  0.52475000  1.0 -0.0991716991
C  C52  1  0.52475000  0.47525000  0.00000000  1.0 -0.0991716991
C  C53  1  0.47525000  0.00000000  0.52475000  1.0 -0.0991716991
C  C54  1  0.00000000  0.52475000  0.47525000  1.0 -0.0991716991
O  O1  1  0.15023000  0.49747000  0.03270000  1.0 -0.5101704905
O  O2  1  0.49747000  0.03270000  0.15023000  1.0 -0.5101704905
O  O3  1  0.03270000  0.15023000  0.49747000  1.0 -0.5101704905
O  O4  1  0.50253000  0.84977000  0.96730000  1.0 -0.5101704905
O  O5  1  0.96730000  0.50253000  0.84977000  1.0 -0.5101704905
O  O6  1  0.84977000  0.96730000  0.50253000  1.0 -0.5101704905
O  O7  1  0.84977000  0.50253000  0.96730000  1.0 -0.5101704905
O  O8  1  0.50253000  0.96730000  0.84977000  1.0 -0.5101704905
O  O9  1  0.96730000  0.84977000  0.50253000  1.0 -0.5101704905
O  O10  1  0.49747000  0.15023000  0.03270000  1.0 -0.5101704905
O  O11  1  0.03270000  0.49747000  0.15023000  1.0 -0.5101704905
O  O12  1  0.15023000  0.03270000  0.49747000  1.0 -0.5101704905
O  O13  1  0.11600000  0.62420000  0.99990000  1.0 -0.5101704905
O  O14  1  0.62420000  0.99990000  0.11600000  1.0 -0.5101704905
O  O15  1  0.99990000  0.11600000  0.62420000  1.0 -0.5101704905
O  O16  1  0.37580000  0.88400000  0.00010000  1.0 -0.5101704905
O  O17  1  0.00010000  0.37580000  0.88400000  1.0 -0.5101704905
O  O18  1  0.88400000  0.00010000  0.37580000  1.0 -0.5101704905
O  O19  1  0.88400000  0.37580000  0.00010000  1.0 -0.5101704905
O  O20  1  0.37580000  0.00010000  0.88400000  1.0 -0.5101704905
O  O21  1  0.00010000  0.88400000  0.37580000  1.0 -0.5101704905
O  O22  1  0.62420000  0.11600000  0.99990000  1.0 -0.5101704905
O  O23  1  0.99990000  0.62420000  0.11600000  1.0 -0.5101704905
O  O24  1  0.11600000  0.99990000  0.62420000  1.0 -0.5101704905
