# DDEC6 charges by PACMAN v1.1 (https://github.com/mtap-research/PACMAN-charge/)
data_NUVTUW_FSR_pacman
_symmetry_space_group_name_H-M   'P 1'
_cell_length_a   13.43710000
_cell_length_b   14.70650000
_cell_length_c   18.84580000
_cell_angle_alpha   67.60000000
_cell_angle_beta   72.94900000
_cell_angle_gamma   63.02300000
_symmetry_Int_Tables_number   1
_chemical_formula_structural   La6MnV22C20(N2O49)2
_chemical_formula_sum   'La6 Mn1 V22 C20 N4 O98'
_cell_volume   3035.59705733
_cell_formula_units_Z   1
loop_
 _symmetry_equiv_pos_site_id
 _symmetry_equiv_pos_as_xyz
  1  'x, y, z'
loop_
 _atom_site_type_symbol
 _atom_site_label
 _atom_site_symmetry_multiplicity
 _atom_site_fract_x
 _atom_site_fract_y
 _atom_site_fract_z
 _atom_site_occupancy
 _atom_site_charge
La  La1  1  0.79504000  0.15633000  0.78206000  1.0 2.0084235109
La  La2  1  0.15565000  0.35255000  0.87740000  1.0 1.8853322305
La  La3  1  0.49760000  0.80004000  0.80989000  1.0 1.8114380874
La  La4  1  0.20496000  0.84367000  0.21794000  1.0 2.0084235109
La  La5  1  0.84435000  0.64745000  0.12260000  1.0 1.8802793063
La  La6  1  0.50240000  0.19996000  0.19011000  1.0 1.8114380874
Mn  Mn1  1  0.50000000  0.00000000  0.00000000  1.0 1.1769170798
V  V1  1  0.64393000  0.93685000  0.12991000  1.0 1.9409794447
V  V2  1  0.76624000  0.91799000  0.96084000  1.0 1.9319938458
V  V3  1  0.62452000  0.14345000  0.99003000  1.0 1.9545294084
V  V4  1  0.48054000  0.20906000  0.86054000  1.0 1.9113393463
V  V5  1  0.61953000  0.98546000  0.83093000  1.0 1.919359956
V  V6  1  0.64143000  0.77560000  0.97203000  1.0 1.919359956
V  V7  1  0.91506000  0.50973000  0.64666000  1.0 1.872010652
V  V8  1  0.96343000  0.32175000  0.59052000  1.0 2.0284632482
V  V9  1  0.83409000  0.74071000  0.53693000  1.0 2.0284632482
V  V10  1  0.87093000  0.55772000  0.47933000  1.0 1.8802793063
V  V11  1  0.92522000  0.36544000  0.42395000  1.0 2.0226048864
V  V12  1  0.35607000  0.06315000  0.87009000  1.0 1.9409794447
V  V13  1  0.23376000  0.08201000  0.03916000  1.0 1.9409794447
V  V14  1  0.37548000  0.85655000  0.00997000  1.0 1.9550535716
V  V15  1  0.51946000  0.79094000  0.13946000  1.0 1.9113393463
V  V16  1  0.38047000  0.01454000  0.16907000  1.0 1.919359956
V  V17  1  0.35857000  0.22440000  0.02797000  1.0 1.919359956
V  V18  1  0.08494000  0.49027000  0.35334000  1.0 1.872010652
V  V19  1  0.03657000  0.67825000  0.40948000  1.0 2.0284632482
V  V20  1  0.16591000  0.25929000  0.46307000  1.0 2.0284632482
V  V21  1  0.12907000  0.44228000  0.52067000  1.0 1.8802793063
V  V22  1  0.07478000  0.63456000  0.57605000  1.0 2.0226048864
C  C1  1  0.29130000  0.76460000  0.70090000  1.0 0.118397213
C  C2  1  0.23220000  0.80890000  0.63850000  1.0 -0.0331391431
C  C3  1  0.17680000  0.91890000  0.61150000  1.0 0.2650032081
C  C4  1  0.18050000  0.98460000  0.64690000  1.0 0.0444907844
C  C5  1  0.23960000  0.94020000  0.70930000  1.0 0.1862383373
C  C6  1  0.92660000  0.02700000  0.46590000  1.0 0.118397213
C  C7  1  0.01500000  0.92900000  0.46840000  1.0 0.118397213
C  C8  1  0.10100000  0.89400000  0.51110000  1.0 0.0620373555
C  C9  1  0.00950000  0.05570000  0.54890000  1.0 0.0741280718
C  C10  1  0.92370000  0.09070000  0.50610000  1.0 0.1104379352
C  C11  1  0.70870000  0.23540000  0.29910000  1.0 0.118397213
C  C12  1  0.76780000  0.19110000  0.36150000  1.0 -0.0331391431
C  C13  1  0.82320000  0.08110000  0.38850000  1.0 0.2629037984
C  C14  1  0.81950000  0.01540000  0.35310000  1.0 0.0444907844
C  C15  1  0.76040000  0.05980000  0.29070000  1.0 0.1862383373
C  C16  1  0.07340000  0.97300000  0.53410000  1.0 0.1104379352
C  C17  1  0.98500000  0.07100000  0.53160000  1.0 0.118397213
C  C18  1  0.89900000  0.10600000  0.48890000  1.0 0.0620373555
C  C19  1  0.99050000  0.94430000  0.45110000  1.0 0.0767853223
C  C20  1  0.07630000  0.90930000  0.49390000  1.0 0.1104379352
N  N1  1  0.29500000  0.83020000  0.73630000  1.0 0.3365694322
N  N2  1  0.09820000  0.95730000  0.55130000  1.0 0.223560933
N  N3  1  0.70500000  0.16980000  0.26370000  1.0 0.3365694322
N  N4  1  0.90180000  0.04270000  0.44870000  1.0 0.2257465161
O  O1  1  0.74750000  0.67730000  0.01460000  1.0 -0.7594824992
O  O2  1  0.61460000  0.19280000  0.05670000  1.0 -0.6805017951
O  O3  1  0.63060000  0.00760000  0.18420000  1.0 -0.670742508
O  O4  1  0.75020000  0.82160000  0.15800000  1.0 -0.7095973752
O  O5  1  0.85850000  0.80520000  0.00650000  1.0 -0.7692819796
O  O6  1  0.84120000  0.98050000  0.89070000  1.0 -0.7280536853
O  O7  1  0.51570000  0.75730000  0.05030000  1.0 -0.9598185025
O  O8  1  0.49550000  0.93460000  0.93310000  1.0 -0.8896752559
O  O9  1  0.58300000  0.24250000  0.79920000  1.0 -0.8000658515
O  O10  1  0.37830000  0.12380000  0.95900000  1.0 -0.8823262118
O  O11  1  0.62600000  0.73050000  0.90970000  1.0 -0.7095973752
O  O12  1  0.71650000  0.17890000  0.91760000  1.0 -0.7527625524
O  O13  1  0.70760000  0.04020000  0.77210000  1.0 -0.6648964249
O  O14  1  0.60430000  0.92120000  0.78180000  1.0 -0.6938103102
O  O15  1  0.72440000  0.99780000  0.03360000  1.0 -0.9598185025
O  O16  1  0.72050000  0.86560000  0.90000000  1.0 -0.9598185025
O  O17  1  0.60310000  0.05450000  0.92350000  1.0 -0.8978959881
O  O18  1  0.51960000  0.89020000  0.18340000  1.0 -0.9676126205
O  O19  1  0.36390000  0.30920000  0.83290000  1.0 -0.7594824992
O  O20  1  0.91900000  0.25830000  0.67640000  1.0 -0.6317229234
O  O21  1  0.85080000  0.34020000  0.38760000  1.0 -0.4337043129
O  O22  1  0.06160000  0.25230000  0.42460000  1.0 -0.7782197259
O  O23  1  0.87630000  0.44600000  0.73380000  1.0 -0.4467563989
O  O24  1  0.09700000  0.22160000  0.56460000  1.0 -0.7692819796
O  O25  1  0.81420000  0.50890000  0.44040000  1.0 -0.6969712041
O  O26  1  0.85340000  0.47010000  0.58490000  1.0 -0.9374051057
O  O27  1  0.97780000  0.58190000  0.52510000  1.0 -1.054286357
O  O28  1  0.98590000  0.45120000  0.33580000  1.0 -0.8000658515
O  O29  1  0.72460000  0.84840000  0.54090000  1.0 -0.4417015277
O  O30  1  0.95230000  0.61550000  0.38370000  1.0 -0.9201968573
O  O31  1  0.80400000  0.63990000  0.63090000  1.0 -0.8000658515
O  O32  1  0.76970000  0.67400000  0.49140000  1.0 -0.6938103102
O  O33  1  0.88680000  0.31210000  0.53080000  1.0 -0.7417512499
O  O34  1  0.33600000  0.79620000  0.79730000  1.0 -0.1063291766
O  O35  1  0.16280000  0.94600000  0.56760000  1.0 0.1104379352
O  O36  1  0.94960000  0.01030000  0.72380000  1.0 -0.1979838871
O  O37  1  0.97340000  0.12890000  0.82270000  1.0 -0.3140135669
O  O38  1  0.74210000  0.23140000  0.64720000  1.0 -0.1737975813
O  O39  1  0.72850000  0.34780000  0.78510000  1.0 -0.4467563989
O  O40  1  0.20130000  0.38540000  0.73140000  1.0 -0.2480286621
O  O41  1  0.99160000  0.42290000  0.98090000  1.0 -0.4467563989
O  O42  1  0.20100000  0.51290000  0.85560000  1.0 -0.3779563867
O  O43  1  0.00410000  0.52450000  0.81300000  1.0 -0.3974218778
O  O44  1  0.99610000  0.31450000  0.86170000  1.0 -0.28911018
O  O45  1  0.70590000  0.71220000  0.75770000  1.0 -0.0514930934
O  O46  1  0.52590000  0.69350000  0.72130000  1.0 -0.4633220397
O  O47  1  0.48250000  0.62120000  0.89710000  1.0 -0.3601371012
O  O48  1  0.48210000  0.91500000  0.66850000  1.0 -0.3154609166
O  O49  1  0.27940000  0.85300000  0.79760000  1.0 0.118397213
O  O50  1  0.25250000  0.32270000  0.98540000  1.0 -0.7692819796
O  O51  1  0.38540000  0.80720000  0.94330000  1.0 -0.6805017951
O  O52  1  0.36940000  0.99240000  0.81580000  1.0 -0.6805017951
O  O53  1  0.24980000  0.17840000  0.84200000  1.0 -0.7095973752
O  O54  1  0.14150000  0.19480000  0.99350000  1.0 -0.7782197259
O  O55  1  0.15880000  0.01950000  0.10930000  1.0 -0.7280536853
O  O56  1  0.48430000  0.24270000  0.94970000  1.0 -0.9598185025
O  O57  1  0.50450000  0.06540000  0.06690000  1.0 -0.8896752559
O  O58  1  0.41700000  0.75750000  0.20080000  1.0 -0.8000658515
O  O59  1  0.62170000  0.87620000  0.04100000  1.0 -0.8823262118
O  O60  1  0.37400000  0.26950000  0.09030000  1.0 -0.7095973752
O  O61  1  0.28350000  0.82110000  0.08240000  1.0 -0.7527625524
O  O62  1  0.29240000  0.95980000  0.22790000  1.0 -0.670742508
O  O63  1  0.39570000  0.07880000  0.21820000  1.0 -0.6969712041
O  O64  1  0.27560000  0.00220000  0.96640000  1.0 -0.9598185025
O  O65  1  0.27950000  0.13440000  0.10000000  1.0 -0.9676126205
O  O66  1  0.39690000  0.94550000  0.07650000  1.0 -0.8978959881
O  O67  1  0.48040000  0.10980000  0.81660000  1.0 -0.9676126205
O  O68  1  0.63610000  0.69080000  0.16710000  1.0 -0.7527625524
O  O69  1  0.08100000  0.74170000  0.32360000  1.0 -0.6317229234
O  O70  1  0.14920000  0.65980000  0.61240000  1.0 -0.4337043129
O  O71  1  0.93840000  0.74770000  0.57540000  1.0 -0.7692819796
O  O72  1  0.12370000  0.55400000  0.26620000  1.0 -0.4467563989
O  O73  1  0.90300000  0.77840000  0.43540000  1.0 -0.7594824992
O  O74  1  0.18580000  0.49110000  0.55960000  1.0 -0.6969712041
O  O75  1  0.14660000  0.52990000  0.41510000  1.0 -0.9374051057
O  O76  1  0.02220000  0.41810000  0.47490000  1.0 -1.0558011495
O  O77  1  0.01410000  0.54880000  0.66420000  1.0 -0.8000658515
O  O78  1  0.27540000  0.15160000  0.45910000  1.0 -0.4467563989
O  O79  1  0.04770000  0.38450000  0.61630000  1.0 -0.9201968573
O  O80  1  0.19600000  0.36010000  0.36910000  1.0 -0.8000658515
O  O81  1  0.23030000  0.32600000  0.50860000  1.0 -0.6969712041
O  O82  1  0.11320000  0.68790000  0.46920000  1.0 -0.7417512499
O  O83  1  0.66400000  0.20380000  0.20270000  1.0 -0.1063291766
O  O84  1  0.83720000  0.05400000  0.43240000  1.0 0.1037886329
O  O85  1  0.05040000  0.98970000  0.27620000  1.0 -0.1935512684
O  O86  1  0.02660000  0.87110000  0.17730000  1.0 -0.3140135669
O  O87  1  0.25790000  0.76860000  0.35280000  1.0 -0.1737975813
O  O88  1  0.27150000  0.65220000  0.21490000  1.0 -0.4417015277
O  O89  1  0.79870000  0.61460000  0.26860000  1.0 -0.2480286621
O  O90  1  0.00840000  0.57710000  0.01910000  1.0 -0.4467563989
O  O91  1  0.79900000  0.48710000  0.14440000  1.0 -0.3706435226
O  O92  1  0.99590000  0.47550000  0.18700000  1.0 -0.3974218778
O  O93  1  0.00390000  0.68550000  0.13830000  1.0 -0.2809161209
O  O94  1  0.29410000  0.28780000  0.24230000  1.0 -0.0514930934
O  O95  1  0.47410000  0.30650000  0.27870000  1.0 -0.4660685025
O  O96  1  0.51750000  0.37880000  0.10290000  1.0 -0.3601371012
O  O97  1  0.51790000  0.08500000  0.33150000  1.0 -0.3140135669
O  O98  1  0.72060000  0.14700000  0.20240000  1.0 0.118397213
