# DDEC6 charges by PACMAN v1.1 (https://github.com/mtap-research/PACMAN-charge/)
data_NUVTOQ_ASR_pacman
_symmetry_space_group_name_H-M   'P 1'
_cell_length_a   13.39710000
_cell_length_b   14.70800000
_cell_length_c   18.68850000
_cell_angle_alpha   67.77900000
_cell_angle_beta   73.18700000
_cell_angle_gamma   63.23000000
_symmetry_Int_Tables_number   1
_chemical_formula_structural   Pr6V22NiC20(N2O33)2
_chemical_formula_sum   'Pr6 V22 Ni1 C20 N4 O66'
_cell_volume   3011.94436966
_cell_formula_units_Z   1
loop_
 _symmetry_equiv_pos_site_id
 _symmetry_equiv_pos_as_xyz
  1  'x, y, z'
loop_
 _atom_site_type_symbol
 _atom_site_label
 _atom_site_symmetry_multiplicity
 _atom_site_fract_x
 _atom_site_fract_y
 _atom_site_fract_z
 _atom_site_occupancy
 _atom_site_charge
Pr  Pr1  1  0.70932000  0.84179000  0.21858000  1.0 2.3193981058
Pr  Pr2  1  0.65680000  0.34871000  0.87943000  1.0 2.3898100263
Pr  Pr3  1  0.00387000  0.19721000  0.19089000  1.0 2.131549657
Pr  Pr4  1  0.29068000  0.15821000  0.78142000  1.0 2.3193981058
Pr  Pr5  1  0.34320000  0.65129000  0.12057000  1.0 2.3775312311
Pr  Pr6  1  0.99613000  0.80279000  0.80911000  1.0 2.131549657
V  V1  1  0.87568000  0.85687000  0.00969000  1.0 1.8009639389
V  V2  1  0.73559000  0.07965000  0.04020000  1.0 1.7429442531
V  V3  1  0.85521000  0.06305000  0.87034000  1.0 1.7881361848
V  V4  1  0.02046000  0.79157000  0.13915000  1.0 1.7429442531
V  V5  1  0.88240000  0.01290000  0.17011000  1.0 1.7499840624
V  V6  1  0.86033000  0.22142000  0.02945000  1.0 1.7499840624
V  V7  1  0.66483000  0.26032000  0.46271000  1.0 1.8490269787
V  V8  1  0.42512000  0.36684000  0.42143000  1.0 1.8106441504
V  V9  1  0.37092000  0.55760000  0.47868000  1.0 1.5541680462
V  V10  1  0.58621000  0.49043000  0.35218000  1.0 1.7429442531
V  V11  1  0.53893000  0.67746000  0.40996000  1.0 1.8798553354
V  V12  1  0.12432000  0.14313000  0.99031000  1.0 1.8009639389
V  V13  1  0.26441000  0.92035000  0.95980000  1.0 1.7429442531
V  V14  1  0.14479000  0.93695000  0.12966000  1.0 1.7881361848
V  V15  1  0.97954000  0.20843000  0.86085000  1.0 1.7429442531
V  V16  1  0.11760000  0.98710000  0.82989000  1.0 1.7499840624
V  V17  1  0.13967000  0.77858000  0.97055000  1.0 1.7499840624
V  V18  1  0.33517000  0.73968000  0.53729000  1.0 1.8490269787
V  V19  1  0.57488000  0.63316000  0.57857000  1.0 1.8106441504
V  V20  1  0.62908000  0.44240000  0.52132000  1.0 1.5434258587
V  V21  1  0.41379000  0.50957000  0.64782000  1.0 1.7499840624
V  V22  1  0.46107000  0.32254000  0.59004000  1.0 1.8863882429
Ni  Ni1  1  0.00000000  0.00000000  0.00000000  1.0 1.0745036013
C  C1  1  0.21020000  0.23420000  0.29600000  1.0 0.0498209543
C  C2  1  0.26860000  0.19320000  0.35900000  1.0 -0.1613064849
C  C3  1  0.32510000  0.08390000  0.38780000  1.0 0.1607839174
C  C4  1  0.32320000  0.01560000  0.35370000  1.0 -0.0315347475
C  C5  1  0.26480000  0.05660000  0.29070000  1.0 0.0807473815
C  C6  1  0.39960000  0.04350000  0.44820000  1.0 0.2423215813
C  C7  1  0.39750000  0.10830000  0.48780000  1.0 0.0189378138
C  C8  1  0.48350000  0.07360000  0.53150000  1.0 0.0498209543
C  C9  1  0.57380000  0.90920000  0.49600000  1.0 0.0430296092
C  C10  1  0.48770000  0.94400000  0.45230000  1.0 0.0430296092
C  C11  1  0.78980000  0.76580000  0.70400000  1.0 0.0498209543
C  C12  1  0.73140000  0.80680000  0.64100000  1.0 -0.1613064849
C  C13  1  0.67490000  0.91610000  0.61220000  1.0 0.1663697369
C  C14  1  0.67680000  0.98440000  0.64630000  1.0 -0.0315347475
C  C15  1  0.73520000  0.94340000  0.70930000  1.0 0.0807473815
C  C16  1  0.60040000  0.95650000  0.55180000  1.0 0.2423215813
C  C17  1  0.60250000  0.89170000  0.51220000  1.0 0.0189378138
C  C18  1  0.51650000  0.92640000  0.46850000  1.0 0.0498209543
C  C19  1  0.42620000  0.09080000  0.50400000  1.0 0.0430296092
C  C20  1  0.51230000  0.05600000  0.54770000  1.0 0.0430296092
N  N1  1  0.20830000  0.16590000  0.26190000  1.0 0.310248763
N  N2  1  0.57170000  0.97400000  0.53560000  1.0 0.0430296092
N  N3  1  0.79170000  0.83410000  0.73810000  1.0 0.2940664298
N  N4  1  0.42830000  0.02600000  0.46440000  1.0 0.0498209543
O  O1  1  0.64370000  0.19160000  0.99410000  1.0 -0.9315050238
O  O2  1  0.87670000  0.26540000  0.09310000  1.0 -0.8798649801
O  O3  1  0.86820000  0.99240000  0.81560000  1.0 -0.8204807831
O  O4  1  0.75390000  0.32010000  0.98640000  1.0 -0.9315050238
O  O5  1  0.88390000  0.80820000  0.94140000  1.0 -0.8371282015
O  O6  1  0.74870000  0.17870000  0.84370000  1.0 -0.89904346
O  O7  1  0.91760000  0.75790000  0.20090000  1.0 -0.9315050238
O  O8  1  0.00400000  0.06530000  0.06770000  1.0 -0.9874438279
O  O9  1  0.89810000  0.07740000  0.21900000  1.0 -0.8546628349
O  O10  1  0.78440000  0.82080000  0.08320000  1.0 -0.89904346
O  O11  1  0.79490000  0.95720000  0.22830000  1.0 -0.7996553176
O  O12  1  0.12130000  0.87850000  0.04050000  1.0 -0.9874438279
O  O13  1  0.01520000  0.75820000  0.05000000  1.0 -1.0401300036
O  O14  1  0.77510000  0.00210000  0.96660000  1.0 -1.0401300036
O  O15  1  0.13810000  0.69350000  0.16550000  1.0 -0.9105804953
O  O16  1  0.78020000  0.13280000  0.10150000  1.0 -1.0401300036
O  O17  1  0.97830000  0.10940000  0.81630000  1.0 -1.0401300036
O  O18  1  0.89860000  0.94500000  0.07590000  1.0 -0.9874438279
O  O19  1  0.66160000  0.01600000  0.11110000  1.0 -0.8798649801
O  O20  1  0.40590000  0.77750000  0.43560000  1.0 -0.8204807831
O  O21  1  0.35240000  0.47130000  0.58420000  1.0 -1.001945793
O  O22  1  0.56080000  0.25290000  0.42240000  1.0 -0.8798649801
O  O23  1  0.48570000  0.45290000  0.33390000  1.0 -0.9668110602
O  O24  1  0.31500000  0.50910000  0.43850000  1.0 -0.749834209
O  O25  1  0.47900000  0.58090000  0.52530000  1.0 -1.1173969501
O  O26  1  0.69620000  0.36100000  0.36910000  1.0 -0.938968777
O  O27  1  0.58490000  0.74050000  0.32380000  1.0 -0.8326686813
O  O28  1  0.45460000  0.61510000  0.38250000  1.0 -1.001945793
O  O29  1  0.27120000  0.67380000  0.49060000  1.0 -0.7367244655
O  O30  1  0.61480000  0.68690000  0.47090000  1.0 -0.8326686813
O  O31  1  0.16300000  0.20410000  0.19980000  1.0 -0.2400867784
O  O32  1  0.65900000  0.94700000  0.57260000  1.0 0.0706103749
O  O33  1  0.22200000  0.14300000  0.20180000  1.0 0.1053714684
O  O34  1  0.35630000  0.80840000  0.00590000  1.0 -0.9315050238
O  O35  1  0.12330000  0.73460000  0.90690000  1.0 -0.8798649801
O  O36  1  0.13180000  0.00760000  0.18440000  1.0 -0.8122965091
O  O37  1  0.24610000  0.67990000  0.01360000  1.0 -0.9315050238
O  O38  1  0.11610000  0.19180000  0.05860000  1.0 -0.8371282015
O  O39  1  0.25130000  0.82130000  0.15630000  1.0 -0.89904346
O  O40  1  0.08240000  0.24210000  0.79910000  1.0 -0.9315050238
O  O41  1  0.99600000  0.93470000  0.93230000  1.0 -0.9826475375
O  O42  1  0.10190000  0.92260000  0.78100000  1.0 -0.8546628349
O  O43  1  0.21560000  0.17920000  0.91680000  1.0 -0.9105804953
O  O44  1  0.20510000  0.04280000  0.77170000  1.0 -0.7996553176
O  O45  1  0.87870000  0.12150000  0.95950000  1.0 -0.9874438279
O  O46  1  0.98480000  0.24180000  0.95000000  1.0 -1.0401300036
O  O47  1  0.22490000  0.99790000  0.03340000  1.0 -1.0401300036
O  O48  1  0.86190000  0.30650000  0.83450000  1.0 -0.9105804953
O  O49  1  0.21980000  0.86720000  0.89850000  1.0 -1.0401300036
O  O50  1  0.02170000  0.89060000  0.18370000  1.0 -1.0401300036
O  O51  1  0.10140000  0.05500000  0.92410000  1.0 -0.9874438279
O  O52  1  0.33840000  0.98400000  0.88890000  1.0 -0.8798649801
O  O53  1  0.59410000  0.22250000  0.56440000  1.0 -0.8204807831
O  O54  1  0.64760000  0.52870000  0.41580000  1.0 -1.001945793
O  O55  1  0.43920000  0.74710000  0.57760000  1.0 -0.8798649801
O  O56  1  0.51430000  0.54710000  0.66610000  1.0 -0.9630520337
O  O57  1  0.68500000  0.49090000  0.56150000  1.0 -0.749834209
O  O58  1  0.52100000  0.41910000  0.47470000  1.0 -1.1173969501
O  O59  1  0.30380000  0.63900000  0.63090000  1.0 -0.938968777
O  O60  1  0.41510000  0.25950000  0.67620000  1.0 -0.8371282015
O  O61  1  0.54540000  0.38490000  0.61750000  1.0 -1.001945793
O  O62  1  0.72880000  0.32620000  0.50940000  1.0 -0.7367244655
O  O63  1  0.38520000  0.31310000  0.52910000  1.0 -0.8326686813
O  O64  1  0.83700000  0.79590000  0.80020000  1.0 -0.2400867784
O  O65  1  0.34100000  0.05300000  0.42740000  1.0 0.0706103749
O  O66  1  0.77800000  0.85700000  0.79820000  1.0 0.1230261109
