# DDEC6 charges by PACMAN v1.1 (https://github.com/mtap-research/PACMAN-charge/)
data_NUVWIL_ASR_pacman
_symmetry_space_group_name_H-M   'P 1'
_cell_length_a   15.37080000
_cell_length_b   15.37080000
_cell_length_c   15.11800000
_cell_angle_alpha   90.00000000
_cell_angle_beta   90.00000000
_cell_angle_gamma   120.00000000
_symmetry_Int_Tables_number   1
_chemical_formula_structural   La2Zn3H24(C4O5)6
_chemical_formula_sum   'La4 Zn6 H48 C48 O60'
_cell_volume   3093.27061607
_cell_formula_units_Z   2
loop_
 _symmetry_equiv_pos_site_id
 _symmetry_equiv_pos_as_xyz
  1  'x, y, z'
loop_
 _atom_site_type_symbol
 _atom_site_label
 _atom_site_symmetry_multiplicity
 _atom_site_fract_x
 _atom_site_fract_y
 _atom_site_fract_z
 _atom_site_occupancy
 _atom_site_charge
La  La1  1  0.66666667  0.33333333  0.25000000  1.0 1.7287102045
La  La2  1  0.33333333  0.66666667  0.25000000  1.0 1.7287102045
La  La3  1  0.33333333  0.66666667  0.75000000  1.0 1.7287102045
La  La4  1  0.66666667  0.33333333  0.75000000  1.0 1.7287102045
Zn  Zn1  1  0.50000000  0.00000000  0.00000000  1.0 0.9888006748
Zn  Zn2  1  0.00000000  0.50000000  0.00000000  1.0 0.9888006748
Zn  Zn3  1  0.50000000  0.50000000  0.00000000  1.0 0.9888006748
Zn  Zn4  1  0.00000000  0.50000000  0.50000000  1.0 0.9888006748
Zn  Zn5  1  0.50000000  0.00000000  0.50000000  1.0 0.9888006748
Zn  Zn6  1  0.50000000  0.50000000  0.50000000  1.0 0.9888006748
H  H1  1  0.71300000  0.09190000  0.23940000  1.0 0.1251969935
H  H2  1  0.90810000  0.62110000  0.23940000  1.0 0.1248491408
H  H3  1  0.37890000  0.28700000  0.23940000  1.0 0.1248491408
H  H4  1  0.28700000  0.90810000  0.23940000  1.0 0.1251969935
H  H5  1  0.09190000  0.37890000  0.23940000  1.0 0.1251969935
H  H6  1  0.62110000  0.71300000  0.23940000  1.0 0.1251969935
H  H7  1  0.09190000  0.71300000  0.26060000  1.0 0.1248491408
H  H8  1  0.62110000  0.90810000  0.26060000  1.0 0.1251969935
H  H9  1  0.28700000  0.37890000  0.26060000  1.0 0.1251969935
H  H10  1  0.90810000  0.28700000  0.26060000  1.0 0.1251969935
H  H11  1  0.37890000  0.09190000  0.26060000  1.0 0.1251969935
H  H12  1  0.71300000  0.62110000  0.26060000  1.0 0.1251969935
H  H13  1  0.28700000  0.90810000  0.76060000  1.0 0.1251969935
H  H14  1  0.09190000  0.37890000  0.76060000  1.0 0.1251969935
H  H15  1  0.62110000  0.71300000  0.76060000  1.0 0.1251969935
H  H16  1  0.71300000  0.09190000  0.76060000  1.0 0.1251969935
H  H17  1  0.90810000  0.62110000  0.76060000  1.0 0.1248491408
H  H18  1  0.37890000  0.28700000  0.76060000  1.0 0.1248491408
H  H19  1  0.90810000  0.28700000  0.73940000  1.0 0.1251969935
H  H20  1  0.37890000  0.09190000  0.73940000  1.0 0.1251969935
H  H21  1  0.71300000  0.62110000  0.73940000  1.0 0.1251969935
H  H22  1  0.09190000  0.71300000  0.73940000  1.0 0.1248491408
H  H23  1  0.62110000  0.90810000  0.73940000  1.0 0.1251969935
H  H24  1  0.28700000  0.37890000  0.73940000  1.0 0.1251969935
H  H25  1  0.78870000  0.15590000  0.16420000  1.0 0.1354527773
H  H26  1  0.84410000  0.63280000  0.16420000  1.0 0.1354527773
H  H27  1  0.36720000  0.21130000  0.16420000  1.0 0.1354527773
H  H28  1  0.21130000  0.84410000  0.16420000  1.0 0.1354527773
H  H29  1  0.15590000  0.36720000  0.16420000  1.0 0.1354527773
H  H30  1  0.63280000  0.78870000  0.16420000  1.0 0.1354527773
H  H31  1  0.15590000  0.78870000  0.33580000  1.0 0.1354527773
H  H32  1  0.63280000  0.84410000  0.33580000  1.0 0.1354527773
H  H33  1  0.21130000  0.36720000  0.33580000  1.0 0.1354527773
H  H34  1  0.84410000  0.21130000  0.33580000  1.0 0.1354527773
H  H35  1  0.36720000  0.15590000  0.33580000  1.0 0.1354527773
H  H36  1  0.78870000  0.63280000  0.33580000  1.0 0.1354527773
H  H37  1  0.21130000  0.84410000  0.83580000  1.0 0.1354527773
H  H38  1  0.15590000  0.36720000  0.83580000  1.0 0.1354527773
H  H39  1  0.63280000  0.78870000  0.83580000  1.0 0.1354527773
H  H40  1  0.78870000  0.15590000  0.83580000  1.0 0.1354527773
H  H41  1  0.84410000  0.63280000  0.83580000  1.0 0.1354527773
H  H42  1  0.36720000  0.21130000  0.83580000  1.0 0.1354527773
H  H43  1  0.84410000  0.21130000  0.66420000  1.0 0.1354527773
H  H44  1  0.36720000  0.15590000  0.66420000  1.0 0.1354527773
H  H45  1  0.78870000  0.63280000  0.66420000  1.0 0.1354527773
H  H46  1  0.15590000  0.78870000  0.66420000  1.0 0.1354527773
H  H47  1  0.63280000  0.84410000  0.66420000  1.0 0.1354527773
H  H48  1  0.21130000  0.36720000  0.66420000  1.0 0.1354527773
C  C1  1  0.64700000  0.12970000  0.14160000  1.0 0.6255795287
C  C2  1  0.87030000  0.51730000  0.14160000  1.0 0.6255795287
C  C3  1  0.48270000  0.35300000  0.14160000  1.0 0.6255795287
C  C4  1  0.35300000  0.87030000  0.14160000  1.0 0.6255795287
C  C5  1  0.12970000  0.48270000  0.14160000  1.0 0.6255795287
C  C6  1  0.51730000  0.64700000  0.14160000  1.0 0.6255795287
C  C7  1  0.12970000  0.64700000  0.35840000  1.0 0.6255795287
C  C8  1  0.51730000  0.87030000  0.35840000  1.0 0.6255795287
C  C9  1  0.35300000  0.48270000  0.35840000  1.0 0.6255795287
C  C10  1  0.87030000  0.35300000  0.35840000  1.0 0.6255795287
C  C11  1  0.48270000  0.12970000  0.35840000  1.0 0.6255795287
C  C12  1  0.64700000  0.51730000  0.35840000  1.0 0.6255795287
C  C13  1  0.35300000  0.87030000  0.85840000  1.0 0.6255795287
C  C14  1  0.12970000  0.48270000  0.85840000  1.0 0.6255795287
C  C15  1  0.51730000  0.64700000  0.85840000  1.0 0.6255795287
C  C16  1  0.64700000  0.12970000  0.85840000  1.0 0.6255795287
C  C17  1  0.87030000  0.51730000  0.85840000  1.0 0.6255795287
C  C18  1  0.48270000  0.35300000  0.85840000  1.0 0.6255795287
C  C19  1  0.87030000  0.35300000  0.64160000  1.0 0.6255795287
C  C20  1  0.48270000  0.12970000  0.64160000  1.0 0.6255795287
C  C21  1  0.64700000  0.51730000  0.64160000  1.0 0.6255795287
C  C22  1  0.12970000  0.64700000  0.64160000  1.0 0.6255795287
C  C23  1  0.51730000  0.87030000  0.64160000  1.0 0.6255795287
C  C24  1  0.35300000  0.48270000  0.64160000  1.0 0.6255795287
C  C25  1  0.73310000  0.14870000  0.20010000  1.0 -0.1871623867
C  C26  1  0.85130000  0.58440000  0.20010000  1.0 -0.1871623867
C  C27  1  0.41560000  0.26690000  0.20010000  1.0 -0.1871623867
C  C28  1  0.26690000  0.85130000  0.20010000  1.0 -0.1871623867
C  C29  1  0.14870000  0.41560000  0.20010000  1.0 -0.1871623867
C  C30  1  0.58440000  0.73310000  0.20010000  1.0 -0.1871623867
C  C31  1  0.14870000  0.73310000  0.29990000  1.0 -0.1871623867
C  C32  1  0.58440000  0.85130000  0.29990000  1.0 -0.1871623867
C  C33  1  0.26690000  0.41560000  0.29990000  1.0 -0.1871623867
C  C34  1  0.85130000  0.26690000  0.29990000  1.0 -0.1871623867
C  C35  1  0.41560000  0.14870000  0.29990000  1.0 -0.1871623867
C  C36  1  0.73310000  0.58440000  0.29990000  1.0 -0.1871623867
C  C37  1  0.26690000  0.85130000  0.79990000  1.0 -0.1871623867
C  C38  1  0.14870000  0.41560000  0.79990000  1.0 -0.1871623867
C  C39  1  0.58440000  0.73310000  0.79990000  1.0 -0.1871623867
C  C40  1  0.73310000  0.14870000  0.79990000  1.0 -0.1871623867
C  C41  1  0.85130000  0.58440000  0.79990000  1.0 -0.1871623867
C  C42  1  0.41560000  0.26690000  0.79990000  1.0 -0.1871623867
C  C43  1  0.85130000  0.26690000  0.70010000  1.0 -0.1871623867
C  C44  1  0.41560000  0.14870000  0.70010000  1.0 -0.1871623867
C  C45  1  0.73310000  0.58440000  0.70010000  1.0 -0.1871623867
C  C46  1  0.14870000  0.73310000  0.70010000  1.0 -0.1871623867
C  C47  1  0.58440000  0.85130000  0.70010000  1.0 -0.1871623867
C  C48  1  0.26690000  0.41560000  0.70010000  1.0 -0.1871623867
O  O1  1  0.61795000  0.19285000  0.14196000  1.0 -0.5890784709
O  O2  1  0.80715000  0.42510000  0.14196000  1.0 -0.5890784709
O  O3  1  0.57490000  0.38205000  0.14196000  1.0 -0.5890784709
O  O4  1  0.38205000  0.80715000  0.14196000  1.0 -0.5890784709
O  O5  1  0.19285000  0.57490000  0.14196000  1.0 -0.5890784709
O  O6  1  0.42510000  0.61795000  0.14196000  1.0 -0.5890784709
O  O7  1  0.19285000  0.61795000  0.35804000  1.0 -0.5890784709
O  O8  1  0.42510000  0.80715000  0.35804000  1.0 -0.5890784709
O  O9  1  0.38205000  0.57490000  0.35804000  1.0 -0.5890784709
O  O10  1  0.80715000  0.38205000  0.35804000  1.0 -0.5890784709
O  O11  1  0.57490000  0.19285000  0.35804000  1.0 -0.5890784709
O  O12  1  0.61795000  0.42510000  0.35804000  1.0 -0.5890784709
O  O13  1  0.38205000  0.80715000  0.85804000  1.0 -0.5890784709
O  O14  1  0.19285000  0.57490000  0.85804000  1.0 -0.5890784709
O  O15  1  0.42510000  0.61795000  0.85804000  1.0 -0.5890784709
O  O16  1  0.61795000  0.19285000  0.85804000  1.0 -0.5890784709
O  O17  1  0.80715000  0.42510000  0.85804000  1.0 -0.5890784709
O  O18  1  0.57490000  0.38205000  0.85804000  1.0 -0.5890784709
O  O19  1  0.80715000  0.38205000  0.64196000  1.0 -0.5890784709
O  O20  1  0.57490000  0.19285000  0.64196000  1.0 -0.5890784709
O  O21  1  0.61795000  0.42510000  0.64196000  1.0 -0.5890784709
O  O22  1  0.19285000  0.61795000  0.64196000  1.0 -0.5890784709
O  O23  1  0.42510000  0.80715000  0.64196000  1.0 -0.5890784709
O  O24  1  0.38205000  0.57490000  0.64196000  1.0 -0.5890784709
O  O25  1  0.61082000  0.05201000  0.09595000  1.0 -0.5516388216
O  O26  1  0.94799000  0.55881000  0.09595000  1.0 -0.5516388216
O  O27  1  0.44119000  0.38918000  0.09595000  1.0 -0.5516388216
O  O28  1  0.38918000  0.94799000  0.09595000  1.0 -0.5516388216
O  O29  1  0.05201000  0.44119000  0.09595000  1.0 -0.5516388216
O  O30  1  0.55881000  0.61082000  0.09595000  1.0 -0.5516388216
O  O31  1  0.05201000  0.61082000  0.40405000  1.0 -0.5516388216
O  O32  1  0.55881000  0.94799000  0.40405000  1.0 -0.5516388216
O  O33  1  0.38918000  0.44119000  0.40405000  1.0 -0.5516388216
O  O34  1  0.94799000  0.38918000  0.40405000  1.0 -0.5516388216
O  O35  1  0.44119000  0.05201000  0.40405000  1.0 -0.5516388216
O  O36  1  0.61082000  0.55881000  0.40405000  1.0 -0.5516388216
O  O37  1  0.38918000  0.94799000  0.90405000  1.0 -0.5516388216
O  O38  1  0.05201000  0.44119000  0.90405000  1.0 -0.5516388216
O  O39  1  0.55881000  0.61082000  0.90405000  1.0 -0.5516388216
O  O40  1  0.61082000  0.05201000  0.90405000  1.0 -0.5516388216
O  O41  1  0.94799000  0.55881000  0.90405000  1.0 -0.5516388216
O  O42  1  0.44119000  0.38918000  0.90405000  1.0 -0.5516388216
O  O43  1  0.94799000  0.38918000  0.59595000  1.0 -0.5516388216
O  O44  1  0.44119000  0.05201000  0.59595000  1.0 -0.5516388216
O  O45  1  0.61082000  0.55881000  0.59595000  1.0 -0.5516388216
O  O46  1  0.05201000  0.61082000  0.59595000  1.0 -0.5516388216
O  O47  1  0.55881000  0.94799000  0.59595000  1.0 -0.5516388216
O  O48  1  0.38918000  0.44119000  0.59595000  1.0 -0.5516388216
O  O49  1  0.76391000  0.23609000  0.25000000  1.0 -0.1871623867
O  O50  1  0.76391000  0.52782000  0.25000000  1.0 -0.1871623867
O  O51  1  0.47218000  0.23609000  0.25000000  1.0 -0.1871623867
O  O52  1  0.23609000  0.76391000  0.25000000  1.0 -0.1871623867
O  O53  1  0.23609000  0.47218000  0.25000000  1.0 -0.1871623867
O  O54  1  0.52782000  0.76391000  0.25000000  1.0 -0.1871623867
O  O55  1  0.23609000  0.76391000  0.75000000  1.0 -0.1871623867
O  O56  1  0.23609000  0.47218000  0.75000000  1.0 -0.1871623867
O  O57  1  0.52782000  0.76391000  0.75000000  1.0 -0.1871623867
O  O58  1  0.76391000  0.23609000  0.75000000  1.0 -0.1871623867
O  O59  1  0.76391000  0.52782000  0.75000000  1.0 -0.1871623867
O  O60  1  0.47218000  0.23609000  0.75000000  1.0 -0.1871623867
