# DDEC6 charges by PACMAN v1.1 (https://github.com/mtap-research/PACMAN-charge/)
data_NUWBOX_ion_pacman
_symmetry_space_group_name_H-M   'P 1'
_cell_length_a   16.28000000
_cell_length_b   11.92400000
_cell_length_c   21.20740000
_cell_angle_alpha   90.00000000
_cell_angle_beta   124.32300000
_cell_angle_gamma   90.00000000
_symmetry_Int_Tables_number   1
_chemical_formula_structural   Mn3Mo12P8H20C4(NO16)4
_chemical_formula_sum   'Mn6 Mo24 P16 H40 C8 N8 O128'
_cell_volume   3399.98143289
_cell_formula_units_Z   2
loop_
 _symmetry_equiv_pos_site_id
 _symmetry_equiv_pos_as_xyz
  1  'x, y, z'
loop_
 _atom_site_type_symbol
 _atom_site_label
 _atom_site_symmetry_multiplicity
 _atom_site_fract_x
 _atom_site_fract_y
 _atom_site_fract_z
 _atom_site_occupancy
 _atom_site_charge
Mn  Mn1  1  0.48932000  0.49604000  0.86506000  1.0 1.4078927708
Mn  Mn2  1  0.51068000  0.99604000  0.63494000  1.0 1.4078927708
Mn  Mn3  1  0.51068000  0.50396000  0.13494000  1.0 1.4078927708
Mn  Mn4  1  0.48932000  0.00396000  0.36506000  1.0 1.4078927708
Mn  Mn5  1  0.00000000  0.50000000  0.00000000  1.0 1.3224359226
Mn  Mn6  1  0.00000000  0.00000000  0.50000000  1.0 1.3224359226
Mo  Mo1  1  0.14880000  0.64056000  0.93211000  1.0 2.0187962574
Mo  Mo2  1  0.85120000  0.14056000  0.56789000  1.0 2.0187962574
Mo  Mo3  1  0.85120000  0.35944000  0.06789000  1.0 2.0187962574
Mo  Mo4  1  0.14880000  0.85944000  0.43211000  1.0 2.0137525272
Mo  Mo5  1  0.17768000  0.34816000  0.96265000  1.0 2.0187962574
Mo  Mo6  1  0.82232000  0.84816000  0.53735000  1.0 2.0299987984
Mo  Mo7  1  0.82232000  0.65184000  0.03735000  1.0 2.0299987984
Mo  Mo8  1  0.17768000  0.15184000  0.46265000  1.0 2.0299987984
Mo  Mo9  1  0.15090000  0.76673000  0.03294000  1.0 2.0299987984
Mo  Mo10  1  0.84910000  0.26673000  0.46706000  1.0 2.0396013928
Mo  Mo11  1  0.84910000  0.23327000  0.96706000  1.0 2.0299987984
Mo  Mo12  1  0.15090000  0.73327000  0.53294000  1.0 2.0299987984
Mo  Mo13  1  0.17475000  0.64623000  0.19472000  1.0 2.0299987984
Mo  Mo14  1  0.82525000  0.14623000  0.30528000  1.0 2.0299987984
Mo  Mo15  1  0.82525000  0.35377000  0.80528000  1.0 2.0299987984
Mo  Mo16  1  0.17475000  0.85377000  0.69472000  1.0 2.0299987984
Mo  Mo17  1  0.18970000  0.42997000  0.21308000  1.0 2.0396013928
Mo  Mo18  1  0.81030000  0.92997000  0.28692000  1.0 2.0450586748
Mo  Mo19  1  0.81030000  0.57003000  0.78692000  1.0 2.0450586748
Mo  Mo20  1  0.18970000  0.07003000  0.71308000  1.0 2.0450586748
Mo  Mo21  1  0.18871000  0.25603000  0.07811000  1.0 2.0187962574
Mo  Mo22  1  0.81129000  0.75603000  0.42189000  1.0 2.0187962574
Mo  Mo23  1  0.81129000  0.74397000  0.92189000  1.0 2.0187962574
Mo  Mo24  1  0.18871000  0.24397000  0.57811000  1.0 2.0187962574
P  P1  1  0.28644000  0.52500000  0.11356000  1.0 1.6424496543
P  P2  1  0.71356000  0.02500000  0.38644000  1.0 1.6424496543
P  P3  1  0.71356000  0.47500000  0.88644000  1.0 1.6424496543
P  P4  1  0.28644000  0.97500000  0.61356000  1.0 1.6424496543
P  P5  1  0.32345000  0.20159000  0.26217000  1.0 1.5799620521
P  P6  1  0.67655000  0.70159000  0.23783000  1.0 1.5799620521
P  P7  1  0.67655000  0.79841000  0.73783000  1.0 1.5799620521
P  P8  1  0.32345000  0.29841000  0.76217000  1.0 1.5799620521
P  P9  1  0.32999000  0.50625000  0.94125000  1.0 1.6028345895
P  P10  1  0.67001000  0.00625000  0.55875000  1.0 1.6028345895
P  P11  1  0.67001000  0.49375000  0.05875000  1.0 1.6028345895
P  P12  1  0.32999000  0.99375000  0.44125000  1.0 1.6028345895
P  P13  1  0.33318000  0.83736000  0.20978000  1.0 1.5678772402
P  P14  1  0.66682000  0.33736000  0.29022000  1.0 1.5678772402
P  P15  1  0.66682000  0.16264000  0.79022000  1.0 1.5678772402
P  P16  1  0.33318000  0.66264000  0.70978000  1.0 1.5678772402
H  H1  1  0.03310000  0.32050000  0.75660000  1.0 0.2995875932
H  H2  1  0.10970000  0.40490000  0.79900000  1.0 0.2881101255
H  H3  1  0.10720000  0.33980000  0.74000000  1.0 0.2881101255
H  H4  1  0.13720000  0.56420000  0.64140000  1.0 0.2845544439
H  H5  1  0.05660000  0.48390000  0.59970000  1.0 0.2995875932
H  H6  1  0.14680000  0.45240000  0.67220000  1.0 0.2845544439
H  H7  1  0.01500000  0.60960000  0.65800000  1.0 0.1411864444
H  H8  1  0.11280000  0.57710000  0.73630000  1.0 0.1411864444
H  H9  1  0.96470000  0.49050000  0.71160000  1.0 0.1411864444
H  H10  1  0.96140000  0.42010000  0.64790000  1.0 0.1290843707
H  H11  1  0.96690000  0.82050000  0.74340000  1.0 0.3059933257
H  H12  1  0.89030000  0.90490000  0.70100000  1.0 0.2881101255
H  H13  1  0.89280000  0.83980000  0.76000000  1.0 0.2881101255
H  H14  1  0.86280000  0.06420000  0.85860000  1.0 0.2845544439
H  H15  1  0.94340000  0.98390000  0.90030000  1.0 0.2995875932
H  H16  1  0.85320000  0.95240000  0.82780000  1.0 0.2845544439
H  H17  1  0.98500000  0.10960000  0.84200000  1.0 0.1411864444
H  H18  1  0.88720000  0.07710000  0.76370000  1.0 0.1411864444
H  H19  1  0.03530000  0.99050000  0.78840000  1.0 0.1411864444
H  H20  1  0.03860000  0.92010000  0.85210000  1.0 0.1290843707
H  H21  1  0.96690000  0.67950000  0.24340000  1.0 0.2995875932
H  H22  1  0.89030000  0.59510000  0.20100000  1.0 0.2881101255
H  H23  1  0.89280000  0.66020000  0.26000000  1.0 0.2881101255
H  H24  1  0.86280000  0.43580000  0.35860000  1.0 0.2845544439
H  H25  1  0.94340000  0.51610000  0.40030000  1.0 0.2995875932
H  H26  1  0.85320000  0.54760000  0.32780000  1.0 0.2845544439
H  H27  1  0.98500000  0.39040000  0.34200000  1.0 0.1411864444
H  H28  1  0.88720000  0.42290000  0.26370000  1.0 0.1411864444
H  H29  1  0.03530000  0.50950000  0.28840000  1.0 0.1411864444
H  H30  1  0.03860000  0.57990000  0.35210000  1.0 0.1290843707
H  H31  1  0.03310000  0.17950000  0.25660000  1.0 0.2995875932
H  H32  1  0.10970000  0.09510000  0.29900000  1.0 0.2881101255
H  H33  1  0.10720000  0.16020000  0.24000000  1.0 0.2881101255
H  H34  1  0.13720000  0.93580000  0.14140000  1.0 0.2845544439
H  H35  1  0.05660000  0.01610000  0.09970000  1.0 0.2995875932
H  H36  1  0.14680000  0.04760000  0.17220000  1.0 0.2845544439
H  H37  1  0.01500000  0.89040000  0.15800000  1.0 0.1411864444
H  H38  1  0.11280000  0.92290000  0.23630000  1.0 0.1411864444
H  H39  1  0.96470000  0.00950000  0.21160000  1.0 0.1411864444
H  H40  1  0.96140000  0.07990000  0.14790000  1.0 0.1290843707
C  C1  1  0.06050000  0.54850000  0.68660000  1.0 -0.0236599374
C  C2  1  0.00550000  0.45700000  0.69660000  1.0 -0.0289999799
C  C3  1  0.93950000  0.04850000  0.81340000  1.0 -0.0236599374
C  C4  1  0.99450000  0.95700000  0.80340000  1.0 -0.0289999799
C  C5  1  0.93950000  0.45150000  0.31340000  1.0 -0.0236599374
C  C6  1  0.99450000  0.54300000  0.30340000  1.0 -0.0289999799
C  C7  1  0.06050000  0.95150000  0.18660000  1.0 -0.0236599374
C  C8  1  0.00550000  0.04300000  0.19660000  1.0 -0.0289999799
N  N1  1  0.07030000  0.37220000  0.75370000  1.0 -0.382848956
N  N2  1  0.10460000  0.50820000  0.64590000  1.0 -0.3983588743
N  N3  1  0.92970000  0.87220000  0.74630000  1.0 -0.382848956
N  N4  1  0.89540000  0.00820000  0.85410000  1.0 -0.3983588743
N  N5  1  0.92970000  0.62780000  0.24630000  1.0 -0.382848956
N  N6  1  0.89540000  0.49180000  0.35410000  1.0 -0.3983588743
N  N7  1  0.07030000  0.12780000  0.25370000  1.0 -0.382848956
N  N8  1  0.10460000  0.99180000  0.14590000  1.0 -0.3983588743
O  O1  1  0.24660000  0.74480000  0.00780000  1.0 -0.7613209116
O  O2  1  0.75340000  0.24480000  0.49220000  1.0 -0.7613209116
O  O3  1  0.75340000  0.25520000  0.99220000  1.0 -0.7613209116
O  O4  1  0.24660000  0.75520000  0.50780000  1.0 -0.7613209116
O  O5  1  0.06850000  0.63480000  0.97500000  1.0 -0.8221740602
O  O6  1  0.93150000  0.13480000  0.52500000  1.0 -0.8221740602
O  O7  1  0.93150000  0.36520000  0.02500000  1.0 -0.8221740602
O  O8  1  0.06850000  0.86520000  0.47500000  1.0 -0.8221740602
O  O9  1  0.09030000  0.36110000  0.99890000  1.0 -0.8221740602
O  O10  1  0.90970000  0.86110000  0.50110000  1.0 -0.8221740602
O  O11  1  0.90970000  0.63890000  0.00110000  1.0 -0.8221740602
O  O12  1  0.09030000  0.13890000  0.49890000  1.0 -0.8221740602
O  O13  1  0.23820000  0.63170000  0.12230000  1.0 -0.8500174362
O  O14  1  0.76180000  0.13170000  0.37770000  1.0 -0.8500174362
O  O15  1  0.76180000  0.36830000  0.87770000  1.0 -0.8500174362
O  O16  1  0.23820000  0.86830000  0.62230000  1.0 -0.8500174362
O  O17  1  0.35960000  0.49580000  0.88260000  1.0 -0.6802803206
O  O18  1  0.64040000  0.99580000  0.61740000  1.0 -0.6802803206
O  O19  1  0.64040000  0.50420000  0.11740000  1.0 -0.6802803206
O  O20  1  0.35960000  0.00420000  0.38260000  1.0 -0.6802803206
O  O21  1  0.25650000  0.42300000  0.14200000  1.0 -0.8500174362
O  O22  1  0.74350000  0.92300000  0.35800000  1.0 -0.8500174362
O  O23  1  0.74350000  0.57700000  0.85800000  1.0 -0.8500174362
O  O24  1  0.25650000  0.07700000  0.64200000  1.0 -0.8500174362
O  O25  1  0.23810000  0.50960000  0.02690000  1.0 -0.8628156114
O  O26  1  0.76190000  0.00960000  0.47310000  1.0 -0.8628156114
O  O27  1  0.76190000  0.49040000  0.97310000  1.0 -0.8628156114
O  O28  1  0.23810000  0.99040000  0.52690000  1.0 -0.8628156114
O  O29  1  0.09010000  0.52400000  0.12580000  1.0 -0.8221740602
O  O30  1  0.90990000  0.02400000  0.37420000  1.0 -0.8221740602
O  O31  1  0.90990000  0.47600000  0.87420000  1.0 -0.8221740602
O  O32  1  0.09010000  0.97600000  0.62580000  1.0 -0.8221740602
O  O33  1  0.39810000  0.54070000  0.15800000  1.0 -0.6802803206
O  O34  1  0.60190000  0.04070000  0.34200000  1.0 -0.6802803206
O  O35  1  0.60190000  0.45930000  0.84200000  1.0 -0.6802803206
O  O36  1  0.39810000  0.95930000  0.65800000  1.0 -0.6802803206
O  O37  1  0.09140000  0.75350000  0.09880000  1.0 -0.8005618382
O  O38  1  0.90860000  0.25350000  0.40120000  1.0 -0.8005618382
O  O39  1  0.90860000  0.24650000  0.90120000  1.0 -0.8005618382
O  O40  1  0.09140000  0.74650000  0.59880000  1.0 -0.8005618382
O  O41  1  0.09010000  0.47980000  0.88560000  1.0 -0.8005618382
O  O42  1  0.90990000  0.97980000  0.61440000  1.0 -0.8005618382
O  O43  1  0.90990000  0.52020000  0.11440000  1.0 -0.8054074574
O  O44  1  0.09010000  0.02020000  0.38560000  1.0 -0.8005618382
O  O45  1  0.25000000  0.59890000  0.90870000  1.0 -0.7314849723
O  O46  1  0.75000000  0.09890000  0.59130000  1.0 -0.7314849723
O  O47  1  0.75000000  0.40110000  0.09130000  1.0 -0.7314849723
O  O48  1  0.25000000  0.90110000  0.40870000  1.0 -0.7314849723
O  O49  1  0.28550000  0.27470000  0.05260000  1.0 -0.7428141761
O  O50  1  0.71450000  0.77470000  0.44740000  1.0 -0.7428141761
O  O51  1  0.71450000  0.72530000  0.94740000  1.0 -0.7497933802
O  O52  1  0.28550000  0.22530000  0.55260000  1.0 -0.7428141761
O  O53  1  0.28100000  0.39260000  0.93810000  1.0 -0.7497933802
O  O54  1  0.71900000  0.89260000  0.56190000  1.0 -0.7497933802
O  O55  1  0.71900000  0.60740000  0.06190000  1.0 -0.7497933802
O  O56  1  0.28100000  0.10740000  0.43810000  1.0 -0.7497933802
O  O57  1  0.28550000  0.55040000  0.26690000  1.0 -0.7740057039
O  O58  1  0.71450000  0.05040000  0.23310000  1.0 -0.7740057039
O  O59  1  0.71450000  0.44960000  0.73310000  1.0 -0.7750525403
O  O60  1  0.28550000  0.94960000  0.76690000  1.0 -0.7740057039
O  O61  1  0.12360000  0.29240000  0.13730000  1.0 -0.78951294
O  O62  1  0.87640000  0.79240000  0.36270000  1.0 -0.78951294
O  O63  1  0.87640000  0.70760000  0.86270000  1.0 -0.78951294
O  O64  1  0.12360000  0.20760000  0.63730000  1.0 -0.78951294
O  O65  1  0.30450000  0.19690000  0.18210000  1.0 -0.7197663117
O  O66  1  0.69550000  0.69690000  0.31790000  1.0 -0.7197663117
O  O67  1  0.69550000  0.80310000  0.81790000  1.0 -0.7197663117
O  O68  1  0.30450000  0.30310000  0.68210000  1.0 -0.7197663117
O  O69  1  0.12250000  0.24700000  0.89590000  1.0 -0.5280101526
O  O70  1  0.87750000  0.74700000  0.60410000  1.0 -0.5280101526
O  O71  1  0.87750000  0.75300000  0.10410000  1.0 -0.5280101526
O  O72  1  0.12250000  0.25300000  0.39590000  1.0 -0.5280101526
O  O73  1  0.25950000  0.86200000  0.12350000  1.0 -0.7497933802
O  O74  1  0.74050000  0.36200000  0.37650000  1.0 -0.7497933802
O  O75  1  0.74050000  0.13800000  0.87650000  1.0 -0.7497933802
O  O76  1  0.25950000  0.63800000  0.62350000  1.0 -0.7497933802
O  O77  1  0.07820000  0.87560000  0.97900000  1.0 -0.5488151836
O  O78  1  0.92180000  0.37560000  0.52100000  1.0 -0.5488151836
O  O79  1  0.92180000  0.12440000  0.02100000  1.0 -0.5488151836
O  O80  1  0.07820000  0.62440000  0.47900000  1.0 -0.5488151836
O  O81  1  0.25120000  0.12290000  0.26550000  1.0 -0.6942092705
O  O82  1  0.74880000  0.62290000  0.23450000  1.0 -0.6962507296
O  O83  1  0.74880000  0.87710000  0.73450000  1.0 -0.6962507296
O  O84  1  0.25120000  0.37710000  0.76550000  1.0 -0.6962507296
O  O85  1  0.27820000  0.77570000  0.23900000  1.0 -0.7428141761
O  O86  1  0.72180000  0.27570000  0.26100000  1.0 -0.7428141761
O  O87  1  0.72180000  0.22430000  0.76100000  1.0 -0.7428141761
O  O88  1  0.27820000  0.72430000  0.73900000  1.0 -0.7428141761
O  O89  1  0.11700000  0.68040000  0.23720000  1.0 -0.5280101526
O  O90  1  0.88300000  0.18040000  0.26280000  1.0 -0.5280101526
O  O91  1  0.88300000  0.31960000  0.76280000  1.0 -0.5280101526
O  O92  1  0.11700000  0.81960000  0.73720000  1.0 -0.5280101526
O  O93  1  0.42030000  0.53720000  0.01730000  1.0 -0.7497933802
O  O94  1  0.57970000  0.03720000  0.48270000  1.0 -0.7497933802
O  O95  1  0.57970000  0.46280000  0.98270000  1.0 -0.7497933802
O  O96  1  0.42030000  0.96280000  0.51730000  1.0 -0.7497933802
O  O97  1  0.13450000  0.40900000  0.25900000  1.0 -0.5280101526
O  O98  1  0.86550000  0.90900000  0.24100000  1.0 -0.5280101526
O  O99  1  0.86550000  0.59100000  0.74100000  1.0 -0.5280101526
O  O100  1  0.13450000  0.09100000  0.75900000  1.0 -0.5280101526
O  O101  1  0.30760000  0.32510000  0.27770000  1.0 -0.7197663117
O  O102  1  0.69240000  0.82510000  0.22230000  1.0 -0.7197663117
O  O103  1  0.69240000  0.67490000  0.72230000  1.0 -0.7197663117
O  O104  1  0.30760000  0.17490000  0.77770000  1.0 -0.7197663117
O  O105  1  0.38230000  0.94360000  0.25230000  1.0 -0.7314849723
O  O106  1  0.61770000  0.44360000  0.24770000  1.0 -0.7314849723
O  O107  1  0.61770000  0.05640000  0.74770000  1.0 -0.7314849723
O  O108  1  0.38230000  0.55640000  0.75230000  1.0 -0.7314849723
O  O109  1  0.43140000  0.16980000  0.32290000  1.0 -0.7197663117
O  O110  1  0.56860000  0.66980000  0.17710000  1.0 -0.7197663117
O  O111  1  0.56860000  0.83020000  0.67710000  1.0 -0.7197663117
O  O112  1  0.43140000  0.33020000  0.82290000  1.0 -0.7148841548
O  O113  1  0.07430000  0.71420000  0.85200000  1.0 -0.5175933852
O  O114  1  0.92570000  0.21420000  0.64800000  1.0 -0.5175933852
O  O115  1  0.92570000  0.28580000  0.14800000  1.0 -0.5175933852
O  O116  1  0.07430000  0.78580000  0.35200000  1.0 -0.5175933852
O  O117  1  0.41890000  0.75970000  0.22100000  1.0 -0.6002196449
O  O118  1  0.58110000  0.25970000  0.27900000  1.0 -0.6002196449
O  O119  1  0.58110000  0.24030000  0.77900000  1.0 -0.6002196449
O  O120  1  0.41890000  0.74030000  0.72100000  1.0 -0.6002196449
O  O121  1  0.13400000  0.13250000  0.04040000  1.0 -0.5139867592
O  O122  1  0.86600000  0.63250000  0.45960000  1.0 -0.5175933852
O  O123  1  0.86600000  0.86750000  0.95960000  1.0 -0.5175933852
O  O124  1  0.13400000  0.36750000  0.54040000  1.0 -0.5175933852
O  O125  1  0.51890000  0.68090000  0.89320000  1.0 0.0415237226
O  O126  1  0.48110000  0.18090000  0.60680000  1.0 0.0415237226
O  O127  1  0.48110000  0.31910000  0.10680000  1.0 0.0415237226
O  O128  1  0.51890000  0.81910000  0.39320000  1.0 0.0415237226
