# DDEC6 charges by PACMAN v1.1 (https://github.com/mtap-research/PACMAN-charge/)
data_NUWPOM_ion_pacman
_symmetry_space_group_name_H-M   'P 1'
_cell_length_a   13.57750000
_cell_length_b   13.57750000
_cell_length_c   13.57750000
_cell_angle_alpha   116.92500000
_cell_angle_beta   116.92500000
_cell_angle_gamma   116.92500000
_symmetry_Int_Tables_number   1
_chemical_formula_structural   Mg2CClO6
_chemical_formula_sum   'Mg12 C6 Cl6 O36'
_cell_volume   1116.98904801
_cell_formula_units_Z   6
loop_
 _symmetry_equiv_pos_site_id
 _symmetry_equiv_pos_as_xyz
  1  'x, y, z'
loop_
 _atom_site_type_symbol
 _atom_site_label
 _atom_site_symmetry_multiplicity
 _atom_site_fract_x
 _atom_site_fract_y
 _atom_site_fract_z
 _atom_site_occupancy
 _atom_site_charge
Mg  Mg1  1  0.76090000  0.21100000  0.80700000  1.0 1.4711932103
Mg  Mg2  1  0.21100000  0.80700000  0.76090000  1.0 1.4711932103
Mg  Mg3  1  0.80700000  0.76090000  0.21100000  1.0 1.4711932103
Mg  Mg4  1  0.71100000  0.26090000  0.30700000  1.0 1.4711932103
Mg  Mg5  1  0.30700000  0.71100000  0.26090000  1.0 1.4711932103
Mg  Mg6  1  0.26090000  0.30700000  0.71100000  1.0 1.4711932103
Mg  Mg7  1  0.37160000  0.61670000  0.02180000  1.0 1.496716098
Mg  Mg8  1  0.61670000  0.02180000  0.37160000  1.0 1.496716098
Mg  Mg9  1  0.02180000  0.37160000  0.61670000  1.0 1.496716098
Mg  Mg10  1  0.11670000  0.87160000  0.52180000  1.0 1.496716098
Mg  Mg11  1  0.52180000  0.11670000  0.87160000  1.0 1.496716098
Mg  Mg12  1  0.87160000  0.52180000  0.11670000  1.0 1.496716098
C  C1  1  0.96850000  0.34690000  0.81150000  1.0 0.8572585642
C  C2  1  0.34690000  0.81150000  0.96850000  1.0 0.8572585642
C  C3  1  0.81150000  0.96850000  0.34690000  1.0 0.8572585642
C  C4  1  0.84690000  0.46850000  0.31150000  1.0 0.8572585642
C  C5  1  0.31150000  0.84690000  0.46850000  1.0 0.8572585642
C  C6  1  0.46850000  0.31150000  0.84690000  1.0 0.8572585642
Cl  Cl1  1  0.36597000  0.11865000  0.46818000  1.0 0.6328097443
Cl  Cl2  1  0.11865000  0.46818000  0.36597000  1.0 0.6328097443
Cl  Cl3  1  0.46818000  0.36597000  0.11865000  1.0 0.6328097443
Cl  Cl4  1  0.61865000  0.86597000  0.96818000  1.0 0.6328097443
Cl  Cl5  1  0.96818000  0.61865000  0.86597000  1.0 0.6328097443
Cl  Cl6  1  0.86597000  0.96818000  0.61865000  1.0 0.6328097443
O  O1  1  0.81600000  0.09410000  0.81450000  1.0 -0.6078654667
O  O2  1  0.09410000  0.81450000  0.81600000  1.0 -0.603471457
O  O3  1  0.81450000  0.81600000  0.09410000  1.0 -0.603471457
O  O4  1  0.59410000  0.31600000  0.31450000  1.0 -0.603471457
O  O5  1  0.31450000  0.59410000  0.31600000  1.0 -0.603471457
O  O6  1  0.31600000  0.31450000  0.59410000  1.0 -0.6078654667
O  O7  1  0.04180000  0.44910000  0.96870000  1.0 -0.6691552639
O  O8  1  0.44910000  0.96870000  0.04180000  1.0 -0.6691552639
O  O9  1  0.96870000  0.04180000  0.44910000  1.0 -0.6691552639
O  O10  1  0.94910000  0.54180000  0.46870000  1.0 -0.6691552639
O  O11  1  0.46870000  0.94910000  0.54180000  1.0 -0.6691552639
O  O12  1  0.54180000  0.46870000  0.94910000  1.0 -0.6691552639
O  O13  1  0.77820000  0.19390000  0.64750000  1.0 -0.6691552639
O  O14  1  0.19390000  0.64750000  0.77820000  1.0 -0.6691552639
O  O15  1  0.64750000  0.77820000  0.19390000  1.0 -0.6691552639
O  O16  1  0.69390000  0.27820000  0.14750000  1.0 -0.6691552639
O  O17  1  0.14750000  0.69390000  0.27820000  1.0 -0.6691552639
O  O18  1  0.27820000  0.14750000  0.69390000  1.0 -0.6691552639
O  O19  1  0.08350000  0.43400000  0.82780000  1.0 -0.6755485376
O  O20  1  0.43400000  0.82780000  0.08350000  1.0 -0.6755485376
O  O21  1  0.82780000  0.08350000  0.43400000  1.0 -0.6755485376
O  O22  1  0.93400000  0.58350000  0.32780000  1.0 -0.6755485376
O  O23  1  0.32780000  0.93400000  0.58350000  1.0 -0.6755485376
O  O24  1  0.58350000  0.32780000  0.93400000  1.0 -0.6755485376
O  O25  1  0.47490000  0.76950000  0.26610000  1.0 -1.1334326903
O  O26  1  0.76950000  0.26610000  0.47490000  1.0 -1.1334326903
O  O27  1  0.26610000  0.47490000  0.76950000  1.0 -1.1334326903
O  O28  1  0.26950000  0.97490000  0.76610000  1.0 -1.1334326903
O  O29  1  0.76610000  0.26950000  0.97490000  1.0 -1.1334326903
O  O30  1  0.97490000  0.76610000  0.26950000  1.0 -1.1334326903
O  O31  1  0.26130000  0.36170000  0.89660000  1.0 -0.7061913451
O  O32  1  0.36170000  0.89660000  0.26130000  1.0 -0.7061913451
O  O33  1  0.89660000  0.26130000  0.36170000  1.0 -0.7048665126
O  O34  1  0.86170000  0.76130000  0.39660000  1.0 -0.7048665126
O  O35  1  0.39660000  0.86170000  0.76130000  1.0 -0.7061913451
O  O36  1  0.76130000  0.39660000  0.86170000  1.0 -0.7061913451
