# DDEC6 charges by PACMAN v1.1 (https://github.com/mtap-research/PACMAN-charge/)
data_NUYHIB_FSR_pacman
_symmetry_space_group_name_H-M   'P 1'
_cell_length_a   10.96700000
_cell_length_b   10.96700000
_cell_length_c   26.28000000
_cell_angle_alpha   90.00000000
_cell_angle_beta   90.00000000
_cell_angle_gamma   101.80200000
_symmetry_Int_Tables_number   1
_chemical_formula_structural   Cu5H82C58(NO4)6
_chemical_formula_sum   'Cu10 H164 C116 N12 O48'
_cell_volume   3094.01019661
_cell_formula_units_Z   2
loop_
 _symmetry_equiv_pos_site_id
 _symmetry_equiv_pos_as_xyz
  1  'x, y, z'
loop_
 _atom_site_type_symbol
 _atom_site_label
 _atom_site_symmetry_multiplicity
 _atom_site_fract_x
 _atom_site_fract_y
 _atom_site_fract_z
 _atom_site_occupancy
 _atom_site_charge
Cu  Cu1  1  0.47390000  0.47390000  0.49570000  1.0 0.3108418674
Cu  Cu2  1  0.52610000  0.52610000  0.99570000  1.0 0.3108418674
Cu  Cu3  1  0.47390000  0.47390000  0.00430000  1.0 0.3108418674
Cu  Cu4  1  0.52610000  0.52610000  0.50430000  1.0 0.3108418674
Cu  Cu5  1  0.20995000  0.20995000  0.25000000  1.0 0.6196284484
Cu  Cu6  1  0.01837000  0.01837000  0.25000000  1.0 0.8395722698
Cu  Cu7  1  0.79005000  0.79005000  0.75000000  1.0 0.6258145164
Cu  Cu8  1  0.98163000  0.98163000  0.75000000  1.0 0.8395722698
Cu  Cu9  1  0.50000000  0.50000000  0.50000000  1.0 0.3108418674
Cu  Cu10  1  0.50000000  0.50000000  0.00000000  1.0 0.3108418674
H  H1  1  0.37917000  0.29781000  0.46516000  1.0 0.1199850869
H  H2  1  0.35241000  0.66067000  0.37429000  1.0 0.1396449721
H  H3  1  0.15450000  0.57778000  0.32649000  1.0 0.1310758333
H  H4  1  0.46113000  0.97871000  0.45351000  1.0 0.1199850869
H  H5  1  0.36426000  0.08154000  0.39384000  1.0 0.1001978813
H  H6  1  0.38728000  0.30546000  0.34982000  1.0 0.1118094491
H  H7  1  0.30488000  0.40656000  0.34821000  1.0 0.1118094491
H  H8  1  0.49791000  0.47215000  0.20114000  1.0 0.1001978813
H  H9  1  0.64009000  0.50803000  0.21443000  1.0 0.0592426574
H  H10  1  0.56021000  0.61127000  0.21253000  1.0 0.0592426574
H  H11  1  0.67488000  0.62974000  0.30158000  1.0 0.0475814592
H  H12  1  0.63467000  0.51527000  0.33795000  1.0 0.0717236738
H  H13  1  0.55578000  0.61928000  0.33561000  1.0 0.0475814592
H  H14  1  0.88534000  0.78746000  0.26346000  1.0 0.1001978813
H  H15  1  0.79393000  0.87887000  0.27072000  1.0 0.1001978813
H  H16  1  0.25997000  0.32419000  0.46841000  1.0 0.1310758333
H  H17  1  0.40544000  0.31330000  0.40292000  1.0 0.1118094491
H  H18  1  0.37769000  0.43407000  0.40304000  1.0 0.0592426574
H  H19  1  0.16054000  0.14788000  0.43128000  1.0 0.3489634286
H  H20  1  0.62083000  0.70219000  0.96516000  1.0 0.1199850869
H  H21  1  0.64759000  0.33933000  0.87429000  1.0 0.1396449721
H  H22  1  0.84550000  0.42222000  0.82649000  1.0 0.1310758333
H  H23  1  0.53887000  0.02129000  0.95351000  1.0 0.1199850869
H  H24  1  0.63574000  0.91846000  0.89384000  1.0 0.1001978813
H  H25  1  0.61272000  0.69454000  0.84982000  1.0 0.1118094491
H  H26  1  0.69512000  0.59344000  0.84821000  1.0 0.1118094491
H  H27  1  0.50209000  0.52785000  0.70114000  1.0 0.1001978813
H  H28  1  0.35991000  0.49197000  0.71443000  1.0 0.0592426574
H  H29  1  0.43979000  0.38873000  0.71253000  1.0 0.0592426574
H  H30  1  0.32512000  0.37026000  0.80158000  1.0 0.0475814592
H  H31  1  0.36533000  0.48473000  0.83795000  1.0 0.0717236738
H  H32  1  0.44422000  0.38072000  0.83561000  1.0 0.0475814592
H  H33  1  0.11466000  0.21254000  0.76346000  1.0 0.1001978813
H  H34  1  0.20607000  0.12113000  0.77072000  1.0 0.1001978813
H  H35  1  0.74003000  0.67581000  0.96841000  1.0 0.1310758333
H  H36  1  0.59456000  0.68670000  0.90292000  1.0 0.1118094491
H  H37  1  0.62231000  0.56593000  0.90304000  1.0 0.0592426574
H  H38  1  0.83946000  0.85212000  0.93128000  1.0 0.3489634286
H  H39  1  0.29781000  0.37917000  0.03484000  1.0 0.1199850869
H  H40  1  0.66067000  0.35241000  0.12571000  1.0 0.1396449721
H  H41  1  0.57778000  0.15450000  0.17351000  1.0 0.1310758333
H  H42  1  0.97871000  0.46113000  0.04649000  1.0 0.1199850869
H  H43  1  0.08154000  0.36426000  0.10616000  1.0 0.1001978813
H  H44  1  0.30546000  0.38728000  0.15018000  1.0 0.1118094491
H  H45  1  0.40656000  0.30488000  0.15179000  1.0 0.1118094491
H  H46  1  0.47215000  0.49791000  0.29886000  1.0 0.1001978813
H  H47  1  0.50803000  0.64009000  0.28557000  1.0 0.0592426574
H  H48  1  0.61127000  0.56021000  0.28747000  1.0 0.0592426574
H  H49  1  0.62974000  0.67488000  0.19842000  1.0 0.0475814592
H  H50  1  0.51527000  0.63467000  0.16205000  1.0 0.0717236738
H  H51  1  0.61928000  0.55578000  0.16439000  1.0 0.0475814592
H  H52  1  0.78746000  0.88534000  0.23654000  1.0 0.1001978813
H  H53  1  0.87887000  0.79393000  0.22928000  1.0 0.1001978813
H  H54  1  0.32419000  0.25997000  0.03159000  1.0 0.1310758333
H  H55  1  0.31330000  0.40544000  0.09708000  1.0 0.1199850869
H  H56  1  0.43407000  0.37769000  0.09696000  1.0 0.0592426574
H  H57  1  0.14788000  0.16054000  0.06872000  1.0 0.3489634286
H  H58  1  0.70219000  0.62083000  0.53484000  1.0 0.1199850869
H  H59  1  0.33933000  0.64759000  0.62571000  1.0 0.1396449721
H  H60  1  0.42222000  0.84550000  0.67351000  1.0 0.1310758333
H  H61  1  0.02129000  0.53887000  0.54649000  1.0 0.1199850869
H  H62  1  0.91846000  0.63574000  0.60616000  1.0 0.1001978813
H  H63  1  0.69454000  0.61272000  0.65018000  1.0 0.1118094491
H  H64  1  0.59344000  0.69512000  0.65179000  1.0 0.1118094491
H  H65  1  0.52785000  0.50209000  0.79886000  1.0 0.1001978813
H  H66  1  0.49197000  0.35991000  0.78557000  1.0 0.0592426574
H  H67  1  0.38873000  0.43979000  0.78747000  1.0 0.0592426574
H  H68  1  0.37026000  0.32512000  0.69842000  1.0 0.0475814592
H  H69  1  0.48473000  0.36533000  0.66205000  1.0 0.0717236738
H  H70  1  0.38072000  0.44422000  0.66439000  1.0 0.0475814592
H  H71  1  0.21254000  0.11466000  0.73654000  1.0 0.1001978813
H  H72  1  0.12113000  0.20607000  0.72928000  1.0 0.1001978813
H  H73  1  0.67581000  0.74003000  0.53159000  1.0 0.1310758333
H  H74  1  0.68670000  0.59456000  0.59708000  1.0 0.1118094491
H  H75  1  0.56593000  0.62231000  0.59696000  1.0 0.0592426574
H  H76  1  0.85212000  0.83946000  0.56872000  1.0 0.3489634286
H  H77  1  0.62083000  0.70219000  0.53484000  1.0 0.1199850869
H  H78  1  0.64759000  0.33933000  0.62571000  1.0 0.1396449721
H  H79  1  0.84550000  0.42222000  0.67351000  1.0 0.1310758333
H  H80  1  0.53887000  0.02129000  0.54649000  1.0 0.1199850869
H  H81  1  0.63574000  0.91846000  0.60616000  1.0 0.1001978813
H  H82  1  0.61272000  0.69454000  0.65018000  1.0 0.1118094491
H  H83  1  0.69512000  0.59344000  0.65179000  1.0 0.1118094491
H  H84  1  0.50209000  0.52785000  0.79886000  1.0 0.1001978813
H  H85  1  0.35991000  0.49197000  0.78557000  1.0 0.0592426574
H  H86  1  0.43979000  0.38873000  0.78747000  1.0 0.0592426574
H  H87  1  0.32512000  0.37026000  0.69842000  1.0 0.0475814592
H  H88  1  0.36533000  0.48473000  0.66205000  1.0 0.0717236738
H  H89  1  0.44422000  0.38072000  0.66439000  1.0 0.0475814592
H  H90  1  0.11466000  0.21254000  0.73654000  1.0 0.1001978813
H  H91  1  0.20607000  0.12113000  0.72928000  1.0 0.1001978813
H  H92  1  0.74003000  0.67581000  0.53159000  1.0 0.1310758333
H  H93  1  0.59456000  0.68670000  0.59708000  1.0 0.1118094491
H  H94  1  0.62231000  0.56593000  0.59696000  1.0 0.0592426574
H  H95  1  0.83946000  0.85212000  0.56872000  1.0 0.3489634286
H  H96  1  0.37917000  0.29781000  0.03484000  1.0 0.1199850869
H  H97  1  0.35241000  0.66067000  0.12571000  1.0 0.1396449721
H  H98  1  0.15450000  0.57778000  0.17351000  1.0 0.1310758333
H  H99  1  0.46113000  0.97871000  0.04649000  1.0 0.1199850869
H  H100  1  0.36426000  0.08154000  0.10616000  1.0 0.1001978813
H  H101  1  0.38728000  0.30546000  0.15018000  1.0 0.1118094491
H  H102  1  0.30488000  0.40656000  0.15179000  1.0 0.1118094491
H  H103  1  0.49791000  0.47215000  0.29886000  1.0 0.1001978813
H  H104  1  0.64009000  0.50803000  0.28557000  1.0 0.0592426574
H  H105  1  0.56021000  0.61127000  0.28747000  1.0 0.0592426574
H  H106  1  0.67488000  0.62974000  0.19842000  1.0 0.0475814592
H  H107  1  0.63467000  0.51527000  0.16205000  1.0 0.0717236738
H  H108  1  0.55578000  0.61928000  0.16439000  1.0 0.0475814592
H  H109  1  0.88534000  0.78746000  0.23654000  1.0 0.1001978813
H  H110  1  0.79393000  0.87887000  0.22928000  1.0 0.1001978813
H  H111  1  0.25997000  0.32419000  0.03159000  1.0 0.1310758333
H  H112  1  0.40544000  0.31330000  0.09708000  1.0 0.1118094491
H  H113  1  0.37769000  0.43407000  0.09696000  1.0 0.0592426574
H  H114  1  0.16054000  0.14788000  0.06872000  1.0 0.3489634286
H  H115  1  0.70219000  0.62083000  0.96516000  1.0 0.1199850869
H  H116  1  0.33933000  0.64759000  0.87429000  1.0 0.1396449721
H  H117  1  0.42222000  0.84550000  0.82649000  1.0 0.1310758333
H  H118  1  0.02129000  0.53887000  0.95351000  1.0 0.1199850869
H  H119  1  0.91846000  0.63574000  0.89384000  1.0 0.1001978813
H  H120  1  0.69454000  0.61272000  0.84982000  1.0 0.1118094491
H  H121  1  0.59344000  0.69512000  0.84821000  1.0 0.1118094491
H  H122  1  0.52785000  0.50209000  0.70114000  1.0 0.1001978813
H  H123  1  0.49197000  0.35991000  0.71443000  1.0 0.0592426574
H  H124  1  0.38873000  0.43979000  0.71253000  1.0 0.0592426574
H  H125  1  0.37026000  0.32512000  0.80158000  1.0 0.0475814592
H  H126  1  0.48473000  0.36533000  0.83795000  1.0 0.0717236738
H  H127  1  0.38072000  0.44422000  0.83561000  1.0 0.0475814592
H  H128  1  0.21254000  0.11466000  0.76346000  1.0 0.1001978813
H  H129  1  0.12113000  0.20607000  0.77072000  1.0 0.1001978813
H  H130  1  0.67581000  0.74003000  0.96841000  1.0 0.1310758333
H  H131  1  0.68670000  0.59456000  0.90292000  1.0 0.1118094491
H  H132  1  0.56593000  0.62231000  0.90304000  1.0 0.0592426574
H  H133  1  0.85212000  0.83946000  0.93128000  1.0 0.3489634286
H  H134  1  0.29781000  0.37917000  0.46516000  1.0 0.1199850869
H  H135  1  0.66067000  0.35241000  0.37429000  1.0 0.1396449721
H  H136  1  0.57778000  0.15450000  0.32649000  1.0 0.1310758333
H  H137  1  0.97871000  0.46113000  0.45351000  1.0 0.1199850869
H  H138  1  0.08154000  0.36426000  0.39384000  1.0 0.1001978813
H  H139  1  0.30546000  0.38728000  0.34982000  1.0 0.1118094491
H  H140  1  0.40656000  0.30488000  0.34821000  1.0 0.1118094491
H  H141  1  0.47215000  0.49791000  0.20114000  1.0 0.1001978813
H  H142  1  0.50803000  0.64009000  0.21443000  1.0 0.0592426574
H  H143  1  0.61127000  0.56021000  0.21253000  1.0 0.0592426574
H  H144  1  0.62974000  0.67488000  0.30158000  1.0 0.0475814592
H  H145  1  0.51527000  0.63467000  0.33795000  1.0 0.0717236738
H  H146  1  0.61928000  0.55578000  0.33561000  1.0 0.0475814592
H  H147  1  0.78746000  0.88534000  0.26346000  1.0 0.1001978813
H  H148  1  0.87887000  0.79393000  0.27072000  1.0 0.1001978813
H  H149  1  0.32419000  0.25997000  0.46841000  1.0 0.1310758333
H  H150  1  0.31330000  0.40544000  0.40292000  1.0 0.1199850869
H  H151  1  0.43407000  0.37769000  0.40304000  1.0 0.0592426574
H  H152  1  0.14788000  0.16054000  0.43128000  1.0 0.3489634286
H  H153  1  0.44582000  0.44582000  0.36188000  1.0 0.0475814592
H  H154  1  0.55418000  0.55418000  0.86188000  1.0 0.0475814592
H  H155  1  0.44582000  0.44582000  0.13812000  1.0 0.0475814592
H  H156  1  0.55418000  0.55418000  0.63812000  1.0 0.0475814592
H  H157  1  0.20450000  0.20450000  0.47845000  1.0 0.1396449721
H  H158  1  0.79550000  0.79550000  0.97845000  1.0 0.1396449721
H  H159  1  0.20450000  0.20450000  0.02155000  1.0 0.1396449721
H  H160  1  0.79550000  0.79550000  0.52155000  1.0 0.1396449721
H  H161  1  0.09742000  0.47546000  0.25000000  1.0 0.1711630601
H  H162  1  0.90258000  0.52454000  0.75000000  1.0 0.1711630601
H  H163  1  0.47546000  0.09742000  0.25000000  1.0 0.1711630601
H  H164  1  0.52454000  0.90258000  0.75000000  1.0 0.1711630601
C  C1  1  0.35360000  0.74520000  0.37815000  1.0 -0.2403145262
C  C2  1  0.29580000  0.80600000  0.34175000  1.0 0.0295942554
C  C3  1  0.22380000  0.00260000  0.31479000  1.0 0.5379004668
C  C4  1  0.24710000  0.73870000  0.29403000  1.0 0.1711630601
C  C5  1  0.17740000  0.61720000  0.29559000  1.0 -0.2496114457
C  C6  1  0.41370000  0.80810000  0.42035000  1.0 0.0126562718
C  C7  1  0.29550000  0.93370000  0.34938000  1.0 -0.0380625438
C  C8  1  0.41910000  0.93550000  0.42616000  1.0 -0.1001683969
C  C9  1  0.36030000  0.99650000  0.39038000  1.0 -0.1514920999
C  C10  1  0.47840000  0.73980000  0.45962000  1.0 0.458499987
C  C11  1  0.41710000  0.41310000  0.28610000  1.0 0.0392846375
C  C12  1  0.60520000  0.57320000  0.31610000  1.0 -0.1684247364
C  C13  1  0.55980000  0.52620000  0.22120000  1.0 -0.0249065568
C  C14  1  0.38630000  0.39030000  0.34150000  1.0 -0.2852207531
C  C15  1  0.64640000  0.25480000  0.87815000  1.0 -0.2403145262
C  C16  1  0.70420000  0.19400000  0.84175000  1.0 0.0295942554
C  C17  1  0.77620000  0.99740000  0.81479000  1.0 0.5379004668
C  C18  1  0.75290000  0.26130000  0.79403000  1.0 0.1711630601
C  C19  1  0.82260000  0.38280000  0.79559000  1.0 -0.2496114457
C  C20  1  0.58630000  0.19190000  0.92035000  1.0 0.0126562718
C  C21  1  0.70450000  0.06630000  0.84938000  1.0 -0.0380625438
C  C22  1  0.58090000  0.06450000  0.92616000  1.0 -0.1001683969
C  C23  1  0.63970000  0.00350000  0.89038000  1.0 -0.1514920999
C  C24  1  0.52160000  0.26020000  0.95962000  1.0 0.458499987
C  C25  1  0.58290000  0.58690000  0.78610000  1.0 0.0392846375
C  C26  1  0.39480000  0.42680000  0.81610000  1.0 -0.1684247364
C  C27  1  0.44020000  0.47380000  0.72120000  1.0 -0.0249065568
C  C28  1  0.61370000  0.60970000  0.84150000  1.0 -0.2852207531
C  C29  1  0.74520000  0.35360000  0.12185000  1.0 -0.2403145262
C  C30  1  0.80600000  0.29580000  0.15825000  1.0 0.0295942554
C  C31  1  0.00260000  0.22380000  0.18521000  1.0 0.5379004668
C  C32  1  0.73870000  0.24710000  0.20597000  1.0 0.1711630601
C  C33  1  0.61720000  0.17740000  0.20441000  1.0 -0.2496114457
C  C34  1  0.80810000  0.41370000  0.07965000  1.0 0.0126562718
C  C35  1  0.93370000  0.29550000  0.15062000  1.0 -0.0380625438
C  C36  1  0.93550000  0.41910000  0.07384000  1.0 -0.1001683969
C  C37  1  0.99650000  0.36030000  0.10962000  1.0 -0.1514920999
C  C38  1  0.73980000  0.47840000  0.04038000  1.0 0.458499987
C  C39  1  0.41310000  0.41710000  0.21390000  1.0 0.0392846375
C  C40  1  0.57320000  0.60520000  0.18390000  1.0 -0.1684247364
C  C41  1  0.52620000  0.55980000  0.27880000  1.0 -0.0249065568
C  C42  1  0.39030000  0.38630000  0.15850000  1.0 -0.2852207531
C  C43  1  0.25480000  0.64640000  0.62185000  1.0 -0.2403145262
C  C44  1  0.19400000  0.70420000  0.65825000  1.0 0.0295942554
C  C45  1  0.99740000  0.77620000  0.68521000  1.0 0.5379004668
C  C46  1  0.26130000  0.75290000  0.70597000  1.0 0.1711630601
C  C47  1  0.38280000  0.82260000  0.70441000  1.0 -0.2496114457
C  C48  1  0.19190000  0.58630000  0.57965000  1.0 0.0126562718
C  C49  1  0.06630000  0.70450000  0.65062000  1.0 -0.0380625438
C  C50  1  0.06450000  0.58090000  0.57384000  1.0 -0.1001683969
C  C51  1  0.00350000  0.63970000  0.60962000  1.0 -0.1514920999
C  C52  1  0.26020000  0.52160000  0.54038000  1.0 0.458499987
C  C53  1  0.58690000  0.58290000  0.71390000  1.0 0.0392846375
C  C54  1  0.42680000  0.39480000  0.68390000  1.0 -0.1684247364
C  C55  1  0.47380000  0.44020000  0.77880000  1.0 -0.0249065568
C  C56  1  0.60970000  0.61370000  0.65850000  1.0 -0.2852207531
C  C57  1  0.64640000  0.25480000  0.62185000  1.0 -0.2403145262
C  C58  1  0.70420000  0.19400000  0.65825000  1.0 0.0295942554
C  C59  1  0.77620000  0.99740000  0.68521000  1.0 0.5379004668
C  C60  1  0.75290000  0.26130000  0.70597000  1.0 0.1711630601
C  C61  1  0.82260000  0.38280000  0.70441000  1.0 -0.2496114457
C  C62  1  0.58630000  0.19190000  0.57965000  1.0 0.0126562718
C  C63  1  0.70450000  0.06630000  0.65062000  1.0 -0.0380625438
C  C64  1  0.58090000  0.06450000  0.57384000  1.0 -0.1001683969
C  C65  1  0.63970000  0.00350000  0.60962000  1.0 -0.1514920999
C  C66  1  0.52160000  0.26020000  0.54038000  1.0 0.458499987
C  C67  1  0.58290000  0.58690000  0.71390000  1.0 0.0392846375
C  C68  1  0.39480000  0.42680000  0.68390000  1.0 -0.1684247364
C  C69  1  0.44020000  0.47380000  0.77880000  1.0 -0.0249065568
C  C70  1  0.61370000  0.60970000  0.65850000  1.0 -0.2852207531
C  C71  1  0.35360000  0.74520000  0.12185000  1.0 -0.2403145262
C  C72  1  0.29580000  0.80600000  0.15825000  1.0 0.0295942554
C  C73  1  0.22380000  0.00260000  0.18521000  1.0 0.5379004668
C  C74  1  0.24710000  0.73870000  0.20597000  1.0 0.1711630601
C  C75  1  0.17740000  0.61720000  0.20441000  1.0 -0.2496114457
C  C76  1  0.41370000  0.80810000  0.07965000  1.0 0.0126562718
C  C77  1  0.29550000  0.93370000  0.15062000  1.0 -0.0380625438
C  C78  1  0.41910000  0.93550000  0.07384000  1.0 -0.1001683969
C  C79  1  0.36030000  0.99650000  0.10962000  1.0 -0.1514920999
C  C80  1  0.47840000  0.73980000  0.04038000  1.0 0.458499987
C  C81  1  0.41710000  0.41310000  0.21390000  1.0 0.0392846375
C  C82  1  0.60520000  0.57320000  0.18390000  1.0 -0.1684247364
C  C83  1  0.55980000  0.52620000  0.27880000  1.0 -0.0249065568
C  C84  1  0.38630000  0.39030000  0.15850000  1.0 -0.2852207531
C  C85  1  0.25480000  0.64640000  0.87815000  1.0 -0.2403145262
C  C86  1  0.19400000  0.70420000  0.84175000  1.0 0.0295942554
C  C87  1  0.99740000  0.77620000  0.81479000  1.0 0.5379004668
C  C88  1  0.26130000  0.75290000  0.79403000  1.0 0.1711630601
C  C89  1  0.38280000  0.82260000  0.79559000  1.0 -0.2496114457
C  C90  1  0.19190000  0.58630000  0.92035000  1.0 0.0126562718
C  C91  1  0.06630000  0.70450000  0.84938000  1.0 -0.0380625438
C  C92  1  0.06450000  0.58090000  0.92616000  1.0 -0.1001683969
C  C93  1  0.00350000  0.63970000  0.89038000  1.0 -0.1514920999
C  C94  1  0.26020000  0.52160000  0.95962000  1.0 0.458499987
C  C95  1  0.58690000  0.58290000  0.78610000  1.0 0.0392846375
C  C96  1  0.42680000  0.39480000  0.81610000  1.0 -0.1684247364
C  C97  1  0.47380000  0.44020000  0.72120000  1.0 -0.0249065568
C  C98  1  0.60970000  0.61370000  0.84150000  1.0 -0.2852207531
C  C99  1  0.74520000  0.35360000  0.37815000  1.0 -0.2403145262
C  C100  1  0.80600000  0.29580000  0.34175000  1.0 0.0295942554
C  C101  1  0.00260000  0.22380000  0.31479000  1.0 0.5379004668
C  C102  1  0.73870000  0.24710000  0.29403000  1.0 0.1711630601
C  C103  1  0.61720000  0.17740000  0.29559000  1.0 -0.2496114457
C  C104  1  0.80810000  0.41370000  0.42035000  1.0 0.0126562718
C  C105  1  0.93370000  0.29550000  0.34938000  1.0 -0.0380625438
C  C106  1  0.93550000  0.41910000  0.42616000  1.0 -0.1001683969
C  C107  1  0.99650000  0.36030000  0.39038000  1.0 -0.1514920999
C  C108  1  0.73980000  0.47840000  0.45962000  1.0 0.458499987
C  C109  1  0.41310000  0.41710000  0.28610000  1.0 0.0392846375
C  C110  1  0.57320000  0.60520000  0.31610000  1.0 -0.1684247364
C  C111  1  0.52620000  0.55980000  0.22120000  1.0 -0.0249065568
C  C112  1  0.39030000  0.38630000  0.34150000  1.0 -0.2852207531
C  C113  1  0.14330000  0.55670000  0.25000000  1.0 -0.1057853584
C  C114  1  0.85670000  0.44330000  0.75000000  1.0 -0.1001683969
C  C115  1  0.55670000  0.14330000  0.25000000  1.0 -0.1001683969
C  C116  1  0.44330000  0.85670000  0.75000000  1.0 -0.1001683969
N  N1  1  0.52970000  0.50590000  0.27580000  1.0 -0.0460889336
N  N2  1  0.47030000  0.49410000  0.77580000  1.0 -0.0460889336
N  N3  1  0.50590000  0.52970000  0.22420000  1.0 -0.0460889336
N  N4  1  0.49410000  0.47030000  0.72420000  1.0 -0.0380625438
N  N5  1  0.47030000  0.49410000  0.72420000  1.0 -0.0460889336
N  N6  1  0.52970000  0.50590000  0.22420000  1.0 -0.0460889336
N  N7  1  0.49410000  0.47030000  0.77580000  1.0 -0.0380625438
N  N8  1  0.50590000  0.52970000  0.27580000  1.0 -0.0460889336
N  N9  1  0.28070000  0.79950000  0.25000000  1.0 -0.2496114457
N  N10  1  0.71930000  0.20050000  0.75000000  1.0 -0.2496114457
N  N11  1  0.79950000  0.28070000  0.25000000  1.0 -0.2496114457
N  N12  1  0.20050000  0.71930000  0.75000000  1.0 -0.2496114457
O  O1  1  0.11404000  0.94856000  0.30243000  1.0 -0.5138192882
O  O2  1  0.27784000  0.11236000  0.30236000  1.0 -0.5900862922
O  O3  1  0.46334000  0.62326000  0.45207000  1.0 -0.4977824647
O  O4  1  0.53960000  0.80040000  0.49429000  1.0 -0.492712002
O  O5  1  0.88596000  0.05144000  0.80243000  1.0 -0.5138192882
O  O6  1  0.72216000  0.88764000  0.80236000  1.0 -0.5900862922
O  O7  1  0.53666000  0.37674000  0.95207000  1.0 -0.4977824647
O  O8  1  0.46040000  0.19960000  0.99429000  1.0 -0.492712002
O  O9  1  0.94856000  0.11404000  0.19757000  1.0 -0.5138192882
O  O10  1  0.11236000  0.27784000  0.19764000  1.0 -0.5900862922
O  O11  1  0.62326000  0.46334000  0.04793000  1.0 -0.4977824647
O  O12  1  0.80040000  0.53960000  0.00571000  1.0 -0.492712002
O  O13  1  0.05144000  0.88596000  0.69757000  1.0 -0.5138192882
O  O14  1  0.88764000  0.72216000  0.69764000  1.0 -0.5900862922
O  O15  1  0.37674000  0.53666000  0.54793000  1.0 -0.4977824647
O  O16  1  0.19960000  0.46040000  0.50571000  1.0 -0.492712002
O  O17  1  0.88596000  0.05144000  0.69757000  1.0 -0.5138192882
O  O18  1  0.72216000  0.88764000  0.69764000  1.0 -0.5900862922
O  O19  1  0.53666000  0.37674000  0.54793000  1.0 -0.4977824647
O  O20  1  0.46040000  0.19960000  0.50571000  1.0 -0.492712002
O  O21  1  0.11404000  0.94856000  0.19757000  1.0 -0.5138192882
O  O22  1  0.27784000  0.11236000  0.19764000  1.0 -0.5900862922
O  O23  1  0.46334000  0.62326000  0.04793000  1.0 -0.4977824647
O  O24  1  0.53960000  0.80040000  0.00571000  1.0 -0.492712002
O  O25  1  0.05144000  0.88596000  0.80243000  1.0 -0.5138192882
O  O26  1  0.88764000  0.72216000  0.80236000  1.0 -0.5900862922
O  O27  1  0.37674000  0.53666000  0.95207000  1.0 -0.4977824647
O  O28  1  0.19960000  0.46040000  0.99429000  1.0 -0.492712002
O  O29  1  0.94856000  0.11404000  0.30243000  1.0 -0.5138192882
O  O30  1  0.11236000  0.27784000  0.30236000  1.0 -0.5900862922
O  O31  1  0.62326000  0.46334000  0.45207000  1.0 -0.4977824647
O  O32  1  0.80040000  0.53960000  0.49429000  1.0 -0.492712002
O  O33  1  0.36110000  0.36110000  0.39120000  1.0 -0.1260566671
O  O34  1  0.63890000  0.63890000  0.89120000  1.0 -0.1260566671
O  O35  1  0.36110000  0.36110000  0.10880000  1.0 -0.1260566671
O  O36  1  0.63890000  0.63890000  0.60880000  1.0 -0.1260566671
O  O37  1  0.32100000  0.32100000  0.44890000  1.0 -0.2602608499
O  O38  1  0.20790000  0.20790000  0.44650000  1.0 -0.3368030001
O  O39  1  0.67900000  0.67900000  0.94890000  1.0 -0.2602608499
O  O40  1  0.79210000  0.79210000  0.94650000  1.0 -0.3368030001
O  O41  1  0.32100000  0.32100000  0.05110000  1.0 -0.2602608499
O  O42  1  0.20790000  0.20790000  0.05350000  1.0 -0.3368030001
O  O43  1  0.67900000  0.67900000  0.55110000  1.0 -0.2602608499
O  O44  1  0.79210000  0.79210000  0.55350000  1.0 -0.3368030001
O  O45  1  0.85950000  0.85950000  0.25000000  1.0 -0.4704032351
O  O46  1  0.36300000  0.36300000  0.25000000  1.0 -0.1966811975
O  O47  1  0.14050000  0.14050000  0.75000000  1.0 -0.4704032351
O  O48  1  0.63700000  0.63700000  0.75000000  1.0 -0.1966811975
