# DDEC6 charges by PACMAN v1.1 (https://github.com/mtap-research/PACMAN-charge/)
data_NUYHOH_ASR_pacman
_symmetry_space_group_name_H-M   'P 1'
_cell_length_a   21.66740000
_cell_length_b   21.66740000
_cell_length_c   15.63200000
_cell_angle_alpha   68.85770000
_cell_angle_beta   111.14200000
_cell_angle_gamma   97.47390000
_symmetry_Int_Tables_number   1
_chemical_formula_structural   Cu2H18C39(NO5)2
_chemical_formula_sum   'Cu8 H72 C156 N8 O40'
_cell_volume   6384.12444366
_cell_formula_units_Z   4
loop_
 _symmetry_equiv_pos_site_id
 _symmetry_equiv_pos_as_xyz
  1  'x, y, z'
loop_
 _atom_site_type_symbol
 _atom_site_label
 _atom_site_symmetry_multiplicity
 _atom_site_fract_x
 _atom_site_fract_y
 _atom_site_fract_z
 _atom_site_occupancy
 _atom_site_charge
Cu  Cu1  1  0.52236000  0.02234000  0.07427000  1.0 0.571213319
Cu  Cu2  1  0.02234000  0.52236000  0.92573000  1.0 0.571213319
Cu  Cu3  1  0.47764000  0.97766000  0.92573000  1.0 0.571213319
Cu  Cu4  1  0.97766000  0.47764000  0.07427000  1.0 0.571213319
Cu  Cu5  1  0.97757000  0.02243000  0.90300000  1.0 0.8050487777
Cu  Cu6  1  0.52237000  0.47763000  0.44810000  1.0 0.7893428942
Cu  Cu7  1  0.02243000  0.97757000  0.09700000  1.0 0.8036574265
Cu  Cu8  1  0.47763000  0.52237000  0.55190000  1.0 0.7893428942
H  H1  1  0.23820000  0.02360000  0.13320000  1.0 0.0998839851
H  H2  1  0.26800000  0.96760000  0.89080000  1.0 0.1068898136
H  H3  1  0.16230000  0.97150000  0.89350000  1.0 0.1068898136
H  H4  1  0.47500000  0.73200000  0.38670000  1.0 0.0922135615
H  H5  1  0.53530000  0.66450000  0.22170000  1.0 0.0922135615
H  H6  1  0.53510000  0.77170000  0.11500000  1.0 0.0710875283
H  H7  1  0.35150000  0.00330000  0.26110000  1.0 0.0797034757
H  H8  1  0.42470000  0.93210000  0.40130000  1.0 0.0710875283
H  H9  1  0.47620000  0.84860000  0.39180000  1.0 0.0922135615
H  H10  1  0.32230000  0.96110000  0.26540000  1.0 0.0797034757
H  H11  1  0.40070000  0.90030000  0.40970000  1.0 0.0797034757
H  H12  1  0.47030000  0.82830000  0.40790000  1.0 0.0797034757
H  H13  1  0.47840000  0.65520000  0.21820000  1.0 0.0710875283
H  H14  1  0.47450000  0.75530000  0.09360000  1.0 0.0797034757
H  H15  1  0.47780000  0.75260000  0.39330000  1.0 0.0797034757
H  H16  1  0.26920000  0.05580000  0.84980000  1.0 0.1068898136
H  H17  1  0.16340000  0.05400000  0.85520000  1.0 0.1068898136
H  H18  1  0.22990000  0.94730000  0.14100000  1.0 0.0922135615
H  H19  1  0.02360000  0.23820000  0.86680000  1.0 0.0998839851
H  H20  1  0.96760000  0.26800000  0.10920000  1.0 0.1068898136
H  H21  1  0.97150000  0.16230000  0.10650000  1.0 0.1068898136
H  H22  1  0.73200000  0.47500000  0.61330000  1.0 0.0922135615
H  H23  1  0.66450000  0.53530000  0.77830000  1.0 0.0922135615
H  H24  1  0.77170000  0.53510000  0.88500000  1.0 0.0710875283
H  H25  1  0.00330000  0.35150000  0.73890000  1.0 0.0797034757
H  H26  1  0.93210000  0.42470000  0.59870000  1.0 0.0710875283
H  H27  1  0.84860000  0.47620000  0.60820000  1.0 0.0922135615
H  H28  1  0.96110000  0.32230000  0.73460000  1.0 0.0797034757
H  H29  1  0.90030000  0.40070000  0.59030000  1.0 0.0797034757
H  H30  1  0.82830000  0.47030000  0.59210000  1.0 0.0797034757
H  H31  1  0.65520000  0.47840000  0.78180000  1.0 0.0797034757
H  H32  1  0.75530000  0.47450000  0.90640000  1.0 0.0797034757
H  H33  1  0.75260000  0.47780000  0.60670000  1.0 0.0797034757
H  H34  1  0.05580000  0.26920000  0.15020000  1.0 0.1068898136
H  H35  1  0.05400000  0.16340000  0.14480000  1.0 0.1068898136
H  H36  1  0.94730000  0.22990000  0.85900000  1.0 0.0998839851
H  H37  1  0.76180000  0.97640000  0.86680000  1.0 0.0998839851
H  H38  1  0.73200000  0.03240000  0.10920000  1.0 0.1068898136
H  H39  1  0.83770000  0.02850000  0.10650000  1.0 0.1068898136
H  H40  1  0.52500000  0.26800000  0.61330000  1.0 0.0922135615
H  H41  1  0.46470000  0.33550000  0.77830000  1.0 0.0922135615
H  H42  1  0.46490000  0.22830000  0.88500000  1.0 0.0710875283
H  H43  1  0.64850000  0.99670000  0.73890000  1.0 0.0797034757
H  H44  1  0.57530000  0.06790000  0.59870000  1.0 0.0710875283
H  H45  1  0.52380000  0.15140000  0.60820000  1.0 0.0922135615
H  H46  1  0.67770000  0.03890000  0.73460000  1.0 0.0797034757
H  H47  1  0.59930000  0.09970000  0.59030000  1.0 0.0797034757
H  H48  1  0.52970000  0.17170000  0.59210000  1.0 0.0797034757
H  H49  1  0.52160000  0.34480000  0.78180000  1.0 0.0797034757
H  H50  1  0.52550000  0.24470000  0.90640000  1.0 0.0797034757
H  H51  1  0.52220000  0.24740000  0.60670000  1.0 0.0797034757
H  H52  1  0.73080000  0.94420000  0.15020000  1.0 0.1068898136
H  H53  1  0.83660000  0.94600000  0.14480000  1.0 0.1068898136
H  H54  1  0.77010000  0.05270000  0.85900000  1.0 0.0998839851
H  H55  1  0.97640000  0.76180000  0.13320000  1.0 0.0998839851
H  H56  1  0.03240000  0.73200000  0.89080000  1.0 0.1068898136
H  H57  1  0.02850000  0.83770000  0.89350000  1.0 0.1068898136
H  H58  1  0.26800000  0.52500000  0.38670000  1.0 0.0922135615
H  H59  1  0.33550000  0.46470000  0.22170000  1.0 0.0922135615
H  H60  1  0.22830000  0.46490000  0.11500000  1.0 0.0710875283
H  H61  1  0.99670000  0.64850000  0.26110000  1.0 0.0797034757
H  H62  1  0.06790000  0.57530000  0.40130000  1.0 0.0710875283
H  H63  1  0.15140000  0.52380000  0.39180000  1.0 0.0922135615
H  H64  1  0.03890000  0.67770000  0.26540000  1.0 0.0797034757
H  H65  1  0.09970000  0.59930000  0.40970000  1.0 0.0797034757
H  H66  1  0.17170000  0.52970000  0.40790000  1.0 0.0797034757
H  H67  1  0.34480000  0.52160000  0.21820000  1.0 0.0797034757
H  H68  1  0.24470000  0.52550000  0.09360000  1.0 0.0797034757
H  H69  1  0.24740000  0.52220000  0.39330000  1.0 0.0797034757
H  H70  1  0.94420000  0.73080000  0.84980000  1.0 0.1068898136
H  H71  1  0.94600000  0.83660000  0.85520000  1.0 0.1068898136
H  H72  1  0.05270000  0.77010000  0.14100000  1.0 0.0922135615
C  C1  1  0.11850000  0.00230000  0.00340000  1.0 0.4400461456
C  C2  1  0.50580000  0.88480000  0.12100000  1.0 0.3086543322
C  C3  1  0.38210000  0.00470000  0.99430000  1.0 0.3974875128
C  C4  1  0.18970000  0.99790000  0.01360000  1.0 -0.0417056252
C  C5  1  0.24420000  0.01240000  0.08460000  1.0 -0.0230211618
C  C6  1  0.30760000  0.01000000  0.08310000  1.0 0.0192066699
C  C7  1  0.31650000  0.99330000  0.01040000  1.0 -0.0519657083
C  C8  1  0.26200000  0.97880000  0.93940000  1.0 -0.0417056252
C  C9  1  0.19870000  0.98110000  0.94110000  1.0 -0.0519657083
C  C10  1  0.50200000  0.62020000  0.38550000  1.0 0.425692766
C  C11  1  0.48679000  0.80421000  0.26818000  1.0 -0.1207651282
C  C12  1  0.48700000  0.74000000  0.33210000  1.0 -0.0519657083
C  C13  1  0.50520000  0.68760000  0.31480000  1.0 0.032214379
C  C14  1  0.52310000  0.69950000  0.23330000  1.0 -0.0716315588
C  C15  1  0.52300000  0.76380000  0.16940000  1.0 -0.0780738425
C  C16  1  0.50470000  0.81610000  0.18670000  1.0 0.0408760148
C  C17  1  0.35920000  0.96240000  0.16770000  1.0 0.0408760148
C  C18  1  0.37220000  0.96980000  0.25740000  1.0 -0.0916616442
C  C19  1  0.41600000  0.92720000  0.34120000  1.0 -0.0322499221
C  C20  1  0.44690000  0.87710000  0.33570000  1.0 -0.0716315588
C  C21  1  0.43400000  0.86960000  0.24620000  1.0 0.0922135615
C  C22  1  0.34490000  0.92550000  0.17710000  1.0 0.0797034757
C  C23  1  0.35020000  0.93220000  0.26470000  1.0 -0.1014752602
C  C24  1  0.39720000  0.89580000  0.35120000  1.0 -0.0603018417
C  C25  1  0.43890000  0.85270000  0.35000000  1.0 -0.0603018417
C  C26  1  0.43360000  0.84600000  0.26250000  1.0 0.0496918112
C  C27  1  0.30120000  0.97020000  0.07930000  1.0 0.0192066699
C  C28  1  0.47850000  0.69390000  0.31820000  1.0 0.0496918112
C  C29  1  0.47740000  0.69480000  0.22820000  1.0 -0.0780738425
C  C30  1  0.47510000  0.75470000  0.15370000  1.0 -0.0417056252
C  C31  1  0.47380000  0.81380000  0.16890000  1.0 0.0408760148
C  C32  1  0.47478000  0.81302000  0.25866000  1.0 -0.1121387752
C  C33  1  0.47710000  0.75310000  0.33333333  1.0 -0.127737917
C  C34  1  0.50140000  0.88480000  0.09560000  1.0 0.3430477073
C  C35  1  0.26130000  0.03410000  0.90810000  1.0 -0.0230211618
C  C36  1  0.19790000  0.03290000  0.91140000  1.0 -0.0052745365
C  C37  1  0.23780000  0.96920000  0.08250000  1.0 -0.0780738425
C  C38  1  0.31290000  0.00270000  0.99200000  1.0 -0.0716315588
C  C39  1  0.18610000  0.00050000  0.99850000  1.0 -0.0417056252
C  C40  1  0.00230000  0.11850000  0.99660000  1.0 0.4400461456
C  C41  1  0.88480000  0.50580000  0.87900000  1.0 0.3086543322
C  C42  1  0.00470000  0.38210000  0.00570000  1.0 0.3974875128
C  C43  1  0.99790000  0.18970000  0.98640000  1.0 -0.0322499221
C  C44  1  0.01240000  0.24420000  0.91540000  1.0 -0.0230211618
C  C45  1  0.01000000  0.30760000  0.91690000  1.0 0.0192066699
C  C46  1  0.99330000  0.31650000  0.98960000  1.0 -0.0519657083
C  C47  1  0.97880000  0.26200000  0.06060000  1.0 -0.0417056252
C  C48  1  0.98110000  0.19870000  0.05890000  1.0 -0.0519657083
C  C49  1  0.62020000  0.50200000  0.61450000  1.0 0.425692766
C  C50  1  0.80421000  0.48679000  0.73182000  1.0 -0.1207651282
C  C51  1  0.74000000  0.48700000  0.66790000  1.0 -0.0603018417
C  C52  1  0.68760000  0.50520000  0.68520000  1.0 0.032214379
C  C53  1  0.69950000  0.52310000  0.76670000  1.0 -0.0716315588
C  C54  1  0.76380000  0.52300000  0.83060000  1.0 -0.0780738425
C  C55  1  0.81610000  0.50470000  0.81330000  1.0 0.0408760148
C  C56  1  0.96240000  0.35920000  0.83230000  1.0 0.0408760148
C  C57  1  0.96980000  0.37220000  0.74260000  1.0 -0.0916616442
C  C58  1  0.92720000  0.41600000  0.65880000  1.0 -0.0322499221
C  C59  1  0.87710000  0.44690000  0.66430000  1.0 -0.0716315588
C  C60  1  0.86960000  0.43400000  0.75380000  1.0 0.0922135615
C  C61  1  0.92550000  0.34490000  0.82290000  1.0 0.0797034757
C  C62  1  0.93220000  0.35020000  0.73530000  1.0 -0.1014752602
C  C63  1  0.89580000  0.39720000  0.64880000  1.0 -0.0603018417
C  C64  1  0.85270000  0.43890000  0.65000000  1.0 -0.0603018417
C  C65  1  0.84600000  0.43360000  0.73750000  1.0 0.0496918112
C  C66  1  0.97020000  0.30120000  0.92070000  1.0 0.0192066699
C  C67  1  0.69390000  0.47850000  0.68180000  1.0 0.0496918112
C  C68  1  0.69480000  0.47740000  0.77180000  1.0 -0.0780738425
C  C69  1  0.75470000  0.47510000  0.84630000  1.0 -0.0519657083
C  C70  1  0.81380000  0.47380000  0.83110000  1.0 0.0408760148
C  C71  1  0.81302000  0.47478000  0.74134000  1.0 -0.1121387752
C  C72  1  0.75310000  0.47710000  0.66666667  1.0 -0.127737917
C  C73  1  0.88480000  0.50140000  0.90440000  1.0 0.3430477073
C  C74  1  0.03410000  0.26130000  0.09190000  1.0 -0.0230211618
C  C75  1  0.03290000  0.19790000  0.08860000  1.0 -0.0047178692
C  C76  1  0.96920000  0.23780000  0.91750000  1.0 -0.0780738425
C  C77  1  0.00270000  0.31290000  0.00800000  1.0 -0.0603018417
C  C78  1  0.00050000  0.18610000  0.00150000  1.0 -0.0417056252
C  C79  1  0.88150000  0.99770000  0.99660000  1.0 0.4400461456
C  C80  1  0.49420000  0.11520000  0.87900000  1.0 0.3086543322
C  C81  1  0.61790000  0.99530000  0.00570000  1.0 0.3974875128
C  C82  1  0.81030000  0.00210000  0.98640000  1.0 -0.0417056252
C  C83  1  0.75580000  0.98760000  0.91540000  1.0 -0.0230211618
C  C84  1  0.69240000  0.99000000  0.91690000  1.0 0.0192066699
C  C85  1  0.68350000  0.00670000  0.98960000  1.0 -0.0519657083
C  C86  1  0.73800000  0.02120000  0.06060000  1.0 -0.0417056252
C  C87  1  0.80130000  0.01890000  0.05890000  1.0 -0.0519657083
C  C88  1  0.49800000  0.37980000  0.61450000  1.0 0.425692766
C  C89  1  0.51321000  0.19579000  0.73182000  1.0 -0.1207651282
C  C90  1  0.51300000  0.26000000  0.66790000  1.0 -0.0603018417
C  C91  1  0.49480000  0.31240000  0.68520000  1.0 0.032214379
C  C92  1  0.47690000  0.30050000  0.76670000  1.0 -0.0716315588
C  C93  1  0.47700000  0.23620000  0.83060000  1.0 -0.0780738425
C  C94  1  0.49530000  0.18390000  0.81330000  1.0 0.0408760148
C  C95  1  0.64080000  0.03760000  0.83230000  1.0 0.0408760148
C  C96  1  0.62780000  0.03020000  0.74260000  1.0 -0.0916616442
C  C97  1  0.58400000  0.07280000  0.65880000  1.0 -0.0322499221
C  C98  1  0.55310000  0.12290000  0.66430000  1.0 -0.0716315588
C  C99  1  0.56600000  0.13040000  0.75380000  1.0 0.0922135615
C  C100  1  0.65510000  0.07450000  0.82290000  1.0 0.0797034757
C  C101  1  0.64980000  0.06780000  0.73530000  1.0 -0.1014752602
C  C102  1  0.60280000  0.10420000  0.64880000  1.0 -0.0603018417
C  C103  1  0.56110000  0.14730000  0.65000000  1.0 -0.0603018417
C  C104  1  0.56640000  0.15400000  0.73750000  1.0 0.0496918112
C  C105  1  0.69880000  0.02980000  0.92070000  1.0 0.0192066699
C  C106  1  0.52150000  0.30610000  0.68180000  1.0 0.0496918112
C  C107  1  0.52260000  0.30520000  0.77180000  1.0 -0.0780738425
C  C108  1  0.52490000  0.24530000  0.84630000  1.0 -0.0519657083
C  C109  1  0.52620000  0.18620000  0.83110000  1.0 0.0408760148
C  C110  1  0.52522000  0.18698000  0.74134000  1.0 -0.1121387752
C  C111  1  0.52290000  0.24690000  0.66666667  1.0 -0.127737917
C  C112  1  0.49860000  0.11520000  0.90440000  1.0 0.3430477073
C  C113  1  0.73870000  0.96590000  0.09190000  1.0 -0.0230211618
C  C114  1  0.80210000  0.96710000  0.08860000  1.0 -0.0047178692
C  C115  1  0.76220000  0.03080000  0.91750000  1.0 -0.0780738425
C  C116  1  0.68710000  0.99730000  0.00800000  1.0 -0.0603018417
C  C117  1  0.81390000  0.99950000  0.00150000  1.0 -0.0417056252
C  C118  1  0.99770000  0.88150000  0.00340000  1.0 0.4400461456
C  C119  1  0.11520000  0.49420000  0.12100000  1.0 0.3035576185
C  C120  1  0.99530000  0.61790000  0.99430000  1.0 0.3974875128
C  C121  1  0.00210000  0.81030000  0.01360000  1.0 -0.0417056252
C  C122  1  0.98760000  0.75580000  0.08460000  1.0 -0.0230211618
C  C123  1  0.99000000  0.69240000  0.08310000  1.0 0.0192066699
C  C124  1  0.00670000  0.68350000  0.01040000  1.0 -0.0519657083
C  C125  1  0.02120000  0.73800000  0.93940000  1.0 -0.0519657083
C  C126  1  0.01890000  0.80130000  0.94110000  1.0 -0.0519657083
C  C127  1  0.37980000  0.49800000  0.38550000  1.0 0.425692766
C  C128  1  0.19579000  0.51321000  0.26818000  1.0 -0.1207651282
C  C129  1  0.26000000  0.51300000  0.33210000  1.0 -0.0519657083
C  C130  1  0.31240000  0.49480000  0.31480000  1.0 0.032214379
C  C131  1  0.30050000  0.47690000  0.23330000  1.0 -0.0716315588
C  C132  1  0.23620000  0.47700000  0.16940000  1.0 -0.0780738425
C  C133  1  0.18390000  0.49530000  0.18670000  1.0 0.0408760148
C  C134  1  0.03760000  0.64080000  0.16770000  1.0 0.0408760148
C  C135  1  0.03020000  0.62780000  0.25740000  1.0 -0.0916616442
C  C136  1  0.07280000  0.58400000  0.34120000  1.0 -0.0322499221
C  C137  1  0.12290000  0.55310000  0.33570000  1.0 -0.0716315588
C  C138  1  0.13040000  0.56600000  0.24620000  1.0 0.0922135615
C  C139  1  0.07450000  0.65510000  0.17710000  1.0 0.0797034757
C  C140  1  0.06780000  0.64980000  0.26470000  1.0 -0.1014752602
C  C141  1  0.10420000  0.60280000  0.35120000  1.0 -0.0603018417
C  C142  1  0.14730000  0.56110000  0.35000000  1.0 -0.0603018417
C  C143  1  0.15400000  0.56640000  0.26250000  1.0 0.0496918112
C  C144  1  0.02980000  0.69880000  0.07930000  1.0 0.0192066699
C  C145  1  0.30610000  0.52150000  0.31820000  1.0 0.0496918112
C  C146  1  0.30520000  0.52260000  0.22820000  1.0 -0.0780738425
C  C147  1  0.24530000  0.52490000  0.15370000  1.0 -0.0519657083
C  C148  1  0.18620000  0.52620000  0.16890000  1.0 0.0408760148
C  C149  1  0.18698000  0.52522000  0.25866000  1.0 -0.1121387752
C  C150  1  0.24690000  0.52290000  0.33333333  1.0 -0.127737917
C  C151  1  0.11520000  0.49860000  0.09560000  1.0 0.3430477073
C  C152  1  0.96590000  0.73870000  0.90810000  1.0 -0.0230211618
C  C153  1  0.96710000  0.80210000  0.91140000  1.0 -0.0047178692
C  C154  1  0.03080000  0.76220000  0.08250000  1.0 -0.0716315588
C  C155  1  0.99730000  0.68710000  0.99200000  1.0 -0.0603018417
C  C156  1  0.99950000  0.81390000  0.99850000  1.0 -0.0417056252
N  N1  1  0.39010000  0.91230000  0.16210000  1.0 -0.0603018417
N  N2  1  0.38660000  0.88240000  0.17600000  1.0 -0.1014752602
N  N3  1  0.91230000  0.39010000  0.83790000  1.0 -0.0603018417
N  N4  1  0.88240000  0.38660000  0.82400000  1.0 -0.1014752602
N  N5  1  0.60990000  0.08770000  0.83790000  1.0 -0.0603018417
N  N6  1  0.61340000  0.11760000  0.82400000  1.0 -0.1014752602
N  N7  1  0.08770000  0.60990000  0.16210000  1.0 -0.0603018417
N  N8  1  0.11760000  0.61340000  0.17600000  1.0 -0.1014752602
O  O1  1  0.38954000  0.98608000  0.93216000  1.0 -0.509459422
O  O2  1  0.42777000  0.02429000  0.05638000  1.0 -0.5291298339
O  O3  1  0.07184000  0.02342000  0.91852000  1.0 -0.5370248714
O  O4  1  0.52401000  0.57241000  0.37070000  1.0 -0.5291298339
O  O5  1  0.52550000  0.93110000  0.15940000  1.0 -0.2301942902
O  O6  1  0.10932000  0.98544000  0.08228000  1.0 -0.4691301072
O  O7  1  0.48790000  0.89210000  0.03330000  1.0 -0.127737917
O  O8  1  0.48655000  0.61013000  0.45842000  1.0 -0.460212023
O  O9  1  0.51930000  0.91970000  0.13660000  1.0 0.0031631651
O  O10  1  0.47960000  0.88620000  0.00940000  1.0 -0.2615493546
O  O11  1  0.98608000  0.38954000  0.06784000  1.0 -0.509459422
O  O12  1  0.02429000  0.42777000  0.94362000  1.0 -0.5291298339
O  O13  1  0.02342000  0.07184000  0.08148000  1.0 -0.5370248714
O  O14  1  0.57241000  0.52401000  0.62930000  1.0 -0.5291298339
O  O15  1  0.93110000  0.52550000  0.84060000  1.0 -0.2301942902
O  O16  1  0.98544000  0.10932000  0.91772000  1.0 -0.4691301072
O  O17  1  0.89210000  0.48790000  0.96670000  1.0 -0.127737917
O  O18  1  0.61013000  0.48655000  0.54158000  1.0 -0.460212023
O  O19  1  0.91970000  0.51930000  0.86340000  1.0 0.0031631651
O  O20  1  0.88620000  0.47960000  0.99060000  1.0 -0.2650472382
O  O21  1  0.61046000  0.01392000  0.06784000  1.0 -0.509459422
O  O22  1  0.57223000  0.97571000  0.94362000  1.0 -0.5291298339
O  O23  1  0.92816000  0.97658000  0.08148000  1.0 -0.5370248714
O  O24  1  0.47599000  0.42759000  0.62930000  1.0 -0.5291298339
O  O25  1  0.47450000  0.06890000  0.84060000  1.0 -0.2301942902
O  O26  1  0.89068000  0.01456000  0.91772000  1.0 -0.4691301072
O  O27  1  0.51210000  0.10790000  0.96670000  1.0 -0.127737917
O  O28  1  0.51345000  0.38987000  0.54158000  1.0 -0.460212023
O  O29  1  0.48070000  0.08030000  0.86340000  1.0 0.0067803403
O  O30  1  0.52040000  0.11380000  0.99060000  1.0 -0.2650472382
O  O31  1  0.01392000  0.61046000  0.93216000  1.0 -0.509459422
O  O32  1  0.97571000  0.57223000  0.05638000  1.0 -0.5291298339
O  O33  1  0.97658000  0.92816000  0.91852000  1.0 -0.5370248714
O  O34  1  0.42759000  0.47599000  0.37070000  1.0 -0.5291298339
O  O35  1  0.06890000  0.47450000  0.15940000  1.0 -0.2301942902
O  O36  1  0.01456000  0.89068000  0.08228000  1.0 -0.4691301072
O  O37  1  0.10790000  0.51210000  0.03330000  1.0 -0.127737917
O  O38  1  0.38987000  0.51345000  0.45842000  1.0 -0.460212023
O  O39  1  0.08030000  0.48070000  0.13660000  1.0 0.0031631651
O  O40  1  0.11380000  0.52040000  0.00940000  1.0 -0.2615493546
