# DDEC6 charges by PACMAN v1.1 (https://github.com/mtap-research/PACMAN-charge/)
data_NUYNED_ASR_pacman
_symmetry_space_group_name_H-M   'P 1'
_cell_length_a   6.55410000
_cell_length_b   18.01790000
_cell_length_c   12.33580000
_cell_angle_alpha   90.00000000
_cell_angle_beta   117.97700000
_cell_angle_gamma   90.00000000
_symmetry_Int_Tables_number   1
_chemical_formula_structural   CuH10C16(NO)4
_chemical_formula_sum   'Cu2 H20 C32 N8 O8'
_cell_volume   1286.50694148
_cell_formula_units_Z   2
loop_
 _symmetry_equiv_pos_site_id
 _symmetry_equiv_pos_as_xyz
  1  'x, y, z'
loop_
 _atom_site_type_symbol
 _atom_site_label
 _atom_site_symmetry_multiplicity
 _atom_site_fract_x
 _atom_site_fract_y
 _atom_site_fract_z
 _atom_site_occupancy
 _atom_site_charge
Cu  Cu1  1  0.00000000  0.00000000  0.00000000  1.0 0.7293482191
Cu  Cu2  1  0.00000000  0.50000000  0.50000000  1.0 0.7293482191
H  H1  1  0.67610000  0.36970000  0.29660000  1.0 0.1291604853
H  H2  1  0.48580000  0.25970000  0.41210000  1.0 0.1392040915
H  H3  1  0.67900000  0.22910000  0.17490000  1.0 0.1291604853
H  H4  1  0.33130000  0.15780000  0.28520000  1.0 0.1291604853
H  H5  1  0.33820000  0.38700000  0.48430000  1.0 0.2985676891
H  H6  1  0.32390000  0.86970000  0.20340000  1.0 0.1291604853
H  H7  1  0.51420000  0.75970000  0.08790000  1.0 0.1392040915
H  H8  1  0.32100000  0.72910000  0.32510000  1.0 0.1291604853
H  H9  1  0.66870000  0.65780000  0.21480000  1.0 0.1291604853
H  H10  1  0.66180000  0.88700000  0.01570000  1.0 0.2985676891
H  H11  1  0.32390000  0.63030000  0.70340000  1.0 0.1291604853
H  H12  1  0.51420000  0.74030000  0.58790000  1.0 0.1392040915
H  H13  1  0.32100000  0.77090000  0.82510000  1.0 0.1291604853
H  H14  1  0.66870000  0.84220000  0.71480000  1.0 0.1291604853
H  H15  1  0.66180000  0.61300000  0.51570000  1.0 0.2985676891
H  H16  1  0.67610000  0.13030000  0.79660000  1.0 0.1291604853
H  H17  1  0.48580000  0.24030000  0.91210000  1.0 0.1392040915
H  H18  1  0.67900000  0.27090000  0.67490000  1.0 0.1291604853
H  H19  1  0.33130000  0.34220000  0.78520000  1.0 0.1291604853
H  H20  1  0.33820000  0.11300000  0.98430000  1.0 0.2985676891
C  C1  1  0.83316000  0.35991000  0.32906000  1.0 -0.0266418475
C  C2  1  0.92870000  0.29661000  0.30050000  1.0 -0.010030019
C  C3  1  0.16976000  0.30525000  0.37086000  1.0 0.157820697
C  C4  1  0.32689000  0.25351000  0.36609000  1.0 -0.1770976046
C  C5  1  0.83769000  0.23514000  0.22229000  1.0 -0.1483070636
C  C6  1  0.99055000  0.18382000  0.21775000  1.0 -0.0167334938
C  C7  1  0.23288000  0.19342000  0.28978000  1.0 -0.0926556055
C  C8  1  0.89643000  0.11824000  0.13303000  1.0 0.5637333459
C  C9  1  0.16684000  0.85991000  0.17094000  1.0 -0.0266418475
C  C10  1  0.07130000  0.79661000  0.19950000  1.0 -0.010030019
C  C11  1  0.83024000  0.80525000  0.12914000  1.0 0.157820697
C  C12  1  0.67311000  0.75351000  0.13391000  1.0 -0.1770976046
C  C13  1  0.16231000  0.73514000  0.27771000  1.0 -0.1483070636
C  C14  1  0.00945000  0.68382000  0.28225000  1.0 -0.0167334938
C  C15  1  0.76712000  0.69342000  0.21022000  1.0 -0.0926556055
C  C16  1  0.10357000  0.61824000  0.36697000  1.0 0.5637333459
C  C17  1  0.16684000  0.64009000  0.67094000  1.0 -0.0266418475
C  C18  1  0.07130000  0.70339000  0.69950000  1.0 -0.010030019
C  C19  1  0.83024000  0.69475000  0.62914000  1.0 0.157820697
C  C20  1  0.67311000  0.74649000  0.63391000  1.0 -0.1770976046
C  C21  1  0.16231000  0.76486000  0.77771000  1.0 -0.1483070636
C  C22  1  0.00945000  0.81618000  0.78225000  1.0 -0.0167334938
C  C23  1  0.76712000  0.80658000  0.71022000  1.0 -0.0926556055
C  C24  1  0.10357000  0.88176000  0.86697000  1.0 0.5637333459
C  C25  1  0.83316000  0.14009000  0.82906000  1.0 -0.0266418475
C  C26  1  0.92870000  0.20339000  0.80050000  1.0 -0.010030019
C  C27  1  0.16976000  0.19475000  0.87086000  1.0 0.157820697
C  C28  1  0.32689000  0.24649000  0.86609000  1.0 -0.1770976046
C  C29  1  0.83769000  0.26486000  0.72229000  1.0 -0.1483070636
C  C30  1  0.99055000  0.31618000  0.71775000  1.0 -0.0167334938
C  C31  1  0.23288000  0.30658000  0.78978000  1.0 -0.0926556055
C  C32  1  0.89643000  0.38176000  0.63303000  1.0 0.5637333459
N  N1  1  0.00049000  0.40274000  0.40849000  1.0 -0.1740374686
N  N2  1  0.20462000  0.36955000  0.43432000  1.0 -0.141006031
N  N3  1  0.99951000  0.90274000  0.09151000  1.0 -0.1740374686
N  N4  1  0.79538000  0.86955000  0.06568000  1.0 -0.141006031
N  N5  1  0.99951000  0.59726000  0.59151000  1.0 -0.1740374686
N  N6  1  0.79538000  0.63045000  0.56568000  1.0 -0.141006031
N  N7  1  0.00049000  0.09726000  0.90849000  1.0 -0.1740374686
N  N8  1  0.20462000  0.13045000  0.93432000  1.0 -0.141006031
O  O1  1  0.03778000  0.06692000  0.14438000  1.0 -0.5462720328
O  O2  1  0.68533000  0.11893000  0.05653000  1.0 -0.5787002229
O  O3  1  0.96222000  0.56692000  0.35562000  1.0 -0.5462720328
O  O4  1  0.31467000  0.61893000  0.44347000  1.0 -0.5787002229
O  O5  1  0.96222000  0.93308000  0.85562000  1.0 -0.5462720328
O  O6  1  0.31467000  0.88107000  0.94347000  1.0 -0.5787002229
O  O7  1  0.03778000  0.43308000  0.64438000  1.0 -0.5462720328
O  O8  1  0.68533000  0.38107000  0.55653000  1.0 -0.5787002229
