# DDEC6 charges by PACMAN v1.1 (https://github.com/mtap-research/PACMAN-charge/)
data_NUZCIV_ASR_pacman
_symmetry_space_group_name_H-M   'P 1'
_cell_length_a   15.42530000
_cell_length_b   15.42530000
_cell_length_c   15.42530000
_cell_angle_alpha   105.16300000
_cell_angle_beta   105.16300000
_cell_angle_gamma   105.16300000
_symmetry_Int_Tables_number   1
_chemical_formula_structural   Co2H6C8S4N13O4
_chemical_formula_sum   'Co12 H36 C48 S24 N78 O24'
_cell_volume   3197.49560102
_cell_formula_units_Z   6
loop_
 _symmetry_equiv_pos_site_id
 _symmetry_equiv_pos_as_xyz
  1  'x, y, z'
loop_
 _atom_site_type_symbol
 _atom_site_label
 _atom_site_symmetry_multiplicity
 _atom_site_fract_x
 _atom_site_fract_y
 _atom_site_fract_z
 _atom_site_occupancy
 _atom_site_charge
Co  Co1  1  0.57553000  0.12717000  0.79031000  1.0 0.7567653589
Co  Co2  1  0.12717000  0.79031000  0.57553000  1.0 0.7567653589
Co  Co3  1  0.79031000  0.57553000  0.12717000  1.0 0.7567653589
Co  Co4  1  0.92447000  0.70969000  0.37283000  1.0 0.7567653589
Co  Co5  1  0.37283000  0.92447000  0.70969000  1.0 0.7567653589
Co  Co6  1  0.70969000  0.37283000  0.92447000  1.0 0.7567653589
Co  Co7  1  0.42447000  0.87283000  0.20969000  1.0 0.7567653589
Co  Co8  1  0.87283000  0.20969000  0.42447000  1.0 0.7567653589
Co  Co9  1  0.20969000  0.42447000  0.87283000  1.0 0.7567653589
Co  Co10  1  0.07553000  0.29031000  0.62717000  1.0 0.7567653589
Co  Co11  1  0.62717000  0.07553000  0.29031000  1.0 0.7567653589
Co  Co12  1  0.29031000  0.62717000  0.07553000  1.0 0.7567653589
H  H1  1  0.13600000  0.54500000  0.16960000  1.0 0.1454842756
H  H2  1  0.54500000  0.16960000  0.13600000  1.0 0.1454842756
H  H3  1  0.16960000  0.13600000  0.54500000  1.0 0.1454842756
H  H4  1  0.36400000  0.33040000  0.95500000  1.0 0.1454842756
H  H5  1  0.95500000  0.36400000  0.33040000  1.0 0.1454842756
H  H6  1  0.33040000  0.95500000  0.36400000  1.0 0.1454842756
H  H7  1  0.86400000  0.45500000  0.83040000  1.0 0.1454842756
H  H8  1  0.45500000  0.83040000  0.86400000  1.0 0.1454842756
H  H9  1  0.83040000  0.86400000  0.45500000  1.0 0.1454842756
H  H10  1  0.63600000  0.66960000  0.04500000  1.0 0.1454842756
H  H11  1  0.04500000  0.63600000  0.66960000  1.0 0.1454842756
H  H12  1  0.66960000  0.04500000  0.63600000  1.0 0.1454842756
H  H13  1  0.91830000  0.20030000  0.94750000  1.0 0.1454842756
H  H14  1  0.20030000  0.94750000  0.91830000  1.0 0.1454842756
H  H15  1  0.94750000  0.91830000  0.20030000  1.0 0.1454842756
H  H16  1  0.58170000  0.55250000  0.29970000  1.0 0.1454842756
H  H17  1  0.29970000  0.58170000  0.55250000  1.0 0.1454842756
H  H18  1  0.55250000  0.29970000  0.58170000  1.0 0.1454842756
H  H19  1  0.08170000  0.79970000  0.05250000  1.0 0.1454842756
H  H20  1  0.79970000  0.05250000  0.08170000  1.0 0.1454842756
H  H21  1  0.05250000  0.08170000  0.79970000  1.0 0.1454842756
H  H22  1  0.41830000  0.44750000  0.70030000  1.0 0.1454842756
H  H23  1  0.70030000  0.41830000  0.44750000  1.0 0.1454842756
H  H24  1  0.44750000  0.70030000  0.41830000  1.0 0.1454842756
H  H25  1  0.87340000  0.12960000  0.84050000  1.0 0.1591212334
H  H26  1  0.12960000  0.84050000  0.87340000  1.0 0.1591212334
H  H27  1  0.84050000  0.87340000  0.12960000  1.0 0.1591212334
H  H28  1  0.62660000  0.65950000  0.37040000  1.0 0.1591212334
H  H29  1  0.37040000  0.62660000  0.65950000  1.0 0.1591212334
H  H30  1  0.65950000  0.37040000  0.62660000  1.0 0.1591212334
H  H31  1  0.12660000  0.87040000  0.15950000  1.0 0.1591212334
H  H32  1  0.87040000  0.15950000  0.12660000  1.0 0.1591212334
H  H33  1  0.15950000  0.12660000  0.87040000  1.0 0.1591212334
H  H34  1  0.37340000  0.34050000  0.62960000  1.0 0.1591212334
H  H35  1  0.62960000  0.37340000  0.34050000  1.0 0.1591212334
H  H36  1  0.34050000  0.62960000  0.37340000  1.0 0.1591212334
C  C1  1  0.79525000  0.21474000  0.87161000  1.0 0.6346463891
C  C2  1  0.21474000  0.87161000  0.79525000  1.0 0.6350105735
C  C3  1  0.87161000  0.79525000  0.21474000  1.0 0.6346463891
C  C4  1  0.70475000  0.62839000  0.28526000  1.0 0.6346463891
C  C5  1  0.28526000  0.70475000  0.62839000  1.0 0.6350105735
C  C6  1  0.62839000  0.28526000  0.70475000  1.0 0.6350105735
C  C7  1  0.20475000  0.78526000  0.12839000  1.0 0.6350105735
C  C8  1  0.78526000  0.12839000  0.20475000  1.0 0.6346463891
C  C9  1  0.12839000  0.20475000  0.78526000  1.0 0.6346463891
C  C10  1  0.29525000  0.37161000  0.71474000  1.0 0.6350105735
C  C11  1  0.71474000  0.29525000  0.37161000  1.0 0.6350105735
C  C12  1  0.37161000  0.71474000  0.29525000  1.0 0.6350105735
C  C13  1  0.04012000  0.37218000  0.95710000  1.0 0.0892545296
C  C14  1  0.37218000  0.95710000  0.04012000  1.0 0.0892545296
C  C15  1  0.95710000  0.04012000  0.37218000  1.0 0.0892545296
C  C16  1  0.45988000  0.54290000  0.12782000  1.0 0.0892545296
C  C17  1  0.12782000  0.45988000  0.54290000  1.0 0.0892545296
C  C18  1  0.54290000  0.12782000  0.45988000  1.0 0.0892545296
C  C19  1  0.95988000  0.62782000  0.04290000  1.0 0.0892545296
C  C20  1  0.62782000  0.04290000  0.95988000  1.0 0.0892545296
C  C21  1  0.04290000  0.95988000  0.62782000  1.0 0.0892545296
C  C22  1  0.54012000  0.45710000  0.87218000  1.0 0.0892545296
C  C23  1  0.87218000  0.54012000  0.45710000  1.0 0.0892545296
C  C24  1  0.45710000  0.87218000  0.54012000  1.0 0.0892545296
C  C25  1  0.11570000  0.50050000  0.10780000  1.0 -0.0321823326
C  C26  1  0.50050000  0.10780000  0.11570000  1.0 -0.0321823326
C  C27  1  0.10780000  0.11570000  0.50050000  1.0 -0.0321823326
C  C28  1  0.38430000  0.39220000  0.99950000  1.0 -0.0321823326
C  C29  1  0.99950000  0.38430000  0.39220000  1.0 -0.0321823326
C  C30  1  0.39220000  0.99950000  0.38430000  1.0 -0.0321823326
C  C31  1  0.88430000  0.49950000  0.89220000  1.0 -0.0321823326
C  C32  1  0.49950000  0.89220000  0.88430000  1.0 -0.0321823326
C  C33  1  0.89220000  0.88430000  0.49950000  1.0 -0.0321823326
C  C34  1  0.61570000  0.60780000  0.00050000  1.0 -0.0321823326
C  C35  1  0.00050000  0.61570000  0.60780000  1.0 -0.0321823326
C  C36  1  0.60780000  0.00050000  0.61570000  1.0 -0.0321823326
C  C37  1  0.88830000  0.19500000  0.88170000  1.0 -0.3597484323
C  C38  1  0.19500000  0.88170000  0.88830000  1.0 -0.3597484323
C  C39  1  0.88170000  0.88830000  0.19500000  1.0 -0.3597484323
C  C40  1  0.61170000  0.61830000  0.30500000  1.0 -0.3597484323
C  C41  1  0.30500000  0.61170000  0.61830000  1.0 -0.3597484323
C  C42  1  0.61830000  0.30500000  0.61170000  1.0 -0.3597484323
C  C43  1  0.11170000  0.80500000  0.11830000  1.0 -0.3597484323
C  C44  1  0.80500000  0.11830000  0.11170000  1.0 -0.3597484323
C  C45  1  0.11830000  0.11170000  0.80500000  1.0 -0.3597484323
C  C46  1  0.38830000  0.38170000  0.69500000  1.0 -0.3597484323
C  C47  1  0.69500000  0.38830000  0.38170000  1.0 -0.3597484323
C  C48  1  0.38170000  0.69500000  0.38830000  1.0 -0.3597484323
S  S1  1  0.00851000  0.40581000  0.05729000  1.0 0.1239522817
S  S2  1  0.40581000  0.05729000  0.00851000  1.0 0.1239522817
S  S3  1  0.05729000  0.00851000  0.40581000  1.0 0.1239522817
S  S4  1  0.49149000  0.44271000  0.09419000  1.0 0.1239522817
S  S5  1  0.09419000  0.49149000  0.44271000  1.0 0.1239522817
S  S6  1  0.44271000  0.09419000  0.49149000  1.0 0.1264081331
S  S7  1  0.99149000  0.59419000  0.94271000  1.0 0.1239522817
S  S8  1  0.59419000  0.94271000  0.99149000  1.0 0.1239522817
S  S9  1  0.94271000  0.99149000  0.59419000  1.0 0.1239522817
S  S10  1  0.50851000  0.55729000  0.90581000  1.0 0.1239522817
S  S11  1  0.90581000  0.50851000  0.55729000  1.0 0.1264081331
S  S12  1  0.55729000  0.90581000  0.50851000  1.0 0.1239522817
S  S13  1  0.97202000  0.27626000  0.85073000  1.0 0.0391489054
S  S14  1  0.27626000  0.85073000  0.97202000  1.0 0.0391489054
S  S15  1  0.85073000  0.97202000  0.27626000  1.0 0.0391489054
S  S16  1  0.52798000  0.64927000  0.22374000  1.0 0.0391489054
S  S17  1  0.22374000  0.52798000  0.64927000  1.0 0.0391489054
S  S18  1  0.64927000  0.22374000  0.52798000  1.0 0.0391489054
S  S19  1  0.02798000  0.72374000  0.14927000  1.0 0.0391489054
S  S20  1  0.72374000  0.14927000  0.02798000  1.0 0.0391489054
S  S21  1  0.14927000  0.02798000  0.72374000  1.0 0.0391489054
S  S22  1  0.47202000  0.35073000  0.77626000  1.0 0.0391489054
S  S23  1  0.77626000  0.47202000  0.35073000  1.0 0.0391489054
S  S24  1  0.35073000  0.77626000  0.47202000  1.0 0.0391489054
N  N1  1  0.59655000  0.25000000  0.90345000  1.0 -0.5281180727
N  N2  1  0.25000000  0.90345000  0.59655000  1.0 -0.5281180727
N  N3  1  0.90345000  0.59655000  0.25000000  1.0 -0.5240944493
N  N4  1  0.40345000  0.75000000  0.09655000  1.0 -0.5240944493
N  N5  1  0.75000000  0.09655000  0.40345000  1.0 -0.5281180727
N  N6  1  0.09655000  0.40345000  0.75000000  1.0 -0.5240944493
N  N7  1  0.12363000  0.42994000  0.96541000  1.0 -0.2309573025
N  N8  1  0.42994000  0.96541000  0.12363000  1.0 -0.2309573025
N  N9  1  0.96541000  0.12363000  0.42994000  1.0 -0.2309573025
N  N10  1  0.37637000  0.53459000  0.07006000  1.0 -0.2309573025
N  N11  1  0.07006000  0.37637000  0.53459000  1.0 -0.2309573025
N  N12  1  0.53459000  0.07006000  0.37637000  1.0 -0.2309573025
N  N13  1  0.87637000  0.57006000  0.03459000  1.0 -0.2309573025
N  N14  1  0.57006000  0.03459000  0.87637000  1.0 -0.2309573025
N  N15  1  0.03459000  0.87637000  0.57006000  1.0 -0.2309573025
N  N16  1  0.62363000  0.46541000  0.92994000  1.0 -0.2309573025
N  N17  1  0.92994000  0.62363000  0.46541000  1.0 -0.2309573025
N  N18  1  0.46541000  0.92994000  0.62363000  1.0 -0.2309573025
N  N19  1  0.16647000  0.50495000  0.05216000  1.0 -0.1056427359
N  N20  1  0.50495000  0.05216000  0.16647000  1.0 -0.1056427359
N  N21  1  0.05216000  0.16647000  0.50495000  1.0 -0.1056427359
N  N22  1  0.33353000  0.44784000  0.99505000  1.0 -0.1056427359
N  N23  1  0.99505000  0.33353000  0.44784000  1.0 -0.1056427359
N  N24  1  0.44784000  0.99505000  0.33353000  1.0 -0.1056427359
N  N25  1  0.83353000  0.49505000  0.94784000  1.0 -0.1056427359
N  N26  1  0.49505000  0.94784000  0.83353000  1.0 -0.1056427359
N  N27  1  0.94784000  0.83353000  0.49505000  1.0 -0.1056427359
N  N28  1  0.66647000  0.55216000  0.00495000  1.0 -0.1056427359
N  N29  1  0.00495000  0.66647000  0.55216000  1.0 -0.1056427359
N  N30  1  0.55216000  0.00495000  0.66647000  1.0 -0.1056427359
N  N31  1  0.42435000  0.07565000  0.75000000  1.0 -0.2746389774
N  N32  1  0.07565000  0.75000000  0.42435000  1.0 -0.2746389774
N  N33  1  0.75000000  0.42435000  0.07565000  1.0 -0.2746389774
N  N34  1  0.57565000  0.92435000  0.25000000  1.0 -0.2746389774
N  N35  1  0.92435000  0.25000000  0.57565000  1.0 -0.2746389774
N  N36  1  0.25000000  0.57565000  0.92435000  1.0 -0.2746389774
N  N37  1  0.54835000  0.25000000  0.95165000  1.0 0.3607547911
N  N38  1  0.25000000  0.95165000  0.54835000  1.0 0.3607547911
N  N39  1  0.95165000  0.54835000  0.25000000  1.0 0.3607547911
N  N40  1  0.45165000  0.75000000  0.04835000  1.0 0.3607547911
N  N41  1  0.75000000  0.04835000  0.45165000  1.0 0.3607547911
N  N42  1  0.04835000  0.45165000  0.75000000  1.0 0.3607547911
N  N43  1  0.47510000  0.24230000  0.97190000  1.0 -0.0788851261
N  N44  1  0.24230000  0.97190000  0.47510000  1.0 -0.0788851261
N  N45  1  0.97190000  0.47510000  0.24230000  1.0 -0.0788851261
N  N46  1  0.02490000  0.52810000  0.25770000  1.0 -0.0788851261
N  N47  1  0.25770000  0.02490000  0.52810000  1.0 -0.0788851261
N  N48  1  0.52810000  0.25770000  0.02490000  1.0 -0.0788851261
N  N49  1  0.52490000  0.75770000  0.02810000  1.0 -0.0788851261
N  N50  1  0.75770000  0.02810000  0.52490000  1.0 -0.0788851261
N  N51  1  0.02810000  0.52490000  0.75770000  1.0 -0.0788851261
N  N52  1  0.97510000  0.47190000  0.74230000  1.0 -0.0788851261
N  N53  1  0.74230000  0.97510000  0.47190000  1.0 -0.0788851261
N  N54  1  0.47190000  0.74230000  0.97510000  1.0 -0.0788851261
N  N55  1  0.38470000  0.12250000  0.79540000  1.0 0.3051234516
N  N56  1  0.12250000  0.79540000  0.38470000  1.0 0.3051234516
N  N57  1  0.79540000  0.38470000  0.12250000  1.0 0.3051234516
N  N58  1  0.11530000  0.70460000  0.37750000  1.0 0.3051234516
N  N59  1  0.37750000  0.11530000  0.70460000  1.0 0.3051234516
N  N60  1  0.70460000  0.37750000  0.11530000  1.0 0.3051234516
N  N61  1  0.61530000  0.87750000  0.20460000  1.0 0.3051234516
N  N62  1  0.87750000  0.20460000  0.61530000  1.0 0.3051234516
N  N63  1  0.20460000  0.61530000  0.87750000  1.0 0.3051234516
N  N64  1  0.88470000  0.29540000  0.62250000  1.0 0.3051234516
N  N65  1  0.62250000  0.88470000  0.29540000  1.0 0.3051234516
N  N66  1  0.29540000  0.62250000  0.88470000  1.0 0.3051234516
N  N67  1  0.34600000  0.16700000  0.83250000  1.0 -0.3321472921
N  N68  1  0.16700000  0.83250000  0.34600000  1.0 -0.3321472921
N  N69  1  0.83250000  0.34600000  0.16700000  1.0 -0.3321472921
N  N70  1  0.15400000  0.66750000  0.33300000  1.0 -0.3321472921
N  N71  1  0.33300000  0.15400000  0.66750000  1.0 -0.3321472921
N  N72  1  0.66750000  0.33300000  0.15400000  1.0 -0.3321472921
N  N73  1  0.65400000  0.83300000  0.16750000  1.0 -0.3321472921
N  N74  1  0.83300000  0.16750000  0.65400000  1.0 -0.3321472921
N  N75  1  0.16750000  0.65400000  0.83300000  1.0 -0.3321472921
N  N76  1  0.84600000  0.33250000  0.66700000  1.0 -0.3321472921
N  N77  1  0.66700000  0.84600000  0.33250000  1.0 -0.3321472921
N  N78  1  0.33250000  0.66700000  0.84600000  1.0 -0.3321472921
O  O1  1  0.71922000  0.14323000  0.81971000  1.0 -0.5119259325
O  O2  1  0.14323000  0.81971000  0.71922000  1.0 -0.5119259325
O  O3  1  0.81971000  0.71922000  0.14323000  1.0 -0.5119259325
O  O4  1  0.78078000  0.68029000  0.35677000  1.0 -0.5119259325
O  O5  1  0.35677000  0.78078000  0.68029000  1.0 -0.5119259325
O  O6  1  0.68029000  0.35677000  0.78078000  1.0 -0.5119259325
O  O7  1  0.28078000  0.85677000  0.18029000  1.0 -0.5119259325
O  O8  1  0.85677000  0.18029000  0.28078000  1.0 -0.5119259325
O  O9  1  0.18029000  0.28078000  0.85677000  1.0 -0.5119259325
O  O10  1  0.21922000  0.31971000  0.64323000  1.0 -0.5119259325
O  O11  1  0.64323000  0.21922000  0.31971000  1.0 -0.5119259325
O  O12  1  0.31971000  0.64323000  0.21922000  1.0 -0.5119259325
O  O13  1  0.80293000  0.29789000  0.91590000  1.0 -0.5281180727
O  O14  1  0.29789000  0.91590000  0.80293000  1.0 -0.5281180727
O  O15  1  0.91590000  0.80293000  0.29789000  1.0 -0.5281180727
O  O16  1  0.69707000  0.58410000  0.20211000  1.0 -0.5281180727
O  O17  1  0.20211000  0.69707000  0.58410000  1.0 -0.5281180727
O  O18  1  0.58410000  0.20211000  0.69707000  1.0 -0.5281180727
O  O19  1  0.19707000  0.70211000  0.08410000  1.0 -0.5281180727
O  O20  1  0.70211000  0.08410000  0.19707000  1.0 -0.5281180727
O  O21  1  0.08410000  0.19707000  0.70211000  1.0 -0.5281180727
O  O22  1  0.30293000  0.41590000  0.79789000  1.0 -0.5281180727
O  O23  1  0.79789000  0.30293000  0.41590000  1.0 -0.5281180727
O  O24  1  0.41590000  0.79789000  0.30293000  1.0 -0.5281180727
