# DDEC6 charges by PACMAN v1.1 (https://github.com/mtap-research/PACMAN-charge/)
data_NUZCER_ASR_pacman
_symmetry_space_group_name_H-M   'P 1'
_cell_length_a   15.32100000
_cell_length_b   15.32100000
_cell_length_c   15.32100000
_cell_angle_alpha   105.19700000
_cell_angle_beta   105.19700000
_cell_angle_gamma   105.19700000
_symmetry_Int_Tables_number   1
_chemical_formula_structural   Ni2H6C8S4N13O4
_chemical_formula_sum   'Ni12 H36 C48 S24 N78 O24'
_cell_volume   3130.72802844
_cell_formula_units_Z   6
loop_
 _symmetry_equiv_pos_site_id
 _symmetry_equiv_pos_as_xyz
  1  'x, y, z'
loop_
 _atom_site_type_symbol
 _atom_site_label
 _atom_site_symmetry_multiplicity
 _atom_site_fract_x
 _atom_site_fract_y
 _atom_site_fract_z
 _atom_site_occupancy
 _atom_site_charge
Ni  Ni1  1  0.12683000  0.57456000  0.79101000  1.0 0.6689110969
Ni  Ni2  1  0.57456000  0.79101000  0.12683000  1.0 0.6689110969
Ni  Ni3  1  0.79101000  0.12683000  0.57456000  1.0 0.6689110969
Ni  Ni4  1  0.37317000  0.70899000  0.92544000  1.0 0.6689110969
Ni  Ni5  1  0.92544000  0.37317000  0.70899000  1.0 0.6689110969
Ni  Ni6  1  0.70899000  0.92544000  0.37317000  1.0 0.6689110969
Ni  Ni7  1  0.87317000  0.42544000  0.20899000  1.0 0.6689110969
Ni  Ni8  1  0.42544000  0.20899000  0.87317000  1.0 0.6689110969
Ni  Ni9  1  0.20899000  0.87317000  0.42544000  1.0 0.6689110969
Ni  Ni10  1  0.62683000  0.29101000  0.07456000  1.0 0.6689110969
Ni  Ni11  1  0.07456000  0.62683000  0.29101000  1.0 0.6689110969
Ni  Ni12  1  0.29101000  0.07456000  0.62683000  1.0 0.6689110969
H  H1  1  0.36980000  0.65580000  0.62540000  1.0 0.1573758349
H  H2  1  0.65580000  0.62540000  0.36980000  1.0 0.1573758349
H  H3  1  0.62540000  0.36980000  0.65580000  1.0 0.1573758349
H  H4  1  0.13020000  0.87460000  0.84420000  1.0 0.1573758349
H  H5  1  0.84420000  0.13020000  0.87460000  1.0 0.1573758349
H  H6  1  0.87460000  0.84420000  0.13020000  1.0 0.1573758349
H  H7  1  0.63020000  0.34420000  0.37460000  1.0 0.1573758349
H  H8  1  0.34420000  0.37460000  0.63020000  1.0 0.1573758349
H  H9  1  0.37460000  0.63020000  0.34420000  1.0 0.1573758349
H  H10  1  0.86980000  0.12540000  0.15580000  1.0 0.1573758349
H  H11  1  0.15580000  0.86980000  0.12540000  1.0 0.1573758349
H  H12  1  0.12540000  0.15580000  0.86980000  1.0 0.1573758349
H  H13  1  0.29570000  0.54910000  0.57940000  1.0 0.1445591325
H  H14  1  0.54910000  0.57940000  0.29570000  1.0 0.1445591325
H  H15  1  0.57940000  0.29570000  0.54910000  1.0 0.1445591325
H  H16  1  0.20430000  0.92060000  0.95090000  1.0 0.1445591325
H  H17  1  0.95090000  0.20430000  0.92060000  1.0 0.1445591325
H  H18  1  0.92060000  0.95090000  0.20430000  1.0 0.1445591325
H  H19  1  0.70430000  0.45090000  0.42060000  1.0 0.1445591325
H  H20  1  0.45090000  0.42060000  0.70430000  1.0 0.1445591325
H  H21  1  0.42060000  0.70430000  0.45090000  1.0 0.1445591325
H  H22  1  0.79570000  0.07940000  0.04910000  1.0 0.1445591325
H  H23  1  0.04910000  0.79570000  0.07940000  1.0 0.1445591325
H  H24  1  0.07940000  0.04910000  0.79570000  1.0 0.1445591325
H  H25  1  0.95240000  0.32990000  0.35980000  1.0 0.1445591325
H  H26  1  0.32990000  0.35980000  0.95240000  1.0 0.1445591325
H  H27  1  0.35980000  0.95240000  0.32990000  1.0 0.1445591325
H  H28  1  0.54760000  0.14020000  0.17010000  1.0 0.1445591325
H  H29  1  0.17010000  0.54760000  0.14020000  1.0 0.1445591325
H  H30  1  0.14020000  0.17010000  0.54760000  1.0 0.1445591325
H  H31  1  0.04760000  0.67010000  0.64020000  1.0 0.1445591325
H  H32  1  0.67010000  0.64020000  0.04760000  1.0 0.1445591325
H  H33  1  0.64020000  0.04760000  0.67010000  1.0 0.1445591325
H  H34  1  0.45240000  0.85980000  0.82990000  1.0 0.1445591325
H  H35  1  0.82990000  0.45240000  0.85980000  1.0 0.1445591325
H  H36  1  0.85980000  0.82990000  0.45240000  1.0 0.1445591325
C  C1  1  0.28398000  0.62639000  0.70643000  1.0 0.6283785625
C  C2  1  0.62639000  0.70643000  0.28398000  1.0 0.6283785625
C  C3  1  0.70643000  0.28398000  0.62639000  1.0 0.6283785625
C  C4  1  0.21602000  0.79357000  0.87361000  1.0 0.6283785625
C  C5  1  0.87361000  0.21602000  0.79357000  1.0 0.6283785625
C  C6  1  0.79357000  0.87361000  0.21602000  1.0 0.6283785625
C  C7  1  0.71602000  0.37361000  0.29357000  1.0 0.6283785625
C  C8  1  0.37361000  0.29357000  0.71602000  1.0 0.6283785625
C  C9  1  0.29357000  0.71602000  0.37361000  1.0 0.6283785625
C  C10  1  0.78398000  0.20643000  0.12639000  1.0 0.6283785625
C  C11  1  0.12639000  0.78398000  0.20643000  1.0 0.6283785625
C  C12  1  0.20643000  0.12639000  0.78398000  1.0 0.6283785625
C  C13  1  0.30350000  0.61584000  0.61088000  1.0 -0.356562314
C  C14  1  0.61584000  0.61088000  0.30350000  1.0 -0.356562314
C  C15  1  0.61088000  0.30350000  0.61584000  1.0 -0.356562314
C  C16  1  0.19650000  0.88912000  0.88416000  1.0 -0.356562314
C  C17  1  0.88416000  0.19650000  0.88912000  1.0 -0.356562314
C  C18  1  0.88912000  0.88416000  0.19650000  1.0 -0.356562314
C  C19  1  0.69650000  0.38416000  0.38912000  1.0 -0.356562314
C  C20  1  0.38416000  0.38912000  0.69650000  1.0 -0.356562314
C  C21  1  0.38912000  0.69650000  0.38416000  1.0 -0.356562314
C  C22  1  0.80350000  0.11088000  0.11584000  1.0 -0.356562314
C  C23  1  0.11584000  0.80350000  0.11088000  1.0 -0.356562314
C  C24  1  0.11088000  0.11584000  0.80350000  1.0 -0.356562314
C  C25  1  0.12601000  0.54380000  0.45862000  1.0 0.091767935
C  C26  1  0.54380000  0.45862000  0.12601000  1.0 0.091767935
C  C27  1  0.45862000  0.12601000  0.54380000  1.0 0.091767935
C  C28  1  0.37399000  0.04138000  0.95620000  1.0 0.091767935
C  C29  1  0.95620000  0.37399000  0.04138000  1.0 0.091767935
C  C30  1  0.04138000  0.95620000  0.37399000  1.0 0.091767935
C  C31  1  0.87399000  0.45620000  0.54138000  1.0 0.091767935
C  C32  1  0.45620000  0.54138000  0.87399000  1.0 0.091767935
C  C33  1  0.54138000  0.87399000  0.45620000  1.0 0.091767935
C  C34  1  0.62601000  0.95862000  0.04380000  1.0 0.091767935
C  C35  1  0.04380000  0.62601000  0.95862000  1.0 0.091767935
C  C36  1  0.95862000  0.04380000  0.62601000  1.0 0.091767935
C  C37  1  0.99727000  0.39222000  0.38092000  1.0 -0.0240570313
C  C38  1  0.39222000  0.38092000  0.99727000  1.0 -0.0240570313
C  C39  1  0.38092000  0.99727000  0.39222000  1.0 -0.0240570313
C  C40  1  0.50273000  0.11908000  0.10778000  1.0 -0.0240570313
C  C41  1  0.10778000  0.50273000  0.11908000  1.0 -0.0240570313
C  C42  1  0.11908000  0.10778000  0.50273000  1.0 -0.0240570313
C  C43  1  0.00273000  0.60778000  0.61908000  1.0 -0.0240570313
C  C44  1  0.60778000  0.61908000  0.00273000  1.0 -0.0240570313
C  C45  1  0.61908000  0.00273000  0.60778000  1.0 -0.0240570313
C  C46  1  0.49727000  0.88092000  0.89222000  1.0 -0.0240570313
C  C47  1  0.89222000  0.49727000  0.88092000  1.0 -0.0240570313
C  C48  1  0.88092000  0.89222000  0.49727000  1.0 -0.0240570313
S  S1  1  0.09179000  0.44213000  0.48912000  1.0 0.1329179046
S  S2  1  0.44213000  0.48912000  0.09179000  1.0 0.1329179046
S  S3  1  0.48912000  0.09179000  0.44213000  1.0 0.1329179046
S  S4  1  0.40821000  0.01088000  0.05787000  1.0 0.1329179046
S  S5  1  0.05787000  0.40821000  0.01088000  1.0 0.1329179046
S  S6  1  0.01088000  0.05787000  0.40821000  1.0 0.1329179046
S  S7  1  0.90821000  0.55787000  0.51088000  1.0 0.1329179046
S  S8  1  0.55787000  0.51088000  0.90821000  1.0 0.1329179046
S  S9  1  0.51088000  0.90821000  0.55787000  1.0 0.1329179046
S  S10  1  0.59179000  0.98912000  0.94213000  1.0 0.1329179046
S  S11  1  0.94213000  0.59179000  0.98912000  1.0 0.1329179046
S  S12  1  0.98912000  0.94213000  0.59179000  1.0 0.1329179046
S  S13  1  0.22296000  0.65073000  0.52951000  1.0 0.0366396441
S  S14  1  0.65073000  0.52951000  0.22296000  1.0 0.0366396441
S  S15  1  0.52951000  0.22296000  0.65073000  1.0 0.0366396441
S  S16  1  0.27704000  0.97049000  0.84927000  1.0 0.0366396441
S  S17  1  0.84927000  0.27704000  0.97049000  1.0 0.0366396441
S  S18  1  0.97049000  0.84927000  0.27704000  1.0 0.0366396441
S  S19  1  0.77704000  0.34927000  0.47049000  1.0 0.0366396441
S  S20  1  0.34927000  0.47049000  0.77704000  1.0 0.0366396441
S  S21  1  0.47049000  0.77704000  0.34927000  1.0 0.0366396441
S  S22  1  0.72296000  0.02951000  0.15073000  1.0 0.0366396441
S  S23  1  0.15073000  0.72296000  0.02951000  1.0 0.0366396441
S  S24  1  0.02951000  0.15073000  0.72296000  1.0 0.0366396441
N  N1  1  0.06879000  0.53666000  0.37544000  1.0 -0.2155715277
N  N2  1  0.53666000  0.37544000  0.06879000  1.0 -0.2155715277
N  N3  1  0.37544000  0.06879000  0.53666000  1.0 -0.2155715277
N  N4  1  0.43121000  0.12456000  0.96334000  1.0 -0.2155715277
N  N5  1  0.96334000  0.43121000  0.12456000  1.0 -0.2155715277
N  N6  1  0.12456000  0.96334000  0.43121000  1.0 -0.2155715277
N  N7  1  0.93121000  0.46334000  0.62456000  1.0 -0.2155715277
N  N8  1  0.46334000  0.62456000  0.93121000  1.0 -0.2155715277
N  N9  1  0.62456000  0.93121000  0.46334000  1.0 -0.2155715277
N  N10  1  0.56879000  0.87544000  0.03666000  1.0 -0.2155715277
N  N11  1  0.03666000  0.56879000  0.87544000  1.0 -0.2155715277
N  N12  1  0.87544000  0.03666000  0.56879000  1.0 -0.2155715277
N  N13  1  0.99296000  0.44822000  0.33070000  1.0 -0.0938186864
N  N14  1  0.44822000  0.33070000  0.99296000  1.0 -0.0938186864
N  N15  1  0.33070000  0.99296000  0.44822000  1.0 -0.0938186864
N  N16  1  0.50704000  0.16930000  0.05178000  1.0 -0.0938186864
N  N17  1  0.05178000  0.50704000  0.16930000  1.0 -0.0938186864
N  N18  1  0.16930000  0.05178000  0.50704000  1.0 -0.0938186864
N  N19  1  0.00704000  0.55178000  0.66930000  1.0 -0.0938186864
N  N20  1  0.55178000  0.66930000  0.00704000  1.0 -0.0938186864
N  N21  1  0.66930000  0.00704000  0.55178000  1.0 -0.0938186864
N  N22  1  0.49296000  0.83070000  0.94822000  1.0 -0.0938186864
N  N23  1  0.94822000  0.49296000  0.83070000  1.0 -0.0938186864
N  N24  1  0.83070000  0.94822000  0.49296000  1.0 -0.0938186864
N  N25  1  0.25000000  0.59751000  0.90249000  1.0 -0.5123468067
N  N26  1  0.59751000  0.90249000  0.25000000  1.0 -0.5123468067
N  N27  1  0.90249000  0.25000000  0.59751000  1.0 -0.5123468067
N  N28  1  0.75000000  0.40249000  0.09751000  1.0 -0.5123468067
N  N29  1  0.40249000  0.09751000  0.75000000  1.0 -0.5123468067
N  N30  1  0.09751000  0.75000000  0.40249000  1.0 -0.5123468067
N  N31  1  0.07667000  0.42333000  0.75000000  1.0 -0.2096433317
N  N32  1  0.42333000  0.75000000  0.07667000  1.0 -0.2096433317
N  N33  1  0.75000000  0.07667000  0.42333000  1.0 -0.2096433317
N  N34  1  0.92333000  0.57667000  0.25000000  1.0 -0.2096433317
N  N35  1  0.57667000  0.25000000  0.92333000  1.0 -0.2096433317
N  N36  1  0.25000000  0.92333000  0.57667000  1.0 -0.2096433317
N  N37  1  0.25000000  0.54856000  0.95144000  1.0 0.3557657723
N  N38  1  0.54856000  0.95143000  0.25000000  1.0 0.3557657723
N  N39  1  0.95144000  0.25000000  0.54856000  1.0 0.3557657723
N  N40  1  0.75000000  0.45143000  0.04856000  1.0 0.3557657723
N  N41  1  0.45143000  0.04857000  0.75000000  1.0 0.3557657723
N  N42  1  0.04857000  0.75000000  0.45143000  1.0 0.3557657723
N  N43  1  0.12320000  0.38520000  0.79520000  1.0 0.3026041686
N  N44  1  0.38520000  0.79520000  0.12320000  1.0 0.3026041686
N  N45  1  0.79520000  0.12320000  0.38520000  1.0 0.3026041686
N  N46  1  0.37680000  0.70480000  0.11480000  1.0 0.3026041686
N  N47  1  0.11480000  0.37680000  0.70480000  1.0 0.3026041686
N  N48  1  0.70480000  0.11480000  0.37680000  1.0 0.3026041686
N  N49  1  0.87680000  0.61480000  0.20480000  1.0 0.3026041686
N  N50  1  0.61480000  0.20480000  0.87680000  1.0 0.3026041686
N  N51  1  0.20480000  0.87680000  0.61480000  1.0 0.3026041686
N  N52  1  0.62320000  0.29520000  0.88520000  1.0 0.3026041686
N  N53  1  0.88520000  0.62320000  0.29520000  1.0 0.3026041686
N  N54  1  0.29520000  0.88520000  0.62320000  1.0 0.3026041686
N  N55  1  0.25760000  0.52910000  0.02540000  1.0 -0.0663499392
N  N56  1  0.52910000  0.02540000  0.25760000  1.0 -0.0663499392
N  N57  1  0.02540000  0.25760000  0.52910000  1.0 -0.0663499392
N  N58  1  0.24240000  0.47460000  0.97090000  1.0 -0.0663499392
N  N59  1  0.97090000  0.24240000  0.47460000  1.0 -0.0663499392
N  N60  1  0.47460000  0.97090000  0.24240000  1.0 -0.0663499392
N  N61  1  0.74240000  0.47090000  0.97460000  1.0 -0.0663499392
N  N62  1  0.47090000  0.97460000  0.74240000  1.0 -0.0663499392
N  N63  1  0.97460000  0.74240000  0.47090000  1.0 -0.0663499392
N  N64  1  0.75760000  0.52540000  0.02910000  1.0 -0.0663499392
N  N65  1  0.02910000  0.75760000  0.52540000  1.0 -0.0663499392
N  N66  1  0.52540000  0.02910000  0.75760000  1.0 -0.0663499392
N  N67  1  0.16780000  0.34810000  0.83540000  1.0 -0.3486261617
N  N68  1  0.34810000  0.83540000  0.16780000  1.0 -0.3486261617
N  N69  1  0.83540000  0.16780000  0.34810000  1.0 -0.3486261617
N  N70  1  0.33220000  0.66460000  0.15190000  1.0 -0.3486261617
N  N71  1  0.15190000  0.33220000  0.66460000  1.0 -0.3486261617
N  N72  1  0.66460000  0.15190000  0.33220000  1.0 -0.3486261617
N  N73  1  0.83220000  0.65190000  0.16460000  1.0 -0.3486261617
N  N74  1  0.65190000  0.16460000  0.83220000  1.0 -0.3486261617
N  N75  1  0.16460000  0.83220000  0.65190000  1.0 -0.3486261617
N  N76  1  0.66780000  0.33540000  0.84810000  1.0 -0.3486261617
N  N77  1  0.84810000  0.66780000  0.33540000  1.0 -0.3486261617
N  N78  1  0.33540000  0.84810000  0.66780000  1.0 -0.3486261617
O  O1  1  0.20022000  0.58005000  0.69763000  1.0 -0.5228825237
O  O2  1  0.58005000  0.69763000  0.20022000  1.0 -0.5228825237
O  O3  1  0.69763000  0.20022000  0.58005000  1.0 -0.5228825237
O  O4  1  0.29978000  0.80237000  0.91995000  1.0 -0.5228825237
O  O5  1  0.91995000  0.29978000  0.80237000  1.0 -0.5228825237
O  O6  1  0.80237000  0.91995000  0.29978000  1.0 -0.5228825237
O  O7  1  0.79978000  0.41995000  0.30237000  1.0 -0.5228825237
O  O8  1  0.41995000  0.30237000  0.79978000  1.0 -0.5228825237
O  O9  1  0.30237000  0.79978000  0.41995000  1.0 -0.5228825237
O  O10  1  0.70022000  0.19763000  0.08005000  1.0 -0.5228825237
O  O11  1  0.08005000  0.70022000  0.19763000  1.0 -0.5228825237
O  O12  1  0.19763000  0.08005000  0.70022000  1.0 -0.5228825237
O  O13  1  0.35487000  0.67948000  0.78252000  1.0 -0.4967330447
O  O14  1  0.67948000  0.78252000  0.35487000  1.0 -0.4967330447
O  O15  1  0.78252000  0.35487000  0.67948000  1.0 -0.4967330447
O  O16  1  0.14513000  0.71748000  0.82052000  1.0 -0.4967330447
O  O17  1  0.82052000  0.14513000  0.71748000  1.0 -0.4967330447
O  O18  1  0.71748000  0.82052000  0.14513000  1.0 -0.4967330447
O  O19  1  0.64513000  0.32052000  0.21748000  1.0 -0.4967330447
O  O20  1  0.32052000  0.21748000  0.64513000  1.0 -0.4967330447
O  O21  1  0.21748000  0.64513000  0.32052000  1.0 -0.4967330447
O  O22  1  0.85487000  0.28252000  0.17948000  1.0 -0.4967330447
O  O23  1  0.17948000  0.85487000  0.28252000  1.0 -0.4967330447
O  O24  1  0.28252000  0.17948000  0.85487000  1.0 -0.4967330447
