# DDEC6 charges by PACMAN v1.1 (https://github.com/mtap-research/PACMAN-charge/)
data_OBENAL02_ASR_pacman
_symmetry_space_group_name_H-M   'P 1'
_cell_length_a   12.38470000
_cell_length_b   28.86000000
_cell_length_c   5.37300000
_cell_angle_alpha   90.00000000
_cell_angle_beta   90.00000000
_cell_angle_gamma   90.00000000
_symmetry_Int_Tables_number   1
_chemical_formula_structural   Co5H20(C2O3)4
_chemical_formula_sum   'Co20 H80 C32 O48'
_cell_volume   1920.43078087
_cell_formula_units_Z   4
loop_
 _symmetry_equiv_pos_site_id
 _symmetry_equiv_pos_as_xyz
  1  'x, y, z'
loop_
 _atom_site_type_symbol
 _atom_site_label
 _atom_site_symmetry_multiplicity
 _atom_site_fract_x
 _atom_site_fract_y
 _atom_site_fract_z
 _atom_site_occupancy
 _atom_site_charge
Co  Co1  1  0.37750000  0.75000000  0.18894000  1.0 0.9727026686
Co  Co2  1  0.62250000  0.25000000  0.81106000  1.0 0.9727026686
Co  Co3  1  0.62250000  0.75000000  0.18894000  1.0 0.9727026686
Co  Co4  1  0.37750000  0.25000000  0.81106000  1.0 0.9727026686
Co  Co5  1  0.87750000  0.25000000  0.68894000  1.0 0.9727026686
Co  Co6  1  0.12250000  0.75000000  0.31106000  1.0 0.9727026686
Co  Co7  1  0.12250000  0.25000000  0.68894000  1.0 0.9727026686
Co  Co8  1  0.87750000  0.75000000  0.31106000  1.0 0.9727026686
Co  Co9  1  0.25000000  0.75000000  0.75000000  1.0 0.70898989
Co  Co10  1  0.75000000  0.25000000  0.25000000  1.0 0.70898989
Co  Co11  1  0.75000000  0.75000000  0.75000000  1.0 0.70898989
Co  Co12  1  0.25000000  0.25000000  0.25000000  1.0 0.70898989
Co  Co13  1  0.50000000  0.79082000  0.74312000  1.0 0.7244119808
Co  Co14  1  0.50000000  0.20918000  0.25688000  1.0 0.7255794272
Co  Co15  1  0.50000000  0.70918000  0.74312000  1.0 0.7244119808
Co  Co16  1  0.50000000  0.29082000  0.25688000  1.0 0.7255794272
Co  Co17  1  0.00000000  0.29082000  0.24312000  1.0 0.7255794272
Co  Co18  1  0.00000000  0.70918000  0.75688000  1.0 0.7244119808
Co  Co19  1  0.00000000  0.20918000  0.24312000  1.0 0.7255794272
Co  Co20  1  0.00000000  0.79082000  0.75688000  1.0 0.7244119808
H  H1  1  0.50000000  0.82336000  0.17881000  1.0 0.3950635061
H  H2  1  0.50000000  0.17664000  0.82119000  1.0 0.3950635061
H  H3  1  0.50000000  0.67664000  0.17881000  1.0 0.3950635061
H  H4  1  0.50000000  0.32336000  0.82119000  1.0 0.3950635061
H  H5  1  0.00000000  0.32336000  0.67881000  1.0 0.3950635061
H  H6  1  0.00000000  0.67664000  0.32119000  1.0 0.3950635061
H  H7  1  0.00000000  0.17664000  0.67881000  1.0 0.3950635061
H  H8  1  0.00000000  0.82336000  0.32119000  1.0 0.3950635061
H  H9  1  0.33279000  0.68584000  0.58224000  1.0 0.3671848044
H  H10  1  0.66721000  0.31416000  0.41776000  1.0 0.3671848044
H  H11  1  0.66721000  0.81416000  0.58224000  1.0 0.3671848044
H  H12  1  0.33279000  0.18584000  0.41776000  1.0 0.3671848044
H  H13  1  0.66721000  0.18584000  0.41776000  1.0 0.3671848044
H  H14  1  0.33279000  0.81416000  0.58224000  1.0 0.3671848044
H  H15  1  0.33279000  0.31416000  0.41776000  1.0 0.3671848044
H  H16  1  0.66721000  0.68584000  0.58224000  1.0 0.3671848044
H  H17  1  0.83279000  0.18584000  0.08224000  1.0 0.3671848044
H  H18  1  0.16721000  0.81416000  0.91776000  1.0 0.3671848044
H  H19  1  0.16721000  0.31416000  0.08224000  1.0 0.3671848044
H  H20  1  0.83279000  0.68584000  0.91776000  1.0 0.3671848044
H  H21  1  0.16721000  0.68584000  0.91776000  1.0 0.3671848044
H  H22  1  0.83279000  0.31416000  0.08224000  1.0 0.3671848044
H  H23  1  0.83279000  0.81416000  0.91776000  1.0 0.3671848044
H  H24  1  0.16721000  0.18584000  0.08224000  1.0 0.3671848044
H  H25  1  0.25000000  0.82341000  0.25000000  1.0 0.4088872537
H  H26  1  0.75000000  0.17659000  0.75000000  1.0 0.4088872537
H  H27  1  0.75000000  0.67659000  0.25000000  1.0 0.4088872537
H  H28  1  0.25000000  0.32341000  0.75000000  1.0 0.4088872537
H  H29  1  0.75000000  0.32341000  0.75000000  1.0 0.4088872537
H  H30  1  0.25000000  0.67659000  0.25000000  1.0 0.4088872537
H  H31  1  0.25000000  0.17659000  0.75000000  1.0 0.4088872537
H  H32  1  0.75000000  0.82341000  0.25000000  1.0 0.4088872537
H  H33  1  0.44577000  0.95118000  0.76453000  1.0 0.0710150913
H  H34  1  0.55423000  0.04882000  0.23547000  1.0 0.0710150913
H  H35  1  0.55423000  0.54882000  0.76453000  1.0 0.0710150913
H  H36  1  0.44577000  0.45118000  0.23547000  1.0 0.0710150913
H  H37  1  0.55423000  0.45118000  0.23547000  1.0 0.0710150913
H  H38  1  0.44577000  0.54882000  0.76453000  1.0 0.0710150913
H  H39  1  0.44577000  0.04882000  0.23547000  1.0 0.0710150913
H  H40  1  0.55423000  0.95118000  0.76453000  1.0 0.0710150913
H  H41  1  0.94577000  0.45118000  0.26453000  1.0 0.0710150913
H  H42  1  0.05423000  0.54882000  0.73547000  1.0 0.0710150913
H  H43  1  0.05423000  0.04882000  0.26453000  1.0 0.0710150913
H  H44  1  0.94577000  0.95118000  0.73547000  1.0 0.0710150913
H  H45  1  0.05423000  0.95118000  0.73547000  1.0 0.0710150913
H  H46  1  0.94577000  0.04882000  0.26453000  1.0 0.0710150913
H  H47  1  0.94577000  0.54882000  0.73547000  1.0 0.0710150913
H  H48  1  0.05423000  0.45118000  0.26453000  1.0 0.0710150913
H  H49  1  0.32457000  0.95688000  0.49001000  1.0 0.0921618507
H  H50  1  0.67543000  0.04312000  0.50999000  1.0 0.0921618507
H  H51  1  0.67543000  0.54312000  0.49001000  1.0 0.0921618507
H  H52  1  0.32457000  0.45688000  0.50999000  1.0 0.0921618507
H  H53  1  0.67543000  0.45688000  0.50999000  1.0 0.0921618507
H  H54  1  0.32457000  0.54312000  0.49001000  1.0 0.0921618507
H  H55  1  0.32457000  0.04312000  0.50999000  1.0 0.0921618507
H  H56  1  0.67543000  0.95688000  0.49001000  1.0 0.0921618507
H  H57  1  0.82457000  0.45688000  0.99001000  1.0 0.0921618507
H  H58  1  0.17543000  0.54312000  0.00999000  1.0 0.0921618507
H  H59  1  0.17543000  0.04312000  0.99001000  1.0 0.0921618507
H  H60  1  0.82457000  0.95688000  0.00999000  1.0 0.0921618507
H  H61  1  0.17543000  0.95688000  0.00999000  1.0 0.0921618507
H  H62  1  0.82457000  0.04312000  0.99001000  1.0 0.0921618507
H  H63  1  0.82457000  0.54312000  0.00999000  1.0 0.0921618507
H  H64  1  0.17543000  0.45688000  0.99001000  1.0 0.0921618507
H  H65  1  0.41065000  0.97592000  0.23979000  1.0 0.0835050569
H  H66  1  0.58935000  0.02408000  0.76021000  1.0 0.0835050569
H  H67  1  0.58935000  0.52408000  0.23979000  1.0 0.0835050569
H  H68  1  0.41065000  0.47592000  0.76021000  1.0 0.0835050569
H  H69  1  0.58935000  0.47592000  0.76021000  1.0 0.0835050569
H  H70  1  0.41065000  0.52408000  0.23979000  1.0 0.0835050569
H  H71  1  0.41065000  0.02408000  0.76021000  1.0 0.0835050569
H  H72  1  0.58935000  0.97592000  0.23979000  1.0 0.0835050569
H  H73  1  0.91065000  0.47592000  0.73979000  1.0 0.0835050569
H  H74  1  0.08935000  0.52408000  0.26021000  1.0 0.0835050569
H  H75  1  0.08935000  0.02408000  0.73979000  1.0 0.0835050569
H  H76  1  0.91065000  0.97592000  0.26021000  1.0 0.0835050569
H  H77  1  0.08935000  0.97592000  0.26021000  1.0 0.0835050569
H  H78  1  0.91065000  0.02408000  0.73979000  1.0 0.0835050569
H  H79  1  0.91065000  0.52408000  0.26021000  1.0 0.0835050569
H  H80  1  0.08935000  0.47592000  0.73979000  1.0 0.0835050569
C  C1  1  0.50000000  0.89341000  0.51087000  1.0 0.5861750931
C  C2  1  0.50000000  0.10659000  0.48913000  1.0 0.5861750931
C  C3  1  0.50000000  0.60659000  0.51087000  1.0 0.5861750931
C  C4  1  0.50000000  0.39341000  0.48913000  1.0 0.5861750931
C  C5  1  0.00000000  0.39341000  0.01087000  1.0 0.5861750931
C  C6  1  0.00000000  0.60659000  0.98913000  1.0 0.5861750931
C  C7  1  0.00000000  0.10659000  0.01087000  1.0 0.5861750931
C  C8  1  0.00000000  0.89341000  0.98913000  1.0 0.5861750931
C  C9  1  0.50000000  0.94687000  0.57441000  1.0 -0.1110764689
C  C10  1  0.50000000  0.05313000  0.42559000  1.0 -0.1110764689
C  C11  1  0.50000000  0.55313000  0.57441000  1.0 -0.1110764689
C  C12  1  0.50000000  0.44687000  0.42559000  1.0 -0.1110764689
C  C13  1  0.00000000  0.44687000  0.07441000  1.0 -0.1110764689
C  C14  1  0.00000000  0.55313000  0.92559000  1.0 -0.1110764689
C  C15  1  0.00000000  0.05313000  0.07441000  1.0 -0.1110764689
C  C16  1  0.00000000  0.94687000  0.92559000  1.0 -0.1110764689
C  C17  1  0.40025000  0.97545000  0.44954000  1.0 -0.1609823307
C  C18  1  0.59975000  0.02455000  0.55046000  1.0 -0.1609823307
C  C19  1  0.59975000  0.52455000  0.44954000  1.0 -0.1609823307
C  C20  1  0.40025000  0.47545000  0.55046000  1.0 -0.1609823307
C  C21  1  0.59975000  0.47545000  0.55046000  1.0 -0.1609823307
C  C22  1  0.40025000  0.52455000  0.44954000  1.0 -0.1609823307
C  C23  1  0.40025000  0.02455000  0.55046000  1.0 -0.1609823307
C  C24  1  0.59975000  0.97545000  0.44954000  1.0 -0.1609823307
C  C25  1  0.90025000  0.47545000  0.94954000  1.0 -0.1609823307
C  C26  1  0.09975000  0.52455000  0.05046000  1.0 -0.1609823307
C  C27  1  0.09975000  0.02455000  0.94954000  1.0 -0.1609823307
C  C28  1  0.90025000  0.97545000  0.05046000  1.0 -0.1609823307
C  C29  1  0.09975000  0.97545000  0.05046000  1.0 -0.1609823307
C  C30  1  0.90025000  0.02455000  0.94954000  1.0 -0.1609823307
C  C31  1  0.90025000  0.52455000  0.05046000  1.0 -0.1609823307
C  C32  1  0.09975000  0.47545000  0.94954000  1.0 -0.1609823307
O  O1  1  0.50000000  0.79055000  0.11356000  1.0 -0.8323862388
O  O2  1  0.50000000  0.20945000  0.88644000  1.0 -0.8323862388
O  O3  1  0.50000000  0.70945000  0.11356000  1.0 -0.8323862388
O  O4  1  0.50000000  0.29055000  0.88644000  1.0 -0.8323862388
O  O5  1  0.00000000  0.29055000  0.61356000  1.0 -0.8323862388
O  O6  1  0.00000000  0.70945000  0.38644000  1.0 -0.8323862388
O  O7  1  0.00000000  0.20945000  0.61356000  1.0 -0.8323862388
O  O8  1  0.00000000  0.79055000  0.38644000  1.0 -0.8323862388
O  O9  1  0.35278000  0.70415000  0.72801000  1.0 -0.7066994518
O  O10  1  0.64722000  0.29585000  0.27199000  1.0 -0.7066994518
O  O11  1  0.64722000  0.79585000  0.72801000  1.0 -0.7066994518
O  O12  1  0.35278000  0.20415000  0.27199000  1.0 -0.7066994518
O  O13  1  0.64722000  0.20415000  0.27199000  1.0 -0.7066994518
O  O14  1  0.35278000  0.79585000  0.72801000  1.0 -0.7066994518
O  O15  1  0.35278000  0.29585000  0.27199000  1.0 -0.7066994518
O  O16  1  0.64722000  0.70415000  0.72801000  1.0 -0.7066994518
O  O17  1  0.85278000  0.20415000  0.22801000  1.0 -0.7066994518
O  O18  1  0.14722000  0.79585000  0.77199000  1.0 -0.7066994518
O  O19  1  0.14722000  0.29585000  0.22801000  1.0 -0.7066994518
O  O20  1  0.85278000  0.70415000  0.77199000  1.0 -0.7066994518
O  O21  1  0.14722000  0.70415000  0.77199000  1.0 -0.7066994518
O  O22  1  0.85278000  0.29585000  0.22801000  1.0 -0.7066994518
O  O23  1  0.85278000  0.79585000  0.77199000  1.0 -0.7066994518
O  O24  1  0.14722000  0.20415000  0.22801000  1.0 -0.7066994518
O  O25  1  0.25000000  0.78976000  0.25000000  1.0 -0.8631261572
O  O26  1  0.75000000  0.21024000  0.75000000  1.0 -0.8631261572
O  O27  1  0.75000000  0.71024000  0.25000000  1.0 -0.8631261572
O  O28  1  0.25000000  0.28976000  0.75000000  1.0 -0.8631261572
O  O29  1  0.75000000  0.28976000  0.75000000  1.0 -0.8631261572
O  O30  1  0.25000000  0.71024000  0.25000000  1.0 -0.8631261572
O  O31  1  0.25000000  0.21024000  0.75000000  1.0 -0.8631261572
O  O32  1  0.75000000  0.78976000  0.25000000  1.0 -0.8631261572
O  O33  1  0.50000000  0.86579000  0.69627000  1.0 -0.544358088
O  O34  1  0.50000000  0.13421000  0.30373000  1.0 -0.544358088
O  O35  1  0.50000000  0.63421000  0.69627000  1.0 -0.544358088
O  O36  1  0.50000000  0.36579000  0.30373000  1.0 -0.544358088
O  O37  1  0.00000000  0.36579000  0.19627000  1.0 -0.544358088
O  O38  1  0.00000000  0.63421000  0.80373000  1.0 -0.544358088
O  O39  1  0.00000000  0.13421000  0.19627000  1.0 -0.544358088
O  O40  1  0.00000000  0.86579000  0.80373000  1.0 -0.544358088
O  O41  1  0.50000000  0.88445000  0.28143000  1.0 -0.5837422594
O  O42  1  0.50000000  0.11555000  0.71857000  1.0 -0.5837422594
O  O43  1  0.50000000  0.61555000  0.28143000  1.0 -0.5837422594
O  O44  1  0.50000000  0.38445000  0.71857000  1.0 -0.5837422594
O  O45  1  0.00000000  0.38445000  0.78143000  1.0 -0.5837422594
O  O46  1  0.00000000  0.61555000  0.21857000  1.0 -0.5837422594
O  O47  1  0.00000000  0.11555000  0.78143000  1.0 -0.5837422594
O  O48  1  0.00000000  0.88445000  0.21857000  1.0 -0.5837422594
