# DDEC6 charges by PACMAN v1.1 (https://github.com/mtap-research/PACMAN-charge/)
data_OBENAL_FSR_pacman
_symmetry_space_group_name_H-M   'P 1'
_cell_length_a   15.98500000
_cell_length_b   15.98500000
_cell_length_c   15.98500000
_cell_angle_alpha   160.56200000
_cell_angle_beta   134.17800000
_cell_angle_gamma   50.21660000
_symmetry_Int_Tables_number   1
_chemical_formula_structural   Co5H36(C7O10)2
_chemical_formula_sum   'Co10 H72 C28 O40'
_cell_volume   972.27565058
_cell_formula_units_Z   2
loop_
 _symmetry_equiv_pos_site_id
 _symmetry_equiv_pos_as_xyz
  1  'x, y, z'
loop_
 _atom_site_type_symbol
 _atom_site_label
 _atom_site_symmetry_multiplicity
 _atom_site_fract_x
 _atom_site_fract_y
 _atom_site_fract_z
 _atom_site_occupancy
 _atom_site_charge
Co  Co1  1  0.12561000  0.99540000  0.62101000  1.0 0.7376033122
Co  Co2  1  0.62561000  0.00460000  0.13021000  1.0 0.7376033122
Co  Co3  1  0.37439000  0.99540000  0.86979000  1.0 0.7376033122
Co  Co4  1  0.87439000  0.00460000  0.37899000  1.0 0.7376033122
Co  Co5  1  0.00000000  0.50000000  0.00000000  1.0 0.7151710297
Co  Co6  1  0.50000000  0.50000000  0.50000000  1.0 0.7126325274
Co  Co7  1  0.30909000  0.55089000  0.24180000  1.0 0.5476770009
Co  Co8  1  0.80909000  0.56729000  0.75820000  1.0 0.5476770009
Co  Co9  1  0.19091000  0.43271000  0.24180000  1.0 0.5476770009
Co  Co10  1  0.69091000  0.44911000  0.75820000  1.0 0.5476770009
H  H1  1  0.31820000  0.99780000  0.67960000  1.0 0.1962587814
H  H2  1  0.81820000  0.13860000  0.32040000  1.0 0.1962587814
H  H3  1  0.18180000  0.86140000  0.67960000  1.0 0.1962587814
H  H4  1  0.68180000  0.00220000  0.32040000  1.0 0.1962587814
H  H5  1  0.02270000  0.22020000  0.87510000  1.0 0.1606693173
H  H6  1  0.52270000  0.64760000  0.80250000  1.0 0.1606693173
H  H7  1  0.15490000  0.35240000  0.87510000  1.0 0.1606693173
H  H8  1  0.34510000  0.22020000  0.19750000  1.0 0.1606693173
H  H9  1  0.97730000  0.77980000  0.12490000  1.0 0.1606693173
H  H10  1  0.47730000  0.35240000  0.19750000  1.0 0.1606693173
H  H11  1  0.84510000  0.64760000  0.12490000  1.0 0.1606693173
H  H12  1  0.65490000  0.77980000  0.80250000  1.0 0.1606693173
H  H13  1  0.31310000  0.11980000  0.80670000  1.0 0.2094479556
H  H14  1  0.81310000  0.00640000  0.19330000  1.0 0.2094479556
H  H15  1  0.18690000  0.99360000  0.80670000  1.0 0.2094479556
H  H16  1  0.68690000  0.88020000  0.19330000  1.0 0.2094479556
H  H17  1  0.02750000  0.64550000  0.30140000  1.0 0.1656207646
H  H18  1  0.52750000  0.22610000  0.38200000  1.0 0.1606693173
H  H19  1  0.15590000  0.77390000  0.30140000  1.0 0.1656207646
H  H20  1  0.34410000  0.64550000  0.61800000  1.0 0.1606693173
H  H21  1  0.97250000  0.35450000  0.69860000  1.0 0.1606693173
H  H22  1  0.47250000  0.77390000  0.61800000  1.0 0.1606693173
H  H23  1  0.84410000  0.22610000  0.69860000  1.0 0.1606693173
H  H24  1  0.65590000  0.35450000  0.38200000  1.0 0.1606693173
H  H25  1  0.06550000  0.23120000  0.67090000  1.0 0.1009682322
H  H26  1  0.56550000  0.89460000  0.83430000  1.0 0.1009682322
H  H27  1  0.93970000  0.10540000  0.67090000  1.0 0.1009682322
H  H28  1  0.56030000  0.23120000  0.16570000  1.0 0.1009682322
H  H29  1  0.93450000  0.76880000  0.32910000  1.0 0.1009682322
H  H30  1  0.43450000  0.10540000  0.16570000  1.0 0.1009682322
H  H31  1  0.06030000  0.89460000  0.32910000  1.0 0.1009682322
H  H32  1  0.43970000  0.76880000  0.83430000  1.0 0.1009682322
H  H33  1  0.39670000  0.65080000  0.13710000  1.0 0.0712814563
H  H34  1  0.89670000  0.75960000  0.74590000  1.0 0.0712814563
H  H35  1  0.98630000  0.24040000  0.13710000  1.0 0.0712814563
H  H36  1  0.51370000  0.65080000  0.25410000  1.0 0.0712814563
H  H37  1  0.60330000  0.34920000  0.86290000  1.0 0.0712814563
H  H38  1  0.10330000  0.24040000  0.25410000  1.0 0.0712814563
H  H39  1  0.01370000  0.75960000  0.86290000  1.0 0.0712814563
H  H40  1  0.48630000  0.34920000  0.74590000  1.0 0.0712814563
H  H41  1  0.30740000  0.34300000  0.72940000  1.0 0.0773337985
H  H42  1  0.80740000  0.07800000  0.96440000  1.0 0.0773337985
H  H43  1  0.88640000  0.92200000  0.72940000  1.0 0.0773337985
H  H44  1  0.61360000  0.34300000  0.03560000  1.0 0.0773337985
H  H45  1  0.69260000  0.65700000  0.27060000  1.0 0.0773337985
H  H46  1  0.19260000  0.92200000  0.03560000  1.0 0.0773337985
H  H47  1  0.11360000  0.07800000  0.27060000  1.0 0.0773337985
H  H48  1  0.38640000  0.65700000  0.96440000  1.0 0.0773337985
H  H49  1  0.41460000  0.17910000  0.65790000  1.0 0.0546410436
H  H50  1  0.91460000  0.25670000  0.23550000  1.0 0.0546410436
H  H51  1  0.97880000  0.74330000  0.65790000  1.0 0.0546410436
H  H52  1  0.52120000  0.17910000  0.76450000  1.0 0.0546410436
H  H53  1  0.58540000  0.82090000  0.34210000  1.0 0.0546410436
H  H54  1  0.08540000  0.74330000  0.76450000  1.0 0.0546410436
H  H55  1  0.02120000  0.25670000  0.34210000  1.0 0.0546410436
H  H56  1  0.47880000  0.82090000  0.23550000  1.0 0.0546410436
H  H57  1  0.32670000  0.41950000  0.81300000  1.0 0.0856912563
H  H58  1  0.82670000  0.01370000  0.90720000  1.0 0.0856912563
H  H59  1  0.89350000  0.98630000  0.81300000  1.0 0.0856912563
H  H60  1  0.60650000  0.41950000  0.09280000  1.0 0.0856912563
H  H61  1  0.67330000  0.58050000  0.18700000  1.0 0.0856912563
H  H62  1  0.17330000  0.98630000  0.09280000  1.0 0.0856912563
H  H63  1  0.10650000  0.01370000  0.18700000  1.0 0.0856912563
H  H64  1  0.39350000  0.58050000  0.90720000  1.0 0.0856912563
H  H65  1  0.33720000  0.69830000  0.11630000  1.0 0.0642970455
H  H66  1  0.83720000  0.72090000  0.63890000  1.0 0.0642970455
H  H67  1  0.91800000  0.27910000  0.11630000  1.0 0.0642970455
H  H68  1  0.58200000  0.69830000  0.36110000  1.0 0.0642970455
H  H69  1  0.66280000  0.30170000  0.88370000  1.0 0.0642970455
H  H70  1  0.16280000  0.27910000  0.36110000  1.0 0.0642970455
H  H71  1  0.08200000  0.72090000  0.88370000  1.0 0.0642970455
H  H72  1  0.41800000  0.30170000  0.63890000  1.0 0.0642970455
C  C1  1  0.39920000  0.42220000  0.02300000  1.0 0.216906132
C  C2  1  0.89920000  0.87620000  0.97700000  1.0 0.216906132
C  C3  1  0.10080000  0.12380000  0.02300000  1.0 0.216906132
C  C4  1  0.60080000  0.57780000  0.97700000  1.0 0.216906132
C  C5  1  0.43150000  0.48950000  0.01800000  1.0 0.0110909307
C  C6  1  0.93150000  0.91350000  0.94200000  1.0 0.0110909307
C  C7  1  0.02850000  0.08650000  0.01800000  1.0 0.0110909307
C  C8  1  0.47150000  0.48950000  0.05800000  1.0 0.0110909307
C  C9  1  0.56850000  0.51050000  0.98200000  1.0 0.0110909307
C  C10  1  0.06850000  0.08650000  0.05800000  1.0 0.0110909307
C  C11  1  0.97150000  0.91350000  0.98200000  1.0 0.0110909307
C  C12  1  0.52850000  0.51050000  0.94200000  1.0 0.0110909307
C  C13  1  0.39170000  0.34970000  0.79400000  1.0 -0.1478760616
C  C14  1  0.89170000  0.09770000  0.04200000  1.0 -0.1478760616
C  C15  1  0.94430000  0.90230000  0.79400000  1.0 -0.1478760616
C  C16  1  0.55570000  0.34970000  0.95800000  1.0 -0.1478760616
C  C17  1  0.60830000  0.65030000  0.20600000  1.0 -0.1478760616
C  C18  1  0.10830000  0.90230000  0.95800000  1.0 -0.1478760616
C  C19  1  0.05570000  0.09770000  0.20600000  1.0 -0.1478760616
C  C20  1  0.44430000  0.65030000  0.04200000  1.0 -0.1478760616
C  C21  1  0.56520000  0.56320000  0.18200000  1.0 -0.0972002988
C  C22  1  0.06520000  0.88320000  0.00200000  1.0 -0.0972002988
C  C23  1  0.11880000  0.11680000  0.18200000  1.0 -0.0972002988
C  C24  1  0.38120000  0.56320000  0.99800000  1.0 -0.0972002988
C  C25  1  0.43480000  0.43680000  0.81800000  1.0 -0.0972002988
C  C26  1  0.93480000  0.11680000  0.99800000  1.0 -0.0972002988
C  C27  1  0.88120000  0.88320000  0.81800000  1.0 -0.0972002988
C  C28  1  0.61880000  0.43680000  0.00200000  1.0 -0.0972002988
O  O1  1  0.29460000  0.89760000  0.60300000  1.0 -0.2665461992
O  O2  1  0.79460000  0.19160000  0.39700000  1.0 -0.2665461992
O  O3  1  0.20540000  0.80840000  0.60300000  1.0 -0.2665461992
O  O4  1  0.70540000  0.10240000  0.39700000  1.0 -0.2665461992
O  O5  1  0.07550000  0.28150000  0.94200000  1.0 -0.3241385018
O  O6  1  0.57550000  0.63350000  0.79400000  1.0 -0.3241385018
O  O7  1  0.16050000  0.36650000  0.94200000  1.0 -0.3241385018
O  O8  1  0.33950000  0.28150000  0.20600000  1.0 -0.3241385018
O  O9  1  0.92450000  0.71850000  0.05800000  1.0 -0.3241385018
O  O10  1  0.42450000  0.36650000  0.20600000  1.0 -0.3241385018
O  O11  1  0.83950000  0.63350000  0.05800000  1.0 -0.3241385018
O  O12  1  0.66050000  0.71850000  0.79400000  1.0 -0.3241385018
O  O13  1  0.28970000  0.17570000  0.88600000  1.0 -0.3143662309
O  O14  1  0.78970000  0.90370000  0.11400000  1.0 -0.3143662309
O  O15  1  0.21030000  0.09630000  0.88600000  1.0 -0.3143662309
O  O16  1  0.71030000  0.82430000  0.11400000  1.0 -0.3143662309
O  O17  1  0.08000000  0.63030000  0.29170000  1.0 -0.3355699387
O  O18  1  0.58000000  0.28830000  0.44970000  1.0 -0.3355699387
O  O19  1  0.16140000  0.71170000  0.29170000  1.0 -0.3355699387
O  O20  1  0.33860000  0.63030000  0.55030000  1.0 -0.3355699387
O  O21  1  0.92000000  0.36970000  0.70830000  1.0 -0.3355699387
O  O22  1  0.42000000  0.71170000  0.55030000  1.0 -0.3355699387
O  O23  1  0.83860000  0.28830000  0.70830000  1.0 -0.3355699387
O  O24  1  0.66140000  0.36970000  0.44970000  1.0 -0.3355699387
O  O25  1  0.03770000  0.20330000  0.67040000  1.0 -0.1956822967
O  O26  1  0.53770000  0.86730000  0.83440000  1.0 -0.1956822967
O  O27  1  0.96710000  0.13270000  0.67040000  1.0 -0.1956822967
O  O28  1  0.53290000  0.20330000  0.16560000  1.0 -0.1956822967
O  O29  1  0.96230000  0.79670000  0.32960000  1.0 -0.1956822967
O  O30  1  0.46230000  0.13270000  0.16560000  1.0 -0.1956822967
O  O31  1  0.03290000  0.86730000  0.32960000  1.0 -0.1956822967
O  O32  1  0.46710000  0.79670000  0.83440000  1.0 -0.1956822967
O  O33  1  0.37880000  0.61350000  0.23470000  1.0 -0.5678410028
O  O34  1  0.87880000  0.64410000  0.76530000  1.0 -0.5678410028
O  O35  1  0.12120000  0.35590000  0.23470000  1.0 -0.5678410028
O  O36  1  0.62120000  0.38650000  0.76530000  1.0 -0.5678410028
O  O37  1  0.38000000  0.21000000  0.83000000  1.0 -0.4909169619
O  O38  1  0.88000000  0.05000000  0.17000000  1.0 -0.4909169619
O  O39  1  0.12000000  0.95000000  0.83000000  1.0 -0.4909169619
O  O40  1  0.62000000  0.79000000  0.17000000  1.0 -0.4909169619
