# DDEC6 charges by PACMAN v1.1 (https://github.com/mtap-research/PACMAN-charge/)
data_OBUBOC_FSR_pacman
_symmetry_space_group_name_H-M   'P 1'
_cell_length_a   15.49800000
_cell_length_b   15.49800000
_cell_length_c   13.81100000
_cell_angle_alpha   90.00000000
_cell_angle_beta   90.00000000
_cell_angle_gamma   120.00000000
_symmetry_Int_Tables_number   1
_chemical_formula_structural   Ce2Cu3H24(C12O17)2
_chemical_formula_sum   'Ce4 Cu6 H48 C48 O68'
_cell_volume   2872.81109949
_cell_formula_units_Z   2
loop_
 _symmetry_equiv_pos_site_id
 _symmetry_equiv_pos_as_xyz
  1  'x, y, z'
loop_
 _atom_site_type_symbol
 _atom_site_label
 _atom_site_symmetry_multiplicity
 _atom_site_fract_x
 _atom_site_fract_y
 _atom_site_fract_z
 _atom_site_occupancy
 _atom_site_charge
Ce  Ce1  1  0.33333333  0.66666667  0.53451000  1.0 1.879560737
Ce  Ce2  1  0.33333333  0.66666667  0.96549000  1.0 1.879560737
Ce  Ce3  1  0.66666667  0.33333333  0.46549000  1.0 1.879560737
Ce  Ce4  1  0.66666667  0.33333333  0.03451000  1.0 1.879560737
Cu  Cu1  1  0.52604000  0.02484000  0.75000000  1.0 0.9132505141
Cu  Cu2  1  0.97516000  0.50120000  0.75000000  1.0 0.9132505141
Cu  Cu3  1  0.49880000  0.47396000  0.75000000  1.0 0.9132505141
Cu  Cu4  1  0.02484000  0.52604000  0.25000000  1.0 0.9132505141
Cu  Cu5  1  0.50120000  0.97516000  0.25000000  1.0 0.9132505141
Cu  Cu6  1  0.47396000  0.49880000  0.25000000  1.0 0.9132505141
H  H1  1  0.61510000  0.90120000  0.49560000  1.0 0.1291756457
H  H2  1  0.09880000  0.71390000  0.49560000  1.0 0.1291756457
H  H3  1  0.28610000  0.38490000  0.49560000  1.0 0.1291756457
H  H4  1  0.61510000  0.90120000  0.00440000  1.0 0.1291756457
H  H5  1  0.09880000  0.71390000  0.00440000  1.0 0.1291756457
H  H6  1  0.28610000  0.38490000  0.00440000  1.0 0.1291756457
H  H7  1  0.90120000  0.61510000  0.50440000  1.0 0.1291756457
H  H8  1  0.71390000  0.09880000  0.50440000  1.0 0.1291756457
H  H9  1  0.38490000  0.28610000  0.50440000  1.0 0.1291756457
H  H10  1  0.90120000  0.61510000  0.99560000  1.0 0.1291756457
H  H11  1  0.71390000  0.09880000  0.99560000  1.0 0.1291756457
H  H12  1  0.38490000  0.28610000  0.99560000  1.0 0.1291756457
H  H13  1  0.64350000  0.86150000  0.58800000  1.0 0.1291756457
H  H14  1  0.13850000  0.78200000  0.58800000  1.0 0.1291756457
H  H15  1  0.21800000  0.35650000  0.58800000  1.0 0.1291756457
H  H16  1  0.64350000  0.86150000  0.91200000  1.0 0.1291756457
H  H17  1  0.13850000  0.78200000  0.91200000  1.0 0.1291756457
H  H18  1  0.21800000  0.35650000  0.91200000  1.0 0.1291756457
H  H19  1  0.86150000  0.64350000  0.41200000  1.0 0.1291756457
H  H20  1  0.78200000  0.13850000  0.41200000  1.0 0.1291756457
H  H21  1  0.35650000  0.21800000  0.41200000  1.0 0.1291756457
H  H22  1  0.86150000  0.64350000  0.08800000  1.0 0.1291756457
H  H23  1  0.78200000  0.13850000  0.08800000  1.0 0.1291756457
H  H24  1  0.35650000  0.21800000  0.08800000  1.0 0.1291756457
H  H25  1  0.60860000  0.69780000  0.50970000  1.0 0.1291756457
H  H26  1  0.30220000  0.91080000  0.50970000  1.0 0.1291756457
H  H27  1  0.08920000  0.39140000  0.50970000  1.0 0.1291756457
H  H28  1  0.60860000  0.69780000  0.99030000  1.0 0.1291756457
H  H29  1  0.30220000  0.91080000  0.99030000  1.0 0.1291756457
H  H30  1  0.08920000  0.39140000  0.99030000  1.0 0.1291756457
H  H31  1  0.69780000  0.60860000  0.49030000  1.0 0.1291756457
H  H32  1  0.91080000  0.30220000  0.49030000  1.0 0.1291756457
H  H33  1  0.39140000  0.08920000  0.49030000  1.0 0.1291756457
H  H34  1  0.69780000  0.60860000  0.00970000  1.0 0.1291756457
H  H35  1  0.91080000  0.30220000  0.00970000  1.0 0.1291756457
H  H36  1  0.39140000  0.08920000  0.00970000  1.0 0.1291756457
H  H37  1  0.62740000  0.77460000  0.42670000  1.0 0.1291756457
H  H38  1  0.22540000  0.85280000  0.42670000  1.0 0.1291756457
H  H39  1  0.14720000  0.37260000  0.42670000  1.0 0.1291756457
H  H40  1  0.62740000  0.77460000  0.07330000  1.0 0.1291756457
H  H41  1  0.22540000  0.85280000  0.07330000  1.0 0.1291756457
H  H42  1  0.14720000  0.37260000  0.07330000  1.0 0.1291756457
H  H43  1  0.77460000  0.62740000  0.57330000  1.0 0.1291756457
H  H44  1  0.85280000  0.22540000  0.57330000  1.0 0.1291756457
H  H45  1  0.37260000  0.14720000  0.57330000  1.0 0.1291756457
H  H46  1  0.77460000  0.62740000  0.92670000  1.0 0.1291756457
H  H47  1  0.85280000  0.22540000  0.92670000  1.0 0.1291756457
H  H48  1  0.37260000  0.14720000  0.92670000  1.0 0.1291756457
C  C1  1  0.58830000  0.85740000  0.55120000  1.0 -0.1612226782
C  C2  1  0.14260000  0.73090000  0.55120000  1.0 -0.1612226782
C  C3  1  0.26910000  0.41170000  0.55120000  1.0 -0.1612226782
C  C4  1  0.58830000  0.85740000  0.94880000  1.0 -0.1612226782
C  C5  1  0.14260000  0.73090000  0.94880000  1.0 -0.1612226782
C  C6  1  0.26910000  0.41170000  0.94880000  1.0 -0.1612226782
C  C7  1  0.85740000  0.58830000  0.44880000  1.0 -0.1612226782
C  C8  1  0.73090000  0.14260000  0.44880000  1.0 -0.1612226782
C  C9  1  0.41170000  0.26910000  0.44880000  1.0 -0.1612226782
C  C10  1  0.85740000  0.58830000  0.05120000  1.0 -0.1612226782
C  C11  1  0.73090000  0.14260000  0.05120000  1.0 -0.1612226782
C  C12  1  0.41170000  0.26910000  0.05120000  1.0 -0.1612226782
C  C13  1  0.52800000  0.88950000  0.61450000  1.0 0.5866627874
C  C14  1  0.11050000  0.63850000  0.61450000  1.0 0.5866627874
C  C15  1  0.36150000  0.47200000  0.61450000  1.0 0.5866627874
C  C16  1  0.52800000  0.88950000  0.88550000  1.0 0.5866627874
C  C17  1  0.11050000  0.63850000  0.88550000  1.0 0.5866627874
C  C18  1  0.36150000  0.47200000  0.88550000  1.0 0.5866627874
C  C19  1  0.88950000  0.52800000  0.38550000  1.0 0.5866627874
C  C20  1  0.63850000  0.11050000  0.38550000  1.0 0.5866627874
C  C21  1  0.47200000  0.36150000  0.38550000  1.0 0.5866627874
C  C22  1  0.88950000  0.52800000  0.11450000  1.0 0.5866627874
C  C23  1  0.63850000  0.11050000  0.11450000  1.0 0.5866627874
C  C24  1  0.47200000  0.36150000  0.11450000  1.0 0.5866627874
C  C25  1  0.57640000  0.72230000  0.46640000  1.0 -0.1907605398
C  C26  1  0.27770000  0.85410000  0.46640000  1.0 -0.1907605398
C  C27  1  0.14590000  0.42360000  0.46640000  1.0 -0.1907605398
C  C28  1  0.57640000  0.72230000  0.03360000  1.0 -0.1907605398
C  C29  1  0.27770000  0.85410000  0.03360000  1.0 -0.1907605398
C  C30  1  0.14590000  0.42360000  0.03360000  1.0 -0.1907605398
C  C31  1  0.72230000  0.57640000  0.53360000  1.0 -0.1907605398
C  C32  1  0.85410000  0.27770000  0.53360000  1.0 -0.1907605398
C  C33  1  0.42360000  0.14590000  0.53360000  1.0 -0.1907605398
C  C34  1  0.72230000  0.57640000  0.96640000  1.0 -0.1907605398
C  C35  1  0.85410000  0.27770000  0.96640000  1.0 -0.1907605398
C  C36  1  0.42360000  0.14590000  0.96640000  1.0 -0.1907605398
C  C37  1  0.50280000  0.63800000  0.40210000  1.0 0.5866627874
C  C38  1  0.36200000  0.86480000  0.40210000  1.0 0.5866627874
C  C39  1  0.13520000  0.49720000  0.40210000  1.0 0.5866627874
C  C40  1  0.50280000  0.63800000  0.09790000  1.0 0.5866627874
C  C41  1  0.36200000  0.86480000  0.09790000  1.0 0.5866627874
C  C42  1  0.13520000  0.49720000  0.09790000  1.0 0.5866627874
C  C43  1  0.63800000  0.50280000  0.59790000  1.0 0.5866627874
C  C44  1  0.86480000  0.36200000  0.59790000  1.0 0.5866627874
C  C45  1  0.49720000  0.13520000  0.59790000  1.0 0.5866627874
C  C46  1  0.63800000  0.50280000  0.90210000  1.0 0.5866627874
C  C47  1  0.86480000  0.36200000  0.90210000  1.0 0.5866627874
C  C48  1  0.49720000  0.13520000  0.90210000  1.0 0.5866627874
O  O1  1  0.52690000  0.76120000  0.52080000  1.0 -0.20847903
O  O2  1  0.23880000  0.76570000  0.52080000  1.0 -0.20847903
O  O3  1  0.23430000  0.47310000  0.52080000  1.0 -0.20847903
O  O4  1  0.52690000  0.76120000  0.97920000  1.0 -0.20847903
O  O5  1  0.23880000  0.76570000  0.97920000  1.0 -0.20847903
O  O6  1  0.23430000  0.47310000  0.97920000  1.0 -0.20847903
O  O7  1  0.76120000  0.52690000  0.47920000  1.0 -0.20847903
O  O8  1  0.76570000  0.23880000  0.47920000  1.0 -0.20847903
O  O9  1  0.47310000  0.23430000  0.47920000  1.0 -0.20847903
O  O10  1  0.76120000  0.52690000  0.02080000  1.0 -0.20847903
O  O11  1  0.76570000  0.23880000  0.02080000  1.0 -0.20847903
O  O12  1  0.47310000  0.23430000  0.02080000  1.0 -0.20847903
O  O13  1  0.43590000  0.83130000  0.62180000  1.0 -0.584015242
O  O14  1  0.16870000  0.60460000  0.62180000  1.0 -0.584015242
O  O15  1  0.39540000  0.56410000  0.62180000  1.0 -0.584015242
O  O16  1  0.43590000  0.83130000  0.87820000  1.0 -0.584015242
O  O17  1  0.16870000  0.60460000  0.87820000  1.0 -0.584015242
O  O18  1  0.39540000  0.56410000  0.87820000  1.0 -0.584015242
O  O19  1  0.83130000  0.43590000  0.37820000  1.0 -0.584015242
O  O20  1  0.60460000  0.16870000  0.37820000  1.0 -0.584015242
O  O21  1  0.56410000  0.39540000  0.37820000  1.0 -0.584015242
O  O22  1  0.83130000  0.43590000  0.12180000  1.0 -0.584015242
O  O23  1  0.60460000  0.16870000  0.12180000  1.0 -0.584015242
O  O24  1  0.56410000  0.39540000  0.12180000  1.0 -0.584015242
O  O25  1  0.57730000  0.97260000  0.65200000  1.0 -0.5288338877
O  O26  1  0.02740000  0.60470000  0.65200000  1.0 -0.5288338877
O  O27  1  0.39530000  0.42270000  0.65200000  1.0 -0.5288338877
O  O28  1  0.57730000  0.97260000  0.84800000  1.0 -0.5288338877
O  O29  1  0.02740000  0.60470000  0.84800000  1.0 -0.5288338877
O  O30  1  0.39530000  0.42270000  0.84800000  1.0 -0.5288338877
O  O31  1  0.97260000  0.57730000  0.34800000  1.0 -0.5288338877
O  O32  1  0.60470000  0.02740000  0.34800000  1.0 -0.5288338877
O  O33  1  0.42270000  0.39530000  0.34800000  1.0 -0.5288338877
O  O34  1  0.97260000  0.57730000  0.15200000  1.0 -0.5288338877
O  O35  1  0.60470000  0.02740000  0.15200000  1.0 -0.5288338877
O  O36  1  0.42270000  0.39530000  0.15200000  1.0 -0.5288338877
O  O37  1  0.41390000  0.61580000  0.40490000  1.0 -0.5562270103
O  O38  1  0.38420000  0.79810000  0.40490000  1.0 -0.5562270103
O  O39  1  0.20190000  0.58610000  0.40490000  1.0 -0.5562270103
O  O40  1  0.41390000  0.61580000  0.09510000  1.0 -0.5562270103
O  O41  1  0.38420000  0.79810000  0.09510000  1.0 -0.5562270103
O  O42  1  0.20190000  0.58610000  0.09510000  1.0 -0.5562270103
O  O43  1  0.61580000  0.41390000  0.59510000  1.0 -0.5562270103
O  O44  1  0.79810000  0.38420000  0.59510000  1.0 -0.5562270103
O  O45  1  0.58610000  0.20190000  0.59510000  1.0 -0.5562270103
O  O46  1  0.61580000  0.41390000  0.90490000  1.0 -0.5562270103
O  O47  1  0.79810000  0.38420000  0.90490000  1.0 -0.5562270103
O  O48  1  0.58610000  0.20190000  0.90490000  1.0 -0.5562270103
O  O49  1  0.54080000  0.60120000  0.34830000  1.0 -0.5508000372
O  O50  1  0.39880000  0.93960000  0.34830000  1.0 -0.5508000372
O  O51  1  0.06040000  0.45920000  0.34830000  1.0 -0.5508000372
O  O52  1  0.54080000  0.60120000  0.15170000  1.0 -0.5508000372
O  O53  1  0.39880000  0.93960000  0.15170000  1.0 -0.5508000372
O  O54  1  0.06040000  0.45920000  0.15170000  1.0 -0.5508000372
O  O55  1  0.60120000  0.54080000  0.65170000  1.0 -0.5508000372
O  O56  1  0.93960000  0.39880000  0.65170000  1.0 -0.5508000372
O  O57  1  0.45920000  0.06040000  0.65170000  1.0 -0.5508000372
O  O58  1  0.60120000  0.54080000  0.84830000  1.0 -0.5508000372
O  O59  1  0.93960000  0.39880000  0.84830000  1.0 -0.5508000372
O  O60  1  0.45920000  0.06040000  0.84830000  1.0 -0.5508000372
O  O61  1  0.68230000  0.17550000  0.75000000  1.0 0.0458419417
O  O62  1  0.82450000  0.50680000  0.75000000  1.0 0.0439766982
O  O63  1  0.49320000  0.31770000  0.75000000  1.0 0.0293651653
O  O64  1  0.17550000  0.68230000  0.25000000  1.0 0.0293651653
O  O65  1  0.50680000  0.82450000  0.25000000  1.0 0.0293651653
O  O66  1  0.31770000  0.49320000  0.25000000  1.0 0.0439766982
O  O67  1  0.33333333  0.66666667  0.75000000  1.0 -0.0679568275
O  O68  1  0.66666667  0.33333333  0.25000000  1.0 -0.0679568275
