# DDEC6 charges by PACMAN v1.1 (https://github.com/mtap-research/PACMAN-charge/)
data_OBUBIW_ASR_pacman
_symmetry_space_group_name_H-M   'P 1'
_cell_length_a   15.52200000
_cell_length_b   15.52200000
_cell_length_c   13.71200000
_cell_angle_alpha   90.00000000
_cell_angle_beta   90.00000000
_cell_angle_gamma   120.00000000
_symmetry_Int_Tables_number   1
_chemical_formula_structural   La2Cu3H24(C8O11)3
_chemical_formula_sum   'La4 Cu6 H48 C48 O66'
_cell_volume   2861.05887267
_cell_formula_units_Z   2
loop_
 _symmetry_equiv_pos_site_id
 _symmetry_equiv_pos_as_xyz
  1  'x, y, z'
loop_
 _atom_site_type_symbol
 _atom_site_label
 _atom_site_symmetry_multiplicity
 _atom_site_fract_x
 _atom_site_fract_y
 _atom_site_fract_z
 _atom_site_occupancy
 _atom_site_charge
La  La1  1  0.66666667  0.33333333  0.53937000  1.0 1.7186125931
La  La2  1  0.66666667  0.33333333  0.96063000  1.0 1.7186125931
La  La3  1  0.33333333  0.66666667  0.46063000  1.0 1.7186125931
La  La4  1  0.33333333  0.66666667  0.03937000  1.0 1.7186125931
Cu  Cu1  1  0.52863000  0.50200000  0.25000000  1.0 0.9168647743
Cu  Cu2  1  0.49800000  0.02663000  0.25000000  1.0 0.9168647743
Cu  Cu3  1  0.97337000  0.47137000  0.25000000  1.0 0.9168647743
Cu  Cu4  1  0.50200000  0.52863000  0.75000000  1.0 0.9168647743
Cu  Cu5  1  0.02663000  0.49800000  0.75000000  1.0 0.9168647743
Cu  Cu6  1  0.47137000  0.97337000  0.75000000  1.0 0.9168647743
H  H1  1  0.39070000  0.30290000  0.51000000  1.0 0.1408754654
H  H2  1  0.69710000  0.08780000  0.51000000  1.0 0.1408754654
H  H3  1  0.91220000  0.60930000  0.51000000  1.0 0.1408754654
H  H4  1  0.39070000  0.30290000  0.99000000  1.0 0.1408754654
H  H5  1  0.69710000  0.08780000  0.99000000  1.0 0.1408754654
H  H6  1  0.91220000  0.60930000  0.99000000  1.0 0.1408754654
H  H7  1  0.30290000  0.39070000  0.49000000  1.0 0.1408754654
H  H8  1  0.08780000  0.69710000  0.49000000  1.0 0.1408754654
H  H9  1  0.60930000  0.91220000  0.49000000  1.0 0.1408754654
H  H10  1  0.30290000  0.39070000  0.01000000  1.0 0.1408754654
H  H11  1  0.08780000  0.69710000  0.01000000  1.0 0.1408754654
H  H12  1  0.60930000  0.91220000  0.01000000  1.0 0.1408754654
H  H13  1  0.37270000  0.22610000  0.42670000  1.0 0.1408754654
H  H14  1  0.77390000  0.14660000  0.42670000  1.0 0.1408754654
H  H15  1  0.85340000  0.62730000  0.42670000  1.0 0.1408754654
H  H16  1  0.37270000  0.22610000  0.07330000  1.0 0.1408754654
H  H17  1  0.77390000  0.14660000  0.07330000  1.0 0.1408754654
H  H18  1  0.85340000  0.62730000  0.07330000  1.0 0.1408754654
H  H19  1  0.22610000  0.37270000  0.57330000  1.0 0.1408754654
H  H20  1  0.14660000  0.77390000  0.57330000  1.0 0.1408754654
H  H21  1  0.62730000  0.85340000  0.57330000  1.0 0.1408754654
H  H22  1  0.22610000  0.37270000  0.92670000  1.0 0.1408754654
H  H23  1  0.14660000  0.77390000  0.92670000  1.0 0.1408754654
H  H24  1  0.62730000  0.85340000  0.92670000  1.0 0.1408754654
H  H25  1  0.38420000  0.09920000  0.49440000  1.0 0.1408754654
H  H26  1  0.90080000  0.28500000  0.49440000  1.0 0.1408754654
H  H27  1  0.71500000  0.61580000  0.49440000  1.0 0.1408754654
H  H28  1  0.38420000  0.09920000  0.00560000  1.0 0.1408754654
H  H29  1  0.90080000  0.28500000  0.00560000  1.0 0.1408754654
H  H30  1  0.71500000  0.61580000  0.00560000  1.0 0.1408754654
H  H31  1  0.09920000  0.38420000  0.50560000  1.0 0.1408754654
H  H32  1  0.28500000  0.90080000  0.50560000  1.0 0.1408754654
H  H33  1  0.61580000  0.71500000  0.50560000  1.0 0.1408754654
H  H34  1  0.09920000  0.38420000  0.99440000  1.0 0.1408754654
H  H35  1  0.28500000  0.90080000  0.99440000  1.0 0.1408754654
H  H36  1  0.61580000  0.71500000  0.99440000  1.0 0.1408754654
H  H37  1  0.35460000  0.13660000  0.58830000  1.0 0.1408754654
H  H38  1  0.86340000  0.21800000  0.58830000  1.0 0.1408754654
H  H39  1  0.78200000  0.64540000  0.58830000  1.0 0.1408754654
H  H40  1  0.35460000  0.13660000  0.91170000  1.0 0.1408754654
H  H41  1  0.86340000  0.21800000  0.91170000  1.0 0.1408754654
H  H42  1  0.78200000  0.64540000  0.91170000  1.0 0.1408754654
H  H43  1  0.13660000  0.35460000  0.41170000  1.0 0.1408754654
H  H44  1  0.21800000  0.86340000  0.41170000  1.0 0.1408754654
H  H45  1  0.64540000  0.78200000  0.41170000  1.0 0.1408754654
H  H46  1  0.13660000  0.35460000  0.08830000  1.0 0.1408754654
H  H47  1  0.21800000  0.86340000  0.08830000  1.0 0.1408754654
H  H48  1  0.64540000  0.78200000  0.08830000  1.0 0.1408754654
C  C1  1  0.49760000  0.36200000  0.40310000  1.0 0.6295831767
C  C2  1  0.63800000  0.13560000  0.40310000  1.0 0.6295831767
C  C3  1  0.86440000  0.50240000  0.40310000  1.0 0.6295831767
C  C4  1  0.49760000  0.36200000  0.09690000  1.0 0.6295831767
C  C5  1  0.63800000  0.13560000  0.09690000  1.0 0.6295831767
C  C6  1  0.86440000  0.50240000  0.09690000  1.0 0.6295831767
C  C7  1  0.36200000  0.49760000  0.59690000  1.0 0.6295831767
C  C8  1  0.13560000  0.63800000  0.59690000  1.0 0.6295831767
C  C9  1  0.50240000  0.86440000  0.59690000  1.0 0.6295831767
C  C10  1  0.36200000  0.49760000  0.90310000  1.0 0.6295831767
C  C11  1  0.13560000  0.63800000  0.90310000  1.0 0.6295831767
C  C12  1  0.50240000  0.86440000  0.90310000  1.0 0.6295831767
C  C13  1  0.42320000  0.27830000  0.46700000  1.0 -0.1702747825
C  C14  1  0.72170000  0.14490000  0.46700000  1.0 -0.1702747825
C  C15  1  0.85510000  0.57680000  0.46700000  1.0 -0.1702747825
C  C16  1  0.42320000  0.27830000  0.03300000  1.0 -0.1702747825
C  C17  1  0.72170000  0.14490000  0.03300000  1.0 -0.1702747825
C  C18  1  0.85510000  0.57680000  0.03300000  1.0 -0.1702747825
C  C19  1  0.27830000  0.42320000  0.53300000  1.0 -0.1702747825
C  C20  1  0.14490000  0.72170000  0.53300000  1.0 -0.1702747825
C  C21  1  0.57680000  0.85510000  0.53300000  1.0 -0.1702747825
C  C22  1  0.27830000  0.42320000  0.96700000  1.0 -0.1702747825
C  C23  1  0.14490000  0.72170000  0.96700000  1.0 -0.1702747825
C  C24  1  0.57680000  0.85510000  0.96700000  1.0 -0.1702747825
C  C25  1  0.41020000  0.14160000  0.55140000  1.0 -0.15793113
C  C26  1  0.85840000  0.26860000  0.55140000  1.0 -0.15793113
C  C27  1  0.73140000  0.58980000  0.55140000  1.0 -0.15793113
C  C28  1  0.41020000  0.14160000  0.94860000  1.0 -0.15793113
C  C29  1  0.85840000  0.26860000  0.94860000  1.0 -0.15793113
C  C30  1  0.73140000  0.58980000  0.94860000  1.0 -0.15793113
C  C31  1  0.14160000  0.41020000  0.44860000  1.0 -0.15793113
C  C32  1  0.26860000  0.85840000  0.44860000  1.0 -0.15793113
C  C33  1  0.58980000  0.73140000  0.44860000  1.0 -0.15793113
C  C34  1  0.14160000  0.41020000  0.05140000  1.0 -0.15793113
C  C35  1  0.26860000  0.85840000  0.05140000  1.0 -0.15793113
C  C36  1  0.58980000  0.73140000  0.05140000  1.0 -0.15793113
C  C37  1  0.46880000  0.10820000  0.61390000  1.0 0.6103079137
C  C38  1  0.89180000  0.36060000  0.61390000  1.0 0.6103079137
C  C39  1  0.63940000  0.53120000  0.61390000  1.0 0.6103079137
C  C40  1  0.46880000  0.10820000  0.88610000  1.0 0.6103079137
C  C41  1  0.89180000  0.36060000  0.88610000  1.0 0.6103079137
C  C42  1  0.63940000  0.53120000  0.88610000  1.0 0.6103079137
C  C43  1  0.10820000  0.46880000  0.38610000  1.0 0.6103079137
C  C44  1  0.36060000  0.89180000  0.38610000  1.0 0.6103079137
C  C45  1  0.53120000  0.63940000  0.38610000  1.0 0.6103079137
C  C46  1  0.10820000  0.46880000  0.11390000  1.0 0.6103079137
C  C47  1  0.36060000  0.89180000  0.11390000  1.0 0.6103079137
C  C48  1  0.53120000  0.63940000  0.11390000  1.0 0.6103079137
O  O1  1  0.47250000  0.23970000  0.52260000  1.0 -0.15793113
O  O2  1  0.76030000  0.23280000  0.52260000  1.0 -0.15793113
O  O3  1  0.76720000  0.52750000  0.52260000  1.0 -0.15793113
O  O4  1  0.47250000  0.23970000  0.97740000  1.0 -0.15793113
O  O5  1  0.76030000  0.23280000  0.97740000  1.0 -0.15793113
O  O6  1  0.76720000  0.52750000  0.97740000  1.0 -0.15793113
O  O7  1  0.23970000  0.47250000  0.47740000  1.0 -0.15793113
O  O8  1  0.23280000  0.76030000  0.47740000  1.0 -0.15793113
O  O9  1  0.52750000  0.76720000  0.47740000  1.0 -0.15793113
O  O10  1  0.23970000  0.47250000  0.02260000  1.0 -0.15793113
O  O11  1  0.23280000  0.76030000  0.02260000  1.0 -0.15793113
O  O12  1  0.52750000  0.76720000  0.02260000  1.0 -0.15793113
O  O13  1  0.58630000  0.38430000  0.40710000  1.0 -0.5528705302
O  O14  1  0.61570000  0.20200000  0.40710000  1.0 -0.5528705302
O  O15  1  0.79800000  0.41370000  0.40710000  1.0 -0.5528705302
O  O16  1  0.58630000  0.38430000  0.09290000  1.0 -0.5528705302
O  O17  1  0.61570000  0.20200000  0.09290000  1.0 -0.5528705302
O  O18  1  0.79800000  0.41370000  0.09290000  1.0 -0.5528705302
O  O19  1  0.38430000  0.58630000  0.59290000  1.0 -0.5528705302
O  O20  1  0.20200000  0.61570000  0.59290000  1.0 -0.5528705302
O  O21  1  0.41370000  0.79800000  0.59290000  1.0 -0.5528705302
O  O22  1  0.38430000  0.58630000  0.90710000  1.0 -0.5528705302
O  O23  1  0.20200000  0.61570000  0.90710000  1.0 -0.5528705302
O  O24  1  0.41370000  0.79800000  0.90710000  1.0 -0.5528705302
O  O25  1  0.45980000  0.39970000  0.34860000  1.0 -0.5385633541
O  O26  1  0.60030000  0.06010000  0.34860000  1.0 -0.5385633541
O  O27  1  0.93990000  0.54020000  0.34860000  1.0 -0.5385633541
O  O28  1  0.45980000  0.39970000  0.15140000  1.0 -0.5385633541
O  O29  1  0.60030000  0.06010000  0.15140000  1.0 -0.5385633541
O  O30  1  0.93990000  0.54020000  0.15140000  1.0 -0.5385633541
O  O31  1  0.39970000  0.45980000  0.65140000  1.0 -0.5385633541
O  O32  1  0.06010000  0.60030000  0.65140000  1.0 -0.5385633541
O  O33  1  0.54020000  0.93990000  0.65140000  1.0 -0.5385633541
O  O34  1  0.39970000  0.45980000  0.84860000  1.0 -0.5385633541
O  O35  1  0.06010000  0.60030000  0.84860000  1.0 -0.5385633541
O  O36  1  0.54020000  0.93990000  0.84860000  1.0 -0.5385633541
O  O37  1  0.67400000  0.32900000  0.75000000  1.0 -0.3740927312
O  O38  1  0.67100000  0.34500000  0.75000000  1.0 -0.3740927312
O  O39  1  0.65500000  0.32600000  0.75000000  1.0 -0.3740927312
O  O40  1  0.32900000  0.67400000  0.25000000  1.0 -0.3740927312
O  O41  1  0.34500000  0.67100000  0.25000000  1.0 -0.3740927312
O  O42  1  0.32600000  0.65500000  0.25000000  1.0 -0.3740927312
O  O43  1  0.56080000  0.16530000  0.62290000  1.0 -0.5315155569
O  O44  1  0.83470000  0.39550000  0.62290000  1.0 -0.5315155569
O  O45  1  0.60450000  0.43920000  0.62290000  1.0 -0.5315155569
O  O46  1  0.56080000  0.16530000  0.87710000  1.0 -0.5315155569
O  O47  1  0.83470000  0.39550000  0.87710000  1.0 -0.5315155569
O  O48  1  0.60450000  0.43920000  0.87710000  1.0 -0.5315155569
O  O49  1  0.16530000  0.56080000  0.37710000  1.0 -0.5315155569
O  O50  1  0.39550000  0.83470000  0.37710000  1.0 -0.5315155569
O  O51  1  0.43920000  0.60450000  0.37710000  1.0 -0.5315155569
O  O52  1  0.16530000  0.56080000  0.12290000  1.0 -0.5315155569
O  O53  1  0.39550000  0.83470000  0.12290000  1.0 -0.5315155569
O  O54  1  0.43920000  0.60450000  0.12290000  1.0 -0.5315155569
O  O55  1  0.58130000  0.60470000  0.35010000  1.0 -0.5385633541
O  O56  1  0.39530000  0.97660000  0.35010000  1.0 -0.5385633541
O  O57  1  0.02340000  0.41870000  0.35010000  1.0 -0.5385633541
O  O58  1  0.58130000  0.60470000  0.14990000  1.0 -0.5385633541
O  O59  1  0.39530000  0.97660000  0.14990000  1.0 -0.5385633541
O  O60  1  0.02340000  0.41870000  0.14990000  1.0 -0.5385633541
O  O61  1  0.60470000  0.58130000  0.64990000  1.0 -0.5385633541
O  O62  1  0.97660000  0.39530000  0.64990000  1.0 -0.5385633541
O  O63  1  0.41870000  0.02340000  0.64990000  1.0 -0.5385633541
O  O64  1  0.60470000  0.58130000  0.85010000  1.0 -0.5385633541
O  O65  1  0.97660000  0.39530000  0.85010000  1.0 -0.5385633541
O  O66  1  0.41870000  0.02340000  0.85010000  1.0 -0.5385633541
