# DDEC6 charges by PACMAN v1.1 (https://github.com/mtap-research/PACMAN-charge/)
data_OBUREL_ASR_pacman
_symmetry_space_group_name_H-M   'P 1'
_cell_length_a   14.24500000
_cell_length_b   14.24500000
_cell_length_c   14.24500000
_cell_angle_alpha   96.08910000
_cell_angle_beta   96.08910000
_cell_angle_gamma   96.08910000
_symmetry_Int_Tables_number   1
_chemical_formula_structural   CuH11C16NO6
_chemical_formula_sum   'Cu6 H66 C96 N6 O36'
_cell_volume   2837.87800274
_cell_formula_units_Z   6
loop_
 _symmetry_equiv_pos_site_id
 _symmetry_equiv_pos_as_xyz
  1  'x, y, z'
loop_
 _atom_site_type_symbol
 _atom_site_label
 _atom_site_symmetry_multiplicity
 _atom_site_fract_x
 _atom_site_fract_y
 _atom_site_fract_z
 _atom_site_occupancy
 _atom_site_charge
Cu  Cu1  1  0.07940000  0.47892000  0.46982000  1.0 0.8323225951
Cu  Cu2  1  0.47892000  0.46982000  0.07940000  1.0 0.8323225951
Cu  Cu3  1  0.46982000  0.07940000  0.47892000  1.0 0.8323225951
Cu  Cu4  1  0.92060000  0.52108000  0.53018000  1.0 0.8323225951
Cu  Cu5  1  0.52108000  0.53018000  0.92060000  1.0 0.8323225951
Cu  Cu6  1  0.53018000  0.92060000  0.52108000  1.0 0.8323225951
H  H1  1  0.24180000  0.48310000  0.75420000  1.0 0.1367572759
H  H2  1  0.48310000  0.75420000  0.24180000  1.0 0.1367572759
H  H3  1  0.75420000  0.24180000  0.48310000  1.0 0.1367572759
H  H4  1  0.75820000  0.51690000  0.24580000  1.0 0.1367572759
H  H5  1  0.51690000  0.24580000  0.75820000  1.0 0.1367572759
H  H6  1  0.24580000  0.75820000  0.51690000  1.0 0.1367572759
H  H7  1  0.18360000  0.40900000  0.00620000  1.0 0.1299224334
H  H8  1  0.40900000  0.00620000  0.18360000  1.0 0.1299224334
H  H9  1  0.00620000  0.18360000  0.40900000  1.0 0.1299224334
H  H10  1  0.81640000  0.59100000  0.99380000  1.0 0.1299224334
H  H11  1  0.59100000  0.99380000  0.81640000  1.0 0.1299224334
H  H12  1  0.99380000  0.81640000  0.59100000  1.0 0.1299224334
H  H13  1  0.97100000  0.42500000  0.80470000  1.0 0.1201305266
H  H14  1  0.42500000  0.80470000  0.97100000  1.0 0.1201305266
H  H15  1  0.80470000  0.97100000  0.42500000  1.0 0.1201305266
H  H16  1  0.02900000  0.57500000  0.19530000  1.0 0.1201305266
H  H17  1  0.57500000  0.19530000  0.02900000  1.0 0.1201305266
H  H18  1  0.19530000  0.02900000  0.57500000  1.0 0.1201305266
H  H19  1  0.72430000  0.32960000  0.01720000  1.0 0.1201305266
H  H20  1  0.32960000  0.01720000  0.72430000  1.0 0.1201305266
H  H21  1  0.01720000  0.72430000  0.32960000  1.0 0.1201305266
H  H22  1  0.27570000  0.67040000  0.98280000  1.0 0.1201305266
H  H23  1  0.67040000  0.98280000  0.27570000  1.0 0.1201305266
H  H24  1  0.98280000  0.27570000  0.67040000  1.0 0.1201305266
H  H25  1  0.69650000  0.27500000  0.16020000  1.0 0.1201305266
H  H26  1  0.27500000  0.16020000  0.69650000  1.0 0.1201305266
H  H27  1  0.16020000  0.69650000  0.27500000  1.0 0.1201305266
H  H28  1  0.30350000  0.72500000  0.83980000  1.0 0.1201305266
H  H29  1  0.72500000  0.83980000  0.30350000  1.0 0.1201305266
H  H30  1  0.83980000  0.30350000  0.72500000  1.0 0.1201305266
H  H31  1  0.81890000  0.25650000  0.26960000  1.0 0.1145292297
H  H32  1  0.25650000  0.26960000  0.81890000  1.0 0.1145292297
H  H33  1  0.26960000  0.81890000  0.25650000  1.0 0.1145292297
H  H34  1  0.18110000  0.74350000  0.73040000  1.0 0.1145292297
H  H35  1  0.74350000  0.73040000  0.18110000  1.0 0.1145292297
H  H36  1  0.73040000  0.18110000  0.74350000  1.0 0.1145292297
H  H37  1  0.97520000  0.28700000  0.23850000  1.0 0.1299224334
H  H38  1  0.28700000  0.23850000  0.97520000  1.0 0.1299224334
H  H39  1  0.23850000  0.97520000  0.28700000  1.0 0.1299224334
H  H40  1  0.02480000  0.71300000  0.76150000  1.0 0.1299224334
H  H41  1  0.71300000  0.76150000  0.02480000  1.0 0.1299224334
H  H42  1  0.76150000  0.02480000  0.71300000  1.0 0.1299224334
H  H43  1  0.06840000  0.30180000  0.06690000  1.0 0.2256817297
H  H44  1  0.30180000  0.06690000  0.06840000  1.0 0.2256817297
H  H45  1  0.06690000  0.06840000  0.30180000  1.0 0.2256817297
H  H46  1  0.93160000  0.69820000  0.93310000  1.0 0.2256817297
H  H47  1  0.69820000  0.93310000  0.93160000  1.0 0.2256817297
H  H48  1  0.93310000  0.93160000  0.69820000  1.0 0.2256817297
H  H49  1  0.06700000  0.40760000  0.11190000  1.0 0.2256817297
H  H50  1  0.40760000  0.11190000  0.06700000  1.0 0.2256817297
H  H51  1  0.11190000  0.06700000  0.40760000  1.0 0.2256817297
H  H52  1  0.93300000  0.59240000  0.88810000  1.0 0.2256817297
H  H53  1  0.59240000  0.88810000  0.93300000  1.0 0.2256817297
H  H54  1  0.88810000  0.93300000  0.59240000  1.0 0.2256817297
H  H55  1  0.88270000  0.43800000  0.95230000  1.0 0.2191563175
H  H56  1  0.43800000  0.95230000  0.88270000  1.0 0.2191563175
H  H57  1  0.95230000  0.88270000  0.43800000  1.0 0.2191563175
H  H58  1  0.11730000  0.56200000  0.04770000  1.0 0.2191563175
H  H59  1  0.56200000  0.04770000  0.11730000  1.0 0.2191563175
H  H60  1  0.04770000  0.11730000  0.56200000  1.0 0.2191563175
H  H61  1  0.87840000  0.33290000  0.90270000  1.0 0.2256817297
H  H62  1  0.33290000  0.90270000  0.87840000  1.0 0.2256817297
H  H63  1  0.90270000  0.87840000  0.33290000  1.0 0.2256817297
H  H64  1  0.12160000  0.66710000  0.09730000  1.0 0.2256817297
H  H65  1  0.66710000  0.09730000  0.12160000  1.0 0.2256817297
H  H66  1  0.09730000  0.12160000  0.66710000  1.0 0.2256817297
C  C1  1  0.06541000  0.47371000  0.66551000  1.0 0.5504053608
C  C2  1  0.47371000  0.66551000  0.06541000  1.0 0.5504053608
C  C3  1  0.66551000  0.06541000  0.47371000  1.0 0.5504053608
C  C4  1  0.93459000  0.52629000  0.33449000  1.0 0.5504053608
C  C5  1  0.52629000  0.33449000  0.93459000  1.0 0.5504053608
C  C6  1  0.33449000  0.93459000  0.52629000  1.0 0.5504053608
C  C7  1  0.10081000  0.45631000  0.76421000  1.0 0.0039026859
C  C8  1  0.45631000  0.76421000  0.10081000  1.0 0.0039026859
C  C9  1  0.76421000  0.10081000  0.45631000  1.0 0.0039026859
C  C10  1  0.89919000  0.54369000  0.23579000  1.0 0.0039026859
C  C11  1  0.54369000  0.23579000  0.89919000  1.0 0.0039026859
C  C12  1  0.23579000  0.89919000  0.54369000  1.0 0.0039026859
C  C13  1  0.19773000  0.46613000  0.79493000  1.0 -0.1422787829
C  C14  1  0.46613000  0.79493000  0.19773000  1.0 -0.1422787829
C  C15  1  0.79493000  0.19773000  0.46613000  1.0 -0.1422787829
C  C16  1  0.80227000  0.53387000  0.20507000  1.0 -0.1422787829
C  C17  1  0.53387000  0.20507000  0.80227000  1.0 -0.1422787829
C  C18  1  0.20507000  0.80227000  0.53387000  1.0 -0.1422787829
C  C19  1  0.22759000  0.45049000  0.88679000  1.0 -0.00859766
C  C20  1  0.45049000  0.88679000  0.22759000  1.0 -0.00859766
C  C21  1  0.88679000  0.22759000  0.45049000  1.0 -0.00859766
C  C22  1  0.77241000  0.54951000  0.11321000  1.0 -0.00859766
C  C23  1  0.54951000  0.11321000  0.77241000  1.0 -0.00859766
C  C24  1  0.11321000  0.77241000  0.54951000  1.0 -0.00859766
C  C25  1  0.16250000  0.42160000  0.94540000  1.0 -0.2092842086
C  C26  1  0.42160000  0.94540000  0.16250000  1.0 -0.2092842086
C  C27  1  0.94540000  0.16250000  0.42160000  1.0 -0.2092842086
C  C28  1  0.83750000  0.57840000  0.05460000  1.0 -0.2092842086
C  C29  1  0.57840000  0.05460000  0.83750000  1.0 -0.2092842086
C  C30  1  0.05460000  0.83750000  0.57840000  1.0 -0.2092842086
C  C31  1  0.06611000  0.41081000  0.91581000  1.0 0.1643219665
C  C32  1  0.41081000  0.91581000  0.06611000  1.0 0.1643219665
C  C33  1  0.91581000  0.06611000  0.41081000  1.0 0.1643219665
C  C34  1  0.93389000  0.58919000  0.08419000  1.0 0.1643219665
C  C35  1  0.58919000  0.08419000  0.93389000  1.0 0.1643219665
C  C36  1  0.08419000  0.93389000  0.58919000  1.0 0.1643219665
C  C37  1  0.03583000  0.42993000  0.82503000  1.0 -0.2217825154
C  C38  1  0.42993000  0.82503000  0.03583000  1.0 -0.2217825154
C  C39  1  0.82503000  0.03583000  0.42993000  1.0 -0.2217825154
C  C40  1  0.96417000  0.57007000  0.17497000  1.0 -0.2217825154
C  C41  1  0.57007000  0.17497000  0.96417000  1.0 -0.2217825154
C  C42  1  0.17497000  0.96417000  0.57007000  1.0 -0.2217825154
C  C43  1  0.90200000  0.37560000  0.95970000  1.0 0.1367572759
C  C44  1  0.37560000  0.95970000  0.90200000  1.0 0.1367572759
C  C45  1  0.95970000  0.90200000  0.37560000  1.0 0.1367572759
C  C46  1  0.09800000  0.62440000  0.04030000  1.0 0.1367572759
C  C47  1  0.62440000  0.04030000  0.09800000  1.0 0.1367572759
C  C48  1  0.04030000  0.09800000  0.62440000  1.0 0.1367572759
C  C49  1  0.86650000  0.33880000  0.04460000  1.0 -0.0662250611
C  C50  1  0.33880000  0.04460000  0.86650000  1.0 -0.0662250611
C  C51  1  0.04460000  0.86650000  0.33880000  1.0 -0.0662250611
C  C52  1  0.13350000  0.66120000  0.95540000  1.0 -0.0662250611
C  C53  1  0.66120000  0.95540000  0.13350000  1.0 -0.0662250611
C  C54  1  0.95540000  0.13350000  0.66120000  1.0 -0.0662250611
C  C55  1  0.77440000  0.32070000  0.06150000  1.0 -0.1129666194
C  C56  1  0.32070000  0.06150000  0.77440000  1.0 -0.1129666194
C  C57  1  0.06150000  0.77440000  0.32070000  1.0 -0.1129666194
C  C58  1  0.22560000  0.67930000  0.93850000  1.0 -0.1129666194
C  C59  1  0.67930000  0.93850000  0.22560000  1.0 -0.1129666194
C  C60  1  0.93850000  0.22560000  0.67930000  1.0 -0.1129666194
C  C61  1  0.75850000  0.28880000  0.14680000  1.0 -0.0927840278
C  C62  1  0.28880000  0.14680000  0.75850000  1.0 -0.0927840278
C  C63  1  0.14680000  0.75850000  0.28880000  1.0 -0.0927840278
C  C64  1  0.24150000  0.71120000  0.85320000  1.0 -0.0927840278
C  C65  1  0.71120000  0.85320000  0.24150000  1.0 -0.0927840278
C  C66  1  0.85320000  0.24150000  0.71120000  1.0 -0.0927840278
C  C67  1  0.83170000  0.27710000  0.21190000  1.0 -0.0927840278
C  C68  1  0.27710000  0.21190000  0.83170000  1.0 -0.0927840278
C  C69  1  0.21190000  0.83170000  0.27710000  1.0 -0.0927840278
C  C70  1  0.16830000  0.72290000  0.78810000  1.0 -0.0927840278
C  C71  1  0.72290000  0.78810000  0.16830000  1.0 -0.0927840278
C  C72  1  0.78810000  0.16830000  0.72290000  1.0 -0.0927840278
C  C73  1  0.92510000  0.29540000  0.19410000  1.0 -0.1170345718
C  C74  1  0.29540000  0.19410000  0.92510000  1.0 -0.1170345718
C  C75  1  0.19410000  0.92510000  0.29540000  1.0 -0.1170345718
C  C76  1  0.07490000  0.70460000  0.80590000  1.0 -0.1170345718
C  C77  1  0.70460000  0.80590000  0.07490000  1.0 -0.1170345718
C  C78  1  0.80590000  0.07490000  0.70460000  1.0 -0.1170345718
C  C79  1  0.94130000  0.32680000  0.10810000  1.0 -0.0809910085
C  C80  1  0.32680000  0.10810000  0.94130000  1.0 -0.0809910085
C  C81  1  0.10810000  0.94130000  0.32680000  1.0 -0.0809910085
C  C82  1  0.05870000  0.67320000  0.89190000  1.0 -0.0809910085
C  C83  1  0.67320000  0.89190000  0.05870000  1.0 -0.0809910085
C  C84  1  0.89190000  0.05870000  0.67320000  1.0 -0.0809910085
C  C85  1  0.03050000  0.35430000  0.07120000  1.0 0.1299224334
C  C86  1  0.35430000  0.07120000  0.03050000  1.0 0.1299224334
C  C87  1  0.07120000  0.03050000  0.35430000  1.0 0.1299224334
C  C88  1  0.96950000  0.64570000  0.92880000  1.0 0.1367572759
C  C89  1  0.64570000  0.92880000  0.96950000  1.0 0.1299224334
C  C90  1  0.92880000  0.96950000  0.64570000  1.0 0.1299224334
C  C91  1  0.33027000  0.46917000  0.92497000  1.0 0.5504053608
C  C92  1  0.46917000  0.92497000  0.33027000  1.0 0.5504053608
C  C93  1  0.92497000  0.33027000  0.46917000  1.0 0.5504053608
C  C94  1  0.66973000  0.53083000  0.07503000  1.0 0.5504053608
C  C95  1  0.53083000  0.07503000  0.66973000  1.0 0.5504053608
C  C96  1  0.07503000  0.66973000  0.53083000  1.0 0.5504053608
N  N1  1  0.00251000  0.38066000  0.97848000  1.0 -0.3030126268
N  N2  1  0.38066000  0.97848000  0.00251000  1.0 -0.3030126268
N  N3  1  0.97848000  0.00251000  0.38066000  1.0 -0.3030126268
N  N4  1  0.99749000  0.61934000  0.02152000  1.0 -0.3030126268
N  N5  1  0.61934000  0.02152000  0.99749000  1.0 -0.3030126268
N  N6  1  0.02152000  0.99749000  0.61934000  1.0 -0.3030126268
O  O1  1  0.98173000  0.49310000  0.65282000  1.0 -0.5128117725
O  O2  1  0.49310000  0.65282000  0.98173000  1.0 -0.5128117725
O  O3  1  0.65282000  0.98173000  0.49310000  1.0 -0.5128117725
O  O4  1  0.01827000  0.50690000  0.34718000  1.0 -0.5128117725
O  O5  1  0.50690000  0.34718000  0.01827000  1.0 -0.5128117725
O  O6  1  0.34718000  0.01827000  0.50690000  1.0 -0.5128117725
O  O7  1  0.38729000  0.50049000  0.87206000  1.0 -0.488632294
O  O8  1  0.50049000  0.87206000  0.38729000  1.0 -0.488632294
O  O9  1  0.87206000  0.38729000  0.50049000  1.0 -0.488632294
O  O10  1  0.61271000  0.49951000  0.12794000  1.0 -0.488632294
O  O11  1  0.49951000  0.12794000  0.61271000  1.0 -0.488632294
O  O12  1  0.12794000  0.61271000  0.49951000  1.0 -0.488632294
O  O13  1  0.11922000  0.46322000  0.60323000  1.0 -0.488632294
O  O14  1  0.46322000  0.60323000  0.11922000  1.0 -0.488632294
O  O15  1  0.60323000  0.11922000  0.46322000  1.0 -0.488632294
O  O16  1  0.88078000  0.53678000  0.39677000  1.0 -0.488632294
O  O17  1  0.53678000  0.39677000  0.88078000  1.0 -0.488632294
O  O18  1  0.39677000  0.88078000  0.53678000  1.0 -0.488632294
O  O19  1  0.35165000  0.45155000  0.00944000  1.0 -0.5243945941
O  O20  1  0.45155000  0.00944000  0.35165000  1.0 -0.5252569541
O  O21  1  0.00944000  0.35165000  0.45155000  1.0 -0.5252569541
O  O22  1  0.64835000  0.54845000  0.99056000  1.0 -0.5243945941
O  O23  1  0.54845000  0.99056000  0.64835000  1.0 -0.5252569541
O  O24  1  0.99056000  0.64835000  0.54845000  1.0 -0.5252569541
O  O25  1  0.85794000  0.40054000  0.89404000  1.0 -0.3581731542
O  O26  1  0.40054000  0.89404000  0.85794000  1.0 -0.3581731542
O  O27  1  0.89404000  0.85794000  0.40054000  1.0 -0.3581731542
O  O28  1  0.14206000  0.59946000  0.10596000  1.0 -0.3581731542
O  O29  1  0.59946000  0.10596000  0.14206000  1.0 -0.3581731542
O  O30  1  0.10596000  0.14206000  0.59946000  1.0 -0.3581731542
O  O31  1  0.10110000  0.36090000  0.10950000  1.0 -0.3159411524
O  O32  1  0.36090000  0.10950000  0.10110000  1.0 -0.3159411524
O  O33  1  0.10950000  0.10110000  0.36090000  1.0 -0.3159411524
O  O34  1  0.89890000  0.63910000  0.89050000  1.0 -0.3159411524
O  O35  1  0.63910000  0.89050000  0.89890000  1.0 -0.3159411524
O  O36  1  0.89050000  0.89890000  0.63910000  1.0 -0.3159411524
