# DDEC6 charges by PACMAN v1.1 (https://github.com/mtap-research/PACMAN-charge/)
data_OCAQOY_ASR_pacman
_symmetry_space_group_name_H-M   'P 1'
_cell_length_a   16.19630000
_cell_length_b   16.19630000
_cell_length_c   11.53660000
_cell_angle_alpha   75.05470000
_cell_angle_beta   104.94500000
_cell_angle_gamma   139.39200000
_symmetry_Int_Tables_number   1
_chemical_formula_structural   V2NiH12C15N3O4
_chemical_formula_sum   'V8 Ni4 H48 C60 N12 O16'
_cell_volume   1893.81342043
_cell_formula_units_Z   4
loop_
 _symmetry_equiv_pos_site_id
 _symmetry_equiv_pos_as_xyz
  1  'x, y, z'
loop_
 _atom_site_type_symbol
 _atom_site_label
 _atom_site_symmetry_multiplicity
 _atom_site_fract_x
 _atom_site_fract_y
 _atom_site_fract_z
 _atom_site_occupancy
 _atom_site_charge
V  V1  1  0.01839000  0.80473000  0.17863000  1.0 1.7306536879
V  V2  1  0.80473000  0.01839000  0.32137000  1.0 1.7306536879
V  V3  1  0.98161000  0.19527000  0.82137000  1.0 1.7306536879
V  V4  1  0.19527000  0.98161000  0.67863000  1.0 1.7306536879
V  V5  1  0.23837000  0.94871000  0.43583000  1.0 1.7790626134
V  V6  1  0.94871000  0.23837000  0.06417000  1.0 1.7790626134
V  V7  1  0.76163000  0.05129000  0.56417000  1.0 1.7790626134
V  V8  1  0.05129000  0.76163000  0.93583000  1.0 1.7790626134
Ni  Ni1  1  0.50000000  0.00000000  0.50000000  1.0 0.6673886623
Ni  Ni2  1  0.00000000  0.50000000  0.00000000  1.0 0.6673886623
Ni  Ni3  1  0.00000000  0.00000000  0.50000000  1.0 0.5724245157
Ni  Ni4  1  0.00000000  0.00000000  0.00000000  1.0 0.5771233286
H  H1  1  0.50000000  0.86000000  0.35900000  1.0 0.0608864506
H  H2  1  0.86000000  0.50000000  0.14100000  1.0 0.0608864506
H  H3  1  0.50000000  0.14000000  0.64100000  1.0 0.0608864506
H  H4  1  0.14000000  0.50000000  0.85900000  1.0 0.0608864506
H  H5  1  0.41000000  0.67400000  0.36300000  1.0 0.1132497038
H  H6  1  0.67400000  0.41000000  0.13700000  1.0 0.1132497038
H  H7  1  0.59000000  0.32600000  0.63700000  1.0 0.1132497038
H  H8  1  0.32600000  0.59000000  0.86300000  1.0 0.1132497038
H  H9  1  0.20900000  0.52700000  0.63600000  1.0 0.1018276769
H  H10  1  0.52700000  0.20900000  0.86400000  1.0 0.1018276769
H  H11  1  0.79100000  0.47300000  0.36400000  1.0 0.1018276769
H  H12  1  0.47300000  0.79100000  0.13600000  1.0 0.1018276769
H  H13  1  0.31400000  0.73600000  0.64000000  1.0 0.0811224203
H  H14  1  0.73600000  0.31400000  0.86000000  1.0 0.0811224203
H  H15  1  0.68600000  0.26400000  0.36000000  1.0 0.0811224203
H  H16  1  0.26400000  0.68600000  0.14000000  1.0 0.0811224203
H  H17  1  0.19700000  0.43300000  0.31000000  1.0 0.1132497038
H  H18  1  0.43300000  0.19700000  0.19000000  1.0 0.1132497038
H  H19  1  0.80300000  0.56700000  0.69000000  1.0 0.1132497038
H  H20  1  0.56700000  0.80300000  0.81000000  1.0 0.1132497038
H  H21  1  0.08900000  0.21900000  0.32200000  1.0 0.0811224203
H  H22  1  0.21900000  0.08900000  0.17800000  1.0 0.0811224203
H  H23  1  0.91100000  0.78100000  0.67800000  1.0 0.0811224203
H  H24  1  0.78100000  0.91100000  0.82200000  1.0 0.0811224203
H  H25  1  0.13600000  0.19400000  0.66900000  1.0 0.1018276769
H  H26  1  0.19400000  0.13600000  0.83100000  1.0 0.1018276769
H  H27  1  0.86400000  0.80600000  0.33100000  1.0 0.1018276769
H  H28  1  0.80600000  0.86400000  0.16900000  1.0 0.1018276769
H  H29  1  0.22700000  0.38300000  0.67100000  1.0 0.1018276769
H  H30  1  0.38300000  0.22700000  0.82900000  1.0 0.1018276769
H  H31  1  0.77300000  0.61700000  0.32900000  1.0 0.1018276769
H  H32  1  0.61700000  0.77300000  0.17100000  1.0 0.1018276769
H  H33  1  0.68300000  0.12300000  0.31300000  1.0 0.0811224203
H  H34  1  0.12300000  0.68300000  0.18700000  1.0 0.0811224203
H  H35  1  0.31700000  0.87700000  0.68700000  1.0 0.0811224203
H  H36  1  0.87700000  0.31700000  0.81300000  1.0 0.0811224203
H  H37  1  0.69700000  0.12300000  0.12300000  1.0 0.1132497038
H  H38  1  0.12300000  0.69700000  0.37700000  1.0 0.1132497038
H  H39  1  0.30300000  0.87700000  0.87700000  1.0 0.1132497038
H  H40  1  0.87700000  0.30300000  0.62300000  1.0 0.1132497038
H  H41  1  0.30570000  0.89870000  0.06550000  1.0 0.1132497038
H  H42  1  0.89870000  0.30570000  0.43450000  1.0 0.1132497038
H  H43  1  0.69430000  0.10130000  0.93450000  1.0 0.1132497038
H  H44  1  0.10130000  0.69430000  0.56550000  1.0 0.1132497038
H  H45  1  0.31800000  0.91800000  0.25600000  1.0 0.0713933479
H  H46  1  0.91800000  0.31800000  0.24400000  1.0 0.0713933479
H  H47  1  0.68200000  0.08200000  0.74400000  1.0 0.0713933479
H  H48  1  0.08200000  0.68200000  0.75600000  1.0 0.0713933479
C  C1  1  0.43650000  0.78890000  0.41890000  1.0 0.0232692375
C  C2  1  0.78890000  0.43650000  0.08110000  1.0 0.0232692375
C  C3  1  0.56350000  0.21110000  0.58110000  1.0 0.0232692375
C  C4  1  0.21110000  0.56350000  0.91890000  1.0 0.0232692375
C  C5  1  0.38170000  0.67050000  0.41420000  1.0 -0.2001704415
C  C6  1  0.67050000  0.38170000  0.08580000  1.0 -0.2001704415
C  C7  1  0.61830000  0.32950000  0.58580000  1.0 -0.2001704415
C  C8  1  0.32950000  0.61830000  0.91420000  1.0 -0.2001704415
C  C9  1  0.29890000  0.57010000  0.49710000  1.0 0.0890314674
C  C10  1  0.57010000  0.29890000  0.00290000  1.0 0.0890314674
C  C11  1  0.70110000  0.42990000  0.50290000  1.0 0.0890314674
C  C12  1  0.42990000  0.70110000  0.99710000  1.0 0.0890314674
C  C13  1  0.27470000  0.59550000  0.58330000  1.0 -0.2089649622
C  C14  1  0.59550000  0.27470000  0.91670000  1.0 -0.2089649622
C  C15  1  0.72530000  0.40450000  0.41670000  1.0 -0.2089649622
C  C16  1  0.40450000  0.72530000  0.08330000  1.0 -0.2089649622
C  C17  1  0.33220000  0.71580000  0.58050000  1.0 0.0499447351
C  C18  1  0.71580000  0.33220000  0.91950000  1.0 0.0499447351
C  C19  1  0.66780000  0.28420000  0.41950000  1.0 0.0499447351
C  C20  1  0.28420000  0.66780000  0.08050000  1.0 0.0499447351
C  C21  1  0.23630000  0.44090000  0.49470000  1.0 0.0890314674
C  C22  1  0.44090000  0.23630000  0.00530000  1.0 0.0890314674
C  C23  1  0.76370000  0.55910000  0.50530000  1.0 0.0890314674
C  C24  1  0.55910000  0.76370000  0.99470000  1.0 0.0890314674
C  C25  1  0.19680000  0.38980000  0.38810000  1.0 -0.2001704415
C  C26  1  0.38980000  0.19680000  0.11190000  1.0 -0.2001704415
C  C27  1  0.80320000  0.61020000  0.61190000  1.0 -0.2001704415
C  C28  1  0.61020000  0.80320000  0.88810000  1.0 -0.2001704415
C  C29  1  0.13410000  0.26670000  0.39240000  1.0 0.0499447351
C  C30  1  0.26670000  0.13410000  0.10760000  1.0 0.0499447351
C  C31  1  0.86590000  0.73330000  0.60760000  1.0 0.0499447351
C  C32  1  0.73330000  0.86590000  0.89240000  1.0 0.0499447351
C  C33  1  0.14750000  0.24190000  0.59700000  1.0 0.0608864506
C  C34  1  0.24190000  0.14750000  0.90300000  1.0 0.0608864506
C  C35  1  0.85250000  0.75810000  0.40300000  1.0 0.0608864506
C  C36  1  0.75810000  0.85250000  0.09700000  1.0 0.0608864506
C  C37  1  0.21210000  0.36450000  0.60110000  1.0 -0.2089649622
C  C38  1  0.36450000  0.21210000  0.89890000  1.0 -0.2001704415
C  C39  1  0.78790000  0.63550000  0.39890000  1.0 -0.2001704415
C  C40  1  0.63550000  0.78790000  0.10110000  1.0 -0.2001704415
C  C41  1  0.61095000  0.08325000  0.25720000  1.0 0.0232692375
C  C42  1  0.08325000  0.61095000  0.24280000  1.0 0.0232692375
C  C43  1  0.38905000  0.91675000  0.74280000  1.0 0.0232692375
C  C44  1  0.91675000  0.38905000  0.75720000  1.0 0.0232692375
C  C45  1  0.61280000  0.07660000  0.14090000  1.0 -0.2290482227
C  C46  1  0.07660000  0.61280000  0.35910000  1.0 -0.2290482227
C  C47  1  0.38720000  0.92340000  0.85910000  1.0 -0.2290482227
C  C48  1  0.92340000  0.38720000  0.64090000  1.0 -0.2290482227
C  C49  1  0.50202000  0.00798000  0.06200000  1.0 0.0890314674
C  C50  1  0.00798000  0.50202000  0.43800000  1.0 0.0890314674
C  C51  1  0.49798000  0.99202000  0.93800000  1.0 0.0890314674
C  C52  1  0.99202000  0.49798000  0.56200000  1.0 0.0890314674
C  C53  1  0.39680000  0.95480000  0.10600000  1.0 -0.2198638361
C  C54  1  0.95480000  0.39680000  0.39400000  1.0 -0.2198638361
C  C55  1  0.60320000  0.04520000  0.89400000  1.0 -0.2198638361
C  C56  1  0.04520000  0.60320000  0.60600000  1.0 -0.2198638361
C  C57  1  0.40190000  0.96710000  0.22360000  1.0 0.0499447351
C  C58  1  0.96710000  0.40190000  0.27640000  1.0 0.0499447351
C  C59  1  0.59810000  0.03290000  0.77640000  1.0 0.0499447351
C  C60  1  0.03290000  0.59810000  0.72360000  1.0 0.0499447351
N  N1  1  0.41198000  0.81282000  0.49880000  1.0 -0.2198638361
N  N2  1  0.81282000  0.41198000  0.00120000  1.0 -0.2198638361
N  N3  1  0.58802000  0.18718000  0.50120000  1.0 -0.2198638361
N  N4  1  0.18718000  0.58802000  0.99880000  1.0 -0.2198638361
N  N5  1  0.50764000  0.02816000  0.30170000  1.0 -0.2508380417
N  N6  1  0.02816000  0.50764000  0.19830000  1.0 -0.2508380417
N  N7  1  0.49236000  0.97184000  0.69830000  1.0 -0.2508380417
N  N8  1  0.97184000  0.49236000  0.80170000  1.0 -0.2508380417
N  N9  1  0.10879000  0.19181000  0.49510000  1.0 -0.2290482227
N  N10  1  0.19181000  0.10879000  0.00490000  1.0 -0.2290482227
N  N11  1  0.89121000  0.80819000  0.50490000  1.0 -0.2290482227
N  N12  1  0.80819000  0.89121000  0.99510000  1.0 -0.2290482227
O  O1  1  0.32589000  0.92531000  0.47190000  1.0 -0.8799814139
O  O2  1  0.92531000  0.32589000  0.02810000  1.0 -0.8799814139
O  O3  1  0.67411000  0.07469000  0.52810000  1.0 -0.8799814139
O  O4  1  0.07469000  0.67411000  0.97190000  1.0 -0.8799814139
O  O5  1  0.97866000  0.87814000  0.13660000  1.0 -0.8942212814
O  O6  1  0.87814000  0.97866000  0.36340000  1.0 -0.8942212814
O  O7  1  0.02134000  0.12186000  0.86340000  1.0 -0.8961905394
O  O8  1  0.12186000  0.02134000  0.63660000  1.0 -0.8942212814
O  O9  1  0.16345000  0.90035000  0.56560000  1.0 -1.0368888929
O  O10  1  0.90035000  0.16345000  0.93440000  1.0 -1.0368888929
O  O11  1  0.83655000  0.09965000  0.43440000  1.0 -1.0347658549
O  O12  1  0.09965000  0.83655000  0.06560000  1.0 -1.0368888929
O  O13  1  0.11841000  0.85359000  0.31790000  1.0 -1.017889813
O  O14  1  0.85359000  0.11841000  0.18210000  1.0 -1.017889813
O  O15  1  0.88159000  0.14641000  0.68210000  1.0 -1.017889813
O  O16  1  0.14641000  0.88159000  0.81790000  1.0 -1.017889813
