# DDEC6 charges by PACMAN v1.1 (https://github.com/mtap-research/PACMAN-charge/)
data_OCAWAT_FSR_pacman
_symmetry_space_group_name_H-M   'P 1'
_cell_length_a   10.40600000
_cell_length_b   27.24420000
_cell_length_c   14.93140000
_cell_angle_alpha   90.00000000
_cell_angle_beta   120.50100000
_cell_angle_gamma   90.00000000
_symmetry_Int_Tables_number   1
_chemical_formula_structural   Cd3SiH16C25O17
_chemical_formula_sum   'Cd12 Si4 H64 C100 O68'
_cell_volume   3647.32392048
_cell_formula_units_Z   4
loop_
 _symmetry_equiv_pos_site_id
 _symmetry_equiv_pos_as_xyz
  1  'x, y, z'
loop_
 _atom_site_type_symbol
 _atom_site_label
 _atom_site_symmetry_multiplicity
 _atom_site_fract_x
 _atom_site_fract_y
 _atom_site_fract_z
 _atom_site_occupancy
 _atom_site_charge
Cd  Cd1  1  0.64639000  0.07005000  0.61975000  1.0 1.0419877025
Cd  Cd2  1  0.35361000  0.57005000  0.88025000  1.0 1.0419877025
Cd  Cd3  1  0.35361000  0.92995000  0.38025000  1.0 1.0419877025
Cd  Cd4  1  0.64639000  0.42995000  0.11975000  1.0 1.0419877025
Cd  Cd5  1  0.46749000  0.88271000  0.19760000  1.0 1.0003349762
Cd  Cd6  1  0.53251000  0.38271000  0.30240000  1.0 1.0003349762
Cd  Cd7  1  0.53251000  0.11729000  0.80240000  1.0 1.0003349762
Cd  Cd8  1  0.46749000  0.61729000  0.69760000  1.0 1.0003349762
Cd  Cd9  1  0.06965000  0.18832000  0.84080000  1.0 1.0003349762
Cd  Cd10  1  0.93035000  0.68832000  0.65920000  1.0 1.0003349762
Cd  Cd11  1  0.93035000  0.81168000  0.15920000  1.0 1.0050375613
Cd  Cd12  1  0.06965000  0.31168000  0.34080000  1.0 1.0003349762
Si  Si1  1  0.83634000  0.04853000  0.18566000  1.0 0.7656334194
Si  Si2  1  0.16366000  0.54853000  0.31434000  1.0 0.7640582276
Si  Si3  1  0.16366000  0.95147000  0.81434000  1.0 0.7640582276
Si  Si4  1  0.83634000  0.45147000  0.68566000  1.0 0.7640582276
H  H1  1  0.52730000  0.79240000  0.29940000  1.0 0.358426072
H  H2  1  0.47270000  0.29240000  0.20060000  1.0 0.358426072
H  H3  1  0.47270000  0.20760000  0.70060000  1.0 0.358426072
H  H4  1  0.52730000  0.70760000  0.79940000  1.0 0.358426072
H  H5  1  0.66180000  0.81930000  0.35450000  1.0 0.3752460482
H  H6  1  0.33820000  0.31930000  0.14550000  1.0 0.3752460482
H  H7  1  0.33820000  0.18070000  0.64550000  1.0 0.3752460482
H  H8  1  0.66180000  0.68070000  0.85450000  1.0 0.3752460482
H  H9  1  0.31270000  0.79850000  0.13350000  1.0 0.373389967
H  H10  1  0.68730000  0.29850000  0.36650000  1.0 0.373389967
H  H11  1  0.68730000  0.20150000  0.86650000  1.0 0.373389967
H  H12  1  0.31270000  0.70150000  0.63350000  1.0 0.373389967
H  H13  1  0.20410000  0.83610000  0.10440000  1.0 0.4058849665
H  H14  1  0.79590000  0.33610000  0.39560000  1.0 0.4058849665
H  H15  1  0.79590000  0.16390000  0.89560000  1.0 0.4058849665
H  H16  1  0.20410000  0.66390000  0.60440000  1.0 0.4058849665
H  H17  1  0.64170000  0.99960000  0.05910000  1.0 0.1799268203
H  H18  1  0.35830000  0.49960000  0.44090000  1.0 0.1799268203
H  H19  1  0.35830000  0.00040000  0.94090000  1.0 0.1799268203
H  H20  1  0.64170000  0.50040000  0.55910000  1.0 0.1799268203
H  H21  1  0.75350000  0.96640000  0.15210000  1.0 0.1867087188
H  H22  1  0.24650000  0.46640000  0.34790000  1.0 0.1867087188
H  H23  1  0.24650000  0.03360000  0.84790000  1.0 0.1867087188
H  H24  1  0.75350000  0.53360000  0.65210000  1.0 0.1867087188
H  H25  1  0.63650000  0.99860000  0.16220000  1.0 0.1799268203
H  H26  1  0.36350000  0.49860000  0.33780000  1.0 0.1799268203
H  H27  1  0.36350000  0.00140000  0.83780000  1.0 0.1799268203
H  H28  1  0.63650000  0.50140000  0.66220000  1.0 0.1799268203
H  H29  1  0.91770000  0.14660000  0.26210000  1.0 0.1212260713
H  H30  1  0.08230000  0.64660000  0.23790000  1.0 0.1212260713
H  H31  1  0.08230000  0.85340000  0.73790000  1.0 0.1212260713
H  H32  1  0.91770000  0.35340000  0.76210000  1.0 0.1212260713
H  H33  1  0.59210000  0.23740000  0.06690000  1.0 0.1212260713
H  H34  1  0.40790000  0.73740000  0.43310000  1.0 0.1212260713
H  H35  1  0.40790000  0.76260000  0.93310000  1.0 0.1212260713
H  H36  1  0.59210000  0.26260000  0.56690000  1.0 0.1212260713
H  H37  1  0.55420000  0.09220000  0.01430000  1.0 0.13802138
H  H38  1  0.44580000  0.59220000  0.48570000  1.0 0.13802138
H  H39  1  0.44580000  0.90780000  0.98570000  1.0 0.13802138
H  H40  1  0.55420000  0.40780000  0.51430000  1.0 0.13802138
H  H41  1  0.92650000  0.11050000  0.06680000  1.0 0.1212260713
H  H42  1  0.07350000  0.61050000  0.43320000  1.0 0.1212260713
H  H43  1  0.07350000  0.88950000  0.93320000  1.0 0.1212260713
H  H44  1  0.92650000  0.38950000  0.56680000  1.0 0.1212260713
H  H45  1  0.23860000  0.03700000  0.03990000  1.0 0.1290599259
H  H46  1  0.76140000  0.53700000  0.46010000  1.0 0.1290599259
H  H47  1  0.76140000  0.96300000  0.96010000  1.0 0.1290599259
H  H48  1  0.23860000  0.46300000  0.53990000  1.0 0.1290599259
H  H49  1  0.06640000  0.97890000  0.20360000  1.0 0.1212260713
H  H50  1  0.93360000  0.47890000  0.29640000  1.0 0.1212260713
H  H51  1  0.93360000  0.02110000  0.79640000  1.0 0.1212260713
H  H52  1  0.06640000  0.52110000  0.70360000  1.0 0.1212260713
H  H53  1  0.14700000  0.05790000  0.36330000  1.0 0.1212260713
H  H54  1  0.85300000  0.55790000  0.13670000  1.0 0.1212260713
H  H55  1  0.85300000  0.94210000  0.63670000  1.0 0.1212260713
H  H56  1  0.14700000  0.44210000  0.86330000  1.0 0.1212260713
H  H57  1  0.11340000  0.06700000  0.61850000  1.0 0.1212260713
H  H58  1  0.88660000  0.56700000  0.88150000  1.0 0.1212260713
H  H59  1  0.88660000  0.93300000  0.38150000  1.0 0.1212260713
H  H60  1  0.11340000  0.43300000  0.11850000  1.0 0.1212260713
H  H61  1  0.74660000  0.04650000  0.33990000  1.0 0.1290599259
H  H62  1  0.25340000  0.54650000  0.16010000  1.0 0.1290599259
H  H63  1  0.25340000  0.95350000  0.66010000  1.0 0.1290599259
H  H64  1  0.74660000  0.45350000  0.83990000  1.0 0.1290599259
C  C1  1  0.70060000  0.99708000  0.13350000  1.0 -0.719815552
C  C2  1  0.29940000  0.49708000  0.36650000  1.0 -0.719815552
C  C3  1  0.29940000  0.00292000  0.86650000  1.0 -0.719815552
C  C4  1  0.70060000  0.50292000  0.63350000  1.0 -0.719815552
C  C5  1  0.74540000  0.11004000  0.14470000  1.0 -0.1883801778
C  C6  1  0.25460000  0.61004000  0.35530000  1.0 -0.1883801778
C  C7  1  0.25460000  0.88996000  0.85530000  1.0 -0.1883801778
C  C8  1  0.74540000  0.38996000  0.64470000  1.0 -0.1883801778
C  C9  1  0.82530000  0.15127000  0.20240000  1.0 -0.0997703371
C  C10  1  0.17470000  0.65127000  0.29760000  1.0 -0.0997703371
C  C11  1  0.17470000  0.84873000  0.79760000  1.0 -0.0997703371
C  C12  1  0.82530000  0.34873000  0.70240000  1.0 -0.0997703371
C  C13  1  0.77130000  0.19876000  0.17360000  1.0 -0.0130658751
C  C14  1  0.22870000  0.69876000  0.32640000  1.0 -0.0130658751
C  C15  1  0.22870000  0.80124000  0.82640000  1.0 -0.0130658751
C  C16  1  0.77130000  0.30124000  0.67360000  1.0 -0.0130658751
C  C17  1  0.63130000  0.20595000  0.08560000  1.0 -0.1115673182
C  C18  1  0.36870000  0.70595000  0.41440000  1.0 -0.1115673182
C  C19  1  0.36870000  0.79405000  0.91440000  1.0 -0.1115673182
C  C20  1  0.63130000  0.29405000  0.58560000  1.0 -0.1115673182
C  C21  1  0.55040000  0.16583000  0.02590000  1.0 -0.0395880064
C  C22  1  0.44960000  0.66583000  0.47410000  1.0 -0.0395880064
C  C23  1  0.44960000  0.83417000  0.97410000  1.0 -0.0395880064
C  C24  1  0.55040000  0.33417000  0.52590000  1.0 -0.0395880064
C  C25  1  0.60860000  0.11871000  0.05550000  1.0 -0.0997703371
C  C26  1  0.39140000  0.61871000  0.44450000  1.0 -0.0997703371
C  C27  1  0.39140000  0.88129000  0.94450000  1.0 -0.0997703371
C  C28  1  0.60860000  0.38129000  0.55550000  1.0 -0.0997703371
C  C29  1  0.40380000  0.17231000  0.92690000  1.0 0.5756323489
C  C30  1  0.59620000  0.67231000  0.57310000  1.0 0.5756323489
C  C31  1  0.59620000  0.82769000  0.07310000  1.0 0.5756323489
C  C32  1  0.40380000  0.32769000  0.42690000  1.0 0.5756323489
C  C33  1  0.86840000  0.24054000  0.23670000  1.0 0.5221238287
C  C34  1  0.13160000  0.74054000  0.26330000  1.0 0.5221238287
C  C35  1  0.13160000  0.75946000  0.76330000  1.0 0.5221238287
C  C36  1  0.86840000  0.25946000  0.73670000  1.0 0.5221238287
C  C37  1  0.97640000  0.04512000  0.14170000  1.0 -0.1883801778
C  C38  1  0.02360000  0.54512000  0.35830000  1.0 -0.1883801778
C  C39  1  0.02360000  0.95488000  0.85830000  1.0 -0.1883801778
C  C40  1  0.97640000  0.45488000  0.64170000  1.0 -0.1883801778
C  C41  1  0.98560000  0.08272000  0.08100000  1.0 -0.0902329795
C  C42  1  0.01440000  0.58272000  0.41900000  1.0 -0.0902329795
C  C43  1  0.01440000  0.91728000  0.91900000  1.0 -0.0902329795
C  C44  1  0.98560000  0.41728000  0.58100000  1.0 -0.0902329795
C  C45  1  0.08070000  0.07936000  0.04170000  1.0 -0.0298528457
C  C46  1  0.91930000  0.57936000  0.45830000  1.0 -0.0298528457
C  C47  1  0.91930000  0.92064000  0.95830000  1.0 -0.0298528457
C  C48  1  0.08070000  0.42064000  0.54170000  1.0 -0.0298528457
C  C49  1  0.17370000  0.03902000  0.06540000  1.0 -0.0902329795
C  C50  1  0.82630000  0.53902000  0.43460000  1.0 -0.0902329795
C  C51  1  0.82630000  0.96098000  0.93460000  1.0 -0.0902329795
C  C52  1  0.17370000  0.46098000  0.56540000  1.0 -0.0902329795
C  C53  1  0.16960000  0.00161000  0.12700000  1.0 -0.0298528457
C  C54  1  0.83040000  0.50161000  0.37300000  1.0 -0.0298528457
C  C55  1  0.83040000  0.99839000  0.87300000  1.0 -0.0298528457
C  C56  1  0.16960000  0.49839000  0.62700000  1.0 -0.0298528457
C  C57  1  0.07040000  0.00445000  0.16380000  1.0 -0.082553176
C  C58  1  0.92960000  0.50445000  0.33620000  1.0 -0.082553176
C  C59  1  0.92960000  0.99555000  0.83620000  1.0 -0.082553176
C  C60  1  0.07040000  0.49555000  0.66380000  1.0 -0.082553176
C  C61  1  0.07900000  0.11780000  0.96950000  1.0 0.542638913
C  C62  1  0.92100000  0.61780000  0.53050000  1.0 0.542638913
C  C63  1  0.92100000  0.88220000  0.03050000  1.0 0.542638913
C  C64  1  0.07900000  0.38220000  0.46950000  1.0 0.542638913
C  C65  1  0.27020000  0.95823000  0.15150000  1.0 0.5527193698
C  C66  1  0.72980000  0.45823000  0.34850000  1.0 0.5527193698
C  C67  1  0.72980000  0.04177000  0.84850000  1.0 0.5527193698
C  C68  1  0.27020000  0.54177000  0.65150000  1.0 0.5527193698
C  C69  1  0.93420000  0.05079000  0.33100000  1.0 -0.2077549694
C  C70  1  0.06580000  0.55079000  0.16900000  1.0 -0.2077549694
C  C71  1  0.06580000  0.94921000  0.66900000  1.0 -0.2077549694
C  C72  1  0.93420000  0.44921000  0.83100000  1.0 -0.2077549694
C  C73  1  0.08820000  0.05741000  0.39380000  1.0 -0.0997703371
C  C74  1  0.91180000  0.55741000  0.10620000  1.0 -0.0997703371
C  C75  1  0.91180000  0.94259000  0.60620000  1.0 -0.0997703371
C  C76  1  0.08820000  0.44259000  0.89380000  1.0 -0.0997703371
C  C77  1  0.15550000  0.06324000  0.50040000  1.0 -0.0395880064
C  C78  1  0.84450000  0.56324000  0.99960000  1.0 -0.0395880064
C  C79  1  0.84450000  0.93676000  0.49960000  1.0 -0.0395880064
C  C80  1  0.15550000  0.43676000  0.00040000  1.0 -0.0395880064
C  C81  1  0.06860000  0.06346000  0.54680000  1.0 -0.0997703371
C  C82  1  0.93140000  0.56346000  0.95320000  1.0 -0.0997703371
C  C83  1  0.93140000  0.93654000  0.45320000  1.0 -0.0997703371
C  C84  1  0.06860000  0.43654000  0.04680000  1.0 -0.0997703371
C  C85  1  0.91540000  0.05846000  0.48610000  1.0 -0.0236745288
C  C86  1  0.08460000  0.55846000  0.01390000  1.0 -0.0236745288
C  C87  1  0.08460000  0.94154000  0.51390000  1.0 -0.0236745288
C  C88  1  0.91540000  0.44154000  0.98610000  1.0 -0.0236745288
C  C89  1  0.84910000  0.05117000  0.37960000  1.0 -0.0902329795
C  C90  1  0.15090000  0.55117000  0.12040000  1.0 -0.0902329795
C  C91  1  0.15090000  0.94883000  0.62040000  1.0 -0.0902329795
C  C92  1  0.84910000  0.44883000  0.87960000  1.0 -0.0902329795
C  C93  1  0.32130000  0.06909000  0.56820000  1.0 0.563000411
C  C94  1  0.67870000  0.56909000  0.93180000  1.0 0.563000411
C  C95  1  0.67870000  0.93091000  0.43180000  1.0 0.563000411
C  C96  1  0.32130000  0.43091000  0.06820000  1.0 0.563000411
C  C97  1  0.82070000  0.06106000  0.53530000  1.0 0.5104338678
C  C98  1  0.17930000  0.56106000  0.96470000  1.0 0.5104338678
C  C99  1  0.17930000  0.93894000  0.46470000  1.0 0.5104338678
C  C100  1  0.82070000  0.43894000  0.03530000  1.0 0.5104338678
O  O1  1  0.99040000  0.23202000  0.31730000  1.0 -0.551434539
O  O2  1  0.00960000  0.73202000  0.18270000  1.0 -0.551434539
O  O3  1  0.00960000  0.76798000  0.68270000  1.0 -0.551434539
O  O4  1  0.99040000  0.26798000  0.81730000  1.0 -0.551434539
O  O5  1  0.83060000  0.28386000  0.20710000  1.0 -0.5141297353
O  O6  1  0.16940000  0.78386000  0.29290000  1.0 -0.5141297353
O  O7  1  0.16940000  0.71614000  0.79290000  1.0 -0.5141297353
O  O8  1  0.83060000  0.21614000  0.70710000  1.0 -0.5141297353
O  O9  1  0.31570000  0.20450000  0.92540000  1.0 -0.559320241
O  O10  1  0.68430000  0.70450000  0.57460000  1.0 -0.559320241
O  O11  1  0.68430000  0.79550000  0.07460000  1.0 -0.559320241
O  O12  1  0.31570000  0.29550000  0.42540000  1.0 -0.559320241
O  O13  1  0.37490000  0.14437000  0.85120000  1.0 -0.551434539
O  O14  1  0.62510000  0.64437000  0.64880000  1.0 -0.551434539
O  O15  1  0.62510000  0.85563000  0.14880000  1.0 -0.551434539
O  O16  1  0.37490000  0.35563000  0.35120000  1.0 -0.551434539
O  O17  1  0.00490000  0.15710000  0.95500000  1.0 -0.5730420796
O  O18  1  0.99510000  0.65710000  0.54500000  1.0 -0.5730420796
O  O19  1  0.99510000  0.84290000  0.04500000  1.0 -0.5730420796
O  O20  1  0.00490000  0.34290000  0.45500000  1.0 -0.5730420796
O  O21  1  0.14800000  0.11033000  0.92310000  1.0 -0.500778203
O  O22  1  0.85200000  0.61033000  0.57690000  1.0 -0.500778203
O  O23  1  0.85200000  0.88967000  0.07690000  1.0 -0.500778203
O  O24  1  0.14800000  0.38967000  0.42310000  1.0 -0.500778203
O  O25  1  0.35080000  0.95432000  0.11180000  1.0 -0.5141297353
O  O26  1  0.64920000  0.45432000  0.38820000  1.0 -0.5141297353
O  O27  1  0.64920000  0.04568000  0.88820000  1.0 -0.5141297353
O  O28  1  0.35080000  0.54568000  0.61180000  1.0 -0.5141297353
O  O29  1  0.27000000  0.92446000  0.21130000  1.0 -0.6150042263
O  O30  1  0.73000000  0.42446000  0.28870000  1.0 -0.6144395319
O  O31  1  0.73000000  0.07554000  0.78870000  1.0 -0.6144395319
O  O32  1  0.27000000  0.57554000  0.71130000  1.0 -0.6144395319
O  O33  1  0.39580000  0.07113000  0.52240000  1.0 -0.500778203
O  O34  1  0.60420000  0.57113000  0.97760000  1.0 -0.500778203
O  O35  1  0.60420000  0.92887000  0.47760000  1.0 -0.500778203
O  O36  1  0.39580000  0.42887000  0.02240000  1.0 -0.500778203
O  O37  1  0.37580000  0.07120000  0.66370000  1.0 -0.559320241
O  O38  1  0.62420000  0.57120000  0.83630000  1.0 -0.559320241
O  O39  1  0.62420000  0.92880000  0.33630000  1.0 -0.559320241
O  O40  1  0.37580000  0.42880000  0.16370000  1.0 -0.559320241
O  O41  1  0.87800000  0.07545000  0.62810000  1.0 -0.5195926276
O  O42  1  0.12200000  0.57545000  0.87190000  1.0 -0.5195926276
O  O43  1  0.12200000  0.92455000  0.37190000  1.0 -0.5195926276
O  O44  1  0.87800000  0.42455000  0.12810000  1.0 -0.5195926276
O  O45  1  0.68550000  0.04967000  0.48330000  1.0 -0.500778203
O  O46  1  0.31450000  0.54967000  0.01670000  1.0 -0.500778203
O  O47  1  0.31450000  0.95033000  0.51670000  1.0 -0.500778203
O  O48  1  0.68550000  0.45033000  0.98330000  1.0 -0.500778203
O  O49  1  0.07910000  0.15343000  0.70500000  1.0 0.0738157707
O  O50  1  0.92090000  0.65343000  0.79500000  1.0 0.0738157707
O  O51  1  0.92090000  0.84657000  0.29500000  1.0 0.0738157707
O  O52  1  0.07910000  0.34657000  0.20500000  1.0 0.0738157707
O  O53  1  0.61570000  0.15247000  0.59170000  1.0 -0.0902329795
O  O54  1  0.38430000  0.65247000  0.90830000  1.0 -0.0997703371
O  O55  1  0.38430000  0.84753000  0.40830000  1.0 -0.0997703371
O  O56  1  0.61570000  0.34753000  0.09170000  1.0 -0.0902329795
O  O57  1  0.60580000  0.98635000  0.63020000  1.0 -0.0997703371
O  O58  1  0.39420000  0.48635000  0.86980000  1.0 -0.0997703371
O  O59  1  0.39420000  0.01365000  0.36980000  1.0 -0.0997703371
O  O60  1  0.60580000  0.51365000  0.13020000  1.0 -0.0902329795
O  O61  1  0.56500000  0.82106000  0.32620000  1.0 -0.6551312653
O  O62  1  0.43500000  0.32106000  0.17380000  1.0 -0.6551312653
O  O63  1  0.43500000  0.17894000  0.67380000  1.0 -0.6551312653
O  O64  1  0.56500000  0.67894000  0.82620000  1.0 -0.6551312653
O  O65  1  0.28670000  0.82793000  0.10590000  1.0 -0.68096517
O  O66  1  0.71330000  0.32793000  0.39410000  1.0 -0.68096517
O  O67  1  0.71330000  0.17207000  0.89410000  1.0 -0.68096517
O  O68  1  0.28670000  0.67207000  0.60590000  1.0 -0.68096517
