# DDEC6 charges by PACMAN v1.1 (https://github.com/mtap-research/PACMAN-charge/)
data_OCEGOV_FSR_pacman
_symmetry_space_group_name_H-M   'P 1'
_cell_length_a   7.01870000
_cell_length_b   7.01870000
_cell_length_c   7.50980000
_cell_angle_alpha   90.00000000
_cell_angle_beta   90.00000000
_cell_angle_gamma   90.00000000
_symmetry_Int_Tables_number   1
_chemical_formula_structural   SiNiH16C16(N2F3)2
_chemical_formula_sum   'Si1 Ni1 H16 C16 N4 F6'
_cell_volume   369.94889174
_cell_formula_units_Z   1
loop_
 _symmetry_equiv_pos_site_id
 _symmetry_equiv_pos_as_xyz
  1  'x, y, z'
loop_
 _atom_site_type_symbol
 _atom_site_label
 _atom_site_symmetry_multiplicity
 _atom_site_fract_x
 _atom_site_fract_y
 _atom_site_fract_z
 _atom_site_occupancy
 _atom_site_charge
Si  Si1  1  0.50000000  0.50000000  0.00000000  1.0 1.5293358016
Ni  Ni1  1  0.50000000  0.50000000  0.50000000  1.0 0.324684267
H  H1  1  0.81560000  0.41730000  0.76670000  1.0 0.0622419762
H  H2  1  0.58270000  0.81560000  0.76670000  1.0 0.0622419762
H  H3  1  0.18440000  0.58270000  0.76670000  1.0 0.0622419762
H  H4  1  0.41730000  0.18440000  0.76670000  1.0 0.0622419762
H  H5  1  0.81560000  0.58270000  0.23330000  1.0 0.0622419762
H  H6  1  0.41730000  0.81560000  0.23330000  1.0 0.0622419762
H  H7  1  0.18440000  0.41730000  0.23330000  1.0 0.0622419762
H  H8  1  0.58270000  0.18440000  0.23330000  1.0 0.0622419762
H  H9  1  0.18440000  0.58270000  0.23330000  1.0 0.0622419762
H  H10  1  0.41730000  0.18440000  0.23330000  1.0 0.0622419762
H  H11  1  0.81560000  0.41730000  0.23330000  1.0 0.0622419762
H  H12  1  0.58270000  0.81560000  0.23330000  1.0 0.0622419762
H  H13  1  0.18440000  0.41730000  0.76670000  1.0 0.0622419762
H  H14  1  0.58270000  0.18440000  0.76670000  1.0 0.0622419762
H  H15  1  0.81560000  0.58270000  0.76670000  1.0 0.0622419762
H  H16  1  0.41730000  0.81560000  0.76670000  1.0 0.0622419762
C  C1  1  0.90081000  0.45410000  0.64790000  1.0 0.0463301959
C  C2  1  0.54590000  0.90081000  0.64790000  1.0 0.0463301959
C  C3  1  0.09919000  0.54590000  0.64790000  1.0 0.0463301959
C  C4  1  0.45410000  0.09919000  0.64790000  1.0 0.0463301959
C  C5  1  0.90081000  0.54590000  0.35210000  1.0 0.0463301959
C  C6  1  0.45410000  0.90081000  0.35210000  1.0 0.0463301959
C  C7  1  0.09919000  0.45410000  0.35210000  1.0 0.0463301959
C  C8  1  0.54590000  0.09919000  0.35210000  1.0 0.0463301959
C  C9  1  0.09919000  0.54590000  0.35210000  1.0 0.0463301959
C  C10  1  0.45410000  0.09919000  0.35210000  1.0 0.0463301959
C  C11  1  0.90081000  0.45410000  0.35210000  1.0 0.0463301959
C  C12  1  0.54590000  0.90081000  0.35210000  1.0 0.0463301959
C  C13  1  0.09919000  0.45410000  0.64790000  1.0 0.0463301959
C  C14  1  0.54590000  0.09919000  0.64790000  1.0 0.0463301959
C  C15  1  0.90081000  0.54590000  0.64790000  1.0 0.0463301959
C  C16  1  0.45410000  0.90081000  0.64790000  1.0 0.0463301959
N  N1  1  0.80450000  0.50000000  0.50000000  1.0 -0.1736349118
N  N2  1  0.50000000  0.80450000  0.50000000  1.0 -0.1736349118
N  N3  1  0.19550000  0.50000000  0.50000000  1.0 -0.1736349118
N  N4  1  0.50000000  0.19550000  0.50000000  1.0 -0.1736349118
F  F1  1  0.50000000  0.50000000  0.76340000  1.0 -0.4996975613
F  F2  1  0.50000000  0.50000000  0.23660000  1.0 -0.4996975613
F  F3  1  0.66400000  0.66400000  0.00000000  1.0 -0.4743100134
F  F4  1  0.33600000  0.66400000  0.00000000  1.0 -0.4743100134
F  F5  1  0.33600000  0.33600000  0.00000000  1.0 -0.4743100134
F  F6  1  0.66400000  0.33600000  0.00000000  1.0 -0.4743100134
