# DDEC6 charges by PACMAN v1.1 (https://github.com/mtap-research/PACMAN-charge/)
data_OCEGIP_FSR_pacman
_symmetry_space_group_name_H-M   'P 1'
_cell_length_a   7.18310000
_cell_length_b   7.18310000
_cell_length_c   7.58390000
_cell_angle_alpha   90.00000000
_cell_angle_beta   90.00000000
_cell_angle_gamma   90.00000000
_symmetry_Int_Tables_number   1
_chemical_formula_structural   FeSiH16C16(N2F3)2
_chemical_formula_sum   'Fe1 Si1 H16 C16 N4 F6'
_cell_volume   391.30592413
_cell_formula_units_Z   1
loop_
 _symmetry_equiv_pos_site_id
 _symmetry_equiv_pos_as_xyz
  1  'x, y, z'
loop_
 _atom_site_type_symbol
 _atom_site_label
 _atom_site_symmetry_multiplicity
 _atom_site_fract_x
 _atom_site_fract_y
 _atom_site_fract_z
 _atom_site_occupancy
 _atom_site_charge
Fe  Fe1  1  0.50000000  0.50000000  0.50000000  1.0 0.6803408746
Si  Si1  1  0.50000000  0.50000000  0.00000000  1.0 1.5501073484
H  H1  1  0.16290000  0.43190000  0.24870000  1.0 0.0690970529
H  H2  1  0.83710000  0.56810000  0.24870000  1.0 0.0690970529
H  H3  1  0.56810000  0.16290000  0.24870000  1.0 0.0690970529
H  H4  1  0.43190000  0.83710000  0.24870000  1.0 0.0690970529
H  H5  1  0.83710000  0.43190000  0.75130000  1.0 0.0690970529
H  H6  1  0.16290000  0.56810000  0.75130000  1.0 0.0690970529
H  H7  1  0.43190000  0.16290000  0.75130000  1.0 0.0690970529
H  H8  1  0.56810000  0.83710000  0.75130000  1.0 0.0690970529
H  H9  1  0.83710000  0.56810000  0.75130000  1.0 0.0690970529
H  H10  1  0.16290000  0.43190000  0.75130000  1.0 0.0690970529
H  H11  1  0.43190000  0.83710000  0.75130000  1.0 0.0690970529
H  H12  1  0.56810000  0.16290000  0.75130000  1.0 0.0690970529
H  H13  1  0.16290000  0.56810000  0.24870000  1.0 0.0690970529
H  H14  1  0.83710000  0.43190000  0.24870000  1.0 0.0690970529
H  H15  1  0.56810000  0.83710000  0.24870000  1.0 0.0690970529
H  H16  1  0.43190000  0.16290000  0.24870000  1.0 0.0690970529
C  C1  1  0.09770000  0.46100000  0.35580000  1.0 0.0261495483
C  C2  1  0.90230000  0.53900000  0.35580000  1.0 0.0261495483
C  C3  1  0.53900000  0.09770000  0.35580000  1.0 0.0261495483
C  C4  1  0.46100000  0.90230000  0.35580000  1.0 0.0261495483
C  C5  1  0.90230000  0.46100000  0.64420000  1.0 0.0261495483
C  C6  1  0.09770000  0.53900000  0.64420000  1.0 0.0261495483
C  C7  1  0.46100000  0.09770000  0.64420000  1.0 0.0261495483
C  C8  1  0.53900000  0.90230000  0.64420000  1.0 0.0261495483
C  C9  1  0.90230000  0.53900000  0.64420000  1.0 0.0261495483
C  C10  1  0.09770000  0.46100000  0.64420000  1.0 0.0261495483
C  C11  1  0.46100000  0.90230000  0.64420000  1.0 0.0261495483
C  C12  1  0.53900000  0.09770000  0.64420000  1.0 0.0261495483
C  C13  1  0.09770000  0.53900000  0.35580000  1.0 0.0261495483
C  C14  1  0.90230000  0.46100000  0.35580000  1.0 0.0261495483
C  C15  1  0.53900000  0.90230000  0.35580000  1.0 0.0261495483
C  C16  1  0.46100000  0.09770000  0.35580000  1.0 0.0261495483
N  N1  1  0.19500000  0.50000000  0.50000000  1.0 -0.179788303
N  N2  1  0.80500000  0.50000000  0.50000000  1.0 -0.179788303
N  N3  1  0.50000000  0.19500000  0.50000000  1.0 -0.179788303
N  N4  1  0.50000000  0.80500000  0.50000000  1.0 -0.179788303
F  F1  1  0.50000000  0.50000000  0.23510000  1.0 -0.4865904715
F  F2  1  0.50000000  0.50000000  0.76490000  1.0 -0.4865904715
F  F3  1  0.33360000  0.33360000  0.00000000  1.0 -0.5155149218
F  F4  1  0.66640000  0.66640000  0.00000000  1.0 -0.5155149218
F  F5  1  0.66640000  0.33360000  0.00000000  1.0 -0.5155149218
F  F6  1  0.33360000  0.66640000  0.00000000  1.0 -0.5155149218
