# DDEC6 charges by PACMAN v1.1 (https://github.com/mtap-research/PACMAN-charge/)
data_OCIHIS_FSR_pacman
_symmetry_space_group_name_H-M   'P 1'
_cell_length_a   12.55470000
_cell_length_b   12.55470000
_cell_length_c   7.84370000
_cell_angle_alpha   88.59230000
_cell_angle_beta   91.40770000
_cell_angle_gamma   97.81030000
_symmetry_Int_Tables_number   1
_chemical_formula_structural   Na2ZrP4C10(NO7)2
_chemical_formula_sum   'Na4 Zr2 P8 C20 N4 O28'
_cell_volume   1224.20801261
_cell_formula_units_Z   2
loop_
 _symmetry_equiv_pos_site_id
 _symmetry_equiv_pos_as_xyz
  1  'x, y, z'
loop_
 _atom_site_type_symbol
 _atom_site_label
 _atom_site_symmetry_multiplicity
 _atom_site_fract_x
 _atom_site_fract_y
 _atom_site_fract_z
 _atom_site_occupancy
 _atom_site_charge
Na  Na1  1  0.78050000  0.30830000  0.22000000  1.0 0.8871555641
Na  Na2  1  0.30830000  0.78050000  0.28000000  1.0 0.8871555641
Na  Na3  1  0.21950000  0.69170000  0.78000000  1.0 0.8871555641
Na  Na4  1  0.69170000  0.21950000  0.72000000  1.0 0.8871555641
Zr  Zr1  1  0.10860000  0.10860000  0.25000000  1.0 2.4478172228
Zr  Zr2  1  0.89140000  0.89140000  0.75000000  1.0 2.4478172228
P  P1  1  0.20920000  0.34360000  0.01140000  1.0 1.2867491408
P  P2  1  0.34360000  0.20920000  0.48860000  1.0 1.2867491408
P  P3  1  0.79080000  0.65640000  0.98860000  1.0 1.2867491408
P  P4  1  0.65640000  0.79080000  0.51140000  1.0 1.2867491408
P  P5  1  0.94950000  0.15850000  0.59370000  1.0 1.3342228099
P  P6  1  0.15850000  0.94950000  0.90630000  1.0 1.3351863786
P  P7  1  0.05050000  0.84150000  0.40630000  1.0 1.3351863786
P  P8  1  0.84150000  0.05050000  0.09370000  1.0 1.3342228099
C  C1  1  0.00570000  0.24370000  0.76400000  1.0 -0.1392752365
C  C2  1  0.24370000  0.00570000  0.73600000  1.0 -0.1392752365
C  C3  1  0.99430000  0.75630000  0.23600000  1.0 -0.1392752365
C  C4  1  0.75630000  0.99430000  0.26400000  1.0 -0.1392752365
C  C5  1  0.94260000  0.44940000  0.65000000  1.0 0.0253829374
C  C6  1  0.44940000  0.94260000  0.85000000  1.0 0.021926276
C  C7  1  0.05740000  0.55060000  0.35000000  1.0 0.021926276
C  C8  1  0.55060000  0.05740000  0.15000000  1.0 0.021926276
C  C9  1  0.12680000  0.39980000  0.84600000  1.0 -0.1919975862
C  C10  1  0.39980000  0.12680000  0.65400000  1.0 -0.1919975862
C  C11  1  0.87320000  0.60020000  0.15400000  1.0 -0.1919975862
C  C12  1  0.60020000  0.87320000  0.34600000  1.0 -0.1919975862
C  C13  1  0.02870000  0.39330000  0.56800000  1.0 0.1407045625
C  C14  1  0.39330000  0.02870000  0.93200000  1.0 0.1407045625
C  C15  1  0.97130000  0.60670000  0.43200000  1.0 0.1407045625
C  C16  1  0.60670000  0.97130000  0.06800000  1.0 0.1407045625
C  C17  1  0.10780000  0.48220000  0.49000000  1.0 0.0537545534
C  C18  1  0.48220000  0.10780000  0.01000000  1.0 0.0537545534
C  C19  1  0.89220000  0.51780000  0.51000000  1.0 0.0537545534
C  C20  1  0.51780000  0.89220000  0.99000000  1.0 0.0564959622
N  N1  1  0.08570000  0.33470000  0.70200000  1.0 0.1937041074
N  N2  1  0.33470000  0.08570000  0.79800000  1.0 0.1937041074
N  N3  1  0.91430000  0.66530000  0.29800000  1.0 0.1937041074
N  N4  1  0.66530000  0.91430000  0.20200000  1.0 0.1937041074
O  O1  1  0.13570000  0.26150000  0.13700000  1.0 -0.8134742812
O  O2  1  0.26150000  0.13570000  0.36300000  1.0 -0.8134742812
O  O3  1  0.86430000  0.73850000  0.86300000  1.0 -0.8134742812
O  O4  1  0.73850000  0.86430000  0.63700000  1.0 -0.8134742812
O  O5  1  0.91030000  0.04230000  0.64700000  1.0 -0.8150800303
O  O6  1  0.04230000  0.91030000  0.85300000  1.0 -0.8150800303
O  O7  1  0.08970000  0.95770000  0.35300000  1.0 -0.8150800303
O  O8  1  0.95770000  0.08970000  0.14700000  1.0 -0.8150800303
O  O9  1  0.26910000  0.43650000  0.12000000  1.0 -0.4731125743
O  O10  1  0.43650000  0.26910000  0.38000000  1.0 -0.4731125743
O  O11  1  0.73090000  0.56350000  0.88000000  1.0 -0.4731125743
O  O12  1  0.56350000  0.73090000  0.62000000  1.0 -0.4731125743
O  O13  1  0.29320000  0.29000000  0.93700000  1.0 -0.5870694355
O  O14  1  0.29000000  0.29320000  0.56300000  1.0 -0.5870694355
O  O15  1  0.70680000  0.71000000  0.06300000  1.0 -0.5870694355
O  O16  1  0.71000000  0.70680000  0.43700000  1.0 -0.5870694355
O  O17  1  0.86030000  0.20370000  0.49600000  1.0 -0.7684560255
O  O18  1  0.20370000  0.86030000  0.00400000  1.0 -0.7684560255
O  O19  1  0.13970000  0.79630000  0.50400000  1.0 -0.7684560255
O  O20  1  0.79630000  0.13970000  0.99600000  1.0 -0.7684560255
O  O21  1  0.04570000  0.15970000  0.46200000  1.0 -0.8150800303
O  O22  1  0.15970000  0.04570000  0.03800000  1.0 -0.8150800303
O  O23  1  0.95430000  0.84030000  0.53800000  1.0 -0.8150800303
O  O24  1  0.84030000  0.95430000  0.96200000  1.0 -0.8150800303
O  O25  1  0.33880000  0.63980000  0.08800000  1.0 -0.5406117276
O  O26  1  0.63980000  0.33880000  0.41200000  1.0 -0.5406117276
O  O27  1  0.66120000  0.36020000  0.91200000  1.0 -0.5406117276
O  O28  1  0.36020000  0.66120000  0.58800000  1.0 -0.5406117276
