# DDEC6 charges by PACMAN v1.1 (https://github.com/mtap-research/PACMAN-charge/)
data_OCILEU_ASR_pacman
_symmetry_space_group_name_H-M   'P 1'
_cell_length_a   34.54200000
_cell_length_b   9.56510000
_cell_length_c   18.01100000
_cell_angle_alpha   90.00000000
_cell_angle_beta   97.71000000
_cell_angle_gamma   90.00000000
_symmetry_Int_Tables_number   1
_chemical_formula_structural   Co3B10H34C38(NO7)2
_chemical_formula_sum   'Co12 B40 H136 C152 N8 O56'
_cell_volume   5896.99633179
_cell_formula_units_Z   4
loop_
 _symmetry_equiv_pos_site_id
 _symmetry_equiv_pos_as_xyz
  1  'x, y, z'
loop_
 _atom_site_type_symbol
 _atom_site_label
 _atom_site_symmetry_multiplicity
 _atom_site_fract_x
 _atom_site_fract_y
 _atom_site_fract_z
 _atom_site_occupancy
 _atom_site_charge
Co  Co1  1  0.34678000  0.32846000  0.52446000  1.0 0.9072698497
Co  Co2  1  0.65322000  0.67154000  0.47554000  1.0 0.9072698497
Co  Co3  1  0.65322000  0.32846000  0.97554000  1.0 0.9048364987
Co  Co4  1  0.34678000  0.67154000  0.02446000  1.0 0.9072698497
Co  Co5  1  0.84678000  0.82846000  0.52446000  1.0 0.9072698497
Co  Co6  1  0.15322000  0.17154000  0.47554000  1.0 0.9072698497
Co  Co7  1  0.15322000  0.82846000  0.97554000  1.0 0.9072698497
Co  Co8  1  0.84678000  0.17154000  0.02446000  1.0 0.9072698497
Co  Co9  1  0.25000000  0.25000000  0.50000000  1.0 1.1984372367
Co  Co10  1  0.75000000  0.75000000  0.50000000  1.0 1.1984372367
Co  Co11  1  0.75000000  0.25000000  0.00000000  1.0 1.1984372367
Co  Co12  1  0.25000000  0.75000000  0.00000000  1.0 1.1984372367
B  B1  1  0.47641000  0.37944000  0.22328000  1.0 -0.1870487381
B  B2  1  0.52359000  0.62056000  0.77672000  1.0 -0.1870487381
B  B3  1  0.52359000  0.37944000  0.27672000  1.0 -0.1870487381
B  B4  1  0.47641000  0.62056000  0.72328000  1.0 -0.1870487381
B  B5  1  0.97641000  0.87944000  0.22328000  1.0 -0.1870487381
B  B6  1  0.02359000  0.12056000  0.77672000  1.0 -0.1870487381
B  B7  1  0.02359000  0.87944000  0.27672000  1.0 -0.1870487381
B  B8  1  0.97641000  0.12056000  0.72328000  1.0 -0.1870487381
B  B9  1  0.45077000  0.23064000  0.24949000  1.0 -0.1870487381
B  B10  1  0.54923000  0.76936000  0.75051000  1.0 -0.1845589052
B  B11  1  0.54923000  0.23064000  0.25051000  1.0 -0.1870487381
B  B12  1  0.45077000  0.76936000  0.74949000  1.0 -0.1870487381
B  B13  1  0.95077000  0.73064000  0.24949000  1.0 -0.1870487381
B  B14  1  0.04923000  0.26936000  0.75051000  1.0 -0.1870487381
B  B15  1  0.04923000  0.73064000  0.25051000  1.0 -0.1870487381
B  B16  1  0.95077000  0.26936000  0.74949000  1.0 -0.1845589052
B  B17  1  0.48265000  0.13721000  0.31788000  1.0 -0.1734281625
B  B18  1  0.51735000  0.86279000  0.68212000  1.0 -0.1734281625
B  B19  1  0.51735000  0.13721000  0.18212000  1.0 -0.1734281625
B  B20  1  0.48265000  0.86279000  0.81788000  1.0 -0.1734281625
B  B21  1  0.98265000  0.63721000  0.31788000  1.0 -0.1734281625
B  B22  1  0.01735000  0.36279000  0.68212000  1.0 -0.1734281625
B  B23  1  0.01735000  0.63721000  0.18212000  1.0 -0.1734281625
B  B24  1  0.98265000  0.36279000  0.81788000  1.0 -0.1734281625
B  B25  1  0.47623000  0.08031000  0.22347000  1.0 -0.2212633398
B  B26  1  0.52377000  0.91969000  0.77653000  1.0 -0.2212633398
B  B27  1  0.52377000  0.08031000  0.27653000  1.0 -0.2212633398
B  B28  1  0.47623000  0.91969000  0.72347000  1.0 -0.2212633398
B  B29  1  0.97623000  0.58031000  0.22347000  1.0 -0.2212633398
B  B30  1  0.02377000  0.41969000  0.77653000  1.0 -0.2212633398
B  B31  1  0.02377000  0.58031000  0.27653000  1.0 -0.2212633398
B  B32  1  0.97623000  0.41969000  0.72347000  1.0 -0.2212633398
B  B33  1  0.47244000  0.23054000  0.16519000  1.0 -0.2212633398
B  B34  1  0.52756000  0.76946000  0.83481000  1.0 -0.2212633398
B  B35  1  0.52756000  0.23054000  0.33481000  1.0 -0.2212633398
B  B36  1  0.47244000  0.76946000  0.66519000  1.0 -0.2212633398
B  B37  1  0.97244000  0.73054000  0.16519000  1.0 -0.2301071431
B  B38  1  0.02756000  0.26946000  0.83481000  1.0 -0.2301071431
B  B39  1  0.02756000  0.73054000  0.33481000  1.0 -0.2212633398
B  B40  1  0.97244000  0.26946000  0.66519000  1.0 -0.2212633398
H  H1  1  0.46257000  0.48957000  0.20465000  1.0 -0.0410684849
H  H2  1  0.53743000  0.51043000  0.79535000  1.0 -0.0410684849
H  H3  1  0.53743000  0.48957000  0.29535000  1.0 -0.0410684849
H  H4  1  0.46257000  0.51043000  0.70465000  1.0 -0.0410684849
H  H5  1  0.96257000  0.98957000  0.20465000  1.0 -0.0410684849
H  H6  1  0.03743000  0.01043000  0.79535000  1.0 -0.0410684849
H  H7  1  0.03743000  0.98957000  0.29535000  1.0 -0.0410684849
H  H8  1  0.96257000  0.01043000  0.70465000  1.0 -0.0410684849
H  H9  1  0.41671000  0.23978000  0.25319000  1.0 -0.0463815489
H  H10  1  0.58329000  0.76022000  0.74681000  1.0 -0.0463815489
H  H11  1  0.58329000  0.23978000  0.24681000  1.0 -0.0410684849
H  H12  1  0.41671000  0.76022000  0.75319000  1.0 -0.0463815489
H  H13  1  0.91671000  0.73978000  0.25319000  1.0 -0.0410684849
H  H14  1  0.08329000  0.26022000  0.74681000  1.0 -0.0463815489
H  H15  1  0.08329000  0.73978000  0.24681000  1.0 -0.0463815489
H  H16  1  0.91671000  0.26022000  0.75319000  1.0 -0.0463815489
H  H17  1  0.47002000  0.08295000  0.36936000  1.0 -0.0606107054
H  H18  1  0.52998000  0.91705000  0.63064000  1.0 -0.0652503739
H  H19  1  0.52998000  0.08295000  0.13064000  1.0 -0.0606107054
H  H20  1  0.47002000  0.91705000  0.86936000  1.0 -0.0652503739
H  H21  1  0.97002000  0.58295000  0.36936000  1.0 -0.0606107054
H  H22  1  0.02998000  0.41705000  0.63064000  1.0 -0.0652503739
H  H23  1  0.02998000  0.58295000  0.13064000  1.0 -0.0606107054
H  H24  1  0.97002000  0.41705000  0.86936000  1.0 -0.0606107054
H  H25  1  0.45921000  0.97443000  0.20457000  1.0 -0.0410684849
H  H26  1  0.54079000  0.02557000  0.79543000  1.0 -0.0410684849
H  H27  1  0.54079000  0.97443000  0.29543000  1.0 -0.0410684849
H  H28  1  0.45921000  0.02557000  0.70457000  1.0 -0.0410684849
H  H29  1  0.95921000  0.47443000  0.20457000  1.0 -0.0410684849
H  H30  1  0.04079000  0.52557000  0.79543000  1.0 -0.0410684849
H  H31  1  0.04079000  0.47443000  0.29543000  1.0 -0.0410684849
H  H32  1  0.95921000  0.52557000  0.70457000  1.0 -0.0410684849
H  H33  1  0.45467000  0.23811000  0.10361000  1.0 -0.0410684849
H  H34  1  0.54533000  0.76189000  0.89639000  1.0 -0.0410684849
H  H35  1  0.54533000  0.23811000  0.39639000  1.0 -0.0410684849
H  H36  1  0.45467000  0.76189000  0.60361000  1.0 -0.0410684849
H  H37  1  0.95467000  0.73811000  0.10361000  1.0 -0.0410684849
H  H38  1  0.04533000  0.26189000  0.89639000  1.0 -0.0410684849
H  H39  1  0.04533000  0.73811000  0.39639000  1.0 -0.0410684849
H  H40  1  0.95467000  0.26189000  0.60361000  1.0 -0.0410684849
H  H41  1  0.49485000  0.47602000  0.39587000  1.0 0.0094983018
H  H42  1  0.50515000  0.52398000  0.60413000  1.0 0.0094983018
H  H43  1  0.50515000  0.47602000  0.10413000  1.0 0.0094983018
H  H44  1  0.49485000  0.52398000  0.89587000  1.0 0.0094983018
H  H45  1  0.99485000  0.97602000  0.39587000  1.0 0.0094983018
H  H46  1  0.00515000  0.02398000  0.60413000  1.0 0.0094983018
H  H47  1  0.00515000  0.97602000  0.10413000  1.0 0.0094983018
H  H48  1  0.99485000  0.02398000  0.89587000  1.0 0.0094983018
H  H49  1  0.42958000  0.56182000  0.36969000  1.0 0.3790049632
H  H50  1  0.57042000  0.43818000  0.63031000  1.0 0.3790049632
H  H51  1  0.57042000  0.56182000  0.13031000  1.0 0.3790049632
H  H52  1  0.42958000  0.43818000  0.86969000  1.0 0.3790049632
H  H53  1  0.92958000  0.06182000  0.36969000  1.0 0.3790049632
H  H54  1  0.07042000  0.93818000  0.63031000  1.0 0.3790049632
H  H55  1  0.07042000  0.06182000  0.13031000  1.0 0.3790049632
H  H56  1  0.92958000  0.93818000  0.86969000  1.0 0.3790049632
H  H57  1  0.51271000  0.29699000  0.49765000  1.0 0.1765302536
H  H58  1  0.48729000  0.70301000  0.50235000  1.0 0.1765302536
H  H59  1  0.48729000  0.29699000  0.00235000  1.0 0.1765302536
H  H60  1  0.51271000  0.70301000  0.99765000  1.0 0.1765302536
H  H61  1  0.01271000  0.79699000  0.49765000  1.0 0.1765302536
H  H62  1  0.98729000  0.20301000  0.50235000  1.0 0.1765302536
H  H63  1  0.98729000  0.79699000  0.00235000  1.0 0.1765302536
H  H64  1  0.01271000  0.20301000  0.99765000  1.0 0.1765302536
H  H65  1  0.48843000  0.20691000  0.61395000  1.0 0.2155117174
H  H66  1  0.51157000  0.79309000  0.38605000  1.0 0.2155117174
H  H67  1  0.51157000  0.20691000  0.88605000  1.0 0.2155117174
H  H68  1  0.48843000  0.79309000  0.11395000  1.0 0.2155117174
H  H69  1  0.98843000  0.70691000  0.61395000  1.0 0.2112183153
H  H70  1  0.01157000  0.29309000  0.38605000  1.0 0.2155117174
H  H71  1  0.01157000  0.70691000  0.88605000  1.0 0.2155117174
H  H72  1  0.98843000  0.29309000  0.11395000  1.0 0.2155117174
H  H73  1  0.41671000  0.22007000  0.62487000  1.0 0.119829408
H  H74  1  0.58329000  0.77993000  0.37513000  1.0 0.119829408
H  H75  1  0.58329000  0.22007000  0.87513000  1.0 0.119829408
H  H76  1  0.41671000  0.77993000  0.12487000  1.0 0.119829408
H  H77  1  0.91671000  0.72007000  0.62487000  1.0 0.119829408
H  H78  1  0.08329000  0.27993000  0.37513000  1.0 0.119829408
H  H79  1  0.08329000  0.72007000  0.87513000  1.0 0.119829408
H  H80  1  0.91671000  0.27993000  0.12487000  1.0 0.119829408
H  H81  1  0.39173000  0.38525000  0.40889000  1.0 0.111984408
H  H82  1  0.60827000  0.61475000  0.59111000  1.0 0.111984408
H  H83  1  0.60827000  0.38525000  0.09111000  1.0 0.111984408
H  H84  1  0.39173000  0.61475000  0.90889000  1.0 0.111984408
H  H85  1  0.89173000  0.88525000  0.40889000  1.0 0.111984408
H  H86  1  0.10827000  0.11475000  0.59111000  1.0 0.111984408
H  H87  1  0.10827000  0.88525000  0.09111000  1.0 0.111984408
H  H88  1  0.89173000  0.11475000  0.90889000  1.0 0.111984408
H  H89  1  0.37050000  0.08205000  0.33560000  1.0 0.1389200031
H  H90  1  0.62950000  0.91795000  0.66440000  1.0 0.1389200031
H  H91  1  0.62950000  0.08205000  0.16440000  1.0 0.1389200031
H  H92  1  0.37050000  0.91795000  0.83560000  1.0 0.1389200031
H  H93  1  0.87050000  0.58205000  0.33560000  1.0 0.1389200031
H  H94  1  0.12950000  0.41795000  0.66440000  1.0 0.1389200031
H  H95  1  0.12950000  0.58205000  0.16440000  1.0 0.1389200031
H  H96  1  0.87050000  0.41795000  0.83560000  1.0 0.1389200031
H  H97  1  0.37488000  0.95408000  0.21568000  1.0 0.1389200031
H  H98  1  0.62512000  0.04592000  0.78432000  1.0 0.1389200031
H  H99  1  0.62512000  0.95408000  0.28432000  1.0 0.1389200031
H  H100  1  0.37488000  0.04592000  0.71568000  1.0 0.1389200031
H  H101  1  0.87488000  0.45408000  0.21568000  1.0 0.1389200031
H  H102  1  0.12512000  0.54592000  0.78432000  1.0 0.1389200031
H  H103  1  0.12512000  0.45408000  0.28432000  1.0 0.1389200031
H  H104  1  0.87488000  0.54592000  0.71568000  1.0 0.1389200031
H  H105  1  0.25056000  0.99487000  0.15557000  1.0 0.119829408
H  H106  1  0.74944000  0.00513000  0.84443000  1.0 0.119829408
H  H107  1  0.74944000  0.99487000  0.34443000  1.0 0.119829408
H  H108  1  0.25056000  0.00513000  0.65557000  1.0 0.119829408
H  H109  1  0.75056000  0.49487000  0.15557000  1.0 0.119829408
H  H110  1  0.24944000  0.50513000  0.84443000  1.0 0.119829408
H  H111  1  0.24944000  0.49487000  0.34443000  1.0 0.119829408
H  H112  1  0.75056000  0.50513000  0.65557000  1.0 0.119829408
H  H113  1  0.24559000  0.12223000  0.27532000  1.0 0.119829408
H  H114  1  0.75441000  0.87777000  0.72468000  1.0 0.119829408
H  H115  1  0.75441000  0.12223000  0.22468000  1.0 0.119829408
H  H116  1  0.24559000  0.87777000  0.77532000  1.0 0.119829408
H  H117  1  0.74559000  0.62223000  0.27532000  1.0 0.119829408
H  H118  1  0.25441000  0.37777000  0.72468000  1.0 0.119829408
H  H119  1  0.25441000  0.62223000  0.22468000  1.0 0.119829408
H  H120  1  0.74559000  0.37777000  0.77532000  1.0 0.119829408
H  H121  1  0.24240000  0.54300000  0.58131000  1.0 0.1279147079
H  H122  1  0.75760000  0.45700000  0.41869000  1.0 0.1279147079
H  H123  1  0.75760000  0.54300000  0.91869000  1.0 0.1279147079
H  H124  1  0.24240000  0.45700000  0.08131000  1.0 0.1279147079
H  H125  1  0.74240000  0.04300000  0.58131000  1.0 0.1279147079
H  H126  1  0.25760000  0.95700000  0.41869000  1.0 0.1279147079
H  H127  1  0.25760000  0.04300000  0.91869000  1.0 0.1279147079
H  H128  1  0.74240000  0.95700000  0.08131000  1.0 0.1279147079
H  H129  1  0.19562000  0.74344000  0.57894000  1.0 0.1279147079
H  H130  1  0.80438000  0.25656000  0.42106000  1.0 0.1279147079
H  H131  1  0.80438000  0.74344000  0.92106000  1.0 0.1279147079
H  H132  1  0.19562000  0.25656000  0.07894000  1.0 0.1279147079
H  H133  1  0.69562000  0.24344000  0.57894000  1.0 0.1279147079
H  H134  1  0.30438000  0.75656000  0.42106000  1.0 0.1279147079
H  H135  1  0.30438000  0.24344000  0.92106000  1.0 0.1279147079
H  H136  1  0.69562000  0.75656000  0.07894000  1.0 0.1279147079
C  C1  1  0.48356000  0.31639000  0.31350000  1.0 0.0094983018
C  C2  1  0.51644000  0.68361000  0.68650000  1.0 0.0094983018
C  C3  1  0.51644000  0.31639000  0.18650000  1.0 0.0094983018
C  C4  1  0.48356000  0.68361000  0.81350000  1.0 0.0094983018
C  C5  1  0.98356000  0.81639000  0.31350000  1.0 -0.0013682055
C  C6  1  0.01644000  0.18361000  0.68650000  1.0 0.0094983018
C  C7  1  0.01644000  0.81639000  0.18650000  1.0 0.0094983018
C  C8  1  0.98356000  0.18361000  0.81350000  1.0 0.0094983018
C  C9  1  0.46883000  0.41236000  0.37365000  1.0 0.2112183153
C  C10  1  0.53117000  0.58764000  0.62635000  1.0 0.2112183153
C  C11  1  0.53117000  0.41236000  0.12635000  1.0 0.2112183153
C  C12  1  0.46883000  0.58764000  0.87365000  1.0 0.2112183153
C  C13  1  0.96883000  0.91236000  0.37365000  1.0 0.2112183153
C  C14  1  0.03117000  0.08764000  0.62635000  1.0 0.2112183153
C  C15  1  0.03117000  0.91236000  0.12635000  1.0 0.2112183153
C  C16  1  0.96883000  0.08764000  0.87365000  1.0 0.2112183153
C  C17  1  0.45425000  0.34650000  0.44235000  1.0 0.0547481966
C  C18  1  0.54575000  0.65350000  0.55765000  1.0 0.0547481966
C  C19  1  0.54575000  0.34650000  0.05765000  1.0 0.0553899151
C  C20  1  0.45425000  0.65350000  0.94235000  1.0 0.0547481966
C  C21  1  0.95425000  0.84650000  0.44235000  1.0 0.0547481966
C  C22  1  0.04575000  0.15350000  0.55765000  1.0 0.0547481966
C  C23  1  0.04575000  0.84650000  0.05765000  1.0 0.0553899151
C  C24  1  0.95425000  0.15350000  0.94235000  1.0 0.0547481966
C  C25  1  0.48130000  0.29722000  0.50215000  1.0 0.0094983018
C  C26  1  0.51870000  0.70278000  0.49785000  1.0 0.0094983018
C  C27  1  0.51870000  0.29722000  0.99785000  1.0 0.0094983018
C  C28  1  0.48130000  0.70278000  0.00215000  1.0 0.0094983018
C  C29  1  0.98130000  0.79722000  0.50215000  1.0 0.0094983018
C  C30  1  0.01870000  0.20278000  0.49785000  1.0 0.0094983018
C  C31  1  0.01870000  0.79722000  0.99785000  1.0 0.0094983018
C  C32  1  0.98130000  0.20278000  0.00215000  1.0 0.0094983018
C  C33  1  0.46792000  0.24910000  0.56749000  1.0 -0.0963581107
C  C34  1  0.53208000  0.75090000  0.43251000  1.0 -0.0963581107
C  C35  1  0.53208000  0.24910000  0.93251000  1.0 -0.0963581107
C  C36  1  0.46792000  0.75090000  0.06749000  1.0 -0.0963581107
C  C37  1  0.96792000  0.74910000  0.56749000  1.0 -0.0963581107
C  C38  1  0.03208000  0.25090000  0.43251000  1.0 -0.0963581107
C  C39  1  0.03208000  0.74910000  0.93251000  1.0 -0.0963581107
C  C40  1  0.96792000  0.25090000  0.06749000  1.0 -0.0963581107
C  C41  1  0.42821000  0.25592000  0.57425000  1.0 0.1279147079
C  C42  1  0.57179000  0.74408000  0.42575000  1.0 0.1279147079
C  C43  1  0.57179000  0.25592000  0.92575000  1.0 0.1279147079
C  C44  1  0.42821000  0.74408000  0.07425000  1.0 0.1279147079
C  C45  1  0.92821000  0.75592000  0.57425000  1.0 0.1279147079
C  C46  1  0.07179000  0.24408000  0.42575000  1.0 0.1279147079
C  C47  1  0.07179000  0.75592000  0.92575000  1.0 0.1279147079
C  C48  1  0.92821000  0.24408000  0.07425000  1.0 0.1279147079
C  C49  1  0.41465000  0.34931000  0.45286000  1.0 0.0848001023
C  C50  1  0.58535000  0.65069000  0.54714000  1.0 0.0853674118
C  C51  1  0.58535000  0.34931000  0.04714000  1.0 0.0848001023
C  C52  1  0.41465000  0.65069000  0.95286000  1.0 0.0853674118
C  C53  1  0.91465000  0.84931000  0.45286000  1.0 0.0853674118
C  C54  1  0.08535000  0.15069000  0.54714000  1.0 0.0848001023
C  C55  1  0.08535000  0.84931000  0.04714000  1.0 0.0853674118
C  C56  1  0.91465000  0.15069000  0.95286000  1.0 0.0853674118
C  C57  1  0.30512000  0.17829000  0.38917000  1.0 0.5892236237
C  C58  1  0.69488000  0.82171000  0.61083000  1.0 0.5892236237
C  C59  1  0.69488000  0.17829000  0.11083000  1.0 0.5892236237
C  C60  1  0.30512000  0.82171000  0.88917000  1.0 0.5892236237
C  C61  1  0.80512000  0.67829000  0.38917000  1.0 0.5892236237
C  C62  1  0.19488000  0.32171000  0.61083000  1.0 0.5892236237
C  C63  1  0.19488000  0.67829000  0.11083000  1.0 0.5892236237
C  C64  1  0.80512000  0.32171000  0.88917000  1.0 0.5892236237
C  C65  1  0.30766000  0.10825000  0.31454000  1.0 -0.0295177745
C  C66  1  0.69234000  0.89175000  0.68546000  1.0 -0.0295177745
C  C67  1  0.69234000  0.10825000  0.18546000  1.0 -0.0295177745
C  C68  1  0.30766000  0.89175000  0.81454000  1.0 -0.0295177745
C  C69  1  0.80766000  0.60825000  0.31454000  1.0 -0.0295177745
C  C70  1  0.19234000  0.39175000  0.68546000  1.0 -0.0295177745
C  C71  1  0.19234000  0.60825000  0.18546000  1.0 -0.0295177745
C  C72  1  0.80766000  0.39175000  0.81454000  1.0 -0.0295177745
C  C73  1  0.34409000  0.06256000  0.29605000  1.0 -0.0410684849
C  C74  1  0.65591000  0.93744000  0.70395000  1.0 -0.0410684849
C  C75  1  0.65591000  0.06256000  0.20395000  1.0 -0.0410684849
C  C76  1  0.34409000  0.93744000  0.79605000  1.0 -0.0410684849
C  C77  1  0.84409000  0.56256000  0.29605000  1.0 -0.0410684849
C  C78  1  0.15591000  0.43744000  0.70395000  1.0 -0.0410684849
C  C79  1  0.15591000  0.56256000  0.20395000  1.0 -0.0410684849
C  C80  1  0.84409000  0.43744000  0.79605000  1.0 -0.0410684849
C  C81  1  0.34661000  0.99117000  0.22909000  1.0 -0.0410684849
C  C82  1  0.65339000  0.00883000  0.77091000  1.0 -0.0410684849
C  C83  1  0.65339000  0.99117000  0.27091000  1.0 -0.0410684849
C  C84  1  0.34661000  0.00883000  0.72909000  1.0 -0.0410684849
C  C85  1  0.84661000  0.49117000  0.22909000  1.0 -0.0410684849
C  C86  1  0.15339000  0.50883000  0.77091000  1.0 -0.0410684849
C  C87  1  0.15339000  0.49117000  0.27091000  1.0 -0.0410684849
C  C88  1  0.84661000  0.50883000  0.72909000  1.0 -0.0410684849
C  C89  1  0.31280000  0.96468000  0.17816000  1.0 -0.0199271079
C  C90  1  0.68720000  0.03532000  0.82184000  1.0 -0.0199271079
C  C91  1  0.68720000  0.96468000  0.32184000  1.0 -0.0199271079
C  C92  1  0.31280000  0.03532000  0.67816000  1.0 -0.0199271079
C  C93  1  0.81280000  0.46468000  0.17816000  1.0 -0.0199271079
C  C94  1  0.18720000  0.53532000  0.82184000  1.0 -0.0199271079
C  C95  1  0.18720000  0.46468000  0.32184000  1.0 -0.0199271079
C  C96  1  0.81280000  0.53532000  0.67816000  1.0 -0.0199271079
C  C97  1  0.27667000  0.01496000  0.19549000  1.0 -0.0891476939
C  C98  1  0.72333000  0.98504000  0.80451000  1.0 -0.0891476939
C  C99  1  0.72333000  0.01496000  0.30451000  1.0 -0.0891476939
C  C100  1  0.27667000  0.98504000  0.69549000  1.0 -0.0891476939
C  C101  1  0.77667000  0.51496000  0.19549000  1.0 -0.0891476939
C  C102  1  0.22333000  0.48504000  0.80451000  1.0 -0.0891476939
C  C103  1  0.22333000  0.51496000  0.30451000  1.0 -0.0891476939
C  C104  1  0.77667000  0.48504000  0.69549000  1.0 -0.0891476939
C  C105  1  0.27398000  0.08534000  0.26252000  1.0 -0.1057643905
C  C106  1  0.72602000  0.91466000  0.73748000  1.0 -0.1057643905
C  C107  1  0.72602000  0.08534000  0.23748000  1.0 -0.1057643905
C  C108  1  0.27398000  0.91466000  0.76252000  1.0 -0.1057643905
C  C109  1  0.77398000  0.58534000  0.26252000  1.0 -0.1057643905
C  C110  1  0.22602000  0.41466000  0.73748000  1.0 -0.1057643905
C  C111  1  0.22602000  0.58534000  0.23748000  1.0 -0.1057643905
C  C112  1  0.77398000  0.41466000  0.76252000  1.0 -0.1057643905
C  C113  1  0.31302000  0.88018000  0.10786000  1.0 0.5892236237
C  C114  1  0.68698000  0.11982000  0.89214000  1.0 0.5892236237
C  C115  1  0.68698000  0.88018000  0.39214000  1.0 0.5892236237
C  C116  1  0.31302000  0.11982000  0.60786000  1.0 0.5892236237
C  C117  1  0.81302000  0.38018000  0.10786000  1.0 0.5892236237
C  C118  1  0.18698000  0.61982000  0.89214000  1.0 0.5892236237
C  C119  1  0.18698000  0.38018000  0.39214000  1.0 0.5892236237
C  C120  1  0.81302000  0.61982000  0.60786000  1.0 0.5892236237
C  C121  1  0.30361000  0.51962000  0.50479000  1.0 0.5490948488
C  C122  1  0.69639000  0.48038000  0.49521000  1.0 0.5490948488
C  C123  1  0.69639000  0.51962000  0.99521000  1.0 0.5490948488
C  C124  1  0.30361000  0.48038000  0.00479000  1.0 0.5490948488
C  C125  1  0.80361000  0.01962000  0.50479000  1.0 0.5490948488
C  C126  1  0.19639000  0.98038000  0.49521000  1.0 0.5490948488
C  C127  1  0.19639000  0.01962000  0.99521000  1.0 0.5490948488
C  C128  1  0.80361000  0.98038000  0.00479000  1.0 0.5490948488
C  C129  1  0.27635000  0.63713000  0.50149000  1.0 -0.0199271079
C  C130  1  0.72365000  0.36287000  0.49851000  1.0 -0.0199271079
C  C131  1  0.72365000  0.63713000  0.99851000  1.0 -0.0199271079
C  C132  1  0.27635000  0.36287000  0.00149000  1.0 -0.0199271079
C  C133  1  0.77635000  0.13713000  0.50149000  1.0 -0.0199271079
C  C134  1  0.22365000  0.86287000  0.49851000  1.0 -0.0199271079
C  C135  1  0.22365000  0.13713000  0.99851000  1.0 -0.0199271079
C  C136  1  0.77635000  0.86287000  0.00149000  1.0 -0.0199271079
C  C137  1  0.24542000  0.63398000  0.54575000  1.0 -0.0606107054
C  C138  1  0.75458000  0.36602000  0.45425000  1.0 -0.0606107054
C  C139  1  0.75458000  0.63398000  0.95425000  1.0 -0.0606107054
C  C140  1  0.24542000  0.36602000  0.04575000  1.0 -0.0606107054
C  C141  1  0.74542000  0.13398000  0.54575000  1.0 -0.0606107054
C  C142  1  0.25458000  0.86602000  0.45425000  1.0 -0.0606107054
C  C143  1  0.25458000  0.13398000  0.95425000  1.0 -0.0606107054
C  C144  1  0.74542000  0.86602000  0.04575000  1.0 -0.0606107054
C  C145  1  0.21932000  0.74518000  0.54418000  1.0 -0.0652503739
C  C146  1  0.78068000  0.25482000  0.45582000  1.0 -0.0652503739
C  C147  1  0.78068000  0.74518000  0.95582000  1.0 -0.0652503739
C  C148  1  0.21932000  0.25482000  0.04418000  1.0 -0.0652503739
C  C149  1  0.71932000  0.24518000  0.54418000  1.0 -0.0652503739
C  C150  1  0.28068000  0.75482000  0.45582000  1.0 -0.0652503739
C  C151  1  0.28068000  0.24518000  0.95582000  1.0 -0.0652503739
C  C152  1  0.71932000  0.75482000  0.04418000  1.0 -0.0652503739
N  N1  1  0.40139000  0.30803000  0.51822000  1.0 -0.2212633398
N  N2  1  0.59861000  0.69197000  0.48178000  1.0 -0.2212633398
N  N3  1  0.59861000  0.30803000  0.98178000  1.0 -0.2212633398
N  N4  1  0.40139000  0.69197000  0.01822000  1.0 -0.2212633398
N  N5  1  0.90139000  0.80803000  0.51822000  1.0 -0.2212633398
N  N6  1  0.09861000  0.19197000  0.48178000  1.0 -0.2212633398
N  N7  1  0.09861000  0.80803000  0.98178000  1.0 -0.2212633398
N  N8  1  0.90139000  0.19197000  0.01822000  1.0 -0.2212633398
O  O1  1  0.43961000  0.50070000  0.33357000  1.0 -0.4730013381
O  O2  1  0.56039000  0.49930000  0.66643000  1.0 -0.4730013381
O  O3  1  0.56039000  0.50070000  0.16643000  1.0 -0.4730013381
O  O4  1  0.43961000  0.49930000  0.83357000  1.0 -0.4730013381
O  O5  1  0.93961000  0.00070000  0.33357000  1.0 -0.4730013381
O  O6  1  0.06039000  0.99930000  0.66643000  1.0 -0.4730013381
O  O7  1  0.06039000  0.00070000  0.16643000  1.0 -0.4730013381
O  O8  1  0.93961000  0.99930000  0.83357000  1.0 -0.4730013381
O  O9  1  0.33727000  0.21963000  0.42592000  1.0 -0.506017528
O  O10  1  0.66273000  0.78037000  0.57408000  1.0 -0.506017528
O  O11  1  0.66273000  0.21963000  0.07408000  1.0 -0.506017528
O  O12  1  0.33727000  0.78037000  0.92592000  1.0 -0.506017528
O  O13  1  0.83727000  0.71963000  0.42592000  1.0 -0.506017528
O  O14  1  0.16273000  0.28037000  0.57408000  1.0 -0.506017528
O  O15  1  0.16273000  0.71963000  0.07408000  1.0 -0.506017528
O  O16  1  0.83727000  0.28037000  0.92592000  1.0 -0.506017528
O  O17  1  0.27069000  0.18804000  0.40889000  1.0 -0.5603675104
O  O18  1  0.72931000  0.81196000  0.59111000  1.0 -0.5603675104
O  O19  1  0.72931000  0.18804000  0.09111000  1.0 -0.5603675104
O  O20  1  0.27069000  0.81196000  0.90889000  1.0 -0.5603675104
O  O21  1  0.77069000  0.68804000  0.40889000  1.0 -0.5603675104
O  O22  1  0.22931000  0.31196000  0.59111000  1.0 -0.5603675104
O  O23  1  0.22931000  0.68804000  0.09111000  1.0 -0.5603675104
O  O24  1  0.77069000  0.31196000  0.90889000  1.0 -0.5603675104
O  O25  1  0.34493000  0.81529000  0.09797000  1.0 -0.4780434105
O  O26  1  0.65507000  0.18471000  0.90203000  1.0 -0.4780434105
O  O27  1  0.65507000  0.81529000  0.40203000  1.0 -0.4780434105
O  O28  1  0.34493000  0.18471000  0.59797000  1.0 -0.4780434105
O  O29  1  0.84493000  0.31529000  0.09797000  1.0 -0.4780434105
O  O30  1  0.15507000  0.68471000  0.90203000  1.0 -0.4780434105
O  O31  1  0.15507000  0.31529000  0.40203000  1.0 -0.4780434105
O  O32  1  0.84493000  0.68471000  0.59797000  1.0 -0.4780434105
O  O33  1  0.28053000  0.88051000  0.06378000  1.0 -0.5603675104
O  O34  1  0.71947000  0.11949000  0.93622000  1.0 -0.5603675104
O  O35  1  0.71947000  0.88051000  0.43622000  1.0 -0.5603675104
O  O36  1  0.28053000  0.11949000  0.56378000  1.0 -0.5603675104
O  O37  1  0.78053000  0.38051000  0.06378000  1.0 -0.5603675104
O  O38  1  0.21947000  0.61949000  0.93622000  1.0 -0.5546772848
O  O39  1  0.21947000  0.38051000  0.43622000  1.0 -0.5603675104
O  O40  1  0.78053000  0.61949000  0.56378000  1.0 -0.5546772848
O  O41  1  0.29518000  0.39674000  0.53328000  1.0 -0.5361239086
O  O42  1  0.70482000  0.60326000  0.46672000  1.0 -0.5361239086
O  O43  1  0.70482000  0.39674000  0.96672000  1.0 -0.5361239086
O  O44  1  0.29518000  0.60326000  0.03328000  1.0 -0.5361239086
O  O45  1  0.79518000  0.89674000  0.53328000  1.0 -0.5361239086
O  O46  1  0.20482000  0.10326000  0.46672000  1.0 -0.5361239086
O  O47  1  0.20482000  0.89674000  0.96672000  1.0 -0.5361239086
O  O48  1  0.79518000  0.10326000  0.03328000  1.0 -0.5361239086
O  O49  1  0.33834000  0.52312000  0.48591000  1.0 -0.3910592678
O  O50  1  0.66166000  0.47688000  0.51409000  1.0 -0.3910592678
O  O51  1  0.66166000  0.52312000  0.01409000  1.0 -0.3910592678
O  O52  1  0.33834000  0.47688000  0.98591000  1.0 -0.3910592678
O  O53  1  0.83834000  0.02312000  0.48591000  1.0 -0.3910592678
O  O54  1  0.16166000  0.97688000  0.51409000  1.0 -0.3910592678
O  O55  1  0.16166000  0.02312000  0.01409000  1.0 -0.3910592678
O  O56  1  0.83834000  0.97688000  0.98591000  1.0 -0.3910592678
