# DDEC6 charges by PACMAN v1.1 (https://github.com/mtap-research/PACMAN-charge/)
data_OCILIY_ASR_pacman
_symmetry_space_group_name_H-M   'P 1'
_cell_length_a   18.59450000
_cell_length_b   8.08000000
_cell_length_c   35.31520000
_cell_angle_alpha   90.00000000
_cell_angle_beta   120.94900000
_cell_angle_gamma   90.00000000
_symmetry_Int_Tables_number   1
_chemical_formula_structural   Zn4B10H54C68N2O17
_chemical_formula_sum   'Zn8 B20 H108 C136 N4 O34'
_cell_volume   4550.45866258
_cell_formula_units_Z   2
loop_
 _symmetry_equiv_pos_site_id
 _symmetry_equiv_pos_as_xyz
  1  'x, y, z'
loop_
 _atom_site_type_symbol
 _atom_site_label
 _atom_site_symmetry_multiplicity
 _atom_site_fract_x
 _atom_site_fract_y
 _atom_site_fract_z
 _atom_site_occupancy
 _atom_site_charge
Zn  Zn1  1  0.30556000  0.03114000  0.44175000  1.0 0.9066655211
Zn  Zn2  1  0.30556000  0.96886000  0.94175000  1.0 0.9066655211
Zn  Zn3  1  0.27944000  0.38567000  0.47627000  1.0 1.0404871874
Zn  Zn4  1  0.27944000  0.61433000  0.97627000  1.0 1.0404871874
Zn  Zn5  1  0.15194000  0.63735000  0.48408000  1.0 0.8618518286
Zn  Zn6  1  0.15194000  0.36265000  0.98408000  1.0 0.8618518286
Zn  Zn7  1  0.47524000  0.22368000  0.52659000  1.0 0.9952705674
Zn  Zn8  1  0.47524000  0.77632000  0.02659000  1.0 0.9952705674
B  B1  1  0.12550000  0.83300000  0.17000000  1.0 -0.1324950732
B  B2  1  0.12550000  0.16700000  0.67000000  1.0 -0.1324950732
B  B3  1  0.14700000  0.00820000  0.20620000  1.0 -0.1628179825
B  B4  1  0.14700000  0.99180000  0.70620000  1.0 -0.1628179825
B  B5  1  0.25230000  0.98790000  0.25070000  1.0 -0.2170697726
B  B6  1  0.25230000  0.01210000  0.75070000  1.0 -0.2170697726
B  B7  1  0.29620000  0.80860000  0.24280000  1.0 -0.2302135579
B  B8  1  0.29620000  0.19140000  0.74280000  1.0 -0.2302135579
B  B9  1  0.21980000  0.70840000  0.19390000  1.0 -0.1706356557
B  B10  1  0.21980000  0.29160000  0.69390000  1.0 -0.1706356557
B  B11  1  0.14920000  0.02620000  0.15590000  1.0 -0.1706356557
B  B12  1  0.14920000  0.97380000  0.65590000  1.0 -0.1706356557
B  B13  1  0.23150000  0.12490000  0.20670000  1.0 -0.2484549708
B  B14  1  0.23150000  0.87510000  0.70670000  1.0 -0.2484549708
B  B15  1  0.31720000  0.00600000  0.22860000  1.0 -0.2679864294
B  B16  1  0.31720000  0.99400000  0.72860000  1.0 -0.2679864294
B  B17  1  0.30130000  0.82430000  0.19400000  1.0 -0.2302135579
B  B18  1  0.30130000  0.17570000  0.69400000  1.0 -0.2302135579
B  B19  1  0.25690000  0.02320000  0.17000000  1.0 -0.206614954
B  B20  1  0.25690000  0.97680000  0.67000000  1.0 -0.206614954
H  H1  1  0.06100000  0.77900000  0.15070000  1.0 -0.0419814161
H  H2  1  0.06100000  0.22100000  0.65070000  1.0 -0.0419814161
H  H3  1  0.09750000  0.06780000  0.21070000  1.0 -0.0278026881
H  H4  1  0.09750000  0.93220000  0.71070000  1.0 -0.0278026881
H  H5  1  0.27010000  0.03230000  0.28450000  1.0 -0.0017423065
H  H6  1  0.27010000  0.96770000  0.78450000  1.0 -0.0017423065
H  H7  1  0.34510000  0.73730000  0.27190000  1.0 0.0094795965
H  H8  1  0.34510000  0.26270000  0.77190000  1.0 0.0094795965
H  H9  1  0.21670000  0.57060000  0.18990000  1.0 0.0398147948
H  H10  1  0.21670000  0.42940000  0.68990000  1.0 0.0398147948
H  H11  1  0.10030000  0.09820000  0.12690000  1.0 -0.0278026881
H  H12  1  0.10030000  0.90180000  0.62690000  1.0 -0.0278026881
H  H13  1  0.23740000  0.26240000  0.21120000  1.0 0.0667488523
H  H14  1  0.23740000  0.73760000  0.71120000  1.0 0.0667488523
H  H15  1  0.38010000  0.06670000  0.24810000  1.0 0.0094795965
H  H16  1  0.38010000  0.93330000  0.74810000  1.0 0.0094795965
H  H17  1  0.35190000  0.76480000  0.19040000  1.0 0.03117831
H  H18  1  0.35190000  0.23520000  0.69040000  1.0 0.03117831
H  H19  1  0.27820000  0.09150000  0.14990000  1.0 -0.0088717608
H  H20  1  0.27820000  0.90850000  0.64990000  1.0 -0.0088717608
H  H21  1  0.09310000  0.71940000  0.23180000  1.0 -0.0563771702
H  H22  1  0.09310000  0.28060000  0.73180000  1.0 -0.0563771702
H  H23  1  0.15070000  0.47920000  0.25730000  1.0 0.3013918572
H  H24  1  0.15070000  0.52080000  0.75730000  1.0 0.3013918572
H  H25  1  0.09860000  0.95000000  0.27980000  1.0 0.1762544722
H  H26  1  0.09860000  0.05000000  0.77980000  1.0 0.1762544722
H  H27  1  0.15020000  0.03820000  0.35290000  1.0 0.1205796218
H  H28  1  0.15020000  0.96180000  0.85290000  1.0 0.1205796218
H  H29  1  0.34760000  0.76150000  0.39800000  1.0 0.1134564983
H  H30  1  0.34760000  0.23850000  0.89800000  1.0 0.1134564983
H  H31  1  0.29830000  0.63800000  0.32950000  1.0 0.1493664015
H  H32  1  0.29830000  0.36200000  0.82950000  1.0 0.1493664015
H  H33  1  0.21240000  0.68640000  0.10860000  1.0 0.0990514983
H  H34  1  0.21240000  0.31360000  0.60860000  1.0 0.0990514983
H  H35  1  0.07370000  0.64960000  0.06610000  1.0 0.3543988042
H  H36  1  0.07370000  0.35040000  0.56610000  1.0 0.3543988042
H  H37  1  0.03600000  0.94790000  0.04260000  1.0 0.1672946178
H  H38  1  0.03600000  0.05210000  0.54260000  1.0 0.1672946178
H  H39  1  0.03790000  0.16250000  0.00110000  1.0 0.1205796218
H  H40  1  0.03790000  0.83750000  0.50110000  1.0 0.1205796218
H  H41  1  0.27460000  0.08840000  0.04340000  1.0 0.1493664015
H  H42  1  0.27460000  0.91160000  0.54340000  1.0 0.1493664015
H  H43  1  0.28210000  0.87990000  0.08530000  1.0 0.1621517668
H  H44  1  0.28210000  0.12010000  0.58530000  1.0 0.1621517668
H  H45  1  0.04510000  0.91160000  0.38040000  1.0 0.1375625322
H  H46  1  0.04510000  0.08840000  0.88040000  1.0 0.1375625322
H  H47  1  0.90770000  0.88420000  0.34790000  1.0 0.1301938151
H  H48  1  0.90770000  0.11580000  0.84790000  1.0 0.1301938151
H  H49  1  0.89580000  0.20510000  0.43020000  1.0 0.1301938151
H  H50  1  0.89580000  0.79490000  0.93020000  1.0 0.1301938151
H  H51  1  0.04070000  0.26290000  0.46030000  1.0 0.1375625322
H  H52  1  0.04070000  0.73710000  0.96030000  1.0 0.1375625322
H  H53  1  0.78000000  0.99970000  0.30030000  1.0 0.1205796218
H  H54  1  0.78000000  0.00030000  0.80030000  1.0 0.1205796218
H  H55  1  0.56090000  0.99580000  0.29700000  1.0 0.1621517668
H  H56  1  0.56090000  0.00420000  0.79700000  1.0 0.1621517668
H  H57  1  0.78060000  0.05250000  0.41460000  1.0 0.1134564983
H  H58  1  0.78060000  0.94750000  0.91460000  1.0 0.1134564983
H  H59  1  0.70410000  0.83970000  0.23910000  1.0 0.1205796218
H  H60  1  0.70410000  0.16030000  0.73910000  1.0 0.1205796218
H  H61  1  0.63580000  0.83350000  0.16170000  1.0 0.1205796218
H  H62  1  0.63580000  0.16650000  0.66170000  1.0 0.1205796218
H  H63  1  0.44810000  0.10530000  0.15300000  1.0 0.1621517668
H  H64  1  0.44810000  0.89470000  0.65300000  1.0 0.1621517668
H  H65  1  0.50780000  0.11180000  0.22690000  1.0 0.1493664015
H  H66  1  0.50780000  0.88820000  0.72690000  1.0 0.1493664015
H  H67  1  0.52370000  0.87340000  0.34980000  1.0 0.1375625322
H  H68  1  0.52370000  0.12660000  0.84980000  1.0 0.1375625322
H  H69  1  0.44760000  0.92140000  0.38450000  1.0 0.1375625322
H  H70  1  0.44760000  0.07860000  0.88450000  1.0 0.1375625322
H  H71  1  0.62830000  0.22810000  0.47020000  1.0 0.1301938151
H  H72  1  0.62830000  0.77190000  0.97020000  1.0 0.1301938151
H  H73  1  0.70580000  0.19240000  0.43340000  1.0 0.1205796218
H  H74  1  0.70580000  0.80760000  0.93340000  1.0 0.1205796218
H  H75  1  0.27140000  0.64400000  0.62010000  1.0 0.1762544722
H  H76  1  0.27140000  0.35600000  0.12010000  1.0 0.1762544722
H  H77  1  0.34990000  0.65250000  0.69520000  1.0 0.189867916
H  H78  1  0.34990000  0.34750000  0.19520000  1.0 0.189867916
H  H79  1  0.52750000  0.36870000  0.69360000  1.0 0.1134564983
H  H80  1  0.52750000  0.63130000  0.19360000  1.0 0.1205796218
H  H81  1  0.44810000  0.35840000  0.61770000  1.0 0.1134564983
H  H82  1  0.44810000  0.64160000  0.11770000  1.0 0.1134564983
H  H83  1  0.40340000  0.55340000  0.76490000  1.0 0.189867916
H  H84  1  0.40340000  0.44660000  0.26490000  1.0 0.189867916
H  H85  1  0.62240000  0.50970000  0.87590000  1.0 0.1134564983
H  H86  1  0.62240000  0.49030000  0.37590000  1.0 0.1134564983
H  H87  1  0.61550000  0.47940000  0.75940000  1.0 0.1134564983
H  H88  1  0.61550000  0.52060000  0.25940000  1.0 0.1134564983
H  H89  1  0.37140000  0.72860000  0.80610000  1.0 0.1672946178
H  H90  1  0.37140000  0.27140000  0.30610000  1.0 0.1672946178
H  H91  1  0.30790000  0.75650000  0.84700000  1.0 0.1493664015
H  H92  1  0.30790000  0.24350000  0.34700000  1.0 0.1493664015
H  H93  1  0.46950000  0.43890000  0.94000000  1.0 0.1301938151
H  H94  1  0.46950000  0.56110000  0.44000000  1.0 0.1301938151
H  H95  1  0.53960000  0.41780000  0.90060000  1.0 0.1134564983
H  H96  1  0.53960000  0.58220000  0.40060000  1.0 0.1134564983
H  H97  1  0.74320000  0.35880000  0.89980000  1.0 0.1205796218
H  H98  1  0.74320000  0.64120000  0.39980000  1.0 0.1205796218
H  H99  1  0.88340000  0.34170000  0.93740000  1.0 0.1301938151
H  H100  1  0.88340000  0.65830000  0.43740000  1.0 0.1301938151
H  H101  1  0.88690000  0.56260000  0.83450000  1.0 0.1301938151
H  H102  1  0.88690000  0.43740000  0.33450000  1.0 0.1301938151
H  H103  1  0.74580000  0.59810000  0.79970000  1.0 0.1301938151
H  H104  1  0.74580000  0.40190000  0.29970000  1.0 0.1301938151
H  H105  1  0.17810000  0.59680000  0.25350000  1.0 0.1205796218
H  H106  1  0.17810000  0.40320000  0.75350000  1.0 0.1205796218
H  H107  1  0.06190000  0.60450000  0.22980000  1.0 0.2855506413
H  H108  1  0.06190000  0.39550000  0.72980000  1.0 0.2855506413
C  C1  1  0.19320000  0.80970000  0.22670000  1.0 -0.02046201
C  C2  1  0.19320000  0.19030000  0.72670000  1.0 -0.0278026881
C  C3  1  0.19540000  0.84450000  0.15160000  1.0 -0.0419814161
C  C4  1  0.19540000  0.15550000  0.65160000  1.0 -0.0419814161
C  C5  1  0.15570000  0.71200000  0.24970000  1.0 0.1672946178
C  C6  1  0.15570000  0.28800000  0.74970000  1.0 0.1621517668
C  C7  1  0.18560000  0.77560000  0.29490000  1.0 0.0822483755
C  C8  1  0.18560000  0.22440000  0.79490000  1.0 0.0822483755
C  C9  1  0.14800000  0.90100000  0.30330000  1.0 -0.1533282526
C  C10  1  0.14800000  0.09900000  0.80330000  1.0 -0.1533282526
C  C11  1  0.18230000  0.96030000  0.34760000  1.0 0.1205796218
C  C12  1  0.18230000  0.03970000  0.84760000  1.0 0.1205796218
C  C13  1  0.29540000  0.79700000  0.37390000  1.0 0.061793491
C  C14  1  0.29540000  0.20300000  0.87390000  1.0 0.061793491
C  C15  1  0.26640000  0.72220000  0.33290000  1.0 -0.118669859
C  C16  1  0.26640000  0.27780000  0.83290000  1.0 -0.118669859
C  C17  1  0.16900000  0.76840000  0.10500000  1.0 0.1375625322
C  C18  1  0.16900000  0.23160000  0.60500000  1.0 0.1301938151
C  C19  1  0.16010000  0.89870000  0.07280000  1.0 0.1134564983
C  C20  1  0.16010000  0.10130000  0.57280000  1.0 0.1134564983
C  C21  1  0.08690000  0.97830000  0.04430000  1.0 -0.1706356557
C  C22  1  0.08690000  0.02170000  0.54430000  1.0 -0.1706356557
C  C23  1  0.08810000  0.10140000  0.01840000  1.0 0.061793491
C  C24  1  0.08810000  0.89860000  0.51840000  1.0 0.061793491
C  C25  1  0.22480000  0.05820000  0.04300000  1.0 0.0822483755
C  C26  1  0.22480000  0.94180000  0.54300000  1.0 0.0822483755
C  C27  1  0.23100000  0.93960000  0.06890000  1.0 -0.1377265691
C  C28  1  0.23100000  0.06040000  0.56890000  1.0 -0.1377265691
C  C29  1  0.14890000  0.13470000  0.44280000  1.0 0.5900168591
C  C30  1  0.14890000  0.86530000  0.94280000  1.0 0.5900168591
C  C31  1  0.05630000  0.09510000  0.42270000  1.0 0.0094795965
C  C32  1  0.05630000  0.90490000  0.92270000  1.0 0.0094795965
C  C33  1  0.01490000  0.97820000  0.38970000  1.0 -0.0707252292
C  C34  1  0.01490000  0.02180000  0.88970000  1.0 -0.0707252292
C  C35  1  0.93510000  0.96050000  0.37170000  1.0 -0.118669859
C  C36  1  0.93510000  0.03950000  0.87170000  1.0 -0.118669859
C  C37  1  0.88810000  0.04160000  0.38400000  1.0 0.0822483755
C  C38  1  0.88810000  0.95840000  0.88400000  1.0 0.0822483755
C  C39  1  0.92670000  0.15190000  0.41910000  1.0 -0.1377265691
C  C40  1  0.92670000  0.84810000  0.91910000  1.0 -0.1377265691
C  C41  1  0.01300000  0.18250000  0.43760000  1.0 -0.0888296455
C  C42  1  0.01300000  0.81750000  0.93760000  1.0 -0.0888296455
C  C43  1  0.79200000  0.01400000  0.35720000  1.0 0.0892268517
C  C44  1  0.79200000  0.98600000  0.85720000  1.0 0.0892268517
C  C45  1  0.75040000  0.00380000  0.31560000  1.0 -0.1776004411
C  C46  1  0.75040000  0.99620000  0.81560000  1.0 -0.1776004411
C  C47  1  0.65760000  0.99780000  0.28940000  1.0 0.0822483755
C  C48  1  0.65760000  0.00220000  0.78940000  1.0 0.0822483755
C  C49  1  0.62020000  0.00760000  0.31290000  1.0 -0.1628179825
C  C50  1  0.62020000  0.99240000  0.81290000  1.0 -0.1628179825
C  C51  1  0.65860000  0.03350000  0.35830000  1.0 0.0822483755
C  C52  1  0.65860000  0.96650000  0.85830000  1.0 0.0822483755
C  C53  1  0.74980000  0.03690000  0.38360000  1.0 -0.1922620363
C  C54  1  0.74980000  0.96310000  0.88360000  1.0 -0.1922620363
C  C55  1  0.61600000  0.98380000  0.24090000  1.0 0.0822483755
C  C56  1  0.61600000  0.01620000  0.74090000  1.0 0.0822483755
C  C57  1  0.65230000  0.89580000  0.22160000  1.0 -0.1706356557
C  C58  1  0.65230000  0.10420000  0.72160000  1.0 -0.1706356557
C  C59  1  0.61080000  0.89110000  0.17550000  1.0 -0.1018370665
C  C60  1  0.61080000  0.10890000  0.67550000  1.0 -0.1018370665
C  C61  1  0.53430000  0.96790000  0.14930000  1.0 0.0018272771
C  C62  1  0.53430000  0.03210000  0.64930000  1.0 0.0018272771
C  C63  1  0.50020000  0.05050000  0.17060000  1.0 -0.0707252292
C  C64  1  0.50020000  0.94950000  0.67060000  1.0 -0.0707252292
C  C65  1  0.53530000  0.05820000  0.21390000  1.0 -0.118669859
C  C66  1  0.53530000  0.94180000  0.71390000  1.0 -0.118669859
C  C67  1  0.48960000  0.95180000  0.09970000  1.0 0.5718930535
C  C68  1  0.48960000  0.04820000  0.59970000  1.0 0.5718930535
C  C69  1  0.61730000  0.04350000  0.38370000  1.0 0.0822483755
C  C70  1  0.61730000  0.95650000  0.88370000  1.0 0.0822483755
C  C71  1  0.54380000  0.95260000  0.37290000  1.0 -0.1074339128
C  C72  1  0.54380000  0.04740000  0.87290000  1.0 -0.1074339128
C  C73  1  0.50010000  0.97430000  0.39470000  1.0 -0.0888296455
C  C74  1  0.50010000  0.02570000  0.89470000  1.0 -0.0888296455
C  C75  1  0.53410000  0.07300000  0.43080000  1.0 -0.02046201
C  C76  1  0.53410000  0.92700000  0.93080000  1.0 -0.02046201
C  C77  1  0.60740000  0.15760000  0.44520000  1.0 -0.0888296455
C  C78  1  0.60740000  0.84240000  0.94520000  1.0 -0.0888296455
C  C79  1  0.65300000  0.14010000  0.42250000  1.0 -0.1706356557
C  C80  1  0.65300000  0.85990000  0.92250000  1.0 -0.1706356557
C  C81  1  0.48970000  0.08600000  0.45720000  1.0 0.5900168591
C  C82  1  0.48970000  0.91400000  0.95720000  1.0 0.5900168591
C  C83  1  0.29900000  0.49550000  0.56350000  1.0 0.5529201351
C  C84  1  0.29900000  0.50450000  0.06350000  1.0 0.5529201351
C  C85  1  0.34790000  0.50260000  0.60910000  1.0 -0.1074339128
C  C86  1  0.34790000  0.49740000  0.10910000  1.0 -0.1074339128
C  C87  1  0.32340000  0.58690000  0.63450000  1.0 -0.02046201
C  C88  1  0.32340000  0.41310000  0.13450000  1.0 -0.02046201
C  C89  1  0.37100000  0.59240000  0.67980000  1.0 -0.0707252292
C  C90  1  0.37100000  0.40760000  0.17980000  1.0 -0.0707252292
C  C91  1  0.44890000  0.51370000  0.70450000  1.0 0.0483119678
C  C92  1  0.44890000  0.48630000  0.20450000  1.0 0.0483119678
C  C93  1  0.47520000  0.42540000  0.67880000  1.0 -0.118669859
C  C94  1  0.47520000  0.57460000  0.17880000  1.0 -0.118669859
C  C95  1  0.42790000  0.41890000  0.63340000  1.0 -0.0278026881
C  C96  1  0.42790000  0.58110000  0.13340000  1.0 -0.0278026881
C  C97  1  0.49750000  0.52230000  0.75020000  1.0 0.0990514983
C  C98  1  0.49750000  0.47770000  0.25020000  1.0 0.0990514983
C  C99  1  0.46250000  0.54340000  0.77880000  1.0 -0.0888296455
C  C100  1  0.46250000  0.45660000  0.27880000  1.0 -0.0888296455
C  C101  1  0.50830000  0.54980000  0.82390000  1.0 0.0667488523
C  C102  1  0.50830000  0.45020000  0.32390000  1.0 0.0667488523
C  C103  1  0.59170000  0.51930000  0.84470000  1.0 -0.2028946407
C  C104  1  0.59170000  0.48070000  0.34470000  1.0 -0.2028946407
C  C105  1  0.63610000  0.50060000  0.82070000  1.0 0.0892268517
C  C106  1  0.63610000  0.49940000  0.32070000  1.0 0.0892268517
C  C107  1  0.58800000  0.49820000  0.77540000  1.0 -0.206614954
C  C108  1  0.58800000  0.50180000  0.27540000  1.0 -0.206614954
C  C109  1  0.46350000  0.56600000  0.84870000  1.0 0.1301938151
C  C110  1  0.46350000  0.43400000  0.34870000  1.0 0.1301938151
C  C111  1  0.39270000  0.67030000  0.83320000  1.0 -0.0888296455
C  C112  1  0.39270000  0.32970000  0.33320000  1.0 -0.0888296455
C  C113  1  0.35530000  0.68570000  0.85780000  1.0 -0.0707252292
C  C114  1  0.35530000  0.31430000  0.35780000  1.0 -0.0707252292
C  C115  1  0.38150000  0.60650000  0.89630000  1.0 -0.0419814161
C  C116  1  0.38150000  0.39350000  0.39630000  1.0 -0.0419814161
C  C117  1  0.45080000  0.49900000  0.91340000  1.0 -0.1018370665
C  C118  1  0.45080000  0.50100000  0.41340000  1.0 -0.1018370665
C  C119  1  0.49100000  0.48550000  0.88910000  1.0 -0.1706356557
C  C120  1  0.49100000  0.51450000  0.38910000  1.0 -0.1706356557
C  C121  1  0.33890000  0.62600000  0.92220000  1.0 0.5529201351
C  C122  1  0.33890000  0.37400000  0.42220000  1.0 0.5529201351
C  C123  1  0.72780000  0.48680000  0.84270000  1.0 0.061793491
C  C124  1  0.72780000  0.51320000  0.34270000  1.0 0.061793491
C  C125  1  0.77390000  0.40240000  0.88730000  1.0 -0.118669859
C  C126  1  0.77390000  0.59760000  0.38730000  1.0 -0.118669859
C  C127  1  0.85500000  0.38880000  0.90870000  1.0 -0.1018370665
C  C128  1  0.85500000  0.61120000  0.40870000  1.0 -0.1018370665
C  C129  1  0.90310000  0.44570000  0.88880000  1.0 0.0018272771
C  C130  1  0.90310000  0.55430000  0.38880000  1.0 0.0018272771
C  C131  1  0.85790000  0.52210000  0.84820000  1.0 -0.1074339128
C  C132  1  0.85790000  0.47790000  0.34820000  1.0 -0.1074339128
C  C133  1  0.77310000  0.54150000  0.82720000  1.0 -0.118669859
C  C134  1  0.77310000  0.45850000  0.32720000  1.0 -0.118669859
C  C135  1  0.99850000  0.42530000  0.91290000  1.0 0.5284299426
C  C136  1  0.99850000  0.57470000  0.41290000  1.0 0.5284299426
N  N1  1  0.25380000  0.91530000  0.38100000  1.0 -0.2361534811
N  N2  1  0.25380000  0.08470000  0.88100000  1.0 -0.2361534811
N  N3  1  0.15540000  0.14320000  0.01560000  1.0 -0.2679864294
N  N4  1  0.15540000  0.85680000  0.51560000  1.0 -0.2679864294
O  O1  1  0.21390000  0.59920000  0.45600000  1.0 -0.5718900389
O  O2  1  0.21390000  0.40080000  0.95600000  1.0 -0.5718900389
O  O3  1  0.35630000  0.17640000  0.49830000  1.0 -0.8535415955
O  O4  1  0.35630000  0.82360000  0.99830000  1.0 -0.8535415955
O  O5  1  0.18090000  0.54200000  0.25220000  1.0 -0.3331631697
O  O6  1  0.18090000  0.45800000  0.75220000  1.0 -0.3331631697
O  O7  1  0.09370000  0.68550000  0.09190000  1.0 -0.492626271
O  O8  1  0.09370000  0.31450000  0.59190000  1.0 -0.4985752232
O  O9  1  0.19060000  0.02470000  0.43520000  1.0 -0.5099290885
O  O10  1  0.19060000  0.97530000  0.93520000  1.0 -0.5099290885
O  O11  1  0.17430000  0.26510000  0.46230000  1.0 -0.4434241779
O  O12  1  0.17430000  0.73490000  0.96230000  1.0 -0.4434241779
O  O13  1  0.53310000  0.88770000  0.08590000  1.0 -0.5393547244
O  O14  1  0.53310000  0.11230000  0.58590000  1.0 -0.5393547244
O  O15  1  0.41410000  0.99160000  0.07910000  1.0 -0.492626271
O  O16  1  0.41410000  0.00840000  0.57910000  1.0 -0.492626271
O  O17  1  0.52710000  0.18300000  0.49240000  1.0 -0.5644718833
O  O18  1  0.52710000  0.81700000  0.99240000  1.0 -0.5644718833
O  O19  1  0.42290000  0.02350000  0.44420000  1.0 -0.4985752232
O  O20  1  0.42290000  0.97650000  0.94420000  1.0 -0.4985752232
O  O21  1  0.22110000  0.52190000  0.54380000  1.0 -0.5099290885
O  O22  1  0.22110000  0.47810000  0.04380000  1.0 -0.5099290885
O  O23  1  0.33620000  0.45870000  0.54040000  1.0 -0.492626271
O  O24  1  0.33620000  0.54130000  0.04040000  1.0 -0.492626271
O  O25  1  0.27700000  0.72360000  0.90840000  1.0 -0.5229950376
O  O26  1  0.27700000  0.27640000  0.40840000  1.0 -0.5229950376
O  O27  1  0.35870000  0.53700000  0.95440000  1.0 -0.4531469173
O  O28  1  0.35870000  0.46300000  0.45440000  1.0 -0.4531469173
O  O29  1  0.03190000  0.40560000  0.95260000  1.0 -0.492626271
O  O30  1  0.03190000  0.59440000  0.45260000  1.0 -0.492626271
O  O31  1  0.02920000  0.43990000  0.88920000  1.0 -0.4630387254
O  O32  1  0.02920000  0.56010000  0.38920000  1.0 -0.4630387254
O  O33  1  0.07400000  0.70000000  0.22510000  1.0 -0.3519604183
O  O34  1  0.07400000  0.30000000  0.72510000  1.0 -0.3519604183
