# DDEC6 charges by PACMAN v1.1 (https://github.com/mtap-research/PACMAN-charge/)
data_OCIMOF_FSR_pacman
_symmetry_space_group_name_H-M   'P 1'
_cell_length_a   14.72280000
_cell_length_b   15.23750000
_cell_length_c   15.77640000
_cell_angle_alpha   67.52600000
_cell_angle_beta   65.84700000
_cell_angle_gamma   70.86600000
_symmetry_Int_Tables_number   1
_chemical_formula_structural   Co3B20H78C82(N2O9)2
_chemical_formula_sum   'Co3 B20 H78 C82 N4 O18'
_cell_volume   2921.86780785
_cell_formula_units_Z   1
loop_
 _symmetry_equiv_pos_site_id
 _symmetry_equiv_pos_as_xyz
  1  'x, y, z'
loop_
 _atom_site_type_symbol
 _atom_site_label
 _atom_site_symmetry_multiplicity
 _atom_site_fract_x
 _atom_site_fract_y
 _atom_site_fract_z
 _atom_site_occupancy
 _atom_site_charge
Co  Co1  1  0.25376000  0.43110000  0.97986000  1.0 0.8724533117
Co  Co2  1  0.74624000  0.56890000  0.02014000  1.0 0.8724533117
Co  Co3  1  0.00000000  0.50000000  0.00000000  1.0 1.1038590467
B  B1  1  0.63370000  0.10193000  0.18850000  1.0 -0.1588417991
B  B2  1  0.74983000  0.11138000  0.18926000  1.0 -0.1982975805
B  B3  1  0.82664000  0.15150000  0.06655000  1.0 -0.1910195554
B  B4  1  0.75736000  0.16669000  0.99074000  1.0 -0.2209716642
B  B5  1  0.63906000  0.13420000  0.06622000  1.0 -0.1910195554
B  B6  1  0.72875000  0.99624000  0.20796000  1.0 -0.1829399111
B  B7  1  0.84825000  0.02721000  0.13282000  1.0 -0.2407733703
B  B8  1  0.85394000  0.06181000  0.00908000  1.0 -0.2312422076
B  B9  1  0.73667000  0.05112000  0.00952000  1.0 -0.2407733703
B  B10  1  0.79398000  0.96549000  0.09682000  1.0 -0.1910195554
B  B11  1  0.36630000  0.89807000  0.81150000  1.0 -0.148596918
B  B12  1  0.25017000  0.88862000  0.81074000  1.0 -0.1982975805
B  B13  1  0.17336000  0.84850000  0.93345000  1.0 -0.1910195554
B  B14  1  0.24264000  0.83331000  0.00926000  1.0 -0.2312422076
B  B15  1  0.36094000  0.86580000  0.93378000  1.0 -0.1910195554
B  B16  1  0.27125000  0.00376000  0.79204000  1.0 -0.1829399111
B  B17  1  0.15175000  0.97279000  0.86718000  1.0 -0.2407733703
B  B18  1  0.14606000  0.93819000  0.99092000  1.0 -0.2312422076
B  B19  1  0.26333000  0.94888000  0.99048000  1.0 -0.2312422076
B  B20  1  0.20602000  0.03451000  0.90318000  1.0 -0.1910195554
H  H1  1  0.44890000  0.98380000  0.17080000  1.0 0.2705941296
H  H2  1  0.56040000  0.11620000  0.24740000  1.0 -0.0292381599
H  H3  1  0.75390000  0.13210000  0.24830000  1.0 -0.0189548114
H  H4  1  0.88140000  0.19890000  0.04480000  1.0 0.0140160077
H  H5  1  0.76610000  0.22430000  0.91940000  1.0 0.0140160077
H  H6  1  0.56900000  0.16930000  0.04460000  1.0 -0.0069524306
H  H7  1  0.71810000  0.93930000  0.27980000  1.0 -0.0292381599
H  H8  1  0.91780000  0.99110000  0.15530000  1.0 0.0324825619
H  H9  1  0.92700000  0.04910000  0.94940000  1.0 0.1067774577
H  H10  1  0.73140000  0.03050000  0.95100000  1.0 0.0188520618
H  H11  1  0.82700000  0.88840000  0.09540000  1.0 0.0188520618
H  H12  1  0.70660000  0.33600000  0.05530000  1.0 0.0970573707
H  H13  1  0.65190000  0.35040000  0.19190000  1.0 0.3519663608
H  H14  1  0.45530000  0.31210000  0.20830000  1.0 0.1698583277
H  H15  1  0.31400000  0.36210000  0.15900000  1.0 0.1196050161
H  H16  1  0.48200000  0.43670000  0.88450000  1.0 0.1196050161
H  H17  1  0.62900000  0.38670000  0.92580000  1.0 0.1545270627
H  H18  1  0.56320000  0.93240000  0.23650000  1.0 -0.0189548114
H  H19  1  0.67580000  0.77480000  0.24330000  1.0 0.1698583277
H  H20  1  0.72980000  0.63650000  0.19340000  1.0 0.1196050161
H  H21  1  0.64080000  0.77880000  0.96500000  1.0 0.1298431309
H  H22  1  0.58530000  0.92090000  0.00800000  1.0 0.1837434119
H  H23  1  0.96220000  0.71400000  0.14790000  1.0 0.1698583277
H  H24  1  0.95140000  0.79840000  0.24920000  1.0 0.2094976401
H  H25  1  0.19980000  0.61000000  0.31020000  1.0 0.1298431309
H  H26  1  0.21750000  0.53290000  0.20040000  1.0 0.1196050161
H  H27  1  0.04830000  0.90280000  0.25180000  1.0 0.2302877775
H  H28  1  0.08970000  0.91520000  0.48540000  1.0 0.1298431309
H  H29  1  0.10010000  0.65610000  0.46160000  1.0 0.1298431309
H  H30  1  0.02740000  0.62930000  0.63210000  1.0 0.1390290206
H  H31  1  0.07300000  0.53600000  0.77010000  1.0 0.1390290206
H  H32  1  0.27290000  0.70550000  0.69350000  1.0 0.1390290206
H  H33  1  0.22180000  0.80220000  0.55900000  1.0 0.1298431309
H  H34  1  0.17040000  0.04380000  0.35890000  1.0 0.1196050161
H  H35  1  0.19090000  0.19840000  0.25610000  1.0 0.1298431309
H  H36  1  0.97240000  0.21230000  0.15560000  1.0 0.1698583277
H  H37  1  0.95740000  0.05490000  0.25290000  1.0 0.1837434119
H  H38  1  0.53010000  0.99650000  0.13550000  1.0 0.1196050161
H  H39  1  0.50180000  0.90200000  0.27960000  1.0 0.2705941296
H  H40  1  0.55110000  0.01620000  0.82920000  1.0 0.2638391948
H  H41  1  0.43960000  0.88380000  0.75260000  1.0 -0.0292381599
H  H42  1  0.24610000  0.86790000  0.75170000  1.0 -0.0189548114
H  H43  1  0.11860000  0.80110000  0.95520000  1.0 0.0140160077
H  H44  1  0.23390000  0.77570000  0.08060000  1.0 0.0140160077
H  H45  1  0.43100000  0.83070000  0.95540000  1.0 -0.0069524306
H  H46  1  0.28190000  0.06070000  0.72020000  1.0 -0.0292381599
H  H47  1  0.08220000  0.00890000  0.84470000  1.0 0.0324825619
H  H48  1  0.07300000  0.95090000  0.05060000  1.0 0.1067774577
H  H49  1  0.26860000  0.96950000  0.04900000  1.0 0.0188520618
H  H50  1  0.17300000  0.11160000  0.90460000  1.0 0.0188520618
H  H51  1  0.29340000  0.66400000  0.94470000  1.0 0.0970573707
H  H52  1  0.34810000  0.64960000  0.80810000  1.0 0.3519663608
H  H53  1  0.54470000  0.68790000  0.79170000  1.0 0.1698583277
H  H54  1  0.68600000  0.63790000  0.84100000  1.0 0.1196050161
H  H55  1  0.51800000  0.56330000  0.11550000  1.0 0.1196050161
H  H56  1  0.37100000  0.61330000  0.07420000  1.0 0.1545270627
H  H57  1  0.43680000  0.06760000  0.76350000  1.0 -0.0189548114
H  H58  1  0.32420000  0.22520000  0.75670000  1.0 0.1698583277
H  H59  1  0.27020000  0.36350000  0.80660000  1.0 0.1196050161
H  H60  1  0.35920000  0.22120000  0.03500000  1.0 0.1298431309
H  H61  1  0.41470000  0.07910000  0.99200000  1.0 0.1837434119
H  H62  1  0.03780000  0.28600000  0.85210000  1.0 0.1698583277
H  H63  1  0.04860000  0.20160000  0.75080000  1.0 0.2094976401
H  H64  1  0.80020000  0.39000000  0.68980000  1.0 0.1298431309
H  H65  1  0.78250000  0.46710000  0.79960000  1.0 0.1196050161
H  H66  1  0.95170000  0.09720000  0.74820000  1.0 0.2302877775
H  H67  1  0.91030000  0.08480000  0.51460000  1.0 0.1298431309
H  H68  1  0.89990000  0.34390000  0.53840000  1.0 0.1298431309
H  H69  1  0.97260000  0.37070000  0.36790000  1.0 0.1390290206
H  H70  1  0.92700000  0.46400000  0.22990000  1.0 0.1390290206
H  H71  1  0.72710000  0.29450000  0.30650000  1.0 0.1390290206
H  H72  1  0.77820000  0.19780000  0.44100000  1.0 0.1298431309
H  H73  1  0.82960000  0.95620000  0.64110000  1.0 0.1196050161
H  H74  1  0.80910000  0.80160000  0.74390000  1.0 0.1298431309
H  H75  1  0.02760000  0.78770000  0.84440000  1.0 0.1601512826
H  H76  1  0.04260000  0.94510000  0.74710000  1.0 0.1837434119
H  H77  1  0.46990000  0.00350000  0.86450000  1.0 0.1196050161
H  H78  1  0.49820000  0.09800000  0.72040000  1.0 0.2705941296
C  C1  1  0.69630000  0.18955000  0.10150000  1.0 -0.0397683504
C  C2  1  0.66551000  0.01584000  0.12996000  1.0 -0.0292381599
C  C3  1  0.65361000  0.29725000  0.10210000  1.0 0.1601512826
C  C4  1  0.55877000  0.33885000  0.07211000  1.0 0.1390290206
C  C5  1  0.46298000  0.33529000  0.14119000  1.0 -0.1378856529
C  C6  1  0.37905000  0.36581000  0.11117000  1.0 0.0823112672
C  C7  1  0.47699000  0.40908000  0.95098000  1.0 0.0886620285
C  C8  1  0.56522000  0.37946000  0.97490000  1.0 -0.1330098489
C  C9  1  0.58487000  0.95476000  0.16402000  1.0 0.1698583277
C  C10  1  0.62440000  0.86399000  0.13073000  1.0 0.0886620285
C  C11  1  0.66790000  0.77749000  0.18547000  1.0 -0.148596918
C  C12  1  0.69981000  0.69505000  0.15521000  1.0 0.0970573707
C  C13  1  0.64813000  0.77793000  0.02249000  1.0 0.1067774577
C  C14  1  0.61469000  0.86322000  0.04757000  1.0 -0.148596918
C  C15  1  0.10753000  0.56853000  0.08914000  1.0 0.5928098356
C  C16  1  0.09274000  0.61697000  0.16194000  1.0 0.0021525943
C  C17  1  0.01219000  0.69466000  0.17849000  1.0 -0.0397683504
C  C18  1  0.00504000  0.74391000  0.23993000  1.0 -0.0771199382
C  C19  1  0.07584000  0.71422000  0.28813000  1.0 0.0641793704
C  C20  1  0.15334000  0.63315000  0.27500000  1.0 -0.1330098489
C  C21  1  0.16284000  0.58632000  0.21096000  1.0 -0.0703079456
C  C22  1  0.07360000  0.77040000  0.34800000  1.0 0.0970573707
C  C23  1  0.06146000  0.87092000  0.31164000  1.0 -0.1078557426
C  C24  1  0.06830000  0.92585000  0.36159000  1.0 0.0886620285
C  C25  1  0.08578000  0.87851000  0.45038000  1.0 -0.1982975805
C  C26  1  0.09758000  0.77754000  0.48840000  1.0 0.0886620285
C  C27  1  0.09167000  0.72463000  0.43634000  1.0 -0.1829399111
C  C28  1  0.12157000  0.72403000  0.57990000  1.0 0.0688827804
C  C29  1  0.07722000  0.64498000  0.64449000  1.0 -0.1378856529
C  C30  1  0.10464000  0.58898000  0.72635000  1.0 -0.0771199382
C  C31  1  0.17889000  0.61060000  0.74448000  1.0 -0.0069524306
C  C32  1  0.22264000  0.69013000  0.68132000  1.0 -0.0603464598
C  C33  1  0.19306000  0.74699000  0.60064000  1.0 -0.1378856529
C  C34  1  0.21059000  0.54630000  0.82983000  1.0 0.5731123483
C  C35  1  0.06634000  0.03093000  0.31229000  1.0 0.0688827804
C  C36  1  0.13258000  0.07645000  0.31521000  1.0 -0.1588417991
C  C37  1  0.14377000  0.16889000  0.25496000  1.0 -0.0974201949
C  C38  1  0.08660000  0.21901000  0.19276000  1.0 -0.001918714
C  C39  1  0.01503000  0.17698000  0.19452000  1.0 -0.0397683504
C  C40  1  0.00573000  0.08363000  0.25301000  1.0 -0.0771199382
C  C41  1  0.10384000  0.31567000  0.12138000  1.0 0.5770911968
C  C42  1  0.30370000  0.81045000  0.89850000  1.0 -0.0292381599
C  C43  1  0.33449000  0.98416000  0.87004000  1.0 -0.0397683504
C  C44  1  0.34639000  0.70275000  0.89790000  1.0 0.1545270627
C  C45  1  0.44123000  0.66115000  0.92789000  1.0 0.1390290206
C  C46  1  0.53702000  0.66471000  0.85881000  1.0 -0.1378856529
C  C47  1  0.62095000  0.63419000  0.88883000  1.0 0.0823112672
C  C48  1  0.52301000  0.59092000  0.04902000  1.0 0.0886620285
C  C49  1  0.43478000  0.62054000  0.02510000  1.0 -0.1330098489
C  C50  1  0.41513000  0.04524000  0.83598000  1.0 0.1698583277
C  C51  1  0.37560000  0.13601000  0.86927000  1.0 0.0886620285
C  C52  1  0.33210000  0.22251000  0.81453000  1.0 -0.148596918
C  C53  1  0.30019000  0.30495000  0.84479000  1.0 0.0970573707
C  C54  1  0.35187000  0.22207000  0.97751000  1.0 0.1067774577
C  C55  1  0.38531000  0.13678000  0.95243000  1.0 -0.148596918
C  C56  1  0.89247000  0.43147000  0.91086000  1.0 0.5928098356
C  C57  1  0.90726000  0.38303000  0.83806000  1.0 0.0021525943
C  C58  1  0.98781000  0.30534000  0.82151000  1.0 -0.0397683504
C  C59  1  0.99496000  0.25609000  0.76007000  1.0 -0.0771199382
C  C60  1  0.92416000  0.28578000  0.71187000  1.0 0.0641793704
C  C61  1  0.84666000  0.36685000  0.72500000  1.0 -0.1330098489
C  C62  1  0.83716000  0.41368000  0.78904000  1.0 -0.0703079456
C  C63  1  0.92640000  0.22960000  0.65200000  1.0 0.0970573707
C  C64  1  0.93854000  0.12908000  0.68836000  1.0 -0.1078557426
C  C65  1  0.93170000  0.07415000  0.63841000  1.0 0.0886620285
C  C66  1  0.91422000  0.12149000  0.54962000  1.0 -0.1982975805
C  C67  1  0.90242000  0.22246000  0.51160000  1.0 0.0886620285
C  C68  1  0.90833000  0.27537000  0.56366000  1.0 -0.1829399111
C  C69  1  0.87843000  0.27597000  0.42010000  1.0 0.0688827804
C  C70  1  0.92278000  0.35502000  0.35551000  1.0 -0.1378856529
C  C71  1  0.89536000  0.41102000  0.27365000  1.0 -0.0771199382
C  C72  1  0.82111000  0.38940000  0.25552000  1.0 -0.0069524306
C  C73  1  0.77736000  0.30987000  0.31868000  1.0 -0.0603464598
C  C74  1  0.80694000  0.25301000  0.39936000  1.0 -0.1378856529
C  C75  1  0.78941000  0.45370000  0.17017000  1.0 0.5731123483
C  C76  1  0.93366000  0.96907000  0.68771000  1.0 0.0688827804
C  C77  1  0.86742000  0.92355000  0.68479000  1.0 -0.1588417991
C  C78  1  0.85623000  0.83111000  0.74504000  1.0 -0.0974201949
C  C79  1  0.91340000  0.78099000  0.80724000  1.0 -0.001918714
C  C80  1  0.98497000  0.82302000  0.80548000  1.0 -0.0397683504
C  C81  1  0.99427000  0.91637000  0.74699000  1.0 -0.0771199382
C  C82  1  0.89616000  0.68433000  0.87862000  1.0 0.5770911968
N  N1  1  0.38519000  0.40065000  0.01705000  1.0 -0.2498451078
N  N2  1  0.69043000  0.69372000  0.07475000  1.0 -0.2734303081
N  N3  1  0.61481000  0.59935000  0.98295000  1.0 -0.2498451078
N  N4  1  0.30957000  0.30628000  0.92525000  1.0 -0.2734303081
O  O1  1  0.49740000  0.01308000  0.13920000  1.0 -0.3296737129
O  O2  1  0.63141000  0.30298000  0.19610000  1.0 -0.5014657879
O  O3  1  0.19910000  0.54169000  0.04097000  1.0 -0.549805582
O  O4  1  0.02987000  0.55862000  0.08246000  1.0 -0.5641196871
O  O5  1  0.15237000  0.49167000  0.89884000  1.0 -0.549805582
O  O6  1  0.29652000  0.54042000  0.83439000  1.0 -0.5290461833
O  O7  1  0.18199000  0.34264000  0.10957000  1.0 -0.549805582
O  O8  1  0.04096000  0.36126000  0.07695000  1.0 -0.5290461833
O  O9  1  0.54430000  0.93730000  0.25850000  1.0 -0.3021267259
O  O10  1  0.50260000  0.98692000  0.86080000  1.0 -0.3296737129
O  O11  1  0.36859000  0.69702000  0.80390000  1.0 -0.5014657879
O  O12  1  0.80090000  0.45831000  0.95903000  1.0 -0.549805582
O  O13  1  0.97013000  0.44138000  0.91754000  1.0 -0.5641196871
O  O14  1  0.84763000  0.50833000  0.10116000  1.0 -0.549805582
O  O15  1  0.70348000  0.45958000  0.16561000  1.0 -0.5290461833
O  O16  1  0.81801000  0.65736000  0.89043000  1.0 -0.549805582
O  O17  1  0.95904000  0.63874000  0.92305000  1.0 -0.5290461833
O  O18  1  0.45570000  0.06270000  0.74150000  1.0 -0.3066239858
