# DDEC6 charges by PACMAN v1.1 (https://github.com/mtap-research/PACMAN-charge/)
data_OCIMUL_ASR_pacman
_symmetry_space_group_name_H-M   'P 1'
_cell_length_a   14.71410000
_cell_length_b   15.30160000
_cell_length_c   15.85570000
_cell_angle_alpha   67.09500000
_cell_angle_beta   66.06100000
_cell_angle_gamma   70.80200000
_symmetry_Int_Tables_number   1
_chemical_formula_structural   Co3B20H78C82(N2O9)2
_chemical_formula_sum   'Co3 B20 H78 C82 N4 O18'
_cell_volume   2942.96201037
_cell_formula_units_Z   1
loop_
 _symmetry_equiv_pos_site_id
 _symmetry_equiv_pos_as_xyz
  1  'x, y, z'
loop_
 _atom_site_type_symbol
 _atom_site_label
 _atom_site_symmetry_multiplicity
 _atom_site_fract_x
 _atom_site_fract_y
 _atom_site_fract_z
 _atom_site_occupancy
 _atom_site_charge
Co  Co1  1  0.25454000  0.93032000  0.98084000  1.0 0.8746826578
Co  Co2  1  0.74546000  0.06968000  0.01916000  1.0 0.8746826578
Co  Co3  1  0.00000000  0.00000000  0.00000000  1.0 1.1098856259
B  B1  1  0.63350000  0.59989000  0.18850000  1.0 -0.1608503196
B  B2  1  0.76020000  0.66150000  0.99160000  1.0 -0.230949599
B  B3  1  0.64070000  0.63101000  0.06560000  1.0 -0.1935480655
B  B4  1  0.74960000  0.60795000  0.19090000  1.0 -0.1979187798
B  B5  1  0.72670000  0.49350000  0.21070000  1.0 -0.1831442859
B  B6  1  0.84770000  0.52230000  0.13700000  1.0 -0.230949599
B  B7  1  0.82850000  0.64590000  0.06910000  1.0 -0.1935480655
B  B8  1  0.73830000  0.54660000  0.01170000  1.0 -0.2429247967
B  B9  1  0.79260000  0.46130000  0.10120000  1.0 -0.1979187798
B  B10  1  0.85510000  0.55610000  0.01310000  1.0 -0.2489380609
B  B11  1  0.36650000  0.40011000  0.81150000  1.0 -0.1608503196
B  B12  1  0.23980000  0.33850000  0.00840000  1.0 -0.230949599
B  B13  1  0.35930000  0.36899000  0.93440000  1.0 -0.1935480655
B  B14  1  0.25040000  0.39205000  0.80910000  1.0 -0.1979187798
B  B15  1  0.27330000  0.50650000  0.78930000  1.0 -0.1831442859
B  B16  1  0.15230000  0.47770000  0.86300000  1.0 -0.230949599
B  B17  1  0.17150000  0.35410000  0.93090000  1.0 -0.1979187798
B  B18  1  0.26170000  0.45340000  0.98830000  1.0 -0.2429247967
B  B19  1  0.20740000  0.53870000  0.89880000  1.0 -0.1979187798
B  B20  1  0.14490000  0.44390000  0.98690000  1.0 -0.2429247967
H  H1  1  0.65570000  0.85210000  0.18370000  1.0 0.3559162546
H  H2  1  0.27400000  0.20260000  0.69290000  1.0 0.1404681433
H  H3  1  0.21420000  0.02690000  0.20610000  1.0 0.1201206089
H  H4  1  0.07140000  0.03520000  0.77230000  1.0 0.1404681433
H  H5  1  0.96570000  0.21530000  0.14350000  1.0 0.1681765485
H  H6  1  0.19730000  0.10410000  0.31420000  1.0 0.1201206089
H  H7  1  0.02660000  0.12710000  0.63310000  1.0 0.1305096421
H  H8  1  0.09870000  0.15310000  0.46230000  1.0 0.1305096421
H  H9  1  0.95480000  0.29840000  0.24460000  1.0 0.2082264278
H  H10  1  0.63090000  0.88710000  0.92310000  1.0 0.1590699453
H  H11  1  0.46160000  0.80820000  0.20530000  1.0 0.1681765485
H  H12  1  0.31820000  0.85990000  0.15810000  1.0 0.1201206089
H  H13  1  0.09350000  0.41140000  0.48230000  1.0 0.1305096421
H  H14  1  0.48240000  0.93910000  0.88360000  1.0 0.1201206089
H  H15  1  0.05240000  0.39990000  0.24900000  1.0 0.2207307894
H  H16  1  0.97070000  0.71260000  0.15890000  1.0 0.1681765485
H  H17  1  0.71250000  0.83150000  0.04980000  1.0 0.0967008773
H  H18  1  0.19860000  0.69330000  0.25040000  1.0 0.1305096421
H  H19  1  0.95860000  0.55380000  0.25300000  1.0 0.18010065
H  H20  1  0.22340000  0.29870000  0.55700000  1.0 0.1201206089
H  H21  1  0.63950000  0.28050000  0.96430000  1.0 0.1305096421
H  H22  1  0.17940000  0.53740000  0.35270000  1.0 0.1201206089
H  H23  1  0.58550000  0.42210000  0.00700000  1.0 0.1885910261
H  H24  1  0.72680000  0.13440000  0.19410000  1.0 0.1201206089
H  H25  1  0.67140000  0.27130000  0.24530000  1.0 0.18010065
H  H26  1  0.56340000  0.42900000  0.23730000  1.0 -0.0498860084
H  H27  1  0.44520000  0.48460000  0.17830000  1.0 0.2593860456
H  H28  1  0.56000000  0.61540000  0.24590000  1.0 -0.0286977393
H  H29  1  0.77020000  0.71840000  0.91970000  1.0 0.0190227985
H  H30  1  0.57130000  0.66666667  0.04260000  1.0 -0.0019739539
H  H31  1  0.75310000  0.62900000  0.24950000  1.0 -0.0224022936
H  H32  1  0.71440000  0.43740000  0.28310000  1.0 -0.0286977393
H  H33  1  0.91650000  0.48560000  0.16090000  1.0 0.0037307373
H  H34  1  0.88410000  0.69210000  0.04800000  1.0 0.0190227985
H  H35  1  0.73380000  0.52560000  0.95340000  1.0 0.0330187133
H  H36  1  0.82430000  0.38380000  0.10160000  1.0 0.0190227985
H  H37  1  0.92840000  0.54240000  0.95490000  1.0 0.1201206089
H  H38  1  0.52800000  0.49490000  0.13790000  1.0 0.1201206089
H  H39  1  0.48990000  0.41610000  0.27620000  1.0 0.2593860456
H  H40  1  0.34430000  0.14790000  0.81630000  1.0 0.3559162546
H  H41  1  0.72600000  0.79740000  0.30710000  1.0 0.1404681433
H  H42  1  0.78580000  0.97310000  0.79390000  1.0 0.1201206089
H  H43  1  0.92860000  0.96480000  0.22770000  1.0 0.1404681433
H  H44  1  0.03430000  0.78470000  0.85650000  1.0 0.1681765485
H  H45  1  0.80270000  0.89590000  0.68580000  1.0 0.1201206089
H  H46  1  0.97340000  0.87290000  0.36690000  1.0 0.1305096421
H  H47  1  0.90130000  0.84690000  0.53770000  1.0 0.1305096421
H  H48  1  0.04520000  0.70160000  0.75540000  1.0 0.2082264278
H  H49  1  0.36910000  0.11290000  0.07690000  1.0 0.1590699453
H  H50  1  0.53840000  0.19180000  0.79470000  1.0 0.1590699453
H  H51  1  0.68180000  0.14010000  0.84190000  1.0 0.1201206089
H  H52  1  0.90650000  0.58860000  0.51770000  1.0 0.1305096421
H  H53  1  0.51760000  0.06090000  0.11640000  1.0 0.1201206089
H  H54  1  0.94760000  0.60010000  0.75100000  1.0 0.2207307894
H  H55  1  0.02930000  0.28740000  0.84110000  1.0 0.1681765485
H  H56  1  0.28750000  0.16850000  0.95020000  1.0 0.0967008773
H  H57  1  0.80140000  0.30670000  0.74960000  1.0 0.1305096421
H  H58  1  0.04140000  0.44620000  0.74700000  1.0 0.18010065
H  H59  1  0.77660000  0.70130000  0.44300000  1.0 0.1201206089
H  H60  1  0.36050000  0.71950000  0.03570000  1.0 0.1305096421
H  H61  1  0.82060000  0.46260000  0.64730000  1.0 0.1201206089
H  H62  1  0.41450000  0.57790000  0.99300000  1.0 0.1885910261
H  H63  1  0.27320000  0.86560000  0.80590000  1.0 0.1201206089
H  H64  1  0.32860000  0.72870000  0.75470000  1.0 0.18010065
H  H65  1  0.43660000  0.57100000  0.76270000  1.0 -0.0498860084
H  H66  1  0.55480000  0.51540000  0.82170000  1.0 0.2549606193
H  H67  1  0.44000000  0.38460000  0.75410000  1.0 -0.0286977393
H  H68  1  0.22980000  0.28160000  0.08030000  1.0 0.0190227985
H  H69  1  0.42870000  0.33333333  0.95740000  1.0 -0.0019739539
H  H70  1  0.24690000  0.37100000  0.75050000  1.0 -0.0224022936
H  H71  1  0.28560000  0.56260000  0.71690000  1.0 -0.0286977393
H  H72  1  0.08350000  0.51440000  0.83910000  1.0 0.0055958851
H  H73  1  0.11590000  0.30790000  0.95200000  1.0 0.0190227985
H  H74  1  0.26620000  0.47440000  0.04660000  1.0 0.0330187133
H  H75  1  0.17570000  0.61620000  0.89840000  1.0 0.0190227985
H  H76  1  0.07160000  0.45760000  0.04510000  1.0 0.1201206089
H  H77  1  0.47200000  0.50510000  0.86210000  1.0 0.1201206089
H  H78  1  0.51010000  0.58390000  0.72380000  1.0 0.2593860456
C  C1  1  0.10502000  0.81437000  0.12222000  1.0 0.5778218586
C  C2  1  0.17850000  0.10905000  0.74507000  1.0 -0.0019739539
C  C3  1  0.20998000  0.04507000  0.83146000  1.0 0.5778218586
C  C4  1  0.09331000  0.11518000  0.16191000  1.0 0.0037307373
C  C5  1  0.22343000  0.18754000  0.68104000  1.0 -0.0591089424
C  C6  1  0.12230000  0.22103000  0.57942000  1.0 0.0702134207
C  C7  1  0.07681000  0.21145000  0.28784000  1.0 0.064897396
C  C8  1  0.16131000  0.08188000  0.21409000  1.0 -0.0707319107
C  C9  1  0.10848000  0.06749000  0.08902000  1.0 0.5945731927
C  C10  1  0.10370000  0.08745000  0.72776000  1.0 -0.0758373982
C  C11  1  0.01454000  0.19443000  0.17582000  1.0 -0.0286977393
C  C12  1  0.07519000  0.26748000  0.34670000  1.0 0.0907071449
C  C13  1  0.15204000  0.12867000  0.27748000  1.0 -0.1327799052
C  C14  1  0.07668000  0.14268000  0.64519000  1.0 -0.1327799052
C  C15  1  0.56295000  0.83692000  0.06889000  1.0 0.1404681433
C  C16  1  0.08901000  0.71679000  0.19220000  1.0 -0.0019739539
C  C17  1  0.09202000  0.22137000  0.43593000  1.0 -0.1831442859
C  C18  1  0.00739000  0.24306000  0.23711000  1.0 -0.0758373982
C  C19  1  0.56767000  0.87930000  0.97246000  1.0 -0.1394846585
C  C20  1  0.46790000  0.83255000  0.13863000  1.0 -0.1327799052
C  C21  1  0.09922000  0.27427000  0.48714000  1.0 0.0907071449
C  C22  1  0.07208000  0.42226000  0.35874000  1.0 0.0907071449
C  C23  1  0.38266000  0.86409000  0.10985000  1.0 0.0907071449
C  C24  1  0.08895000  0.37493000  0.44799000  1.0 -0.1979187798
C  C25  1  0.47856000  0.90999000  0.94962000  1.0 0.0907071449
C  C26  1  0.06472000  0.36789000  0.30917000  1.0 -0.0966489162
C  C27  1  0.69879000  0.68596000  0.10066000  1.0 -0.0365995649
C  C28  1  0.01546000  0.67592000  0.19567000  1.0 -0.0365995649
C  C29  1  0.65885000  0.79414000  0.09798000  1.0 0.1590699453
C  C30  1  0.07073000  0.52735000  0.30980000  1.0 0.0702134207
C  C31  1  0.14970000  0.66481000  0.25105000  1.0 -0.0927450429
C  C32  1  0.62240000  0.36237000  0.13150000  1.0 0.0907071449
C  C33  1  0.00754000  0.58186000  0.25262000  1.0 -0.0707319107
C  C34  1  0.19413000  0.24402000  0.59939000  1.0 -0.1327799052
C  C35  1  0.64710000  0.27874000  0.02170000  1.0 0.1137717519
C  C36  1  0.13940000  0.57135000  0.31092000  1.0 -0.1608503196
C  C37  1  0.61380000  0.36366000  0.04700000  1.0 -0.1394846585
C  C38  1  0.66521000  0.51309000  0.13119000  1.0 -0.0365995649
C  C39  1  0.69740000  0.19347000  0.15580000  1.0 0.0907071449
C  C40  1  0.66480000  0.27510000  0.18670000  1.0 -0.1394846585
C  C41  1  0.58380000  0.45253000  0.16510000  1.0 0.1885910261
C  C42  1  0.89498000  0.18563000  0.87778000  1.0 0.5778218586
C  C43  1  0.82150000  0.89095000  0.25493000  1.0 -0.0019739539
C  C44  1  0.79002000  0.95493000  0.16854000  1.0 0.5778218586
C  C45  1  0.90669000  0.88482000  0.83809000  1.0 0.0037307373
C  C46  1  0.77657000  0.81246000  0.31896000  1.0 -0.0591089424
C  C47  1  0.87770000  0.77897000  0.42058000  1.0 0.0702134207
C  C48  1  0.92319000  0.78855000  0.71216000  1.0 0.064897396
C  C49  1  0.83869000  0.91812000  0.78591000  1.0 -0.0707319107
C  C50  1  0.89152000  0.93251000  0.91098000  1.0 0.5945731927
C  C51  1  0.89630000  0.91255000  0.27224000  1.0 -0.0758373982
C  C52  1  0.98546000  0.80557000  0.82418000  1.0 -0.0286977393
C  C53  1  0.92481000  0.73252000  0.65330000  1.0 0.0907071449
C  C54  1  0.84796000  0.87133000  0.72252000  1.0 -0.1327799052
C  C55  1  0.92332000  0.85732000  0.35481000  1.0 -0.1327799052
C  C56  1  0.43705000  0.16308000  0.93111000  1.0 0.1404681433
C  C57  1  0.91099000  0.28321000  0.80780000  1.0 -0.0019739539
C  C58  1  0.90798000  0.77863000  0.56407000  1.0 -0.1831442859
C  C59  1  0.99261000  0.75694000  0.76289000  1.0 -0.0707319107
C  C60  1  0.43233000  0.12070000  0.02754000  1.0 -0.1394846585
C  C61  1  0.53210000  0.16745000  0.86137000  1.0 -0.1327799052
C  C62  1  0.90078000  0.72573000  0.51286000  1.0 0.0907071449
C  C63  1  0.92792000  0.57774000  0.64126000  1.0 0.0907071449
C  C64  1  0.61734000  0.13591000  0.89015000  1.0 0.0907071449
C  C65  1  0.91105000  0.62507000  0.55201000  1.0 -0.1979187798
C  C66  1  0.52144000  0.09001000  0.05038000  1.0 0.0907071449
C  C67  1  0.93528000  0.63211000  0.69083000  1.0 -0.0966489162
C  C68  1  0.30121000  0.31404000  0.89934000  1.0 -0.0365995649
C  C69  1  0.98454000  0.32408000  0.80433000  1.0 -0.0365995649
C  C70  1  0.34115000  0.20586000  0.90202000  1.0 0.1590699453
C  C71  1  0.92927000  0.47265000  0.69020000  1.0 0.0702134207
C  C72  1  0.85030000  0.33519000  0.74895000  1.0 -0.0927450429
C  C73  1  0.37760000  0.63763000  0.86850000  1.0 0.0907071449
C  C74  1  0.99246000  0.41814000  0.74738000  1.0 -0.0707319107
C  C75  1  0.80587000  0.75598000  0.40061000  1.0 -0.1327799052
C  C76  1  0.35290000  0.72126000  0.97830000  1.0 0.1137717519
C  C77  1  0.86060000  0.42865000  0.68908000  1.0 -0.1608503196
C  C78  1  0.38620000  0.63634000  0.95300000  1.0 -0.1394846585
C  C79  1  0.33479000  0.48691000  0.86881000  1.0 -0.0365995649
C  C80  1  0.30260000  0.80653000  0.84420000  1.0 0.0907071449
C  C81  1  0.33520000  0.72490000  0.81330000  1.0 -0.1394846585
C  C82  1  0.41620000  0.54747000  0.83490000  1.0 0.1885910261
N  N1  1  0.68943000  0.19397000  0.07381000  1.0 -0.277922533
N  N2  1  0.38711000  0.90070000  0.01609000  1.0 -0.2489380609
N  N3  1  0.31057000  0.80603000  0.92619000  1.0 -0.277922533
N  N4  1  0.61289000  0.09930000  0.98391000  1.0 -0.2489380609
O  O1  1  0.18356000  0.84139000  0.10991000  1.0 -0.5512626043
O  O2  1  0.04059000  0.86127000  0.07908000  1.0 -0.5320549976
O  O3  1  0.29624000  0.03958000  0.83570000  1.0 -0.5320549976
O  O4  1  0.15207000  0.99056000  0.90020000  1.0 -0.5512626043
O  O5  1  0.20005000  0.04014000  0.04226000  1.0 -0.5512626043
O  O6  1  0.03050000  0.05930000  0.08087000  1.0 -0.567810155
O  O7  1  0.63917000  0.80173000  0.19011000  1.0 -0.4938259792
O  O8  1  0.49480000  0.51150000  0.14200000  1.0 -0.32853765
O  O9  1  0.54630000  0.43130000  0.25790000  1.0 -0.3208670091
O  O10  1  0.81644000  0.15861000  0.89009000  1.0 -0.5512626043
O  O11  1  0.95941000  0.13873000  0.92092000  1.0 -0.5320549976
O  O12  1  0.70376000  0.96042000  0.16430000  1.0 -0.5320549976
O  O13  1  0.84793000  0.00944000  0.09980000  1.0 -0.5512626043
O  O14  1  0.79995000  0.95986000  0.95774000  1.0 -0.5512626043
O  O15  1  0.96950000  0.94070000  0.91913000  1.0 -0.567810155
O  O16  1  0.36083000  0.19827000  0.80989000  1.0 -0.4952157211
O  O17  1  0.50520000  0.48850000  0.85800000  1.0 -0.32853765
O  O18  1  0.45370000  0.56870000  0.74210000  1.0 -0.3208670091
