# DDEC6 charges by PACMAN v1.1 (https://github.com/mtap-research/PACMAN-charge/)
data_OCIMIZ_ASR_pacman
_symmetry_space_group_name_H-M   'P 1'
_cell_length_a   14.92350000
_cell_length_b   15.12030000
_cell_length_c   15.97930000
_cell_angle_alpha   67.39900000
_cell_angle_beta   68.01600000
_cell_angle_gamma   70.67000000
_symmetry_Int_Tables_number   1
_chemical_formula_structural   Co3B20H78C82(N2O9)2
_chemical_formula_sum   'Co3 B20 H78 C82 N4 O18'
_cell_volume   3012.08991889
_cell_formula_units_Z   1
loop_
 _symmetry_equiv_pos_site_id
 _symmetry_equiv_pos_as_xyz
  1  'x, y, z'
loop_
 _atom_site_type_symbol
 _atom_site_label
 _atom_site_symmetry_multiplicity
 _atom_site_fract_x
 _atom_site_fract_y
 _atom_site_fract_z
 _atom_site_occupancy
 _atom_site_charge
Co  Co1  1  0.24835000  0.93250000  0.98581000  1.0 0.8644829317
Co  Co2  1  0.75165000  0.06750000  0.01419000  1.0 0.8644829317
Co  Co3  1  0.00000000  0.00000000  0.00000000  1.0 1.1222588344
B  B1  1  0.63950000  0.63350000  0.06930000  1.0 -0.1667579265
B  B2  1  0.73520000  0.55100000  0.01340000  1.0 -0.2387173848
B  B3  1  0.79970000  0.46830000  0.09660000  1.0 -0.2085860857
B  B4  1  0.74170000  0.49900000  0.20490000  1.0 -0.1999363106
B  B5  1  0.64250000  0.60257000  0.18740000  1.0 -0.1570423098
B  B6  1  0.75030000  0.67080000  0.99230000  1.0 -0.2298190521
B  B7  1  0.85040000  0.56760000  0.00870000  1.0 -0.2298190521
B  B8  1  0.85320000  0.53490000  0.12790000  1.0 -0.2387173848
B  B9  1  0.75690000  0.61780000  0.18410000  1.0 -0.2085860857
B  B10  1  0.82350000  0.65990000  0.06330000  1.0 -0.1999363106
B  B11  1  0.36050000  0.36650000  0.93070000  1.0 -0.1667579265
B  B12  1  0.26480000  0.44900000  0.98660000  1.0 -0.2387173848
B  B13  1  0.20030000  0.53170000  0.90340000  1.0 -0.2085860857
B  B14  1  0.25830000  0.50100000  0.79510000  1.0 -0.1999363106
B  B15  1  0.35750000  0.39743000  0.81260000  1.0 -0.1570423098
B  B16  1  0.24970000  0.32920000  0.00770000  1.0 -0.2298190521
B  B17  1  0.14960000  0.43240000  0.99130000  1.0 -0.2298190521
B  B18  1  0.14680000  0.46510000  0.87210000  1.0 -0.2387173848
B  B19  1  0.24310000  0.38220000  0.81590000  1.0 -0.2085860857
B  B20  1  0.17650000  0.34010000  0.93670000  1.0 -0.1999363106
H  H1  1  0.56820000  0.66610000  0.04990000  1.0 -0.0197779565
H  H2  1  0.72720000  0.52810000  0.95820000  1.0 0.0188645374
H  H3  1  0.83460000  0.39060000  0.09550000  1.0 0.0089354056
H  H4  1  0.73820000  0.44150000  0.27520000  1.0 -0.0320802433
H  H5  1  0.57340000  0.61500000  0.24580000  1.0 -0.0320802433
H  H6  1  0.75260000  0.72890000  0.92250000  1.0 0.0017891347
H  H7  1  0.91900000  0.55650000  0.94960000  1.0 0.0989421418
H  H8  1  0.92440000  0.50160000  0.14750000  1.0 0.0188645374
H  H9  1  0.76380000  0.64060000  0.24000000  1.0 -0.0197779565
H  H10  1  0.87420000  0.71070000  0.03990000  1.0 0.0188645374
H  H11  1  0.69950000  0.84270000  0.05420000  1.0 0.0989421418
H  H12  1  0.65810000  0.85110000  0.18810000  1.0 0.3573867007
H  H13  1  0.61740000  0.88800000  0.92800000  1.0 0.1616783091
H  H14  1  0.46960000  0.93560000  0.88870000  1.0 0.1191341198
H  H15  1  0.31770000  0.86730000  0.15770000  1.0 0.1191341198
H  H16  1  0.46110000  0.81420000  0.20430000  1.0 0.1695613003
H  H17  1  0.58490000  0.42300000  0.23940000  1.0 0.0808647274
H  H18  1  0.46220000  0.47340000  0.18900000  1.0 0.2531188651
H  H19  1  0.57060000  0.41610000  0.02600000  1.0 0.1695613003
H  H20  1  0.62620000  0.27550000  0.97830000  1.0 0.1304653924
H  H21  1  0.76380000  0.13530000  0.17480000  1.0 0.1191341198
H  H22  1  0.71160000  0.27080000  0.22900000  1.0 0.1793654038
H  H23  1  0.21120000  0.68430000  0.24440000  1.0 0.1304653924
H  H24  1  0.19390000  0.52700000  0.34390000  1.0 0.1191341198
H  H25  1  0.95900000  0.55630000  0.25850000  1.0 0.1793654038
H  H26  1  0.97490000  0.71410000  0.16080000  1.0 0.1616783091
H  H27  1  0.04850000  0.39660000  0.25430000  1.0 0.2192632555
H  H28  1  0.07650000  0.15180000  0.47570000  1.0 0.1304653924
H  H29  1  0.09980000  0.40950000  0.48070000  1.0 0.1304653924
H  H30  1  0.96230000  0.31440000  0.22950000  1.0 0.2192632555
H  H31  1  0.97640000  0.23290000  0.12590000  1.0 0.1879814415
H  H32  1  0.17160000  0.00460000  0.24260000  1.0 0.1191341198
H  H33  1  0.14460000  0.07880000  0.35590000  1.0 0.1088413716
H  H34  1  0.00980000  0.13840000  0.64370000  1.0 0.1304653924
H  H35  1  0.05580000  0.04720000  0.78260000  1.0 0.1304653924
H  H36  1  0.27400000  0.19470000  0.69300000  1.0 0.1396916731
H  H37  1  0.22720000  0.28620000  0.55430000  1.0 0.1304653924
H  H38  1  0.53930000  0.49040000  0.14480000  1.0 0.1088413716
H  H39  1  0.51760000  0.39880000  0.28610000  1.0 0.2764294668
H  H40  1  0.43180000  0.33390000  0.95010000  1.0 -0.0197779565
H  H41  1  0.27280000  0.47190000  0.04180000  1.0 0.0188645374
H  H42  1  0.16540000  0.60940000  0.90450000  1.0 0.0089354056
H  H43  1  0.26180000  0.55850000  0.72480000  1.0 -0.0320802433
H  H44  1  0.42660000  0.38500000  0.75420000  1.0 -0.0320802433
H  H45  1  0.24740000  0.27110000  0.07750000  1.0 0.0017891347
H  H46  1  0.08100000  0.44350000  0.05040000  1.0 0.0989421418
H  H47  1  0.07560000  0.49840000  0.85250000  1.0 0.0188645374
H  H48  1  0.23620000  0.35940000  0.76000000  1.0 -0.0197779565
H  H49  1  0.12580000  0.28930000  0.96010000  1.0 0.0188645374
H  H50  1  0.30050000  0.15730000  0.94580000  1.0 0.0989421418
H  H51  1  0.34190000  0.14890000  0.81190000  1.0 0.3573867007
H  H52  1  0.38260000  0.11200000  0.07200000  1.0 0.1616783091
H  H53  1  0.53040000  0.06440000  0.11130000  1.0 0.1191341198
H  H54  1  0.68230000  0.13270000  0.84230000  1.0 0.1191341198
H  H55  1  0.53890000  0.18580000  0.79570000  1.0 0.1695613003
H  H56  1  0.41510000  0.57700000  0.76060000  1.0 0.0808647274
H  H57  1  0.53780000  0.52660000  0.81100000  1.0 0.2531188651
H  H58  1  0.42940000  0.58390000  0.97400000  1.0 0.1695613003
H  H59  1  0.37380000  0.72450000  0.02170000  1.0 0.1304653924
H  H60  1  0.23620000  0.86470000  0.82520000  1.0 0.1191341198
H  H61  1  0.28840000  0.72920000  0.77100000  1.0 0.1793654038
H  H62  1  0.78880000  0.31570000  0.75560000  1.0 0.1304653924
H  H63  1  0.80610000  0.47300000  0.65610000  1.0 0.1191341198
H  H64  1  0.04100000  0.44370000  0.74150000  1.0 0.1793654038
H  H65  1  0.02510000  0.28590000  0.83920000  1.0 0.1616783091
H  H66  1  0.95150000  0.60340000  0.74570000  1.0 0.2192632555
H  H67  1  0.92350000  0.84820000  0.52430000  1.0 0.1304653924
H  H68  1  0.90020000  0.59050000  0.51930000  1.0 0.1304653924
H  H69  1  0.03770000  0.68560000  0.77050000  1.0 0.2192632555
H  H70  1  0.02360000  0.76710000  0.87410000  1.0 0.1879814415
H  H71  1  0.82840000  0.99540000  0.75740000  1.0 0.1191341198
H  H72  1  0.85540000  0.92120000  0.64410000  1.0 0.1088413716
H  H73  1  0.99020000  0.86160000  0.35630000  1.0 0.1304653924
H  H74  1  0.94420000  0.95280000  0.21740000  1.0 0.1304653924
H  H75  1  0.72600000  0.80530000  0.30700000  1.0 0.1396916731
H  H76  1  0.77280000  0.71380000  0.44570000  1.0 0.1304653924
H  H77  1  0.46070000  0.50960000  0.85520000  1.0 0.1088413716
H  H78  1  0.48240000  0.60120000  0.71390000  1.0 0.2764294668
C  C1  1  0.67304000  0.51426000  0.13259000  1.0 -0.0424538428
C  C2  1  0.69591000  0.69317000  0.10019000  1.0 -0.0456767009
C  C3  1  0.65055000  0.80196000  0.09999000  1.0 0.1616783091
C  C4  1  0.55548000  0.84153000  0.07081000  1.0 0.1396916731
C  C5  1  0.55686000  0.88094000  0.97624000  1.0 -0.1224104664
C  C6  1  0.46822000  0.90979000  0.95350000  1.0 0.0894840532
C  C7  1  0.37963000  0.86938000  0.11057000  1.0 0.0894840532
C  C8  1  0.46474000  0.83793000  0.13898000  1.0 -0.1346856022
C  C9  1  0.59740000  0.44900000  0.16920000  1.0 0.1470479144
C  C10  1  0.63514000  0.35950000  0.13320000  1.0 0.0989421418
C  C11  1  0.61010000  0.35916000  0.05810000  1.0 -0.1346856022
C  C12  1  0.64340000  0.27437000  0.03030000  1.0 0.1088413716
C  C13  1  0.72320000  0.19279000  0.14464000  1.0 0.0989421418
C  C14  1  0.69290000  0.27385000  0.17710000  1.0 -0.1390939033
C  C15  1  0.11082000  0.81144000  0.12114000  1.0 0.5768205746
C  C16  1  0.09628000  0.71338000  0.19091000  1.0 0.0089354056
C  C17  1  0.16040000  0.65782000  0.24678000  1.0 -0.1009486095
C  C18  1  0.15031000  0.56422000  0.30568000  1.0 -0.1570423098
C  C19  1  0.07646000  0.52431000  0.30920000  1.0 0.0703284441
C  C20  1  0.01083000  0.58186000  0.25513000  1.0 -0.0792607368
C  C21  1  0.02030000  0.67566000  0.19678000  1.0 -0.0424538428
C  C22  1  0.07343000  0.41974000  0.36037000  1.0 0.0989421418
C  C23  1  0.05944000  0.36491000  0.31485000  1.0 -0.1224104664
C  C24  1  0.06111000  0.26472000  0.35609000  1.0 0.1088413716
C  C25  1  0.07649000  0.21960000  0.44593000  1.0 -0.1929252968
C  C26  1  0.09187000  0.27269000  0.49242000  1.0 0.0894840532
C  C27  1  0.08990000  0.37293000  0.44927000  1.0 -0.1999363106
C  C28  1  0.05783000  0.20826000  0.29945000  1.0 0.0591607353
C  C29  1  0.00535000  0.25158000  0.23220000  1.0 -0.0708802567
C  C30  1  0.01515000  0.20403000  0.16916000  1.0 -0.0320802433
C  C31  1  0.08144000  0.11432000  0.16920000  1.0 0.0089354056
C  C32  1  0.12911000  0.06777000  0.23970000  1.0 -0.1009486095
C  C33  1  0.11498000  0.11301000  0.30570000  1.0 -0.1224104664
C  C34  1  0.10160000  0.06804000  0.09387000  1.0 0.5908605977
C  C35  1  0.11472000  0.22065000  0.58466000  1.0 0.0703284441
C  C36  1  0.06361000  0.14969000  0.65347000  1.0 -0.1390939033
C  C37  1  0.09086000  0.09547000  0.73617000  1.0 -0.0708802567
C  C38  1  0.16955000  0.11189000  0.75103000  1.0 -0.0086507314
C  C39  1  0.22045000  0.18313000  0.68304000  1.0 -0.0424538428
C  C40  1  0.19267000  0.23734000  0.60038000  1.0 -0.1390939033
C  C41  1  0.20049000  0.04973000  0.83784000  1.0 0.5731031819
C  C42  1  0.32696000  0.48574000  0.86741000  1.0 -0.0320802433
C  C43  1  0.30409000  0.30683000  0.89981000  1.0 -0.0456767009
C  C44  1  0.34945000  0.19804000  0.90001000  1.0 0.1616783091
C  C45  1  0.44452000  0.15847000  0.92919000  1.0 0.1396916731
C  C46  1  0.44314000  0.11906000  0.02376000  1.0 -0.1224104664
C  C47  1  0.53178000  0.09021000  0.04650000  1.0 0.0894840532
C  C48  1  0.62037000  0.13062000  0.88943000  1.0 0.0894840532
C  C49  1  0.53526000  0.16207000  0.86102000  1.0 -0.1346856022
C  C50  1  0.40260000  0.55100000  0.83080000  1.0 0.1470479144
C  C51  1  0.36486000  0.64050000  0.86680000  1.0 0.0989421418
C  C52  1  0.38990000  0.64084000  0.94190000  1.0 -0.1346856022
C  C53  1  0.35660000  0.72563000  0.96970000  1.0 0.1088413716
C  C54  1  0.27680000  0.80721000  0.85536000  1.0 0.0989421418
C  C55  1  0.30710000  0.72615000  0.82290000  1.0 -0.1390939033
C  C56  1  0.88918000  0.18856000  0.87886000  1.0 0.5768205746
C  C57  1  0.90372000  0.28662000  0.80909000  1.0 0.0017891347
C  C58  1  0.83960000  0.34218000  0.75322000  1.0 -0.1009486095
C  C59  1  0.84969000  0.43578000  0.69432000  1.0 -0.1570423098
C  C60  1  0.92354000  0.47569000  0.69080000  1.0 0.0703284441
C  C61  1  0.98917000  0.41814000  0.74487000  1.0 -0.0792607368
C  C62  1  0.97970000  0.32434000  0.80322000  1.0 -0.0424538428
C  C63  1  0.92657000  0.58026000  0.63963000  1.0 0.0989421418
C  C64  1  0.94056000  0.63509000  0.68515000  1.0 -0.1224104664
C  C65  1  0.93889000  0.73528000  0.64391000  1.0 0.1088413716
C  C66  1  0.92351000  0.78040000  0.55407000  1.0 -0.1929252968
C  C67  1  0.90813000  0.72731000  0.50758000  1.0 0.0894840532
C  C68  1  0.91010000  0.62707000  0.55073000  1.0 -0.1999363106
C  C69  1  0.94217000  0.79174000  0.70055000  1.0 0.0591607353
C  C70  1  0.99465000  0.74842000  0.76780000  1.0 -0.0708802567
C  C71  1  0.98485000  0.79597000  0.83084000  1.0 -0.0320802433
C  C72  1  0.91856000  0.88568000  0.83080000  1.0 0.0089354056
C  C73  1  0.87089000  0.93223000  0.76030000  1.0 -0.1009486095
C  C74  1  0.88502000  0.88699000  0.69430000  1.0 -0.1224104664
C  C75  1  0.89840000  0.93196000  0.90613000  1.0 0.5908605977
C  C76  1  0.88528000  0.77935000  0.41534000  1.0 0.0703284441
C  C77  1  0.93639000  0.85031000  0.34653000  1.0 -0.1390939033
C  C78  1  0.90914000  0.90453000  0.26383000  1.0 -0.0708802567
C  C79  1  0.83045000  0.88811000  0.24897000  1.0 -0.0086507314
C  C80  1  0.77955000  0.81687000  0.31696000  1.0 -0.0424538428
C  C81  1  0.80733000  0.76266000  0.39962000  1.0 -0.1390939033
C  C82  1  0.79951000  0.95027000  0.16216000  1.0 0.5731031819
N  N1  1  0.38052000  0.90273000  0.01925000  1.0 -0.2494784073
N  N2  1  0.69836000  0.19126000  0.07292000  1.0 -0.2765225397
N  N3  1  0.61948000  0.09727000  0.98075000  1.0 -0.2494784073
N  N4  1  0.30164000  0.80874000  0.92708000  1.0 -0.2765225397
O  O1  1  0.63147000  0.80816000  0.19191000  1.0 -0.5034805612
O  O2  1  0.50680000  0.50440000  0.15320000  1.0 -0.3412735538
O  O3  1  0.18830000  0.83769000  0.10999000  1.0 -0.5482221917
O  O4  1  0.04751000  0.85879000  0.07727000  1.0 -0.5417537169
O  O5  1  0.02751000  0.06158000  0.07916000  1.0 -0.5588597731
O  O6  1  0.19187000  0.03990000  0.05245000  1.0 -0.5482221917
O  O7  1  0.28370000  0.04445000  0.84524000  1.0 -0.521122642
O  O8  1  0.14508000  0.99490000  0.90486000  1.0 -0.5588597731
O  O9  1  0.56440000  0.42760000  0.26520000  1.0 -0.2910174654
O  O10  1  0.36853000  0.19184000  0.80809000  1.0 -0.5034805612
O  O11  1  0.49320000  0.49560000  0.84680000  1.0 -0.3412735538
O  O12  1  0.81170000  0.16231000  0.89001000  1.0 -0.5482221917
O  O13  1  0.95249000  0.14121000  0.92273000  1.0 -0.5417537169
O  O14  1  0.97249000  0.93842000  0.92084000  1.0 -0.5652156548
O  O15  1  0.80813000  0.96010000  0.94755000  1.0 -0.5482221917
O  O16  1  0.71630000  0.95555000  0.15476000  1.0 -0.521122642
O  O17  1  0.85492000  0.00510000  0.09514000  1.0 -0.5588597731
O  O18  1  0.43560000  0.57240000  0.73480000  1.0 -0.2910174654
