# DDEC6 charges by PACMAN v1.1 (https://github.com/mtap-research/PACMAN-charge/)
data_OCIMAR_ASR_pacman
_symmetry_space_group_name_H-M   'P 1'
_cell_length_a   14.70300000
_cell_length_b   15.28760000
_cell_length_c   15.70140000
_cell_angle_alpha   67.49900000
_cell_angle_beta   64.54700000
_cell_angle_gamma   69.96900000
_symmetry_Int_Tables_number   1
_chemical_formula_structural   Co3B20H78C82(N2O9)2
_chemical_formula_sum   'Co3 B20 H78 C82 N4 O18'
_cell_volume   2876.26222756
_cell_formula_units_Z   1
loop_
 _symmetry_equiv_pos_site_id
 _symmetry_equiv_pos_as_xyz
  1  'x, y, z'
loop_
 _atom_site_type_symbol
 _atom_site_label
 _atom_site_symmetry_multiplicity
 _atom_site_fract_x
 _atom_site_fract_y
 _atom_site_fract_z
 _atom_site_occupancy
 _atom_site_charge
Co  Co1  1  0.00000000  0.00000000  0.00000000  1.0 1.1011411126
Co  Co2  1  0.74141000  0.07227000  0.02417000  1.0 0.8639682407
Co  Co3  1  0.25859000  0.92773000  0.97583000  1.0 0.8639682407
B  B1  1  0.37160000  0.39640000  0.80550000  1.0 -0.1514061664
B  B2  1  0.62840000  0.60360000  0.19450000  1.0 -0.1514061664
B  B3  1  0.36180000  0.37010000  0.92890000  1.0 -0.1873092477
B  B4  1  0.63820000  0.62990000  0.07110000  1.0 -0.1873092477
B  B5  1  0.25400000  0.39000000  0.80520000  1.0 -0.1972641448
B  B6  1  0.74600000  0.61000000  0.19480000  1.0 -0.1972641448
B  B7  1  0.23930000  0.34300000  0.00560000  1.0 -0.2319133729
B  B8  1  0.76070000  0.65700000  0.99440000  1.0 -0.2220064377
B  B9  1  0.26350000  0.45850000  0.98130000  1.0 -0.2319133729
B  B10  1  0.73650000  0.54150000  0.01870000  1.0 -0.2354076033
B  B11  1  0.21210000  0.54230000  0.88960000  1.0 -0.1839505111
B  B12  1  0.78790000  0.45770000  0.11040000  1.0 -0.1839505111
B  B13  1  0.27940000  0.50350000  0.78130000  1.0 -0.1873092477
B  B14  1  0.72060000  0.49650000  0.21870000  1.0 -0.1873092477
B  B15  1  0.17130000  0.35690000  0.92940000  1.0 -0.1972641448
B  B16  1  0.82870000  0.64310000  0.07060000  1.0 -0.1972641448
B  B17  1  0.15590000  0.48010000  0.85660000  1.0 -0.2319133729
B  B18  1  0.84410000  0.51990000  0.14340000  1.0 -0.2319133729
B  B19  1  0.14440000  0.44990000  0.98300000  1.0 -0.2319133729
B  B20  1  0.85560000  0.55010000  0.01700000  1.0 -0.2319133729
H  H1  1  0.34540000  0.14690000  0.81310000  1.0 0.3576376314
H  H2  1  0.65460000  0.85310000  0.18690000  1.0 0.3576376314
H  H3  1  0.97210000  0.87630000  0.36710000  1.0 0.138363806
H  H4  1  0.02790000  0.12370000  0.63290000  1.0 0.138363806
H  H5  1  0.92290000  0.97020000  0.23130000  1.0 0.138363806
H  H6  1  0.07710000  0.02980000  0.76870000  1.0 0.138363806
H  H7  1  0.91090000  0.58710000  0.51430000  1.0 0.1315654181
H  H8  1  0.08910000  0.41290000  0.48570000  1.0 0.1315654181
H  H9  1  0.02980000  0.28680000  0.84090000  1.0 0.1590894138
H  H10  1  0.97020000  0.71320000  0.15910000  1.0 0.1590894138
H  H11  1  0.90770000  0.84410000  0.53630000  1.0 0.1315654181
H  H12  1  0.09230000  0.15590000  0.46370000  1.0 0.1315654181
H  H13  1  0.78520000  0.97090000  0.79850000  1.0 0.1210855156
H  H14  1  0.21480000  0.02910000  0.20150000  1.0 0.1210855156
H  H15  1  0.80570000  0.89220000  0.68760000  1.0 0.1210855156
H  H16  1  0.19430000  0.10780000  0.31240000  1.0 0.1210855156
H  H17  1  0.95280000  0.59760000  0.74870000  1.0 0.22246855
H  H18  1  0.04720000  0.40240000  0.25130000  1.0 0.22246855
H  H19  1  0.36010000  0.71650000  0.03020000  1.0 0.1315654181
H  H20  1  0.63990000  0.28350000  0.96980000  1.0 0.1315654181
H  H21  1  0.68550000  0.13820000  0.84320000  1.0 0.1210855156
H  H22  1  0.31450000  0.86180000  0.15680000  1.0 0.1210855156
H  H23  1  0.78500000  0.69720000  0.43990000  1.0 0.1315654181
H  H24  1  0.21500000  0.30280000  0.56010000  1.0 0.1315654181
H  H25  1  0.05170000  0.69870000  0.75230000  1.0 0.22246855
H  H26  1  0.94830000  0.30130000  0.24770000  1.0 0.22246855
H  H27  1  0.73180000  0.79420000  0.30600000  1.0 0.150564688
H  H28  1  0.26820000  0.20580000  0.69400000  1.0 0.150564688
H  H29  1  0.03830000  0.78380000  0.85440000  1.0 0.1715292062
H  H30  1  0.96170000  0.21620000  0.14560000  1.0 0.1798834528
H  H31  1  0.04660000  0.44350000  0.74280000  1.0 0.1798834528
H  H32  1  0.95340000  0.55650000  0.25720000  1.0 0.1798834528
H  H33  1  0.80250000  0.30720000  0.74960000  1.0 0.1315654181
H  H34  1  0.19750000  0.69280000  0.25040000  1.0 0.1315654181
H  H35  1  0.41350000  0.57460000  0.98600000  1.0 0.150564688
H  H36  1  0.58650000  0.42540000  0.01400000  1.0 0.150564688
H  H37  1  0.36400000  0.11810000  0.07760000  1.0 0.1590894138
H  H38  1  0.63600000  0.88190000  0.92240000  1.0 0.1590894138
H  H39  1  0.54510000  0.18840000  0.79330000  1.0 0.1715292062
H  H40  1  0.45490000  0.81160000  0.20670000  1.0 0.1715292062
H  H41  1  0.82290000  0.46170000  0.64760000  1.0 0.1210855156
H  H42  1  0.17710000  0.53830000  0.35240000  1.0 0.1210855156
H  H43  1  0.29720000  0.86680000  0.78880000  1.0 0.1210855156
H  H44  1  0.70280000  0.13320000  0.21120000  1.0 0.1210855156
H  H45  1  0.28880000  0.16890000  0.94840000  1.0 0.0957941233
H  H46  1  0.71120000  0.83110000  0.05160000  1.0 0.0957941233
H  H47  1  0.50990000  0.07080000  0.12110000  1.0 0.1210855156
H  H48  1  0.49010000  0.92920000  0.87890000  1.0 0.1210855156
H  H49  1  0.51660000  0.49940000  0.89260000  1.0 0.2924212391
H  H50  1  0.48340000  0.50060000  0.10740000  1.0 0.2924212391
H  H51  1  0.44830000  0.56500000  0.74860000  1.0 0.0219684389
H  H52  1  0.55170000  0.43500000  0.25140000  1.0 0.0219684389
H  H53  1  0.34860000  0.72890000  0.73740000  1.0 0.1715292062
H  H54  1  0.65140000  0.27110000  0.26260000  1.0 0.1715292062
H  H55  1  0.44690000  0.37730000  0.74760000  1.0 -0.0317430107
H  H56  1  0.55310000  0.62270000  0.25240000  1.0 -0.0317430107
H  H57  1  0.43080000  0.33420000  0.95240000  1.0 -0.0082808196
H  H58  1  0.56920000  0.66580000  0.04760000  1.0 -0.0082808196
H  H59  1  0.25070000  0.36660000  0.74730000  1.0 -0.0241003309
H  H60  1  0.74930000  0.63340000  0.25270000  1.0 -0.0241003309
H  H61  1  0.22750000  0.28820000  0.07920000  1.0 0.0219684389
H  H62  1  0.77250000  0.71180000  0.92080000  1.0 0.0219684389
H  H63  1  0.26700000  0.48200000  0.03900000  1.0 0.0298315619
H  H64  1  0.73300000  0.51800000  0.96100000  1.0 0.0298315619
H  H65  1  0.18170000  0.62090000  0.88700000  1.0 0.0059701216
H  H66  1  0.81830000  0.37910000  0.11300000  1.0 0.0059701216
H  H67  1  0.29410000  0.55670000  0.70670000  1.0 -0.0317430107
H  H68  1  0.70590000  0.44330000  0.29330000  1.0 -0.0317430107
H  H69  1  0.11400000  0.31180000  0.95330000  1.0 0.0298315619
H  H70  1  0.88600000  0.68820000  0.04670000  1.0 0.0298315619
H  H71  1  0.08780000  0.51790000  0.83190000  1.0 0.002440697
H  H72  1  0.91220000  0.48210000  0.16810000  1.0 0.002440697
H  H73  1  0.06910000  0.46670000  0.04200000  1.0 0.1210855156
H  H74  1  0.93090000  0.53330000  0.95800000  1.0 0.111481849
H  H75  1  0.48390000  0.50200000  0.84340000  1.0 0.111481849
H  H76  1  0.51610000  0.49800000  0.15660000  1.0 0.111481849
H  H77  1  0.51750000  0.54140000  0.69800000  1.0 0.2978708322
H  H78  1  0.48250000  0.45860000  0.30200000  1.0 0.2978708322
C  C1  1  0.78760000  0.95710000  0.17176000  1.0 0.576403516
C  C2  1  0.21240000  0.04290000  0.82824000  1.0 0.576403516
C  C3  1  0.88150000  0.77798000  0.41917000  1.0 0.0699935903
C  C4  1  0.11850000  0.22202000  0.58083000  1.0 0.0699935903
C  C5  1  0.92310000  0.85960000  0.35493000  1.0 -0.1356015359
C  C6  1  0.07690000  0.14040000  0.64507000  1.0 -0.1356015359
C  C7  1  0.89510000  0.18646000  0.87915000  1.0 0.5884065504
C  C8  1  0.10490000  0.81354000  0.12085000  1.0 0.5884065504
C  C9  1  0.89190000  0.93243000  0.91243000  1.0 0.5884065504
C  C10  1  0.10810000  0.06757000  0.08757000  1.0 0.5884065504
C  C11  1  0.90880000  0.88374000  0.83856000  1.0 0.0059701216
C  C12  1  0.09120000  0.11626000  0.16144000  1.0 0.0059701216
C  C13  1  0.89370000  0.91569000  0.27454000  1.0 -0.0801369095
C  C14  1  0.10630000  0.08431000  0.72546000  1.0 -0.0801369095
C  C15  1  0.91170000  0.28318000  0.80763000  1.0 -0.0032475007
C  C16  1  0.08830000  0.71682000  0.19237000  1.0 -0.0032475007
C  C17  1  0.90710000  0.72331000  0.51005000  1.0 0.0905007931
C  C18  1  0.09290000  0.27669000  0.48995000  1.0 0.0905007931
C  C19  1  0.91620000  0.62318000  0.54898000  1.0 -0.1972641448
C  C20  1  0.08380000  0.37682000  0.45102000  1.0 -0.1972641448
C  C21  1  0.98600000  0.32339000  0.80340000  1.0 -0.0403285225
C  C22  1  0.01400000  0.67661000  0.19660000  1.0 -0.0403285225
C  C23  1  0.91450000  0.77584000  0.56203000  1.0 -0.1839505111
C  C24  1  0.08550000  0.22416000  0.43797000  1.0 -0.1839505111
C  C25  1  0.83990000  0.91614000  0.78849000  1.0 -0.0801369095
C  C26  1  0.16010000  0.08386000  0.21151000  1.0 -0.0801369095
C  C27  1  0.85120000  0.86831000  0.72374000  1.0 -0.1305350875
C  C28  1  0.14880000  0.13169000  0.27626000  1.0 -0.1305350875
C  C29  1  0.94090000  0.62957000  0.68820000  1.0 -0.0999037822
C  C30  1  0.05910000  0.37043000  0.31180000  1.0 -0.0999037822
C  C31  1  0.35680000  0.71900000  0.97020000  1.0 0.111481849
C  C32  1  0.64320000  0.28100000  0.02980000  1.0 0.111481849
C  C33  1  0.93170000  0.72940000  0.65086000  1.0 0.0957941233
C  C34  1  0.06830000  0.27060000  0.34914000  1.0 0.0957941233
C  C35  1  0.82100000  0.89219000  0.25685000  1.0 0.002440697
C  C36  1  0.17900000  0.10781000  0.74315000  1.0 0.002440697
C  C37  1  0.61890000  0.13590000  0.89160000  1.0 0.0806816655
C  C38  1  0.38110000  0.86410000  0.10840000  1.0 0.0806816655
C  C39  1  0.81170000  0.75350000  0.39873000  1.0 -0.1356015359
C  C40  1  0.18830000  0.24650000  0.60127000  1.0 -0.1356015359
C  C41  1  0.93290000  0.47069000  0.68873000  1.0 0.0699935903
C  C42  1  0.06710000  0.52931000  0.31127000  1.0 0.0699935903
C  C43  1  0.99800000  0.75440000  0.76080000  1.0 -0.0801369095
C  C44  1  0.00200000  0.24560000  0.23920000  1.0 -0.0801369095
C  C45  1  0.78060000  0.81080000  0.31850000  1.0 -0.0640374322
C  C46  1  0.21940000  0.18920000  0.68150000  1.0 -0.0640374322
C  C47  1  0.98920000  0.80420000  0.82280000  1.0 -0.0317430107
C  C48  1  0.01080000  0.19580000  0.17720000  1.0 -0.0317430107
C  C49  1  0.99620000  0.41640000  0.74480000  1.0 -0.0801369095
C  C50  1  0.00380000  0.58360000  0.25520000  1.0 -0.0801369095
C  C51  1  0.92870000  0.78563000  0.71139000  1.0 0.0699935903
C  C52  1  0.07130000  0.21437000  0.28861000  1.0 0.0699935903
C  C53  1  0.85160000  0.33510000  0.74880000  1.0 -0.0999037822
C  C54  1  0.14840000  0.66490000  0.25120000  1.0 -0.0999037822
C  C55  1  0.38950000  0.63380000  0.94400000  1.0 -0.1514061664
C  C56  1  0.61050000  0.36620000  0.05600000  1.0 -0.1514061664
C  C57  1  0.93300000  0.57524000  0.63856000  1.0 0.0905007931
C  C58  1  0.06700000  0.42476000  0.36144000  1.0 0.0905007931
C  C59  1  0.43870000  0.16380000  0.93010000  1.0 0.1315654181
C  C60  1  0.56130000  0.83620000  0.06990000  1.0 0.1315654181
C  C61  1  0.42940000  0.12500000  0.02830000  1.0 -0.1356015359
C  C62  1  0.57060000  0.87500000  0.97170000  1.0 -0.1305350875
C  C63  1  0.53570000  0.16610000  0.86130000  1.0 -0.1244065587
C  C64  1  0.46430000  0.83390000  0.13870000  1.0 -0.1244065587
C  C65  1  0.86310000  0.42730000  0.68900000  1.0 -0.1514061664
C  C66  1  0.13690000  0.57270000  0.31100000  1.0 -0.1514061664
C  C67  1  0.30330000  0.31430000  0.89560000  1.0 -0.0403285225
C  C68  1  0.69670000  0.68570000  0.10440000  1.0 -0.0317430107
C  C69  1  0.32020000  0.80640000  0.83000000  1.0 0.0806816655
C  C70  1  0.67980000  0.19360000  0.17000000  1.0 0.0806816655
C  C71  1  0.34050000  0.48680000  0.85960000  1.0 -0.0317430107
C  C72  1  0.65950000  0.51320000  0.14040000  1.0 -0.0317430107
C  C73  1  0.38720000  0.63520000  0.85560000  1.0 0.111481849
C  C74  1  0.61280000  0.36480000  0.14440000  1.0 0.111481849
C  C75  1  0.34400000  0.20490000  0.89920000  1.0 0.1590894138
C  C76  1  0.65600000  0.79510000  0.10080000  1.0 0.1590894138
C  C77  1  0.51690000  0.09630000  0.05360000  1.0 0.0905007931
C  C78  1  0.48310000  0.90370000  0.94640000  1.0 0.0905007931
C  C79  1  0.42440000  0.54470000  0.82190000  1.0 0.138363806
C  C80  1  0.57560000  0.45530000  0.17810000  1.0 0.138363806
C  C81  1  0.35160000  0.72420000  0.79830000  1.0 -0.1305350875
C  C82  1  0.64840000  0.27580000  0.20170000  1.0 -0.1305350875
N  N1  1  0.32060000  0.80507000  0.91538000  1.0 -0.2693946187
N  N2  1  0.67940000  0.19493000  0.08462000  1.0 -0.2693946187
N  N3  1  0.61041000  0.10311000  0.98695000  1.0 -0.2467959945
N  N4  1  0.38959000  0.89689000  0.01305000  1.0 -0.2467959945
O  O1  1  0.84474000  0.01259000  0.10238000  1.0 -0.5441387718
O  O2  1  0.15526000  0.98741000  0.89762000  1.0 -0.5441387718
O  O3  1  0.96004000  0.13849000  0.92080000  1.0 -0.5293760126
O  O4  1  0.03996000  0.86151000  0.07920000  1.0 -0.5293760126
O  O5  1  0.70091000  0.96153000  0.17003000  1.0 -0.5293760126
O  O6  1  0.29909000  0.03847000  0.82997000  1.0 -0.5293760126
O  O7  1  0.79898000  0.96172000  0.96066000  1.0 -0.5488925104
O  O8  1  0.20102000  0.03828000  0.03934000  1.0 -0.5488925104
O  O9  1  0.97053000  0.93991000  0.91932000  1.0 -0.5606988196
O  O10  1  0.02947000  0.06009000  0.08068000  1.0 -0.5606988196
O  O11  1  0.81451000  0.16121000  0.89436000  1.0 -0.5488925104
O  O12  1  0.18549000  0.83879000  0.10564000  1.0 -0.5488925104
O  O13  1  0.36770000  0.19393000  0.80610000  1.0 -0.4959363167
O  O14  1  0.63230000  0.80607000  0.19390000  1.0 -0.4945028846
O  O15  1  0.51140000  0.48140000  0.85090000  1.0 -0.4231847052
O  O16  1  0.48860000  0.51860000  0.14910000  1.0 -0.4231847052
O  O17  1  0.45560000  0.56930000  0.71990000  1.0 -0.3521977638
O  O18  1  0.54440000  0.43070000  0.28010000  1.0 -0.3521977638
