# DDEC6 charges by PACMAN v1.1 (https://github.com/mtap-research/PACMAN-charge/)
data_OCIMEV_FSR_pacman
_symmetry_space_group_name_H-M   'P 1'
_cell_length_a   15.00890000
_cell_length_b   15.39870000
_cell_length_c   15.56910000
_cell_angle_alpha   67.87300000
_cell_angle_beta   64.60900000
_cell_angle_gamma   68.95900000
_symmetry_Int_Tables_number   1
_chemical_formula_structural   Co3B20H78C82(N2O9)2
_chemical_formula_sum   'Co3 B20 H78 C82 N4 O18'
_cell_volume   2926.21410424
_cell_formula_units_Z   1
loop_
 _symmetry_equiv_pos_site_id
 _symmetry_equiv_pos_as_xyz
  1  'x, y, z'
loop_
 _atom_site_type_symbol
 _atom_site_label
 _atom_site_symmetry_multiplicity
 _atom_site_fract_x
 _atom_site_fract_y
 _atom_site_fract_z
 _atom_site_occupancy
 _atom_site_charge
Co  Co1  1  0.25468000  0.92503000  0.97640000  1.0 0.8631847086
Co  Co2  1  0.74532000  0.07497000  0.02360000  1.0 0.8631847086
Co  Co3  1  0.00000000  0.00000000  0.00000000  1.0 1.1068114224
B  B1  1  0.64147000  0.63903000  0.06644000  1.0 -0.1905308085
B  B2  1  0.35853000  0.36097000  0.93356000  1.0 -0.1905308085
B  B3  1  0.74264000  0.55095000  0.01404000  1.0 -0.2396072639
B  B4  1  0.25736000  0.44905000  0.98596000  1.0 -0.2396072639
B  B5  1  0.79465000  0.47008000  0.10639000  1.0 -0.1905308085
B  B6  1  0.20535000  0.52992000  0.89361000  1.0 -0.1905308085
B  B7  1  0.72377000  0.50856000  0.21660000  1.0 -0.1905308085
B  B8  1  0.27623000  0.49144000  0.78340000  1.0 -0.1905308085
B  B9  1  0.62932000  0.61420000  0.19168000  1.0 -0.1602980276
B  B10  1  0.37068000  0.38580000  0.80832000  1.0 -0.1602980276
B  B11  1  0.76046000  0.66685000  0.99092000  1.0 -0.2215200705
B  B12  1  0.23954000  0.33315000  0.00908000  1.0 -0.2215200705
B  B13  1  0.85634000  0.56207000  0.01488000  1.0 -0.2396072639
B  B14  1  0.14366000  0.43793000  0.98512000  1.0 -0.2396072639
B  B15  1  0.84424000  0.53485000  0.14120000  1.0 -0.2396072639
B  B16  1  0.15576000  0.46515000  0.85880000  1.0 -0.2396072639
B  B17  1  0.74218000  0.62382000  0.19401000  1.0 -0.1963854549
B  B18  1  0.25782000  0.37618000  0.80599000  1.0 -0.1963854549
B  B19  1  0.82362000  0.65696000  0.06992000  1.0 -0.1905308085
B  B20  1  0.17638000  0.34304000  0.93008000  1.0 -0.1905308085
H  H1  1  0.57380000  0.67320000  0.04180000  1.0 -0.0080534939
H  H2  1  0.42620000  0.32680000  0.95820000  1.0 -0.0080534939
H  H3  1  0.74200000  0.52590000  0.95550000  1.0 0.0295569854
H  H4  1  0.25800000  0.47410000  0.04450000  1.0 0.0295569854
H  H5  1  0.82860000  0.39190000  0.10830000  1.0 0.0109284941
H  H6  1  0.17140000  0.60810000  0.89170000  1.0 0.0109284941
H  H7  1  0.71070000  0.45570000  0.29110000  1.0 -0.0296609463
H  H8  1  0.28930000  0.54430000  0.70890000  1.0 -0.0296609463
H  H9  1  0.55400000  0.63240000  0.24930000  1.0 -0.0296609463
H  H10  1  0.44600000  0.36760000  0.75070000  1.0 -0.0296609463
H  H11  1  0.77160000  0.72020000  0.91680000  1.0 0.0109284941
H  H12  1  0.22840000  0.27980000  0.08320000  1.0 0.0109284941
H  H13  1  0.93140000  0.54550000  0.95620000  1.0 0.1203827076
H  H14  1  0.06860000  0.45450000  0.04380000  1.0 0.1203827076
H  H15  1  0.91180000  0.49960000  0.16610000  1.0 -0.0028291648
H  H16  1  0.08820000  0.50040000  0.83390000  1.0 -0.0028291648
H  H17  1  0.74190000  0.64850000  0.25320000  1.0 -0.0296609463
H  H18  1  0.25810000  0.35150000  0.74680000  1.0 -0.0296609463
H  H19  1  0.87660000  0.70360000  0.04770000  1.0 0.0109284941
H  H20  1  0.12340000  0.29640000  0.95230000  1.0 0.0163517096
H  H21  1  0.70100000  0.84310000  0.04640000  1.0 0.0915062199
H  H22  1  0.29900000  0.15690000  0.95360000  1.0 0.0915062199
H  H23  1  0.64500000  0.86920000  0.18110000  1.0 0.3573791864
H  H24  1  0.35500000  0.13080000  0.81890000  1.0 0.3573791864
H  H25  1  0.45250000  0.81440000  0.20640000  1.0 0.1610796521
H  H26  1  0.54750000  0.18560000  0.79360000  1.0 0.1610796521
H  H27  1  0.31290000  0.85600000  0.15840000  1.0 0.1203827076
H  H28  1  0.68710000  0.14400000  0.84160000  1.0 0.1203827076
H  H29  1  0.47920000  0.93440000  0.87840000  1.0 0.1203827076
H  H30  1  0.52080000  0.06560000  0.12160000  1.0 0.1203827076
H  H31  1  0.62420000  0.89340000  0.91860000  1.0 0.1610796521
H  H32  1  0.37580000  0.10660000  0.08140000  1.0 0.1610796521
H  H33  1  0.56360000  0.44420000  0.24460000  1.0 0.0533892507
H  H34  1  0.43640000  0.55580000  0.75540000  1.0 0.0533892507
H  H35  1  0.44900000  0.49960000  0.18840000  1.0 0.2487088213
H  H36  1  0.55100000  0.50040000  0.81160000  1.0 0.2487088213
H  H37  1  0.58920000  0.43060000  0.01150000  1.0 0.1734849545
H  H38  1  0.41080000  0.56940000  0.98850000  1.0 0.1734849545
H  H39  1  0.64230000  0.28730000  0.96810000  1.0 0.1302267941
H  H40  1  0.35770000  0.71270000  0.03190000  1.0 0.1302267941
H  H41  1  0.73000000  0.14470000  0.19830000  1.0 0.1203827076
H  H42  1  0.27000000  0.85530000  0.80170000  1.0 0.1203827076
H  H43  1  0.67570000  0.28380000  0.25010000  1.0 0.1734849545
H  H44  1  0.32430000  0.71620000  0.74990000  1.0 0.1734849545
H  H45  1  0.96930000  0.72070000  0.16150000  1.0 0.1610796521
H  H46  1  0.03070000  0.27930000  0.83850000  1.0 0.1610796521
H  H47  1  0.95120000  0.56660000  0.26040000  1.0 0.1734849545
H  H48  1  0.04880000  0.43340000  0.73960000  1.0 0.1734849545
H  H49  1  0.18290000  0.53630000  0.34650000  1.0 0.1203827076
H  H50  1  0.81710000  0.46370000  0.65350000  1.0 0.1203827076
H  H51  1  0.20310000  0.68910000  0.24430000  1.0 0.1302267941
H  H52  1  0.79690000  0.31090000  0.75570000  1.0 0.1302267941
H  H53  1  0.04130000  0.41080000  0.25050000  1.0 0.2237676265
H  H54  1  0.95870000  0.58920000  0.74950000  1.0 0.2237676265
H  H55  1  0.09380000  0.16370000  0.45900000  1.0 0.1203827076
H  H56  1  0.90620000  0.83630000  0.54100000  1.0 0.1203827076
H  H57  1  0.09480000  0.41680000  0.48280000  1.0 0.1302267941
H  H58  1  0.90520000  0.58320000  0.51720000  1.0 0.1302267941
H  H59  1  0.94900000  0.31040000  0.24160000  1.0 0.2275170716
H  H60  1  0.05100000  0.68960000  0.75840000  1.0 0.2275170716
H  H61  1  0.96060000  0.22220000  0.14200000  1.0 0.1610796521
H  H62  1  0.03940000  0.77780000  0.85800000  1.0 0.1610796521
H  H63  1  0.21160000  0.03350000  0.19930000  1.0 0.1203827076
H  H64  1  0.78840000  0.96650000  0.80070000  1.0 0.1203827076
H  H65  1  0.19150000  0.11440000  0.30920000  1.0 0.1203827076
H  H66  1  0.80850000  0.88560000  0.69080000  1.0 0.1203827076
H  H67  1  0.02450000  0.13860000  0.63020000  1.0 0.138220981
H  H68  1  0.97550000  0.86140000  0.36980000  1.0 0.1302267941
H  H69  1  0.07220000  0.03960000  0.76720000  1.0 0.138220981
H  H70  1  0.92780000  0.96040000  0.23280000  1.0 0.138220981
H  H71  1  0.27780000  0.19440000  0.68850000  1.0 0.138220981
H  H72  1  0.72220000  0.80560000  0.31150000  1.0 0.138220981
H  H73  1  0.22670000  0.29520000  0.55440000  1.0 0.1302267941
H  H74  1  0.77330000  0.70480000  0.44560000  1.0 0.1302267941
H  H75  1  0.53270000  0.50790000  0.14080000  1.0 0.1072203686
H  H76  1  0.46730000  0.49210000  0.85920000  1.0 0.1072203686
H  H77  1  0.47720000  0.45310000  0.28420000  1.0 0.2487088213
H  H78  1  0.52280000  0.54690000  0.71580000  1.0 0.2487088213
C  C1  1  0.66637000  0.52342000  0.13609000  1.0 -0.0406059591
C  C2  1  0.33363000  0.47658000  0.86391000  1.0 -0.0406059591
C  C3  1  0.69349000  0.69726000  0.10177000  1.0 -0.050883809
C  C4  1  0.30651000  0.30274000  0.89823000  1.0 -0.0406059591
C  C5  1  0.64877000  0.80677000  0.09694000  1.0 0.150322258
C  C6  1  0.35123000  0.19323000  0.90306000  1.0 0.150322258
C  C7  1  0.55466000  0.84416000  0.06724000  1.0 0.1302267941
C  C8  1  0.44534000  0.15584000  0.93276000  1.0 0.1302267941
C  C9  1  0.46012000  0.83674000  0.13842000  1.0 -0.1215150697
C  C10  1  0.53988000  0.16326000  0.86158000  1.0 -0.1215150697
C  C11  1  0.37711000  0.86226000  0.10922000  1.0 0.0826875165
C  C12  1  0.62289000  0.13774000  0.89078000  1.0 0.0826875165
C  C13  1  0.47440000  0.90787000  0.94562000  1.0 0.0915062199
C  C14  1  0.52560000  0.09213000  0.05438000  1.0 0.0915062199
C  C15  1  0.56148000  0.88347000  0.96880000  1.0 -0.1412466974
C  C16  1  0.43852000  0.11653000  0.03120000  1.0 -0.1412466974
C  C17  1  0.58585000  0.46523000  0.17095000  1.0 0.150322258
C  C18  1  0.41415000  0.53477000  0.82905000  1.0 0.150322258
C  C19  1  0.62638000  0.37360000  0.13629000  1.0 0.1072203686
C  C20  1  0.37362000  0.62640000  0.86371000  1.0 0.1072203686
C  C21  1  0.61731000  0.37261000  0.05171000  1.0 -0.1412466974
C  C22  1  0.38269000  0.62739000  0.94829000  1.0 -0.1412466974
C  C23  1  0.64946000  0.28638000  0.02618000  1.0 0.0963190305
C  C24  1  0.35054000  0.71362000  0.97382000  1.0 0.0963190305
C  C25  1  0.69995000  0.20338000  0.16029000  1.0 0.0826875165
C  C26  1  0.30005000  0.79662000  0.83971000  1.0 0.0826875165
C  C27  1  0.66840000  0.28663000  0.19132000  1.0 -0.1412466974
C  C28  1  0.33160000  0.71337000  0.80868000  1.0 -0.1412466974
C  C29  1  0.10582000  0.81473000  0.12029000  1.0 0.572266716
C  C30  1  0.89418000  0.18527000  0.87971000  1.0 0.572266716
C  C31  1  0.08975000  0.71873000  0.19084000  1.0 0.001537943
C  C32  1  0.91025000  0.28127000  0.80916000  1.0 0.001537943
C  C33  1  0.01405000  0.68250000  0.19749000  1.0 -0.0406059591
C  C34  1  0.98595000  0.31750000  0.80251000  1.0 -0.0406059591
C  C35  1  0.00328000  0.59073000  0.25645000  1.0 -0.0784756658
C  C36  1  0.99672000  0.40927000  0.74355000  1.0 -0.0784756658
C  C37  1  0.06856000  0.53324000  0.31020000  1.0 0.068580558
C  C38  1  0.93144000  0.46676000  0.68980000  1.0 0.068580558
C  C39  1  0.14107000  0.57252000  0.30715000  1.0 -0.1602980276
C  C40  1  0.85893000  0.42748000  0.69285000  1.0 -0.1602980276
C  C41  1  0.15243000  0.66388000  0.24710000  1.0 -0.0970365522
C  C42  1  0.84757000  0.33612000  0.75290000  1.0 -0.0970365522
C  C43  1  0.06799000  0.43000000  0.35961000  1.0 0.0826875165
C  C44  1  0.93201000  0.57000000  0.64039000  1.0 0.0826875165
C  C45  1  0.05661000  0.37783000  0.30960000  1.0 -0.0970365522
C  C46  1  0.94339000  0.62217000  0.69040000  1.0 -0.0970365522
C  C47  1  0.06743000  0.27818000  0.34538000  1.0 0.1072203686
C  C48  1  0.93257000  0.72182000  0.65462000  1.0 0.1072203686
C  C49  1  0.08679000  0.23148000  0.43391000  1.0 -0.1905308085
C  C50  1  0.91321000  0.76852000  0.56609000  1.0 -0.1905308085
C  C51  1  0.09611000  0.28184000  0.48644000  1.0 0.0915062199
C  C52  1  0.90389000  0.71816000  0.51356000  1.0 0.0915062199
C  C53  1  0.08744000  0.38176000  0.44828000  1.0 -0.1905308085
C  C54  1  0.91256000  0.61824000  0.55172000  1.0 -0.1905308085
C  C55  1  0.07001000  0.22211000  0.28435000  1.0 0.0634718756
C  C56  1  0.92999000  0.77789000  0.71565000  1.0 0.0634718756
C  C57  1  0.00143000  0.25354000  0.23420000  1.0 -0.0720581864
C  C58  1  0.99857000  0.74646000  0.76580000  1.0 -0.0720581864
C  C59  1  0.00933000  0.20217000  0.17349000  1.0 -0.0240341802
C  C60  1  0.99067000  0.79783000  0.82651000  1.0 -0.0240341802
C  C61  1  0.08912000  0.12094000  0.15882000  1.0 0.0109284941
C  C62  1  0.91088000  0.87906000  0.84118000  1.0 0.0109284941
C  C63  1  0.15753000  0.08887000  0.20886000  1.0 -0.0720581864
C  C64  1  0.84247000  0.91113000  0.79114000  1.0 -0.0720581864
C  C65  1  0.14659000  0.13810000  0.27290000  1.0 -0.1215150697
C  C66  1  0.85341000  0.86190000  0.72710000  1.0 -0.1215150697
C  C67  1  0.10471000  0.06838000  0.08710000  1.0 0.5886797192
C  C68  1  0.89529000  0.93162000  0.91290000  1.0 0.5886797192
C  C69  1  0.12152000  0.22621000  0.57728000  1.0 0.068580558
C  C70  1  0.87848000  0.77379000  0.42272000  1.0 0.068580558
C  C71  1  0.07580000  0.15004000  0.64202000  1.0 -0.1412466974
C  C72  1  0.92420000  0.84996000  0.35798000  1.0 -0.1412466974
C  C73  1  0.10429000  0.09076000  0.72357000  1.0 -0.0784756658
C  C74  1  0.89571000  0.90924000  0.27643000  1.0 -0.0784756658
C  C75  1  0.18028000  0.10686000  0.74082000  1.0 -0.0080534939
C  C76  1  0.81972000  0.89314000  0.25918000  1.0 -0.0080534939
C  C77  1  0.22609000  0.18326000  0.67692000  1.0 -0.050883809
C  C78  1  0.77391000  0.81674000  0.32308000  1.0 -0.050883809
C  C79  1  0.19623000  0.24270000  0.59671000  1.0 -0.1346725789
C  C80  1  0.80377000  0.75730000  0.40329000  1.0 -0.1346725789
C  C81  1  0.21196000  0.04063000  0.82621000  1.0 0.572266716
C  C82  1  0.78804000  0.95937000  0.17379000  1.0 0.572266716
N  N1  1  0.38370000  0.89580000  0.01351000  1.0 -0.2463536379
N  N2  1  0.61630000  0.10420000  0.98649000  1.0 -0.2463536379
N  N3  1  0.68994000  0.20209000  0.07908000  1.0 -0.2634405908
N  N4  1  0.31006000  0.79791000  0.92092000  1.0 -0.2634405908
O  O1  1  0.62528000  0.82106000  0.18941000  1.0 -0.492690858
O  O2  1  0.37472000  0.17894000  0.81059000  1.0 -0.492690858
O  O3  1  0.49950000  0.52160000  0.14690000  1.0 -0.3217401324
O  O4  1  0.50050000  0.47840000  0.85310000  1.0 -0.3217401324
O  O5  1  0.18301000  0.83981000  0.10824000  1.0 -0.5473124204
O  O6  1  0.81699000  0.16019000  0.89176000  1.0 -0.5473124204
O  O7  1  0.04271000  0.86144000  0.07678000  1.0 -0.5240756986
O  O8  1  0.95729000  0.13856000  0.92322000  1.0 -0.5240756986
O  O9  1  0.02699000  0.05857000  0.08369000  1.0 -0.5630614725
O  O10  1  0.97301000  0.94143000  0.91631000  1.0 -0.5630614725
O  O11  1  0.19627000  0.03887000  0.03741000  1.0 -0.5473124204
O  O12  1  0.80373000  0.96113000  0.96259000  1.0 -0.5473124204
O  O13  1  0.15347000  0.98778000  0.89536000  1.0 -0.5630614725
O  O14  1  0.84653000  0.01222000  0.10464000  1.0 -0.5630614725
O  O15  1  0.29733000  0.03210000  0.82994000  1.0 -0.5272224961
O  O16  1  0.70267000  0.96790000  0.17006000  1.0 -0.5272224961
O  O17  1  0.53910000  0.44810000  0.27010000  1.0 -0.2738651452
O  O18  1  0.46090000  0.55190000  0.72990000  1.0 -0.2738651452
