# DDEC6 charges by PACMAN v1.1 (https://github.com/mtap-research/PACMAN-charge/)
data_OCIVIH_FSR_pacman
_symmetry_space_group_name_H-M   'P 1'
_cell_length_a   15.49300000
_cell_length_b   15.49300000
_cell_length_c   15.19900000
_cell_angle_alpha   90.00000000
_cell_angle_beta   90.00000000
_cell_angle_gamma   120.00000000
_symmetry_Int_Tables_number   1
_chemical_formula_structural   Pr2Co3H30C42(NO5)6
_chemical_formula_sum   'Pr4 Co6 H60 C84 N12 O60'
_cell_volume   3159.48784165
_cell_formula_units_Z   2
loop_
 _symmetry_equiv_pos_site_id
 _symmetry_equiv_pos_as_xyz
  1  'x, y, z'
loop_
 _atom_site_type_symbol
 _atom_site_label
 _atom_site_symmetry_multiplicity
 _atom_site_fract_x
 _atom_site_fract_y
 _atom_site_fract_z
 _atom_site_occupancy
 _atom_site_charge
Pr  Pr1  1  0.66666667  0.33333333  0.00251000  1.0 1.8605440435
Pr  Pr2  1  0.33333333  0.66666667  0.00251000  1.0 1.8605440435
Pr  Pr3  1  0.66666667  0.33333333  0.50251000  1.0 1.8605440435
Pr  Pr4  1  0.33333333  0.66666667  0.50251000  1.0 1.8605440435
Co  Co1  1  0.50000000  0.50000000  0.25280000  1.0 1.0194106874
Co  Co2  1  0.50000000  0.00000000  0.25280000  1.0 1.0194106874
Co  Co3  1  0.00000000  0.50000000  0.25280000  1.0 1.0194106874
Co  Co4  1  0.50000000  0.50000000  0.75280000  1.0 1.0194106874
Co  Co5  1  0.00000000  0.50000000  0.75280000  1.0 1.0194106874
Co  Co6  1  0.50000000  0.00000000  0.75280000  1.0 1.0194106874
H  H1  1  0.28750000  0.05170000  0.91230000  1.0 0.1391532721
H  H2  1  0.94830000  0.23580000  0.91230000  1.0 0.1391532721
H  H3  1  0.76420000  0.71250000  0.91230000  1.0 0.1391532721
H  H4  1  0.71250000  0.94830000  0.91230000  1.0 0.1391532721
H  H5  1  0.05170000  0.76420000  0.91230000  1.0 0.1391532721
H  H6  1  0.23580000  0.28750000  0.91230000  1.0 0.1391532721
H  H7  1  0.94830000  0.71250000  0.41230000  1.0 0.1391532721
H  H8  1  0.76420000  0.05170000  0.41230000  1.0 0.1391532721
H  H9  1  0.28750000  0.23580000  0.41230000  1.0 0.1391532721
H  H10  1  0.05170000  0.28750000  0.41230000  1.0 0.1391532721
H  H11  1  0.23580000  0.94830000  0.41230000  1.0 0.1391532721
H  H12  1  0.71250000  0.76420000  0.41230000  1.0 0.1391532721
H  H13  1  0.20160000  0.10010000  0.99050000  1.0 0.1083906618
H  H14  1  0.89990000  0.10150000  0.99050000  1.0 0.1083906618
H  H15  1  0.89850000  0.79840000  0.99050000  1.0 0.1083906618
H  H16  1  0.79840000  0.89990000  0.99050000  1.0 0.1083906618
H  H17  1  0.10010000  0.89850000  0.99050000  1.0 0.1083906618
H  H18  1  0.10150000  0.20160000  0.99050000  1.0 0.1083906618
H  H19  1  0.89990000  0.79840000  0.49050000  1.0 0.1083906618
H  H20  1  0.89850000  0.10010000  0.49050000  1.0 0.1083906618
H  H21  1  0.20160000  0.10150000  0.49050000  1.0 0.1083906618
H  H22  1  0.10010000  0.20160000  0.49050000  1.0 0.1083906618
H  H23  1  0.10150000  0.89990000  0.49050000  1.0 0.1083906618
H  H24  1  0.79840000  0.89850000  0.49050000  1.0 0.1083906618
H  H25  1  0.28810000  0.23520000  0.09890000  1.0 0.1391532721
H  H26  1  0.76480000  0.05290000  0.09890000  1.0 0.1391532721
H  H27  1  0.94710000  0.71190000  0.09890000  1.0 0.1391532721
H  H28  1  0.71190000  0.76480000  0.09890000  1.0 0.1391532721
H  H29  1  0.23520000  0.94710000  0.09890000  1.0 0.1391532721
H  H30  1  0.05290000  0.28810000  0.09890000  1.0 0.1391532721
H  H31  1  0.76480000  0.71190000  0.59890000  1.0 0.1391532721
H  H32  1  0.94710000  0.23520000  0.59890000  1.0 0.1391532721
H  H33  1  0.28810000  0.05290000  0.59890000  1.0 0.1391532721
H  H34  1  0.23520000  0.28810000  0.59890000  1.0 0.1391532721
H  H35  1  0.05290000  0.76480000  0.59890000  1.0 0.1391532721
H  H36  1  0.71190000  0.94710000  0.59890000  1.0 0.1391532721
H  H37  1  0.63100000  0.46500000  0.31200000  1.0 0.3118690813
H  H38  1  0.53500000  0.16600000  0.31200000  1.0 0.3118690813
H  H39  1  0.83400000  0.36900000  0.31200000  1.0 0.3118690813
H  H40  1  0.36900000  0.53500000  0.31200000  1.0 0.3118690813
H  H41  1  0.46500000  0.83400000  0.31200000  1.0 0.3118690813
H  H42  1  0.16600000  0.63100000  0.31200000  1.0 0.3118690813
H  H43  1  0.53500000  0.36900000  0.81200000  1.0 0.3118690813
H  H44  1  0.83400000  0.46500000  0.81200000  1.0 0.3118690813
H  H45  1  0.63100000  0.16600000  0.81200000  1.0 0.3118690813
H  H46  1  0.46500000  0.63100000  0.81200000  1.0 0.3118690813
H  H47  1  0.16600000  0.53500000  0.81200000  1.0 0.3118690813
H  H48  1  0.36900000  0.83400000  0.81200000  1.0 0.3118690813
H  H49  1  0.64700000  0.48800000  0.22800000  1.0 0.3118690813
H  H50  1  0.51200000  0.15900000  0.22800000  1.0 0.3118690813
H  H51  1  0.84100000  0.35300000  0.22800000  1.0 0.3118690813
H  H52  1  0.35300000  0.51200000  0.22800000  1.0 0.3118690813
H  H53  1  0.48800000  0.84100000  0.22800000  1.0 0.3118690813
H  H54  1  0.15900000  0.64700000  0.22800000  1.0 0.3118690813
H  H55  1  0.51200000  0.35300000  0.72800000  1.0 0.3118690813
H  H56  1  0.84100000  0.48800000  0.72800000  1.0 0.3118690813
H  H57  1  0.64700000  0.15900000  0.72800000  1.0 0.3118690813
H  H58  1  0.48800000  0.64700000  0.72800000  1.0 0.3118690813
H  H59  1  0.15900000  0.51200000  0.72800000  1.0 0.3118690813
H  H60  1  0.35300000  0.84100000  0.72800000  1.0 0.3118690813
C  C1  1  0.42380000  0.15690000  0.94750000  1.0 0.0741035859
C  C2  1  0.84310000  0.26690000  0.94750000  1.0 0.0741035859
C  C3  1  0.73310000  0.57620000  0.94750000  1.0 0.0741035859
C  C4  1  0.57620000  0.84310000  0.94750000  1.0 0.0741035859
C  C5  1  0.15690000  0.73310000  0.94750000  1.0 0.0741035859
C  C6  1  0.26690000  0.42380000  0.94750000  1.0 0.0741035859
C  C7  1  0.84310000  0.57620000  0.44750000  1.0 0.0741035859
C  C8  1  0.73310000  0.15690000  0.44750000  1.0 0.0741035859
C  C9  1  0.42380000  0.26690000  0.44750000  1.0 0.0741035859
C  C10  1  0.15690000  0.42380000  0.44750000  1.0 0.0741035859
C  C11  1  0.26690000  0.84310000  0.44750000  1.0 0.0741035859
C  C12  1  0.57620000  0.73310000  0.44750000  1.0 0.0741035859
C  C13  1  0.32140000  0.10720000  0.94840000  1.0 -0.1135550487
C  C14  1  0.89280000  0.21420000  0.94840000  1.0 -0.1135550487
C  C15  1  0.78580000  0.67860000  0.94840000  1.0 -0.1135550487
C  C16  1  0.67860000  0.89280000  0.94840000  1.0 -0.1135550487
C  C17  1  0.10720000  0.78580000  0.94840000  1.0 -0.1135550487
C  C18  1  0.21420000  0.32140000  0.94840000  1.0 -0.1135550487
C  C19  1  0.89280000  0.67860000  0.44840000  1.0 -0.1135550487
C  C20  1  0.78580000  0.10720000  0.44840000  1.0 -0.1135550487
C  C21  1  0.32140000  0.21420000  0.44840000  1.0 -0.1135550487
C  C22  1  0.10720000  0.32140000  0.44840000  1.0 -0.1135550487
C  C23  1  0.21420000  0.89280000  0.44840000  1.0 -0.1135550487
C  C24  1  0.67860000  0.78580000  0.44840000  1.0 -0.1135550487
C  C25  1  0.27060000  0.13320000  0.99580000  1.0 -0.0585193905
C  C26  1  0.86680000  0.13740000  0.99580000  1.0 -0.0585193905
C  C27  1  0.86260000  0.72940000  0.99580000  1.0 -0.0585193905
C  C28  1  0.72940000  0.86680000  0.99580000  1.0 -0.0585193905
C  C29  1  0.13320000  0.86260000  0.99580000  1.0 -0.0585193905
C  C30  1  0.13740000  0.27060000  0.99580000  1.0 -0.0585193905
C  C31  1  0.86680000  0.72940000  0.49580000  1.0 -0.0585193905
C  C32  1  0.86260000  0.13320000  0.49580000  1.0 -0.0585193905
C  C33  1  0.27060000  0.13740000  0.49580000  1.0 -0.0585193905
C  C34  1  0.13320000  0.27060000  0.49580000  1.0 -0.0585193905
C  C35  1  0.13740000  0.86680000  0.49580000  1.0 -0.0585193905
C  C36  1  0.72940000  0.86260000  0.49580000  1.0 -0.0585193905
C  C37  1  0.32160000  0.21630000  0.05960000  1.0 -0.1503401992
C  C38  1  0.78370000  0.10530000  0.05960000  1.0 -0.1503401992
C  C39  1  0.89470000  0.67840000  0.05960000  1.0 -0.1503401992
C  C40  1  0.67840000  0.78370000  0.05960000  1.0 -0.1503401992
C  C41  1  0.21630000  0.89470000  0.05960000  1.0 -0.1503401992
C  C42  1  0.10530000  0.32160000  0.05960000  1.0 -0.1503401992
C  C43  1  0.78370000  0.67840000  0.55960000  1.0 -0.1503401992
C  C44  1  0.89470000  0.21630000  0.55960000  1.0 -0.1503401992
C  C45  1  0.32160000  0.10530000  0.55960000  1.0 -0.1503401992
C  C46  1  0.21630000  0.32160000  0.55960000  1.0 -0.1503401992
C  C47  1  0.10530000  0.78370000  0.55960000  1.0 -0.1503401992
C  C48  1  0.67840000  0.89470000  0.55960000  1.0 -0.1503401992
C  C49  1  0.48650000  0.35380000  0.11420000  1.0 0.5445036468
C  C50  1  0.64620000  0.13270000  0.11420000  1.0 0.5445036468
C  C51  1  0.86730000  0.51350000  0.11420000  1.0 0.5445036468
C  C52  1  0.51350000  0.64620000  0.11420000  1.0 0.5445036468
C  C53  1  0.35380000  0.86730000  0.11420000  1.0 0.5445036468
C  C54  1  0.13270000  0.48650000  0.11420000  1.0 0.5445036468
C  C55  1  0.64620000  0.51350000  0.61420000  1.0 0.5445036468
C  C56  1  0.86730000  0.35380000  0.61420000  1.0 0.5445036468
C  C57  1  0.48650000  0.13270000  0.61420000  1.0 0.5445036468
C  C58  1  0.35380000  0.48650000  0.61420000  1.0 0.5445036468
C  C59  1  0.13270000  0.64620000  0.61420000  1.0 0.5445036468
C  C60  1  0.51350000  0.86730000  0.61420000  1.0 0.5445036468
C  C61  1  0.49000000  0.13620000  0.89220000  1.0 0.5709540225
C  C62  1  0.86380000  0.35380000  0.89220000  1.0 0.5709540225
C  C63  1  0.64620000  0.51000000  0.89220000  1.0 0.5709540225
C  C64  1  0.51000000  0.86380000  0.89220000  1.0 0.5709540225
C  C65  1  0.13620000  0.64620000  0.89220000  1.0 0.5709540225
C  C66  1  0.35380000  0.49000000  0.89220000  1.0 0.5709540225
C  C67  1  0.86380000  0.51000000  0.39220000  1.0 0.5709540225
C  C68  1  0.64620000  0.13620000  0.39220000  1.0 0.5709540225
C  C69  1  0.49000000  0.35380000  0.39220000  1.0 0.5709540225
C  C70  1  0.13620000  0.49000000  0.39220000  1.0 0.5709540225
C  C71  1  0.35380000  0.86380000  0.39220000  1.0 0.5709540225
C  C72  1  0.51000000  0.64620000  0.39220000  1.0 0.5709540225
C  C73  1  0.42490000  0.26290000  0.05410000  1.0 0.164039838
C  C74  1  0.73710000  0.16200000  0.05410000  1.0 0.164039838
C  C75  1  0.83800000  0.57510000  0.05410000  1.0 0.164039838
C  C76  1  0.57510000  0.73710000  0.05410000  1.0 0.164039838
C  C77  1  0.26290000  0.83800000  0.05410000  1.0 0.164039838
C  C78  1  0.16200000  0.42490000  0.05410000  1.0 0.164039838
C  C79  1  0.73710000  0.57510000  0.55410000  1.0 0.164039838
C  C80  1  0.83800000  0.26290000  0.55410000  1.0 0.164039838
C  C81  1  0.42490000  0.16200000  0.55410000  1.0 0.164039838
C  C82  1  0.26290000  0.42490000  0.55410000  1.0 0.164039838
C  C83  1  0.16200000  0.73710000  0.55410000  1.0 0.164039838
C  C84  1  0.57510000  0.83800000  0.55410000  1.0 0.164039838
N  N1  1  0.47460000  0.23840000  0.00240000  1.0 -0.3462159458
N  N2  1  0.76160000  0.23620000  0.00240000  1.0 -0.3462159458
N  N3  1  0.76380000  0.52540000  0.00240000  1.0 -0.3462159458
N  N4  1  0.52540000  0.76160000  0.00240000  1.0 -0.3462159458
N  N5  1  0.23840000  0.76380000  0.00240000  1.0 -0.3462159458
N  N6  1  0.23620000  0.47460000  0.00240000  1.0 -0.3462159458
N  N7  1  0.76160000  0.52540000  0.50240000  1.0 -0.3462159458
N  N8  1  0.76380000  0.23840000  0.50240000  1.0 -0.3462159458
N  N9  1  0.47460000  0.23620000  0.50240000  1.0 -0.3462159458
N  N10  1  0.23840000  0.47460000  0.50240000  1.0 -0.3462159458
N  N11  1  0.23620000  0.76160000  0.50240000  1.0 -0.3462159458
N  N12  1  0.52540000  0.76380000  0.50240000  1.0 -0.3462159458
O  O1  1  0.58350000  0.19750000  0.89300000  1.0 -0.6162915005
O  O2  1  0.80250000  0.38600000  0.89300000  1.0 -0.6162915005
O  O3  1  0.61400000  0.41650000  0.89300000  1.0 -0.6162915005
O  O4  1  0.41650000  0.80250000  0.89300000  1.0 -0.6162915005
O  O5  1  0.19750000  0.61400000  0.89300000  1.0 -0.6162915005
O  O6  1  0.38600000  0.58350000  0.89300000  1.0 -0.6162915005
O  O7  1  0.80250000  0.41650000  0.39300000  1.0 -0.6162915005
O  O8  1  0.61400000  0.19750000  0.39300000  1.0 -0.6162915005
O  O9  1  0.58350000  0.38600000  0.39300000  1.0 -0.6162915005
O  O10  1  0.19750000  0.58350000  0.39300000  1.0 -0.6162915005
O  O11  1  0.38600000  0.80250000  0.39300000  1.0 -0.6162915005
O  O12  1  0.41650000  0.61400000  0.39300000  1.0 -0.6162915005
O  O13  1  0.57860000  0.38500000  0.11090000  1.0 -0.6012402448
O  O14  1  0.61500000  0.19360000  0.11090000  1.0 -0.6012402448
O  O15  1  0.80640000  0.42140000  0.11090000  1.0 -0.6012402448
O  O16  1  0.42140000  0.61500000  0.11090000  1.0 -0.6012402448
O  O17  1  0.38500000  0.80640000  0.11090000  1.0 -0.6012402448
O  O18  1  0.19360000  0.57860000  0.11090000  1.0 -0.6012402448
O  O19  1  0.61500000  0.42140000  0.61090000  1.0 -0.6012402448
O  O20  1  0.80640000  0.38500000  0.61090000  1.0 -0.6012402448
O  O21  1  0.57860000  0.19360000  0.61090000  1.0 -0.6012402448
O  O22  1  0.38500000  0.57860000  0.61090000  1.0 -0.6012402448
O  O23  1  0.19360000  0.61500000  0.61090000  1.0 -0.6012402448
O  O24  1  0.42140000  0.80640000  0.61090000  1.0 -0.6012402448
O  O25  1  0.44390000  0.38500000  0.15690000  1.0 -0.4910102907
O  O26  1  0.61500000  0.05890000  0.15690000  1.0 -0.4910102907
O  O27  1  0.94110000  0.55610000  0.15690000  1.0 -0.4910102907
O  O28  1  0.55610000  0.61500000  0.15690000  1.0 -0.4910102907
O  O29  1  0.38500000  0.94110000  0.15690000  1.0 -0.4910102907
O  O30  1  0.05890000  0.44390000  0.15690000  1.0 -0.4910102907
O  O31  1  0.61500000  0.55610000  0.65690000  1.0 -0.4910102907
O  O32  1  0.94110000  0.38500000  0.65690000  1.0 -0.4910102907
O  O33  1  0.44390000  0.05890000  0.65690000  1.0 -0.4910102907
O  O34  1  0.38500000  0.44390000  0.65690000  1.0 -0.4910102907
O  O35  1  0.05890000  0.61500000  0.65690000  1.0 -0.4910102907
O  O36  1  0.55610000  0.94110000  0.65690000  1.0 -0.4910102907
O  O37  1  0.44660000  0.05580000  0.84520000  1.0 -0.5663351837
O  O38  1  0.94420000  0.39080000  0.84520000  1.0 -0.5663351837
O  O39  1  0.60920000  0.55340000  0.84520000  1.0 -0.5663351837
O  O40  1  0.55340000  0.94420000  0.84520000  1.0 -0.5663351837
O  O41  1  0.05580000  0.60920000  0.84520000  1.0 -0.5663351837
O  O42  1  0.39080000  0.44660000  0.84520000  1.0 -0.5663351837
O  O43  1  0.94420000  0.55340000  0.34520000  1.0 -0.5663351837
O  O44  1  0.60920000  0.05580000  0.34520000  1.0 -0.5663351837
O  O45  1  0.44660000  0.39080000  0.34520000  1.0 -0.5663351837
O  O46  1  0.05580000  0.44660000  0.34520000  1.0 -0.5663351837
O  O47  1  0.39080000  0.94420000  0.34520000  1.0 -0.5663351837
O  O48  1  0.55340000  0.60920000  0.34520000  1.0 -0.5663351837
O  O49  1  0.64400000  0.51200000  0.25590000  1.0 -0.5504153493
O  O50  1  0.48800000  0.13200000  0.25590000  1.0 -0.5504153493
O  O51  1  0.86800000  0.35600000  0.25590000  1.0 -0.5504153493
O  O52  1  0.35600000  0.48800000  0.25590000  1.0 -0.5504153493
O  O53  1  0.51200000  0.86800000  0.25590000  1.0 -0.5504153493
O  O54  1  0.13200000  0.64400000  0.25590000  1.0 -0.5504153493
O  O55  1  0.48800000  0.35600000  0.75590000  1.0 -0.5504153493
O  O56  1  0.86800000  0.51200000  0.75590000  1.0 -0.5504153493
O  O57  1  0.64400000  0.13200000  0.75590000  1.0 -0.5504153493
O  O58  1  0.51200000  0.64400000  0.75590000  1.0 -0.5504153493
O  O59  1  0.13200000  0.48800000  0.75590000  1.0 -0.5504153493
O  O60  1  0.35600000  0.86800000  0.75590000  1.0 -0.5504153493
