# DDEC6 charges by PACMAN v1.1 (https://github.com/mtap-research/PACMAN-charge/)
data_OCIZAD_ASR_pacman
_symmetry_space_group_name_H-M   'P 1'
_cell_length_a   9.97060000
_cell_length_b   14.70860000
_cell_length_c   26.96950000
_cell_angle_alpha   90.00000000
_cell_angle_beta   98.08100000
_cell_angle_gamma   90.00000000
_symmetry_Int_Tables_number   1
_chemical_formula_structural   CuH26C36N4O5
_chemical_formula_sum   'Cu4 H104 C144 N16 O20'
_cell_volume   3915.89980476
_cell_formula_units_Z   4
loop_
 _symmetry_equiv_pos_site_id
 _symmetry_equiv_pos_as_xyz
  1  'x, y, z'
loop_
 _atom_site_type_symbol
 _atom_site_label
 _atom_site_symmetry_multiplicity
 _atom_site_fract_x
 _atom_site_fract_y
 _atom_site_fract_z
 _atom_site_occupancy
 _atom_site_charge
Cu  Cu1  1  0.50000000  0.50000000  0.00000000  1.0 0.7736404509
Cu  Cu2  1  0.00000000  0.00000000  0.00000000  1.0 0.7736404509
Cu  Cu3  1  0.50000000  0.00000000  0.50000000  1.0 0.6975421281
Cu  Cu4  1  0.00000000  0.50000000  0.50000000  1.0 0.6975421281
H  H1  1  0.67600000  0.43440000  0.86770000  1.0 0.120074687
H  H2  1  0.82400000  0.93440000  0.13230000  1.0 0.120074687
H  H3  1  0.32400000  0.56560000  0.13230000  1.0 0.120074687
H  H4  1  0.17600000  0.06560000  0.86770000  1.0 0.120074687
H  H5  1  0.80440000  0.41840000  0.80350000  1.0 0.1386620135
H  H6  1  0.69560000  0.91840000  0.19650000  1.0 0.1386620135
H  H7  1  0.19560000  0.58160000  0.19650000  1.0 0.1386620135
H  H8  1  0.30440000  0.08160000  0.80350000  1.0 0.1386620135
H  H9  1  0.11050000  0.54920000  0.88500000  1.0 0.1320479921
H  H10  1  0.38950000  0.04920000  0.11500000  1.0 0.1320479921
H  H11  1  0.88950000  0.45080000  0.11500000  1.0 0.1320479921
H  H12  1  0.61050000  0.95080000  0.88500000  1.0 0.1320479921
H  H13  1  0.98220000  0.56290000  0.95000000  1.0 0.1320479921
H  H14  1  0.51780000  0.06290000  0.05000000  1.0 0.1320479921
H  H15  1  0.01780000  0.43710000  0.05000000  1.0 0.1320479921
H  H16  1  0.48220000  0.93710000  0.95000000  1.0 0.1320479921
H  H17  1  0.85440000  0.57590000  0.75760000  1.0 0.120074687
H  H18  1  0.64560000  0.07590000  0.24240000  1.0 0.120074687
H  H19  1  0.14560000  0.42410000  0.24240000  1.0 0.120074687
H  H20  1  0.35440000  0.92410000  0.75760000  1.0 0.120074687
H  H21  1  0.78700000  0.59370000  0.67280000  1.0 0.1119532685
H  H22  1  0.71300000  0.09370000  0.32720000  1.0 0.1119532685
H  H23  1  0.21300000  0.40630000  0.32720000  1.0 0.1119532685
H  H24  1  0.28700000  0.90630000  0.67280000  1.0 0.1119532685
H  H25  1  0.06700000  0.41680000  0.64440000  1.0 0.120074687
H  H26  1  0.43300000  0.91680000  0.35560000  1.0 0.120074687
H  H27  1  0.93300000  0.58320000  0.35560000  1.0 0.120074687
H  H28  1  0.56700000  0.08320000  0.64440000  1.0 0.120074687
H  H29  1  0.13230000  0.39420000  0.72920000  1.0 0.1386620135
H  H30  1  0.36770000  0.89420000  0.27080000  1.0 0.1386620135
H  H31  1  0.86770000  0.60580000  0.27080000  1.0 0.1386620135
H  H32  1  0.63230000  0.10580000  0.72920000  1.0 0.1386620135
H  H33  1  0.31060000  0.05060000  0.40470000  1.0 0.1119532685
H  H34  1  0.18940000  0.55060000  0.59530000  1.0 0.1119532685
H  H35  1  0.68940000  0.94940000  0.59530000  1.0 0.1119532685
H  H36  1  0.81060000  0.44940000  0.40470000  1.0 0.1119532685
H  H37  1  0.29920000  0.15250000  0.53670000  1.0 0.1386620135
H  H38  1  0.20080000  0.65250000  0.46330000  1.0 0.1386620135
H  H39  1  0.70080000  0.84750000  0.46330000  1.0 0.1386620135
H  H40  1  0.79920000  0.34750000  0.53670000  1.0 0.1386620135
H  H41  1  0.10760000  0.21580000  0.48180000  1.0 0.1386620135
H  H42  1  0.39240000  0.71580000  0.51820000  1.0 0.1386620135
H  H43  1  0.89240000  0.78420000  0.51820000  1.0 0.1386620135
H  H44  1  0.60760000  0.28420000  0.48180000  1.0 0.1386620135
H  H45  1  0.01280000  0.27370000  0.40350000  1.0 0.1320479921
H  H46  1  0.48720000  0.77370000  0.59650000  1.0 0.1320479921
H  H47  1  0.98720000  0.72630000  0.59650000  1.0 0.1320479921
H  H48  1  0.51280000  0.22630000  0.40350000  1.0 0.1320479921
H  H49  1  0.88210000  0.30680000  0.32870000  1.0 0.1119532685
H  H50  1  0.61790000  0.80680000  0.67130000  1.0 0.1119532685
H  H51  1  0.11790000  0.69320000  0.67130000  1.0 0.1119532685
H  H52  1  0.38210000  0.19320000  0.32870000  1.0 0.1119532685
H  H53  1  0.00610000  0.08090000  0.27020000  1.0 0.1119532685
H  H54  1  0.49390000  0.58090000  0.72980000  1.0 0.1119532685
H  H55  1  0.99390000  0.91910000  0.72980000  1.0 0.1119532685
H  H56  1  0.50610000  0.41910000  0.27020000  1.0 0.1119532685
H  H57  1  0.13030000  0.04510000  0.34540000  1.0 0.1320479921
H  H58  1  0.36970000  0.54510000  0.65460000  1.0 0.1320479921
H  H59  1  0.86970000  0.95490000  0.65460000  1.0 0.1320479921
H  H60  1  0.63030000  0.45490000  0.34540000  1.0 0.1320479921
H  H61  1  0.81770000  0.35390000  0.25980000  1.0 0.1119532685
H  H62  1  0.68230000  0.85390000  0.74020000  1.0 0.1119532685
H  H63  1  0.18230000  0.64610000  0.74020000  1.0 0.1119532685
H  H64  1  0.31770000  0.14610000  0.25980000  1.0 0.1119532685
H  H65  1  0.72710000  0.40130000  0.17980000  1.0 0.1119532685
H  H66  1  0.77290000  0.90130000  0.82020000  1.0 0.1119532685
H  H67  1  0.27290000  0.59870000  0.82020000  1.0 0.1119532685
H  H68  1  0.22710000  0.09870000  0.17980000  1.0 0.1119532685
H  H69  1  0.78620000  0.15100000  0.12800000  1.0 0.1119532685
H  H70  1  0.71380000  0.65100000  0.87200000  1.0 0.1119532685
H  H71  1  0.21380000  0.84900000  0.87200000  1.0 0.1119532685
H  H72  1  0.28620000  0.34900000  0.12800000  1.0 0.1119532685
H  H73  1  0.87830000  0.10750000  0.20660000  1.0 0.1015273024
H  H74  1  0.62170000  0.60750000  0.79340000  1.0 0.1015273024
H  H75  1  0.12170000  0.89250000  0.79340000  1.0 0.1015273024
H  H76  1  0.37830000  0.39250000  0.20660000  1.0 0.1015273024
H  H77  1  0.57130000  0.41250000  0.10420000  1.0 0.1015273024
H  H78  1  0.92870000  0.91250000  0.89580000  1.0 0.1015273024
H  H79  1  0.42870000  0.58750000  0.89580000  1.0 0.1015273024
H  H80  1  0.07130000  0.08750000  0.10420000  1.0 0.1015273024
H  H81  1  0.79100000  0.22760000  0.04570000  1.0 0.120074687
H  H82  1  0.70900000  0.72760000  0.95430000  1.0 0.120074687
H  H83  1  0.20900000  0.77240000  0.95430000  1.0 0.120074687
H  H84  1  0.29100000  0.27240000  0.04570000  1.0 0.120074687
H  H85  1  0.67670000  0.32180000  0.97900000  1.0 0.1386620135
H  H86  1  0.82330000  0.82180000  0.02100000  1.0 0.1386620135
H  H87  1  0.32330000  0.67820000  0.02100000  1.0 0.1386620135
H  H88  1  0.17670000  0.17820000  0.97900000  1.0 0.1386620135
H  H89  1  0.81060000  0.77400000  0.74600000  1.0 0.1119532685
H  H90  1  0.68940000  0.27400000  0.25400000  1.0 0.1119532685
H  H91  1  0.18940000  0.22600000  0.25400000  1.0 0.1119532685
H  H92  1  0.31060000  0.72600000  0.74600000  1.0 0.1119532685
H  H93  1  0.91610000  0.80230000  0.82500000  1.0 0.0877399782
H  H94  1  0.58390000  0.30230000  0.17500000  1.0 0.0877399782
H  H95  1  0.08390000  0.19770000  0.17500000  1.0 0.0877399782
H  H96  1  0.41610000  0.69770000  0.82500000  1.0 0.0877399782
H  H97  1  0.59460000  0.71800000  0.87970000  1.0 0.1119532685
H  H98  1  0.90540000  0.21800000  0.12030000  1.0 0.1119532685
H  H99  1  0.40540000  0.28200000  0.12030000  1.0 0.1119532685
H  H100  1  0.09460000  0.78200000  0.87970000  1.0 0.1119532685
H  H101  1  0.49590000  0.67920000  0.80030000  1.0 0.0753983193
H  H102  1  0.00410000  0.17920000  0.19970000  1.0 0.0753983193
H  H103  1  0.50410000  0.32080000  0.19970000  1.0 0.0753983193
H  H104  1  0.99590000  0.82080000  0.80030000  1.0 0.0753983193
C  C1  1  0.72810000  0.51770000  0.95571000  1.0 0.5404890747
C  C2  1  0.77190000  0.01770000  0.04429000  1.0 0.5404890747
C  C3  1  0.27190000  0.48230000  0.04429000  1.0 0.5404890747
C  C4  1  0.22810000  0.98230000  0.95571000  1.0 0.5404890747
C  C5  1  0.81490000  0.50300000  0.91514000  1.0 -0.0382051348
C  C6  1  0.68510000  0.00300000  0.08486000  1.0 -0.0382051348
C  C7  1  0.18510000  0.49700000  0.08486000  1.0 -0.0382051348
C  C8  1  0.31490000  0.99700000  0.91514000  1.0 -0.0382051348
C  C9  1  0.76330000  0.45820000  0.87121000  1.0 -0.1154890704
C  C10  1  0.73670000  0.95820000  0.12879000  1.0 -0.1154890704
C  C11  1  0.23670000  0.54180000  0.12879000  1.0 -0.1154890704
C  C12  1  0.26330000  0.04180000  0.87121000  1.0 -0.1154890704
C  C13  1  0.83950000  0.44850000  0.83281000  1.0 -0.2088052901
C  C14  1  0.66050000  0.94850000  0.16719000  1.0 -0.2088052901
C  C15  1  0.16050000  0.55150000  0.16719000  1.0 -0.2088052901
C  C16  1  0.33950000  0.05150000  0.83281000  1.0 -0.2088052901
C  C17  1  0.96730000  0.48380000  0.83820000  1.0 0.2339522512
C  C18  1  0.53270000  0.98380000  0.16180000  1.0 0.2339522512
C  C19  1  0.03270000  0.51620000  0.16180000  1.0 0.2339522512
C  C20  1  0.46730000  0.01620000  0.83820000  1.0 0.2339522512
C  C21  1  0.02270000  0.52650000  0.88161000  1.0 -0.1995082526
C  C22  1  0.47730000  0.02650000  0.11839000  1.0 -0.1995082526
C  C23  1  0.97730000  0.47350000  0.11839000  1.0 -0.1995082526
C  C24  1  0.52270000  0.97350000  0.88161000  1.0 -0.1995082526
C  C25  1  0.94520000  0.53510000  0.92027000  1.0 -0.083276379
C  C26  1  0.55480000  0.03510000  0.07973000  1.0 -0.083276379
C  C27  1  0.05480000  0.46490000  0.07973000  1.0 -0.083276379
C  C28  1  0.44520000  0.96490000  0.92027000  1.0 -0.083276379
C  C29  1  0.00000000  0.48390000  0.75157000  1.0 0.2365544
C  C30  1  0.50000000  0.98390000  0.24843000  1.0 0.2365544
C  C31  1  0.00000000  0.51610000  0.24843000  1.0 0.2365544
C  C32  1  0.50000000  0.01610000  0.75157000  1.0 0.2365544
C  C33  1  0.89720000  0.54310000  0.73483000  1.0 -0.2378362371
C  C34  1  0.60280000  0.04310000  0.26517000  1.0 -0.2378362371
C  C35  1  0.10280000  0.45690000  0.26517000  1.0 -0.2378362371
C  C36  1  0.39720000  0.95690000  0.73483000  1.0 -0.2378362371
C  C37  1  0.85740000  0.55400000  0.68401000  1.0 -0.0896860832
C  C38  1  0.64260000  0.05400000  0.31599000  1.0 -0.0896860832
C  C39  1  0.14260000  0.44600000  0.31599000  1.0 -0.0896860832
C  C40  1  0.35740000  0.94600000  0.68401000  1.0 -0.0896860832
C  C41  1  0.92040000  0.50690000  0.64994000  1.0 -0.0382051348
C  C42  1  0.57960000  0.00690000  0.35006000  1.0 -0.0382051348
C  C43  1  0.07960000  0.49310000  0.35006000  1.0 -0.0382051348
C  C44  1  0.42040000  0.99310000  0.64994000  1.0 -0.0382051348
C  C45  1  0.88070000  0.52140000  0.59479000  1.0 0.5460321874
C  C46  1  0.61930000  0.02140000  0.40521000  1.0 0.5460321874
C  C47  1  0.11930000  0.47860000  0.40521000  1.0 0.5460321874
C  C48  1  0.38070000  0.97860000  0.59479000  1.0 0.5460321874
C  C49  1  0.02310000  0.44850000  0.66728000  1.0 -0.0965519828
C  C50  1  0.47690000  0.94850000  0.33272000  1.0 -0.0965519828
C  C51  1  0.97690000  0.55150000  0.33272000  1.0 -0.0965519828
C  C52  1  0.52310000  0.05150000  0.66728000  1.0 -0.0965519828
C  C53  1  0.06360000  0.43520000  0.71805000  1.0 -0.2088052901
C  C54  1  0.43640000  0.93520000  0.28195000  1.0 -0.2088052901
C  C55  1  0.93640000  0.56480000  0.28195000  1.0 -0.2088052901
C  C56  1  0.56360000  0.06480000  0.71805000  1.0 -0.2088052901
C  C57  1  0.28430000  0.08390000  0.43103000  1.0 0.1119532685
C  C58  1  0.21570000  0.58390000  0.56897000  1.0 0.1119532685
C  C59  1  0.71570000  0.91610000  0.56897000  1.0 0.1119532685
C  C60  1  0.78430000  0.41610000  0.43103000  1.0 0.1119532685
C  C61  1  0.27750000  0.13970000  0.50280000  1.0 -0.0206358811
C  C62  1  0.22250000  0.63970000  0.49720000  1.0 -0.0206358811
C  C63  1  0.72250000  0.86030000  0.49720000  1.0 -0.0206358811
C  C64  1  0.77750000  0.36030000  0.50280000  1.0 -0.0206358811
C  C65  1  0.17130000  0.17490000  0.47279000  1.0 -0.0896860832
C  C66  1  0.32870000  0.67490000  0.52721000  1.0 -0.0896860832
C  C67  1  0.82870000  0.82510000  0.52721000  1.0 -0.0896860832
C  C68  1  0.67130000  0.32510000  0.47279000  1.0 -0.0896860832
C  C69  1  0.08890000  0.15770000  0.38136000  1.0 0.152849567
C  C70  1  0.41110000  0.65770000  0.61864000  1.0 0.152849567
C  C71  1  0.91110000  0.84230000  0.61864000  1.0 0.152849567
C  C72  1  0.58890000  0.34230000  0.38136000  1.0 0.152849567
C  C73  1  0.01280000  0.23460000  0.37639000  1.0 -0.1408022484
C  C74  1  0.48720000  0.73460000  0.62361000  1.0 -0.1408022484
C  C75  1  0.98720000  0.76540000  0.62361000  1.0 -0.1408022484
C  C76  1  0.51280000  0.26540000  0.37639000  1.0 -0.1408022484
C  C77  1  0.93540000  0.25470000  0.33116000  1.0 -0.1600825952
C  C78  1  0.56460000  0.75470000  0.66884000  1.0 -0.1600825952
C  C79  1  0.06460000  0.74530000  0.66884000  1.0 -0.1600825952
C  C80  1  0.43540000  0.24530000  0.33116000  1.0 -0.1600825952
C  C81  1  0.93430000  0.20040000  0.28964000  1.0 -0.0206358811
C  C82  1  0.56570000  0.70040000  0.71036000  1.0 -0.0206358811
C  C83  1  0.06570000  0.79960000  0.71036000  1.0 -0.0206358811
C  C84  1  0.43430000  0.29960000  0.28964000  1.0 -0.0206358811
C  C85  1  0.00760000  0.12130000  0.29682000  1.0 -0.1600825952
C  C86  1  0.49240000  0.62130000  0.70318000  1.0 -0.1600825952
C  C87  1  0.99240000  0.87870000  0.70318000  1.0 -0.1600825952
C  C88  1  0.50760000  0.37870000  0.29682000  1.0 -0.1600825952
C  C89  1  0.08300000  0.09970000  0.34188000  1.0 -0.1600825952
C  C90  1  0.41700000  0.59970000  0.65812000  1.0 -0.1600825952
C  C91  1  0.91700000  0.90030000  0.65812000  1.0 -0.1600825952
C  C92  1  0.58300000  0.40030000  0.34188000  1.0 -0.1600825952
C  C93  1  0.86320000  0.22600000  0.23989000  1.0 0.0360841797
C  C94  1  0.63680000  0.72600000  0.76011000  1.0 0.0360841797
C  C95  1  0.13680000  0.77400000  0.76011000  1.0 0.0360841797
C  C96  1  0.36320000  0.27400000  0.23989000  1.0 0.0360841797
C  C97  1  0.81360000  0.31400000  0.23291000  1.0 -0.0896860832
C  C98  1  0.68640000  0.81400000  0.76709000  1.0 -0.0896860832
C  C99  1  0.18640000  0.68600000  0.76709000  1.0 -0.0896860832
C  C100  1  0.31360000  0.18600000  0.23291000  1.0 -0.0896860832
C  C101  1  0.75760000  0.34180000  0.18502000  1.0 -0.045345231
C  C102  1  0.74240000  0.84180000  0.81498000  1.0 -0.045345231
C  C103  1  0.24240000  0.65820000  0.81498000  1.0 -0.045345231
C  C104  1  0.25760000  0.15820000  0.18502000  1.0 -0.045345231
C  C105  1  0.74660000  0.27870000  0.14336000  1.0 0.0877399782
C  C106  1  0.75340000  0.77870000  0.85664000  1.0 0.0877399782
C  C107  1  0.25340000  0.72130000  0.85664000  1.0 0.0877399782
C  C108  1  0.24660000  0.22130000  0.14336000  1.0 0.0877399782
C  C109  1  0.79270000  0.19350000  0.15377000  1.0 -0.0206358811
C  C110  1  0.70730000  0.69350000  0.84623000  1.0 -0.0206358811
C  C111  1  0.20730000  0.80650000  0.84623000  1.0 -0.0206358811
C  C112  1  0.29270000  0.30650000  0.15377000  1.0 -0.0206358811
C  C113  1  0.84920000  0.16720000  0.20118000  1.0 -0.0572761289
C  C114  1  0.65080000  0.66720000  0.79882000  1.0 -0.0572761289
C  C115  1  0.15080000  0.83280000  0.79882000  1.0 -0.0572761289
C  C116  1  0.34920000  0.33280000  0.20118000  1.0 -0.0572761289
C  C117  1  0.61122000  0.37829000  0.08122000  1.0 0.0877399782
C  C118  1  0.88878000  0.87829000  0.91878000  1.0 0.0877399782
C  C119  1  0.38878000  0.62171000  0.91878000  1.0 0.0877399782
C  C120  1  0.11122000  0.12171000  0.08122000  1.0 0.0877399782
C  C121  1  0.73289000  0.27585000  0.04937000  1.0 -0.0896860832
C  C122  1  0.76711000  0.77585000  0.95063000  1.0 -0.0896860832
C  C123  1  0.26711000  0.72415000  0.95063000  1.0 -0.0896860832
C  C124  1  0.23289000  0.22415000  0.04937000  1.0 -0.0896860832
C  C125  1  0.66970000  0.32810000  0.01285000  1.0 -0.0301018484
C  C126  1  0.83030000  0.82810000  0.98715000  1.0 -0.0301018484
C  C127  1  0.33030000  0.67190000  0.98715000  1.0 -0.0301018484
C  C128  1  0.16970000  0.17190000  0.01285000  1.0 -0.0301018484
C  C129  1  0.76230000  0.76250000  0.77240000  1.0 -0.0301018484
C  C130  1  0.73770000  0.26250000  0.22760000  1.0 -0.0301018484
C  C131  1  0.23770000  0.23750000  0.22760000  1.0 -0.0301018484
C  C132  1  0.26230000  0.73750000  0.77240000  1.0 -0.0301018484
C  C133  1  0.82580000  0.78430000  0.81950000  1.0 -0.1154890704
C  C134  1  0.67420000  0.28430000  0.18050000  1.0 -0.1154890704
C  C135  1  0.17420000  0.21570000  0.18050000  1.0 -0.1154890704
C  C136  1  0.32580000  0.71570000  0.81950000  1.0 -0.1154890704
C  C137  1  0.63590000  0.73290000  0.85190000  1.0 -0.0965519828
C  C138  1  0.86410000  0.23290000  0.14810000  1.0 -0.0965519828
C  C139  1  0.36410000  0.26710000  0.14810000  1.0 -0.0965519828
C  C140  1  0.13590000  0.76710000  0.85190000  1.0 -0.0965519828
C  C141  1  0.57900000  0.70900000  0.80390000  1.0 -0.0653195708
C  C142  1  0.92100000  0.20900000  0.19610000  1.0 -0.0653195708
C  C143  1  0.42100000  0.29100000  0.19610000  1.0 -0.0653195708
C  C144  1  0.07900000  0.79100000  0.80390000  1.0 -0.0653195708
N  N1  1  0.59258000  0.39287000  0.03281000  1.0 -0.2838859363
N  N2  1  0.90742000  0.89287000  0.96719000  1.0 -0.2838859363
N  N3  1  0.40742000  0.60713000  0.96719000  1.0 -0.2838859363
N  N4  1  0.09258000  0.10713000  0.03281000  1.0 -0.2838859363
N  N5  1  0.34870000  0.08272000  0.47667000  1.0 -0.2838859363
N  N6  1  0.15130000  0.58272000  0.52333000  1.0 -0.2838859363
N  N7  1  0.65130000  0.91728000  0.52333000  1.0 -0.2838859363
N  N8  1  0.84870000  0.41728000  0.47667000  1.0 -0.2838859363
N  N9  1  0.17570000  0.13863000  0.42650000  1.0 0.0198834603
N  N10  1  0.32430000  0.63863000  0.57350000  1.0 0.0198834603
N  N11  1  0.82430000  0.86137000  0.57350000  1.0 0.0198834603
N  N12  1  0.67570000  0.36137000  0.42650000  1.0 0.0198834603
N  N13  1  0.69540000  0.30750000  0.09371000  1.0 -0.1790050595
N  N14  1  0.80460000  0.80750000  0.90629000  1.0 -0.1790050595
N  N15  1  0.30460000  0.69250000  0.90629000  1.0 -0.1790050595
N  N16  1  0.19540000  0.19250000  0.09371000  1.0 -0.1790050595
O  O1  1  0.77940000  0.55644000  0.99518000  1.0 -0.5495406914
O  O2  1  0.72060000  0.05644000  0.00482000  1.0 -0.5495406914
O  O3  1  0.22060000  0.44356000  0.00482000  1.0 -0.5495406914
O  O4  1  0.27940000  0.94356000  0.99518000  1.0 -0.5495406914
O  O5  1  0.60680000  0.49007000  0.94628000  1.0 -0.5425034492
O  O6  1  0.89320000  0.99007000  0.05372000  1.0 -0.5425034492
O  O7  1  0.39320000  0.50993000  0.05372000  1.0 -0.5425034492
O  O8  1  0.10680000  0.00993000  0.94628000  1.0 -0.5425034492
O  O9  1  0.96430000  0.48988000  0.56839000  1.0 -0.5495406914
O  O10  1  0.53570000  0.98988000  0.43161000  1.0 -0.5495406914
O  O11  1  0.03570000  0.51012000  0.43161000  1.0 -0.5495406914
O  O12  1  0.46430000  0.01012000  0.56839000  1.0 -0.5495406914
O  O13  1  0.77560000  0.56250000  0.57986000  1.0 -0.5495406914
O  O14  1  0.72440000  0.06250000  0.42014000  1.0 -0.5495406914
O  O15  1  0.22440000  0.43750000  0.42014000  1.0 -0.5495406914
O  O16  1  0.27560000  0.93750000  0.57986000  1.0 -0.5495406914
O  O17  1  0.05230000  0.47300000  0.80170000  1.0 -0.2179698191
O  O18  1  0.44770000  0.97300000  0.19830000  1.0 -0.2179698191
O  O19  1  0.94770000  0.52700000  0.19830000  1.0 -0.2179698191
O  O20  1  0.55230000  0.02700000  0.80170000  1.0 -0.2179698191
