# DDEC6 charges by PACMAN v1.1 (https://github.com/mtap-research/PACMAN-charge/)
data_OCOMEC_FSR_pacman
_symmetry_space_group_name_H-M   'P 1'
_cell_length_a   14.83740000
_cell_length_b   14.83740000
_cell_length_c   14.83740000
_cell_angle_alpha   81.94000000
_cell_angle_beta   81.94000000
_cell_angle_gamma   81.94000000
_symmetry_Int_Tables_number   1
_chemical_formula_structural   ZnH24C22N2O5
_chemical_formula_sum   'Zn6 H144 C132 N12 O30'
_cell_volume   3177.91314901
_cell_formula_units_Z   6
loop_
 _symmetry_equiv_pos_site_id
 _symmetry_equiv_pos_as_xyz
  1  'x, y, z'
loop_
 _atom_site_type_symbol
 _atom_site_label
 _atom_site_symmetry_multiplicity
 _atom_site_fract_x
 _atom_site_fract_y
 _atom_site_fract_z
 _atom_site_occupancy
 _atom_site_charge
Zn  Zn1  1  0.52247000  0.08829000  0.52248000  1.0 0.8075351579
Zn  Zn2  1  0.52248000  0.52247000  0.08829000  1.0 0.8075351579
Zn  Zn3  1  0.08829000  0.52248000  0.52247000  1.0 0.8075351579
Zn  Zn4  1  0.47753000  0.91171000  0.47752000  1.0 0.8075351579
Zn  Zn5  1  0.47752000  0.47753000  0.91171000  1.0 0.8075351579
Zn  Zn6  1  0.91171000  0.47752000  0.47753000  1.0 0.8075351579
H  H1  1  0.69655000  0.15699000  0.53124000  1.0 0.0911327626
H  H2  1  0.20017000  0.99371000  0.47667000  1.0 0.068103873
H  H3  1  0.24117000  0.24199000  0.52997000  1.0 0.1460965147
H  H4  1  0.78907000  0.30763000  0.65353000  1.0 0.1353418393
H  H5  1  0.80270000  0.28821000  0.55103000  1.0 0.1103923656
H  H6  1  0.81666000  0.20703000  0.62964000  1.0 0.120712474
H  H7  1  0.62946000  0.30264000  0.73783000  1.0 0.0830443042
H  H8  1  0.60618000  0.20367000  0.73318000  1.0 0.0633862751
H  H9  1  0.55567000  0.28842000  0.67686000  1.0 0.048960455
H  H10  1  0.47273000  0.99436000  0.20091000  1.0 0.068103873
H  H11  1  0.05794000  0.97477000  0.42137000  1.0 0.0911327626
H  H12  1  0.97732000  0.05528000  0.41896000  1.0 0.0911327626
H  H13  1  0.18795000  0.98481000  0.54851000  1.0 0.068103873
H  H14  1  0.98446000  0.18871000  0.54814000  1.0 0.068103873
H  H15  1  0.24380000  0.24231000  0.52666000  1.0 0.1460965147
H  H16  1  0.95220000  0.02618000  0.58317000  1.0 0.0911327626
H  H17  1  0.03461000  0.94734000  0.57722000  1.0 0.0911327626
H  H18  1  0.62254000  0.25141000  0.46227000  1.0 0.0830443042
H  H19  1  0.73178000  0.42646000  0.52354000  1.0 0.1460965147
H  H20  1  0.67889000  0.41641000  0.44185000  1.0 0.0911327626
H  H21  1  0.76576000  0.34734000  0.46246000  1.0 0.1103923656
H  H22  1  0.66471000  0.38192000  0.66255000  1.0 0.068103873
H  H23  1  0.65825000  0.27638000  0.68453000  1.0 0.1103923656
H  H24  1  0.57018000  0.34479000  0.66666667  1.0 0.0633862751
H  H25  1  0.53124000  0.69655000  0.15699000  1.0 0.0911327626
H  H26  1  0.47667000  0.20017000  0.99371000  1.0 0.068103873
H  H27  1  0.52997000  0.24117000  0.24199000  1.0 0.1460965147
H  H28  1  0.65353000  0.78907000  0.30763000  1.0 0.1353418393
H  H29  1  0.55103000  0.80270000  0.28821000  1.0 0.1103923656
H  H30  1  0.62964000  0.81666000  0.20703000  1.0 0.120712474
H  H31  1  0.73783000  0.62946000  0.30264000  1.0 0.0830443042
H  H32  1  0.73318000  0.60618000  0.20367000  1.0 0.0633862751
H  H33  1  0.67686000  0.55567000  0.28842000  1.0 0.048960455
H  H34  1  0.20091000  0.47273000  0.99436000  1.0 0.068103873
H  H35  1  0.42137000  0.05794000  0.97477000  1.0 0.0911327626
H  H36  1  0.41896000  0.97732000  0.05528000  1.0 0.0911327626
H  H37  1  0.54851000  0.18795000  0.98481000  1.0 0.068103873
H  H38  1  0.54814000  0.98446000  0.18871000  1.0 0.068103873
H  H39  1  0.52666000  0.24380000  0.24231000  1.0 0.1460965147
H  H40  1  0.58317000  0.95220000  0.02618000  1.0 0.0911327626
H  H41  1  0.57722000  0.03461000  0.94734000  1.0 0.0911327626
H  H42  1  0.46227000  0.62254000  0.25141000  1.0 0.0830443042
H  H43  1  0.52354000  0.73178000  0.42646000  1.0 0.1460965147
H  H44  1  0.44185000  0.67889000  0.41641000  1.0 0.0911327626
H  H45  1  0.46246000  0.76576000  0.34734000  1.0 0.1103923656
H  H46  1  0.66255000  0.66471000  0.38192000  1.0 0.068103873
H  H47  1  0.68453000  0.65825000  0.27638000  1.0 0.1103923656
H  H48  1  0.66666667  0.57018000  0.34479000  1.0 0.0633862751
H  H49  1  0.15699000  0.53124000  0.69655000  1.0 0.0911327626
H  H50  1  0.99371000  0.47667000  0.20017000  1.0 0.068103873
H  H51  1  0.24199000  0.52997000  0.24117000  1.0 0.1460965147
H  H52  1  0.30763000  0.65353000  0.78907000  1.0 0.1353418393
H  H53  1  0.28821000  0.55103000  0.80270000  1.0 0.1103923656
H  H54  1  0.20703000  0.62964000  0.81666000  1.0 0.120712474
H  H55  1  0.30264000  0.73783000  0.62946000  1.0 0.0830443042
H  H56  1  0.20367000  0.73318000  0.60618000  1.0 0.0633862751
H  H57  1  0.28842000  0.67686000  0.55567000  1.0 0.048960455
H  H58  1  0.99436000  0.20091000  0.47273000  1.0 0.068103873
H  H59  1  0.97477000  0.42137000  0.05794000  1.0 0.0911327626
H  H60  1  0.05528000  0.41896000  0.97732000  1.0 0.0911327626
H  H61  1  0.98481000  0.54851000  0.18795000  1.0 0.068103873
H  H62  1  0.18871000  0.54814000  0.98446000  1.0 0.068103873
H  H63  1  0.24231000  0.52666000  0.24380000  1.0 0.1460965147
H  H64  1  0.02618000  0.58317000  0.95220000  1.0 0.0911327626
H  H65  1  0.94734000  0.57722000  0.03461000  1.0 0.0911327626
H  H66  1  0.25141000  0.46227000  0.62254000  1.0 0.0830443042
H  H67  1  0.42646000  0.52354000  0.73178000  1.0 0.1460965147
H  H68  1  0.41641000  0.44185000  0.67889000  1.0 0.0911327626
H  H69  1  0.34734000  0.46246000  0.76576000  1.0 0.1103923656
H  H70  1  0.38192000  0.66255000  0.66471000  1.0 0.068103873
H  H71  1  0.27638000  0.68453000  0.65825000  1.0 0.1103923656
H  H72  1  0.34479000  0.66666667  0.57018000  1.0 0.0633862751
H  H73  1  0.30345000  0.84301000  0.46876000  1.0 0.0911327626
H  H74  1  0.79983000  0.00629000  0.52333000  1.0 0.068103873
H  H75  1  0.75883000  0.75801000  0.47003000  1.0 0.1460965147
H  H76  1  0.21093000  0.69237000  0.34647000  1.0 0.1353418393
H  H77  1  0.19730000  0.71179000  0.44897000  1.0 0.1103923656
H  H78  1  0.18334000  0.79297000  0.37036000  1.0 0.120712474
H  H79  1  0.37054000  0.69736000  0.26217000  1.0 0.0830443042
H  H80  1  0.39382000  0.79633000  0.26682000  1.0 0.0633862751
H  H81  1  0.44433000  0.71158000  0.32314000  1.0 0.048960455
H  H82  1  0.52727000  0.00564000  0.79909000  1.0 0.068103873
H  H83  1  0.94206000  0.02523000  0.57863000  1.0 0.0911327626
H  H84  1  0.02268000  0.94472000  0.58104000  1.0 0.0911327626
H  H85  1  0.81205000  0.01519000  0.45149000  1.0 0.068103873
H  H86  1  0.01554000  0.81129000  0.45186000  1.0 0.068103873
H  H87  1  0.75620000  0.75769000  0.47334000  1.0 0.1460965147
H  H88  1  0.04780000  0.97382000  0.41683000  1.0 0.0911327626
H  H89  1  0.96539000  0.05266000  0.42278000  1.0 0.0911327626
H  H90  1  0.37746000  0.74859000  0.53773000  1.0 0.0830443042
H  H91  1  0.26822000  0.57354000  0.47646000  1.0 0.1460965147
H  H92  1  0.32111000  0.58359000  0.55815000  1.0 0.0911327626
H  H93  1  0.23424000  0.65266000  0.53754000  1.0 0.1103923656
H  H94  1  0.33529000  0.61808000  0.33745000  1.0 0.068103873
H  H95  1  0.34175000  0.72362000  0.31547000  1.0 0.1103923656
H  H96  1  0.42982000  0.65521000  0.33333333  1.0 0.0633862751
H  H97  1  0.46876000  0.30345000  0.84301000  1.0 0.0911327626
H  H98  1  0.52333000  0.79983000  0.00629000  1.0 0.068103873
H  H99  1  0.47003000  0.75883000  0.75801000  1.0 0.1460965147
H  H100  1  0.34647000  0.21093000  0.69237000  1.0 0.1353418393
H  H101  1  0.44897000  0.19730000  0.71179000  1.0 0.1103923656
H  H102  1  0.37036000  0.18334000  0.79297000  1.0 0.120712474
H  H103  1  0.26217000  0.37054000  0.69736000  1.0 0.0830443042
H  H104  1  0.26682000  0.39382000  0.79633000  1.0 0.0633862751
H  H105  1  0.32314000  0.44433000  0.71158000  1.0 0.048960455
H  H106  1  0.79909000  0.52727000  0.00564000  1.0 0.068103873
H  H107  1  0.57863000  0.94206000  0.02523000  1.0 0.0911327626
H  H108  1  0.58104000  0.02268000  0.94472000  1.0 0.0911327626
H  H109  1  0.45149000  0.81205000  0.01519000  1.0 0.068103873
H  H110  1  0.45186000  0.01554000  0.81129000  1.0 0.068103873
H  H111  1  0.47334000  0.75620000  0.75769000  1.0 0.1460965147
H  H112  1  0.41683000  0.04780000  0.97382000  1.0 0.0911327626
H  H113  1  0.42278000  0.96539000  0.05266000  1.0 0.0911327626
H  H114  1  0.53773000  0.37746000  0.74859000  1.0 0.0830443042
H  H115  1  0.47646000  0.26822000  0.57354000  1.0 0.1460965147
H  H116  1  0.55815000  0.32111000  0.58359000  1.0 0.0911327626
H  H117  1  0.53754000  0.23424000  0.65266000  1.0 0.1103923656
H  H118  1  0.33745000  0.33529000  0.61808000  1.0 0.068103873
H  H119  1  0.31547000  0.34175000  0.72362000  1.0 0.1103923656
H  H120  1  0.33333333  0.42982000  0.65521000  1.0 0.0633862751
H  H121  1  0.84301000  0.46876000  0.30345000  1.0 0.0911327626
H  H122  1  0.00629000  0.52333000  0.79983000  1.0 0.068103873
H  H123  1  0.75801000  0.47003000  0.75883000  1.0 0.1460965147
H  H124  1  0.69237000  0.34647000  0.21093000  1.0 0.1353418393
H  H125  1  0.71179000  0.44897000  0.19730000  1.0 0.1103923656
H  H126  1  0.79297000  0.37036000  0.18334000  1.0 0.120712474
H  H127  1  0.69736000  0.26217000  0.37054000  1.0 0.0830443042
H  H128  1  0.79633000  0.26682000  0.39382000  1.0 0.0633862751
H  H129  1  0.71158000  0.32314000  0.44433000  1.0 0.048960455
H  H130  1  0.00564000  0.79909000  0.52727000  1.0 0.068103873
H  H131  1  0.02523000  0.57863000  0.94206000  1.0 0.0911327626
H  H132  1  0.94472000  0.58104000  0.02268000  1.0 0.0911327626
H  H133  1  0.01519000  0.45149000  0.81205000  1.0 0.068103873
H  H134  1  0.81129000  0.45186000  0.01554000  1.0 0.068103873
H  H135  1  0.75769000  0.47334000  0.75620000  1.0 0.1460965147
H  H136  1  0.97382000  0.41683000  0.04780000  1.0 0.0911327626
H  H137  1  0.05266000  0.42278000  0.96539000  1.0 0.0911327626
H  H138  1  0.74859000  0.53773000  0.37746000  1.0 0.0830443042
H  H139  1  0.57354000  0.47646000  0.26822000  1.0 0.1460965147
H  H140  1  0.58359000  0.55815000  0.32111000  1.0 0.0911327626
H  H141  1  0.65266000  0.53754000  0.23424000  1.0 0.1103923656
H  H142  1  0.61808000  0.33745000  0.33529000  1.0 0.068103873
H  H143  1  0.72362000  0.31547000  0.34175000  1.0 0.1103923656
H  H144  1  0.65521000  0.33333333  0.42982000  1.0 0.0633862751
C  C1  1  0.33380000  0.07570000  0.51560000  1.0 0.4407634549
C  C2  1  0.65440000  0.19340000  0.56740000  1.0 -0.0133558845
C  C3  1  0.51620000  0.07540000  0.33400000  1.0 0.4407634549
C  C4  1  0.23560000  0.11240000  0.50530000  1.0 0.048960455
C  C5  1  0.50300000  0.11230000  0.23650000  1.0 0.048960455
C  C6  1  0.17810000  0.05460000  0.48330000  1.0 -0.0499802175
C  C7  1  0.20270000  0.20330000  0.51520000  1.0 -0.1977520225
C  C8  1  0.78160000  0.26500000  0.61300000  1.0 -0.5399681069
C  C9  1  0.61270000  0.26280000  0.69890000  1.0 -0.2199122694
C  C10  1  0.48090000  0.05480000  0.17870000  1.0 -0.0597749164
C  C11  1  0.08780000  0.08770000  0.47100000  1.0 0.0203908861
C  C12  1  0.02350000  0.02220000  0.45560000  1.0 -0.1241323898
C  C13  1  0.23260000  0.10910000  0.52890000  1.0 0.048960455
C  C14  1  0.16800000  0.04740000  0.54060000  1.0 -0.0597749164
C  C15  1  0.07620000  0.07570000  0.54090000  1.0 0.0203908861
C  C16  1  0.04700000  0.16860000  0.54040000  1.0 -0.0597749164
C  C17  1  0.10950000  0.23280000  0.52850000  1.0 0.048960455
C  C18  1  0.20190000  0.20090000  0.52800000  1.0 -0.1977520225
C  C19  1  0.00920000  0.00580000  0.54700000  1.0 -0.1303004424
C  C20  1  0.61430000  0.25300000  0.52540000  1.0 0.0365838024
C  C21  1  0.71300000  0.38400000  0.48900000  1.0 -0.2452451524
C  C22  1  0.63500000  0.33200000  0.64980000  1.0 -0.0846171143
C  C23  1  0.51560000  0.33380000  0.07570000  1.0 0.4407634549
C  C24  1  0.56740000  0.65440000  0.19340000  1.0 -0.0133558845
C  C25  1  0.33400000  0.51620000  0.07540000  1.0 0.4407634549
C  C26  1  0.50530000  0.23560000  0.11240000  1.0 0.048960455
C  C27  1  0.23650000  0.50300000  0.11230000  1.0 0.048960455
C  C28  1  0.48330000  0.17810000  0.05460000  1.0 -0.0499802175
C  C29  1  0.51520000  0.20270000  0.20330000  1.0 -0.1977520225
C  C30  1  0.61300000  0.78160000  0.26500000  1.0 -0.5399681069
C  C31  1  0.69890000  0.61270000  0.26280000  1.0 -0.2199122694
C  C32  1  0.17870000  0.48090000  0.05480000  1.0 -0.0597749164
C  C33  1  0.47100000  0.08780000  0.08770000  1.0 0.0203908861
C  C34  1  0.45560000  0.02350000  0.02220000  1.0 -0.1241323898
C  C35  1  0.52890000  0.23260000  0.10910000  1.0 0.048960455
C  C36  1  0.54060000  0.16800000  0.04740000  1.0 -0.0597749164
C  C37  1  0.54090000  0.07620000  0.07570000  1.0 0.0203908861
C  C38  1  0.54040000  0.04700000  0.16860000  1.0 -0.0597749164
C  C39  1  0.52850000  0.10950000  0.23280000  1.0 0.048960455
C  C40  1  0.52800000  0.20190000  0.20090000  1.0 -0.1977520225
C  C41  1  0.54700000  0.00920000  0.00580000  1.0 -0.1303004424
C  C42  1  0.52540000  0.61430000  0.25300000  1.0 0.0365838024
C  C43  1  0.48900000  0.71300000  0.38400000  1.0 -0.2452451524
C  C44  1  0.64980000  0.63500000  0.33200000  1.0 -0.0846171143
C  C45  1  0.07570000  0.51560000  0.33380000  1.0 0.4407634549
C  C46  1  0.19340000  0.56740000  0.65440000  1.0 -0.0133558845
C  C47  1  0.07540000  0.33400000  0.51620000  1.0 0.4407634549
C  C48  1  0.11240000  0.50530000  0.23560000  1.0 0.048960455
C  C49  1  0.11230000  0.23650000  0.50300000  1.0 0.048960455
C  C50  1  0.05460000  0.48330000  0.17810000  1.0 -0.0499802175
C  C51  1  0.20330000  0.51520000  0.20270000  1.0 -0.1977520225
C  C52  1  0.26500000  0.61300000  0.78160000  1.0 -0.5399681069
C  C53  1  0.26280000  0.69890000  0.61270000  1.0 -0.2199122694
C  C54  1  0.05480000  0.17870000  0.48090000  1.0 -0.0597749164
C  C55  1  0.08770000  0.47100000  0.08780000  1.0 0.0203908861
C  C56  1  0.02220000  0.45560000  0.02350000  1.0 -0.1241323898
C  C57  1  0.10910000  0.52890000  0.23260000  1.0 0.048960455
C  C58  1  0.04740000  0.54060000  0.16800000  1.0 -0.0597749164
C  C59  1  0.07570000  0.54090000  0.07620000  1.0 0.0203908861
C  C60  1  0.16860000  0.54040000  0.04700000  1.0 -0.0597749164
C  C61  1  0.23280000  0.52850000  0.10950000  1.0 0.048960455
C  C62  1  0.20090000  0.52800000  0.20190000  1.0 -0.1977520225
C  C63  1  0.00580000  0.54700000  0.00920000  1.0 -0.1303004424
C  C64  1  0.25300000  0.52540000  0.61430000  1.0 0.0365838024
C  C65  1  0.38400000  0.48900000  0.71300000  1.0 -0.2452451524
C  C66  1  0.33200000  0.64980000  0.63500000  1.0 -0.0846171143
C  C67  1  0.66620000  0.92430000  0.48440000  1.0 0.4407634549
C  C68  1  0.34560000  0.80660000  0.43260000  1.0 -0.0133558845
C  C69  1  0.48380000  0.92460000  0.66600000  1.0 0.4407634549
C  C70  1  0.76440000  0.88760000  0.49470000  1.0 0.048960455
C  C71  1  0.49700000  0.88770000  0.76350000  1.0 0.048960455
C  C72  1  0.82190000  0.94540000  0.51670000  1.0 -0.0499802175
C  C73  1  0.79730000  0.79670000  0.48480000  1.0 -0.1977520225
C  C74  1  0.21840000  0.73500000  0.38700000  1.0 -0.5399681069
C  C75  1  0.38730000  0.73720000  0.30110000  1.0 -0.2199122694
C  C76  1  0.51910000  0.94520000  0.82130000  1.0 -0.0597749164
C  C77  1  0.91220000  0.91230000  0.52900000  1.0 0.0203908861
C  C78  1  0.97650000  0.97780000  0.54440000  1.0 -0.1241323898
C  C79  1  0.76740000  0.89090000  0.47110000  1.0 0.048960455
C  C80  1  0.83200000  0.95260000  0.45940000  1.0 -0.0597749164
C  C81  1  0.92380000  0.92430000  0.45910000  1.0 0.0203908861
C  C82  1  0.95300000  0.83140000  0.45960000  1.0 -0.0597749164
C  C83  1  0.89050000  0.76720000  0.47150000  1.0 0.048960455
C  C84  1  0.79810000  0.79910000  0.47200000  1.0 -0.1977520225
C  C85  1  0.99080000  0.99420000  0.45300000  1.0 -0.1303004424
C  C86  1  0.38570000  0.74700000  0.47460000  1.0 0.0365838024
C  C87  1  0.28700000  0.61600000  0.51100000  1.0 -0.2452451524
C  C88  1  0.36500000  0.66800000  0.35020000  1.0 -0.0846171143
C  C89  1  0.48440000  0.66620000  0.92430000  1.0 0.4407634549
C  C90  1  0.43260000  0.34560000  0.80660000  1.0 -0.0133558845
C  C91  1  0.66600000  0.48380000  0.92460000  1.0 0.4407634549
C  C92  1  0.49470000  0.76440000  0.88760000  1.0 0.048960455
C  C93  1  0.76350000  0.49700000  0.88770000  1.0 0.048960455
C  C94  1  0.51670000  0.82190000  0.94540000  1.0 -0.0499802175
C  C95  1  0.48480000  0.79730000  0.79670000  1.0 -0.1945246992
C  C96  1  0.38700000  0.21840000  0.73500000  1.0 -0.5399681069
C  C97  1  0.30110000  0.38730000  0.73720000  1.0 -0.2199122694
C  C98  1  0.82130000  0.51910000  0.94520000  1.0 -0.0597749164
C  C99  1  0.52900000  0.91220000  0.91230000  1.0 0.0203908861
C  C100  1  0.54440000  0.97650000  0.97780000  1.0 -0.1241323898
C  C101  1  0.47110000  0.76740000  0.89090000  1.0 0.048960455
C  C102  1  0.45940000  0.83200000  0.95260000  1.0 -0.0597749164
C  C103  1  0.45910000  0.92380000  0.92430000  1.0 0.0203908861
C  C104  1  0.45960000  0.95300000  0.83140000  1.0 -0.0597749164
C  C105  1  0.47150000  0.89050000  0.76720000  1.0 0.048960455
C  C106  1  0.47200000  0.79810000  0.79910000  1.0 -0.1977520225
C  C107  1  0.45300000  0.99080000  0.99420000  1.0 -0.1303004424
C  C108  1  0.47460000  0.38570000  0.74700000  1.0 0.0365838024
C  C109  1  0.51100000  0.28700000  0.61600000  1.0 -0.2452451524
C  C110  1  0.35020000  0.36500000  0.66800000  1.0 -0.0846171143
C  C111  1  0.92430000  0.48440000  0.66620000  1.0 0.4407634549
C  C112  1  0.80660000  0.43260000  0.34560000  1.0 -0.0133558845
C  C113  1  0.92460000  0.66600000  0.48380000  1.0 0.4407634549
C  C114  1  0.88760000  0.49470000  0.76440000  1.0 0.048960455
C  C115  1  0.88770000  0.76350000  0.49700000  1.0 0.048960455
C  C116  1  0.94540000  0.51670000  0.82190000  1.0 -0.0499802175
C  C117  1  0.79670000  0.48480000  0.79730000  1.0 -0.1945246992
C  C118  1  0.73500000  0.38700000  0.21840000  1.0 -0.5399681069
C  C119  1  0.73720000  0.30110000  0.38730000  1.0 -0.2199122694
C  C120  1  0.94520000  0.82130000  0.51910000  1.0 -0.0597749164
C  C121  1  0.91230000  0.52900000  0.91220000  1.0 0.0203908861
C  C122  1  0.97780000  0.54440000  0.97650000  1.0 -0.1241323898
C  C123  1  0.89090000  0.47110000  0.76740000  1.0 0.048960455
C  C124  1  0.95260000  0.45940000  0.83200000  1.0 -0.0597749164
C  C125  1  0.92430000  0.45910000  0.92380000  1.0 0.0203908861
C  C126  1  0.83140000  0.45960000  0.95300000  1.0 -0.0597749164
C  C127  1  0.76720000  0.47150000  0.89050000  1.0 0.048960455
C  C128  1  0.79910000  0.47200000  0.79810000  1.0 -0.1977520225
C  C129  1  0.99420000  0.45300000  0.99080000  1.0 -0.1303004424
C  C130  1  0.74700000  0.47460000  0.38570000  1.0 0.0365838024
C  C131  1  0.61600000  0.51100000  0.28700000  1.0 -0.2452451524
C  C132  1  0.66800000  0.35020000  0.36500000  1.0 -0.0846171143
N  N1  1  0.68530000  0.25280000  0.61990000  1.0 0.120712474
N  N2  1  0.65400000  0.32300000  0.55140000  1.0 -0.1130159807
N  N3  1  0.61990000  0.68530000  0.25280000  1.0 0.120712474
N  N4  1  0.55140000  0.65400000  0.32300000  1.0 -0.1130159807
N  N5  1  0.25280000  0.61990000  0.68530000  1.0 0.120712474
N  N6  1  0.32300000  0.55140000  0.65400000  1.0 -0.1130159807
N  N7  1  0.31470000  0.74720000  0.38010000  1.0 0.120712474
N  N8  1  0.34600000  0.67700000  0.44860000  1.0 -0.1130159807
N  N9  1  0.38010000  0.31470000  0.74720000  1.0 0.120712474
N  N10  1  0.44860000  0.34600000  0.67700000  1.0 -0.1130159807
N  N11  1  0.74720000  0.38010000  0.31470000  1.0 0.120712474
N  N12  1  0.67700000  0.44860000  0.34600000  1.0 -0.1130159807
O  O1  1  0.38610000  0.12930000  0.53040000  1.0 -0.5013504636
O  O2  1  0.56850000  0.18970000  0.56970000  1.0 -0.2324434059
O  O3  1  0.64300000  0.00600000  0.49990000  1.0 -0.5252954798
O  O4  1  0.53050000  0.12910000  0.38620000  1.0 -0.5013504636
O  O5  1  0.49930000  0.00520000  0.64320000  1.0 -0.4829200544
O  O6  1  0.53040000  0.38610000  0.12930000  1.0 -0.5013504636
O  O7  1  0.56970000  0.56850000  0.18970000  1.0 -0.2324434059
O  O8  1  0.49990000  0.64300000  0.00600000  1.0 -0.5252954798
O  O9  1  0.38620000  0.53050000  0.12910000  1.0 -0.5013504636
O  O10  1  0.64320000  0.49930000  0.00520000  1.0 -0.4829200544
O  O11  1  0.12930000  0.53040000  0.38610000  1.0 -0.5013504636
O  O12  1  0.18970000  0.56970000  0.56850000  1.0 -0.2324434059
O  O13  1  0.00600000  0.49990000  0.64300000  1.0 -0.5252954798
O  O14  1  0.12910000  0.38620000  0.53050000  1.0 -0.5013504636
O  O15  1  0.00520000  0.64320000  0.49930000  1.0 -0.4829200544
O  O16  1  0.61390000  0.87070000  0.46960000  1.0 -0.5013504636
O  O17  1  0.43150000  0.81030000  0.43030000  1.0 -0.2324434059
O  O18  1  0.35700000  0.99400000  0.50010000  1.0 -0.5252954798
O  O19  1  0.46950000  0.87090000  0.61380000  1.0 -0.5013504636
O  O20  1  0.50070000  0.99480000  0.35680000  1.0 -0.4829200544
O  O21  1  0.46960000  0.61390000  0.87070000  1.0 -0.5013504636
O  O22  1  0.43030000  0.43150000  0.81030000  1.0 -0.2324434059
O  O23  1  0.50010000  0.35700000  0.99400000  1.0 -0.5252954798
O  O24  1  0.61380000  0.46950000  0.87090000  1.0 -0.5013504636
O  O25  1  0.35680000  0.50070000  0.99480000  1.0 -0.4829200544
O  O26  1  0.87070000  0.46960000  0.61390000  1.0 -0.5013504636
O  O27  1  0.81030000  0.43030000  0.43150000  1.0 -0.2324434059
O  O28  1  0.99400000  0.50010000  0.35700000  1.0 -0.5252954798
O  O29  1  0.87090000  0.61380000  0.46950000  1.0 -0.5013504636
O  O30  1  0.99480000  0.35680000  0.50070000  1.0 -0.4829200544
