# DDEC6 charges by PACMAN v1.1 (https://github.com/mtap-research/PACMAN-charge/)
data_OCUMUX_ASR_pacman
_symmetry_space_group_name_H-M   'P 1'
_cell_length_a   25.84700000
_cell_length_b   16.90430000
_cell_length_c   13.22510000
_cell_angle_alpha   90.00000000
_cell_angle_beta   105.90000000
_cell_angle_gamma   90.00000000
_symmetry_Int_Tables_number   1
_chemical_formula_structural   MnH2C8NO6
_chemical_formula_sum   'Mn16 H32 C128 N16 O96'
_cell_volume   5557.30931066
_cell_formula_units_Z   16
loop_
 _symmetry_equiv_pos_site_id
 _symmetry_equiv_pos_as_xyz
  1  'x, y, z'
loop_
 _atom_site_type_symbol
 _atom_site_label
 _atom_site_symmetry_multiplicity
 _atom_site_fract_x
 _atom_site_fract_y
 _atom_site_fract_z
 _atom_site_occupancy
 _atom_site_charge
Mn  Mn1  1  0.14250000  0.06427000  0.38179000  1.0 0.9969312374
Mn  Mn2  1  0.85750000  0.93573000  0.61821000  1.0 0.9969312374
Mn  Mn3  1  0.85750000  0.06427000  0.11821000  1.0 0.9969312374
Mn  Mn4  1  0.14250000  0.93573000  0.88179000  1.0 0.9969312374
Mn  Mn5  1  0.64250000  0.56427000  0.38179000  1.0 0.9969312374
Mn  Mn6  1  0.35750000  0.43573000  0.61821000  1.0 0.9969312374
Mn  Mn7  1  0.35750000  0.56427000  0.11821000  1.0 0.9969312374
Mn  Mn8  1  0.64250000  0.43573000  0.88179000  1.0 0.9969312374
Mn  Mn9  1  0.15933000  0.00171000  0.14735000  1.0 0.9609883105
Mn  Mn10  1  0.84067000  0.99829000  0.85265000  1.0 0.9609883105
Mn  Mn11  1  0.84067000  0.00171000  0.35265000  1.0 0.9609883105
Mn  Mn12  1  0.15933000  0.99829000  0.64735000  1.0 0.9609883105
Mn  Mn13  1  0.65933000  0.50171000  0.14735000  1.0 0.9609883105
Mn  Mn14  1  0.34067000  0.49829000  0.85265000  1.0 0.9609883105
Mn  Mn15  1  0.34067000  0.50171000  0.35265000  1.0 0.9609883105
Mn  Mn16  1  0.65933000  0.49829000  0.64735000  1.0 0.9609883105
H  H1  1  0.05928000  0.80714000  0.51805000  1.0 0.1424015363
H  H2  1  0.94072000  0.19286000  0.48195000  1.0 0.1424015363
H  H3  1  0.94072000  0.80714000  0.98195000  1.0 0.1424015363
H  H4  1  0.05928000  0.19286000  0.01805000  1.0 0.1424015363
H  H5  1  0.55928000  0.30714000  0.51805000  1.0 0.1424015363
H  H6  1  0.44072000  0.69286000  0.48195000  1.0 0.1424015363
H  H7  1  0.44072000  0.30714000  0.98195000  1.0 0.1424015363
H  H8  1  0.55928000  0.69286000  0.01805000  1.0 0.1424015363
H  H9  1  0.97056000  0.99507000  0.32224000  1.0 0.1248603708
H  H10  1  0.02944000  0.00493000  0.67776000  1.0 0.1248603708
H  H11  1  0.02944000  0.99507000  0.17776000  1.0 0.1248603708
H  H12  1  0.97056000  0.00493000  0.82224000  1.0 0.1248603708
H  H13  1  0.47056000  0.49507000  0.32224000  1.0 0.1248603708
H  H14  1  0.52944000  0.50493000  0.67776000  1.0 0.1248603708
H  H15  1  0.52944000  0.49507000  0.17776000  1.0 0.1248603708
H  H16  1  0.47056000  0.50493000  0.82224000  1.0 0.1248603708
H  H17  1  0.80979000  0.60534000  0.18780000  1.0 0.1424015363
H  H18  1  0.19021000  0.39466000  0.81220000  1.0 0.1424015363
H  H19  1  0.19021000  0.60534000  0.31220000  1.0 0.1424015363
H  H20  1  0.80979000  0.39466000  0.68780000  1.0 0.1424015363
H  H21  1  0.30979000  0.10534000  0.18780000  1.0 0.1424015363
H  H22  1  0.69021000  0.89466000  0.81220000  1.0 0.1424015363
H  H23  1  0.69021000  0.10534000  0.31220000  1.0 0.1424015363
H  H24  1  0.30979000  0.89466000  0.68780000  1.0 0.1424015363
H  H25  1  0.76228000  0.74597000  0.42244000  1.0 0.1248603708
H  H26  1  0.23772000  0.25403000  0.57756000  1.0 0.1248603708
H  H27  1  0.23772000  0.74597000  0.07756000  1.0 0.1248603708
H  H28  1  0.76228000  0.25403000  0.92244000  1.0 0.1248603708
H  H29  1  0.26228000  0.24597000  0.42244000  1.0 0.1248603708
H  H30  1  0.73772000  0.75403000  0.57756000  1.0 0.1248603708
H  H31  1  0.73772000  0.24597000  0.07756000  1.0 0.1248603708
H  H32  1  0.26228000  0.75403000  0.92244000  1.0 0.1248603708
C  C1  1  0.06959000  0.95959000  0.46221000  1.0 0.6010231649
C  C2  1  0.93041000  0.04041000  0.53779000  1.0 0.6010231649
C  C3  1  0.93041000  0.95959000  0.03779000  1.0 0.6010231649
C  C4  1  0.06959000  0.04041000  0.96221000  1.0 0.6010231649
C  C5  1  0.56959000  0.45959000  0.46221000  1.0 0.6010231649
C  C6  1  0.43041000  0.54041000  0.53779000  1.0 0.6010231649
C  C7  1  0.43041000  0.45959000  0.03779000  1.0 0.6010231649
C  C8  1  0.56959000  0.54041000  0.96221000  1.0 0.6010231649
C  C9  1  0.02042000  0.90862000  0.42741000  1.0 -0.020382758
C  C10  1  0.97958000  0.09138000  0.57259000  1.0 -0.020382758
C  C11  1  0.97958000  0.90862000  0.07259000  1.0 -0.020382758
C  C12  1  0.02042000  0.09138000  0.92741000  1.0 -0.020382758
C  C13  1  0.52042000  0.40862000  0.42741000  1.0 -0.020382758
C  C14  1  0.47958000  0.59138000  0.57259000  1.0 -0.020382758
C  C15  1  0.47958000  0.40862000  0.07259000  1.0 -0.020382758
C  C16  1  0.52042000  0.59138000  0.92741000  1.0 -0.020382758
C  C17  1  0.02232000  0.83064000  0.46480000  1.0 -0.0975554993
C  C18  1  0.97768000  0.16936000  0.53520000  1.0 -0.0975554993
C  C19  1  0.97768000  0.83064000  0.03520000  1.0 -0.0975554993
C  C20  1  0.02232000  0.16936000  0.96480000  1.0 -0.0975554993
C  C21  1  0.52232000  0.33064000  0.46480000  1.0 -0.0975554993
C  C22  1  0.47768000  0.66936000  0.53520000  1.0 -0.0975554993
C  C23  1  0.47768000  0.33064000  0.03520000  1.0 -0.0975554993
C  C24  1  0.52232000  0.66936000  0.96480000  1.0 -0.0975554993
C  C25  1  0.97754000  0.78117000  0.43225000  1.0 0.0485540845
C  C26  1  0.02246000  0.21883000  0.56775000  1.0 0.0485540845
C  C27  1  0.02246000  0.78117000  0.06775000  1.0 0.0485540845
C  C28  1  0.97754000  0.21883000  0.93225000  1.0 0.0485540845
C  C29  1  0.47754000  0.28117000  0.43225000  1.0 0.0485540845
C  C30  1  0.52246000  0.71883000  0.56775000  1.0 0.0485540845
C  C31  1  0.52246000  0.28117000  0.06775000  1.0 0.0485540845
C  C32  1  0.47754000  0.71883000  0.93225000  1.0 0.0485540845
C  C33  1  0.92838000  0.80640000  0.36238000  1.0 0.0403784451
C  C34  1  0.07162000  0.19360000  0.63762000  1.0 0.0403784451
C  C35  1  0.07162000  0.80640000  0.13762000  1.0 0.0403784451
C  C36  1  0.92838000  0.19360000  0.86238000  1.0 0.0403784451
C  C37  1  0.42838000  0.30640000  0.36238000  1.0 0.0403784451
C  C38  1  0.57162000  0.69360000  0.63762000  1.0 0.0403784451
C  C39  1  0.57162000  0.30640000  0.13762000  1.0 0.0403784451
C  C40  1  0.42838000  0.69360000  0.86238000  1.0 0.0403784451
C  C41  1  0.92724000  0.88603000  0.32498000  1.0 -0.0975554993
C  C42  1  0.07276000  0.11397000  0.67502000  1.0 -0.0975554993
C  C43  1  0.07276000  0.88603000  0.17502000  1.0 -0.0975554993
C  C44  1  0.92724000  0.11397000  0.82498000  1.0 -0.0975554993
C  C45  1  0.42724000  0.38603000  0.32498000  1.0 -0.0975554993
C  C46  1  0.57276000  0.61397000  0.67502000  1.0 -0.0975554993
C  C47  1  0.57276000  0.38603000  0.17502000  1.0 -0.0975554993
C  C48  1  0.42724000  0.61397000  0.82498000  1.0 -0.0975554993
C  C49  1  0.97278000  0.93556000  0.35577000  1.0 -0.0891218546
C  C50  1  0.02722000  0.06444000  0.64423000  1.0 -0.0891218546
C  C51  1  0.02722000  0.93556000  0.14423000  1.0 -0.0891218546
C  C52  1  0.97278000  0.06444000  0.85577000  1.0 -0.0891218546
C  C53  1  0.47278000  0.43556000  0.35577000  1.0 -0.0891218546
C  C54  1  0.52722000  0.56444000  0.64423000  1.0 -0.0891218546
C  C55  1  0.52722000  0.43556000  0.14423000  1.0 -0.0891218546
C  C56  1  0.47278000  0.56444000  0.85577000  1.0 -0.0891218546
C  C57  1  0.87697000  0.75948000  0.33735000  1.0 0.0403784451
C  C58  1  0.12303000  0.24052000  0.66265000  1.0 0.0403784451
C  C59  1  0.12303000  0.75948000  0.16265000  1.0 0.0403784451
C  C60  1  0.87697000  0.24052000  0.83735000  1.0 0.0403784451
C  C61  1  0.37697000  0.25948000  0.33735000  1.0 0.0403784451
C  C62  1  0.62303000  0.74052000  0.66265000  1.0 0.0403784451
C  C63  1  0.62303000  0.25948000  0.16265000  1.0 0.0403784451
C  C64  1  0.37697000  0.74052000  0.83735000  1.0 0.0403784451
C  C65  1  0.86325000  0.69717000  0.26367000  1.0 0.0485540845
C  C66  1  0.13675000  0.30283000  0.73633000  1.0 0.0485540845
C  C67  1  0.13675000  0.69717000  0.23633000  1.0 0.0485540845
C  C68  1  0.86325000  0.30283000  0.76367000  1.0 0.0485540845
C  C69  1  0.36325000  0.19717000  0.26367000  1.0 0.0485540845
C  C70  1  0.63675000  0.80283000  0.73633000  1.0 0.0485540845
C  C71  1  0.63675000  0.19717000  0.23633000  1.0 0.0485540845
C  C72  1  0.36325000  0.80283000  0.76367000  1.0 0.0485540845
C  C73  1  0.81650000  0.65226000  0.24683000  1.0 -0.0975554993
C  C74  1  0.18350000  0.34774000  0.75317000  1.0 -0.0975554993
C  C75  1  0.18350000  0.65226000  0.25317000  1.0 -0.0975554993
C  C76  1  0.81650000  0.34774000  0.74683000  1.0 -0.0975554993
C  C77  1  0.31650000  0.15226000  0.24683000  1.0 -0.0975554993
C  C78  1  0.68350000  0.84774000  0.75317000  1.0 -0.0975554993
C  C79  1  0.68350000  0.15226000  0.25317000  1.0 -0.0975554993
C  C80  1  0.31650000  0.84774000  0.74683000  1.0 -0.0975554993
C  C81  1  0.77956000  0.66653000  0.30593000  1.0 -0.020382758
C  C82  1  0.22044000  0.33347000  0.69407000  1.0 -0.020382758
C  C83  1  0.22044000  0.66653000  0.19407000  1.0 -0.020382758
C  C84  1  0.77956000  0.33347000  0.80593000  1.0 -0.020382758
C  C85  1  0.27956000  0.16653000  0.30593000  1.0 -0.020382758
C  C86  1  0.72044000  0.83347000  0.69407000  1.0 -0.020382758
C  C87  1  0.72044000  0.16653000  0.19407000  1.0 -0.020382758
C  C88  1  0.27956000  0.83347000  0.80593000  1.0 -0.020382758
C  C89  1  0.79056000  0.73157000  0.37658000  1.0 -0.0975554993
C  C90  1  0.20944000  0.26843000  0.62342000  1.0 -0.0975554993
C  C91  1  0.20944000  0.73157000  0.12342000  1.0 -0.0975554993
C  C92  1  0.79056000  0.26843000  0.87658000  1.0 -0.0975554993
C  C93  1  0.29056000  0.23157000  0.37658000  1.0 -0.0975554993
C  C94  1  0.70944000  0.76843000  0.62342000  1.0 -0.0975554993
C  C95  1  0.70944000  0.23157000  0.12342000  1.0 -0.0975554993
C  C96  1  0.29056000  0.76843000  0.87658000  1.0 -0.0975554993
C  C97  1  0.83764000  0.77822000  0.39034000  1.0 -0.0598616714
C  C98  1  0.16236000  0.22178000  0.60966000  1.0 -0.0598616714
C  C99  1  0.16236000  0.77822000  0.10966000  1.0 -0.0598616714
C  C100  1  0.83764000  0.22178000  0.89034000  1.0 -0.0598616714
C  C101  1  0.33764000  0.27822000  0.39034000  1.0 -0.0598616714
C  C102  1  0.66236000  0.72178000  0.60966000  1.0 -0.0598616714
C  C103  1  0.66236000  0.27822000  0.10966000  1.0 -0.0598616714
C  C104  1  0.33764000  0.72178000  0.89034000  1.0 -0.0598616714
C  C105  1  0.84906000  0.84429000  0.47024000  1.0 0.5733215485
C  C106  1  0.15094000  0.15571000  0.52976000  1.0 0.5733215485
C  C107  1  0.15094000  0.84429000  0.02976000  1.0 0.5733215485
C  C108  1  0.84906000  0.15571000  0.97024000  1.0 0.5733215485
C  C109  1  0.34906000  0.34429000  0.47024000  1.0 0.5733215485
C  C110  1  0.65094000  0.65571000  0.52976000  1.0 0.5733215485
C  C111  1  0.65094000  0.34429000  0.02976000  1.0 0.5733215485
C  C112  1  0.34906000  0.65571000  0.97024000  1.0 0.5733215485
C  C113  1  0.23124000  0.11331000  0.29171000  1.0 0.6074316029
C  C114  1  0.76876000  0.88669000  0.70829000  1.0 0.6074316029
C  C115  1  0.76876000  0.11331000  0.20829000  1.0 0.6074316029
C  C116  1  0.23124000  0.88669000  0.79171000  1.0 0.6074316029
C  C117  1  0.73124000  0.61331000  0.29171000  1.0 0.6074316029
C  C118  1  0.26876000  0.38669000  0.70829000  1.0 0.6074316029
C  C119  1  0.26876000  0.61331000  0.20829000  1.0 0.6074316029
C  C120  1  0.73124000  0.38669000  0.79171000  1.0 0.6074316029
C  C121  1  0.12059000  0.91078000  0.26208000  1.0 0.5320008844
C  C122  1  0.87941000  0.08922000  0.73792000  1.0 0.5320008844
C  C123  1  0.87941000  0.91078000  0.23792000  1.0 0.5320008844
C  C124  1  0.12059000  0.08922000  0.76208000  1.0 0.5320008844
C  C125  1  0.62059000  0.41078000  0.26208000  1.0 0.5320008844
C  C126  1  0.37941000  0.58922000  0.73792000  1.0 0.5320008844
C  C127  1  0.37941000  0.41078000  0.23792000  1.0 0.5320008844
C  C128  1  0.62059000  0.58922000  0.76208000  1.0 0.5320008844
N  N1  1  0.98515000  0.69847000  0.47335000  1.0 0.5320008844
N  N2  1  0.01485000  0.30153000  0.52665000  1.0 0.5320008844
N  N3  1  0.01485000  0.69847000  0.02665000  1.0 0.5320008844
N  N4  1  0.98515000  0.30153000  0.97335000  1.0 0.5320008844
N  N5  1  0.48515000  0.19847000  0.47335000  1.0 0.5320008844
N  N6  1  0.51485000  0.80153000  0.52665000  1.0 0.5320008844
N  N7  1  0.51485000  0.19847000  0.02665000  1.0 0.5320008844
N  N8  1  0.48515000  0.80153000  0.97335000  1.0 0.5320008844
N  N9  1  0.89952000  0.67762000  0.19714000  1.0 0.5320008844
N  N10  1  0.10048000  0.32238000  0.80286000  1.0 0.5320008844
N  N11  1  0.10048000  0.67762000  0.30286000  1.0 0.5320008844
N  N12  1  0.89952000  0.32238000  0.69714000  1.0 0.5320008844
N  N13  1  0.39952000  0.17762000  0.19714000  1.0 0.5320008844
N  N14  1  0.60048000  0.82238000  0.80286000  1.0 0.5320008844
N  N15  1  0.60048000  0.17762000  0.30286000  1.0 0.5320008844
N  N16  1  0.39952000  0.82238000  0.69714000  1.0 0.5320008844
O  O1  1  0.88894000  0.61777000  0.14016000  1.0 -0.3085416991
O  O2  1  0.11106000  0.38223000  0.85984000  1.0 -0.3085416991
O  O3  1  0.11106000  0.61777000  0.35984000  1.0 -0.3085416991
O  O4  1  0.88894000  0.38223000  0.64016000  1.0 -0.3085416991
O  O5  1  0.38894000  0.11777000  0.14016000  1.0 -0.3085416991
O  O6  1  0.61106000  0.88223000  0.85984000  1.0 -0.3085416991
O  O7  1  0.61106000  0.11777000  0.35984000  1.0 -0.3085416991
O  O8  1  0.38894000  0.88223000  0.64016000  1.0 -0.3085416991
O  O9  1  0.07766000  0.01270000  0.39927000  1.0 -0.5283849861
O  O10  1  0.92234000  0.98730000  0.60073000  1.0 -0.5283849861
O  O11  1  0.92234000  0.01270000  0.10073000  1.0 -0.5283849861
O  O12  1  0.07766000  0.98730000  0.89927000  1.0 -0.5283849861
O  O13  1  0.57766000  0.51270000  0.39927000  1.0 -0.5283849861
O  O14  1  0.42234000  0.48730000  0.60073000  1.0 -0.5283849861
O  O15  1  0.42234000  0.51270000  0.10073000  1.0 -0.5283849861
O  O16  1  0.57766000  0.48730000  0.89927000  1.0 -0.5283849861
O  O17  1  0.10114000  0.94500000  0.55589000  1.0 -0.5406439814
O  O18  1  0.89886000  0.05500000  0.44411000  1.0 -0.5406439814
O  O19  1  0.89886000  0.94500000  0.94411000  1.0 -0.5406439814
O  O20  1  0.10114000  0.05500000  0.05589000  1.0 -0.5406439814
O  O21  1  0.60114000  0.44500000  0.55589000  1.0 -0.5406439814
O  O22  1  0.39886000  0.55500000  0.44411000  1.0 -0.5406439814
O  O23  1  0.39886000  0.44500000  0.94411000  1.0 -0.5406439814
O  O24  1  0.60114000  0.55500000  0.05589000  1.0 -0.5406439814
O  O25  1  0.93818000  0.72345000  0.20155000  1.0 -0.3458839382
O  O26  1  0.06182000  0.27655000  0.79845000  1.0 -0.3442076271
O  O27  1  0.06182000  0.72345000  0.29845000  1.0 -0.3442076271
O  O28  1  0.93818000  0.27655000  0.70155000  1.0 -0.3442076271
O  O29  1  0.43818000  0.22345000  0.20155000  1.0 -0.3458839382
O  O30  1  0.56182000  0.77655000  0.79845000  1.0 -0.3442076271
O  O31  1  0.56182000  0.22345000  0.29845000  1.0 -0.3442076271
O  O32  1  0.43818000  0.77655000  0.70155000  1.0 -0.3442076271
O  O33  1  0.02392000  0.68520000  0.55146000  1.0 -0.2823615472
O  O34  1  0.97608000  0.31480000  0.44854000  1.0 -0.2823615472
O  O35  1  0.97608000  0.68520000  0.94854000  1.0 -0.2823615472
O  O36  1  0.02392000  0.31480000  0.05146000  1.0 -0.2823615472
O  O37  1  0.52392000  0.18520000  0.55146000  1.0 -0.2823615472
O  O38  1  0.47608000  0.81480000  0.44854000  1.0 -0.2823615472
O  O39  1  0.47608000  0.18520000  0.94854000  1.0 -0.2823615472
O  O40  1  0.52392000  0.81480000  0.05146000  1.0 -0.2823615472
O  O41  1  0.95212000  0.64780000  0.42593000  1.0 -0.3241527106
O  O42  1  0.04788000  0.35220000  0.57407000  1.0 -0.3241527106
O  O43  1  0.04788000  0.64780000  0.07407000  1.0 -0.3241527106
O  O44  1  0.95212000  0.35220000  0.92593000  1.0 -0.3241527106
O  O45  1  0.45212000  0.14780000  0.42593000  1.0 -0.3241527106
O  O46  1  0.54788000  0.85220000  0.57407000  1.0 -0.3241527106
O  O47  1  0.54788000  0.14780000  0.07407000  1.0 -0.3241527106
O  O48  1  0.45212000  0.85220000  0.92593000  1.0 -0.3241527106
O  O49  1  0.21864000  0.06760000  0.20811000  1.0 -0.5406439814
O  O50  1  0.78136000  0.93240000  0.79189000  1.0 -0.5406439814
O  O51  1  0.78136000  0.06760000  0.29189000  1.0 -0.5406439814
O  O52  1  0.21864000  0.93240000  0.70811000  1.0 -0.5406439814
O  O53  1  0.71864000  0.56760000  0.20811000  1.0 -0.5406439814
O  O54  1  0.28136000  0.43240000  0.79189000  1.0 -0.5406439814
O  O55  1  0.28136000  0.56760000  0.29189000  1.0 -0.5406439814
O  O56  1  0.71864000  0.43240000  0.70811000  1.0 -0.5406439814
O  O57  1  0.20518000  0.11430000  0.36187000  1.0 -0.5283849861
O  O58  1  0.79482000  0.88570000  0.63813000  1.0 -0.5283849861
O  O59  1  0.79482000  0.11430000  0.13813000  1.0 -0.5283849861
O  O60  1  0.20518000  0.88570000  0.86187000  1.0 -0.5283849861
O  O61  1  0.70518000  0.61430000  0.36187000  1.0 -0.5283849861
O  O62  1  0.29482000  0.38570000  0.63813000  1.0 -0.5283849861
O  O63  1  0.29482000  0.61430000  0.13813000  1.0 -0.5283849861
O  O64  1  0.70518000  0.38570000  0.86187000  1.0 -0.5283849861
O  O65  1  0.82959000  0.91804000  0.45144000  1.0 -0.5900274019
O  O66  1  0.17041000  0.08196000  0.54856000  1.0 -0.5900274019
O  O67  1  0.17041000  0.91804000  0.04856000  1.0 -0.5900274019
O  O68  1  0.82959000  0.08196000  0.95144000  1.0 -0.5900274019
O  O69  1  0.32959000  0.41804000  0.45144000  1.0 -0.5900274019
O  O70  1  0.67041000  0.58196000  0.54856000  1.0 -0.5900274019
O  O71  1  0.67041000  0.41804000  0.04856000  1.0 -0.5900274019
O  O72  1  0.32959000  0.58196000  0.95144000  1.0 -0.5900274019
O  O73  1  0.87627000  0.83306000  0.56489000  1.0 -0.4507919091
O  O74  1  0.12373000  0.16694000  0.43511000  1.0 -0.4507919091
O  O75  1  0.12373000  0.83306000  0.93511000  1.0 -0.4507919091
O  O76  1  0.87627000  0.16694000  0.06489000  1.0 -0.4507919091
O  O77  1  0.37627000  0.33306000  0.56489000  1.0 -0.4507919091
O  O78  1  0.62373000  0.66694000  0.43511000  1.0 -0.4507919091
O  O79  1  0.62373000  0.33306000  0.93511000  1.0 -0.4507919091
O  O80  1  0.37627000  0.66694000  0.06489000  1.0 -0.4507919091
O  O81  1  0.13391000  0.99229000  0.26819000  1.0 -0.6140523519
O  O82  1  0.86609000  0.00771000  0.73181000  1.0 -0.6155906047
O  O83  1  0.86609000  0.99229000  0.23181000  1.0 -0.6140523519
O  O84  1  0.13391000  0.00771000  0.76819000  1.0 -0.6155906047
O  O85  1  0.63391000  0.49229000  0.26819000  1.0 -0.6140523519
O  O86  1  0.36609000  0.50771000  0.73181000  1.0 -0.6140523519
O  O87  1  0.36609000  0.49229000  0.23181000  1.0 -0.6155906047
O  O88  1  0.63391000  0.50771000  0.76819000  1.0 -0.6140523519
O  O89  1  0.14618000  0.86555000  0.33010000  1.0 -0.4152509894
O  O90  1  0.85382000  0.13445000  0.66990000  1.0 -0.4146035041
O  O91  1  0.85382000  0.86555000  0.16990000  1.0 -0.4152509894
O  O92  1  0.14618000  0.13445000  0.83010000  1.0 -0.4146035041
O  O93  1  0.64618000  0.36555000  0.33010000  1.0 -0.4152509894
O  O94  1  0.35382000  0.63445000  0.66990000  1.0 -0.4146035041
O  O95  1  0.35382000  0.36555000  0.16990000  1.0 -0.4146035041
O  O96  1  0.64618000  0.63445000  0.83010000  1.0 -0.4152509894
