# DDEC6 charges by PACMAN v1.1 (https://github.com/mtap-research/PACMAN-charge/)
data_OCUMUX_FSR_pacman
_symmetry_space_group_name_H-M   'P 1'
_cell_length_a   15.44200000
_cell_length_b   15.44200000
_cell_length_c   13.22510000
_cell_angle_alpha   76.74540000
_cell_angle_beta   103.25500000
_cell_angle_gamma   113.63000000
_symmetry_Int_Tables_number   1
_chemical_formula_structural   Mn2H19C21N3O16
_chemical_formula_sum   'Mn8 H76 C84 N12 O64'
_cell_volume   2778.63698651
_cell_formula_units_Z   4
loop_
 _symmetry_equiv_pos_site_id
 _symmetry_equiv_pos_as_xyz
  1  'x, y, z'
loop_
 _atom_site_type_symbol
 _atom_site_label
 _atom_site_symmetry_multiplicity
 _atom_site_fract_x
 _atom_site_fract_y
 _atom_site_fract_z
 _atom_site_occupancy
 _atom_site_charge
Mn  Mn1  1  0.79249000  0.06467000  0.64481000  1.0 1.0306462575
Mn  Mn2  1  0.06467000  0.79249000  0.85519000  1.0 1.0306462575
Mn  Mn3  1  0.20751000  0.93533000  0.35519000  1.0 1.0306462575
Mn  Mn4  1  0.93533000  0.20751000  0.14481000  1.0 1.0306462575
Mn  Mn5  1  0.81474000  0.16366000  0.38391000  1.0 1.0444717535
Mn  Mn6  1  0.16366000  0.81474000  0.11609000  1.0 1.0444717535
Mn  Mn7  1  0.18526000  0.83634000  0.61609000  1.0 1.0444717535
Mn  Mn8  1  0.83634000  0.18526000  0.88391000  1.0 1.0455315638
H  H1  1  0.13580000  0.24840000  0.49050000  1.0 0.1219026252
H  H2  1  0.24840000  0.13580000  0.00950000  1.0 0.1219026252
H  H3  1  0.86420000  0.75160000  0.50950000  1.0 0.1219026252
H  H4  1  0.75160000  0.86420000  0.99050000  1.0 0.1219026252
H  H5  1  0.05540000  0.99500000  0.67910000  1.0 0.1286575873
H  H6  1  0.99500000  0.05540000  0.82090000  1.0 0.1286575873
H  H7  1  0.94460000  0.00500000  0.32090000  1.0 0.1286575873
H  H8  1  0.00500000  0.94460000  0.17910000  1.0 0.1286575873
H  H9  1  0.57560000  0.19280000  0.82250000  1.0 0.1219026252
H  H10  1  0.19280000  0.57560000  0.67750000  1.0 0.1219026252
H  H11  1  0.42440000  0.80720000  0.17750000  1.0 0.1219026252
H  H12  1  0.80720000  0.42440000  0.32250000  1.0 0.1219026252
H  H13  1  0.49610000  0.05530000  0.57320000  1.0 0.1392679553
H  H14  1  0.05530000  0.49610000  0.92680000  1.0 0.1392679553
H  H15  1  0.50390000  0.94470000  0.42680000  1.0 0.1392679553
H  H16  1  0.94470000  0.50390000  0.07320000  1.0 0.1392679553
H  H17  1  0.81030000  0.97850000  0.84560000  1.0 0.3646821309
H  H18  1  0.97850000  0.81030000  0.65440000  1.0 0.3646821309
H  H19  1  0.18970000  0.02150000  0.15440000  1.0 0.3646821309
H  H20  1  0.02150000  0.18970000  0.34560000  1.0 0.3646821309
H  H21  1  0.79110000  0.90890000  0.78280000  1.0 0.3646821309
H  H22  1  0.90890000  0.79110000  0.71720000  1.0 0.3646821309
H  H23  1  0.20890000  0.09110000  0.21720000  1.0 0.3646821309
H  H24  1  0.09110000  0.20890000  0.28280000  1.0 0.3646821309
H  H25  1  0.63570000  0.12490000  0.19290000  1.0 0.1004805047
H  H26  1  0.12490000  0.63570000  0.30710000  1.0 0.1004805047
H  H27  1  0.36430000  0.87510000  0.80710000  1.0 0.1004805047
H  H28  1  0.87510000  0.36430000  0.69290000  1.0 0.1004805047
H  H29  1  0.39860000  0.07580000  0.15150000  1.0 0.1097922279
H  H30  1  0.07580000  0.39860000  0.34850000  1.0 0.1097922279
H  H31  1  0.60140000  0.92420000  0.84850000  1.0 0.1097922279
H  H32  1  0.92420000  0.60140000  0.65150000  1.0 0.1097922279
H  H33  1  0.45040000  0.17500000  0.08760000  1.0 0.0934605593
H  H34  1  0.17500000  0.45040000  0.41240000  1.0 0.0934605593
H  H35  1  0.54960000  0.82500000  0.91240000  1.0 0.0934605593
H  H36  1  0.82500000  0.54960000  0.58760000  1.0 0.0934605593
H  H37  1  0.51430000  0.11770000  0.00740000  1.0 0.1097922279
H  H38  1  0.11770000  0.51430000  0.49260000  1.0 0.1097922279
H  H39  1  0.48570000  0.88230000  0.99260000  1.0 0.1097922279
H  H40  1  0.88230000  0.48570000  0.50740000  1.0 0.1097922279
H  H41  1  0.41820000  0.03100000  0.02270000  1.0 0.1392679553
H  H42  1  0.03100000  0.41820000  0.47730000  1.0 0.1392679553
H  H43  1  0.58180000  0.96900000  0.97730000  1.0 0.1392679553
H  H44  1  0.96900000  0.58180000  0.52270000  1.0 0.1392679553
H  H45  1  0.51300000  0.03160000  0.09780000  1.0 0.1219026252
H  H46  1  0.03160000  0.51300000  0.40220000  1.0 0.1219026252
H  H47  1  0.48700000  0.96840000  0.90220000  1.0 0.1219026252
H  H48  1  0.96840000  0.48700000  0.59780000  1.0 0.1219026252
H  H49  1  0.52580000  0.14520000  0.37200000  1.0 0.0934605593
H  H50  1  0.14520000  0.52580000  0.12800000  1.0 0.0934605593
H  H51  1  0.47420000  0.85480000  0.62800000  1.0 0.0934605593
H  H52  1  0.85480000  0.47420000  0.87200000  1.0 0.0934605593
H  H53  1  0.42440000  0.12480000  0.30210000  1.0 0.1004805047
H  H54  1  0.12480000  0.42440000  0.19790000  1.0 0.1004805047
H  H55  1  0.57560000  0.87520000  0.69790000  1.0 0.1004805047
H  H56  1  0.87520000  0.57560000  0.80210000  1.0 0.1004805047
H  H57  1  0.57440000  0.30840000  0.27390000  1.0 0.1097922279
H  H58  1  0.30840000  0.57440000  0.22610000  1.0 0.1097922279
H  H59  1  0.42560000  0.69160000  0.72610000  1.0 0.1097922279
H  H60  1  0.69160000  0.42560000  0.77390000  1.0 0.1097922279
H  H61  1  0.49790000  0.28770000  0.34530000  1.0 0.1392679553
H  H62  1  0.28770000  0.49790000  0.15470000  1.0 0.1392679553
H  H63  1  0.50210000  0.71230000  0.65470000  1.0 0.1392679553
H  H64  1  0.71230000  0.50210000  0.84530000  1.0 0.1392679553
H  H65  1  0.46680000  0.28560000  0.22410000  1.0 0.1392679553
H  H66  1  0.28560000  0.46680000  0.27590000  1.0 0.1392679553
H  H67  1  0.53320000  0.71440000  0.77590000  1.0 0.1392679553
H  H68  1  0.71440000  0.53320000  0.72410000  1.0 0.1392679553
H  H69  1  0.88580000  0.25900000  0.55650000  1.0 0.3902986277
H  H70  1  0.25900000  0.88580000  0.94350000  1.0 0.3902986277
H  H71  1  0.11420000  0.74100000  0.44350000  1.0 0.3902986277
H  H72  1  0.74100000  0.11420000  0.05650000  1.0 0.3902986277
H  H73  1  0.78590000  0.24850000  0.52340000  1.0 0.3902986277
H  H74  1  0.24850000  0.78590000  0.97660000  1.0 0.3902986277
H  H75  1  0.21410000  0.75150000  0.47660000  1.0 0.3902986277
H  H76  1  0.75150000  0.21410000  0.02340000  1.0 0.3902986277
C  C1  1  0.97635000  0.11105000  0.54960000  1.0 0.5954337198
C  C2  1  0.11105000  0.97635000  0.95040000  1.0 0.5954337198
C  C3  1  0.02365000  0.88895000  0.45040000  1.0 0.5954337198
C  C4  1  0.88895000  0.02365000  0.04960000  1.0 0.5954337198
C  C5  1  0.07912000  0.11948000  0.57980000  1.0 -0.0071185717
C  C6  1  0.11948000  0.07912000  0.92020000  1.0 -0.0071185717
C  C7  1  0.92088000  0.88052000  0.42020000  1.0 -0.0071185717
C  C8  1  0.88052000  0.92088000  0.07980000  1.0 -0.0071185717
C  C9  1  0.15095000  0.20045000  0.53880000  1.0 -0.1633677553
C  C10  1  0.20045000  0.15095000  0.96120000  1.0 -0.1633677553
C  C11  1  0.84905000  0.79955000  0.46120000  1.0 -0.1633677553
C  C12  1  0.79955000  0.84905000  0.03880000  1.0 -0.1633677553
C  C13  1  0.24465000  0.20855000  0.57070000  1.0 0.0306733319
C  C14  1  0.20855000  0.24465000  0.92930000  1.0 0.0306733319
C  C15  1  0.75535000  0.79145000  0.42930000  1.0 0.0306733319
C  C16  1  0.79145000  0.75535000  0.07070000  1.0 0.0306733319
C  C17  1  0.27210000  0.13830000  0.64330000  1.0 0.0033135229
C  C18  1  0.13830000  0.27210000  0.85670000  1.0 0.0033135229
C  C19  1  0.72790000  0.86170000  0.35670000  1.0 0.0033135229
C  C20  1  0.86170000  0.72790000  0.14330000  1.0 0.0033135229
C  C21  1  0.19849000  0.05731000  0.68270000  1.0 -0.0555906934
C  C22  1  0.05731000  0.19849000  0.81730000  1.0 -0.0555906934
C  C23  1  0.80151000  0.94269000  0.31730000  1.0 -0.0555906934
C  C24  1  0.94269000  0.80151000  0.18270000  1.0 -0.0555906934
C  C25  1  0.10338000  0.04882000  0.65150000  1.0 -0.1028573658
C  C26  1  0.04882000  0.10338000  0.84850000  1.0 -0.1028573658
C  C27  1  0.89662000  0.95118000  0.34850000  1.0 -0.1028573658
C  C28  1  0.95118000  0.89662000  0.15150000  1.0 -0.1028573658
C  C29  1  0.37168000  0.13892000  0.66450000  1.0 0.0306733319
C  C30  1  0.13892000  0.37168000  0.83550000  1.0 0.0306733319
C  C31  1  0.62832000  0.86108000  0.33550000  1.0 0.0306733319
C  C32  1  0.86108000  0.62832000  0.16450000  1.0 0.0306733319
C  C33  1  0.44220000  0.17680000  0.74640000  1.0 -0.0285767122
C  C34  1  0.17680000  0.44220000  0.75360000  1.0 -0.0285767122
C  C35  1  0.55780000  0.82320000  0.25360000  1.0 -0.0285767122
C  C36  1  0.82320000  0.55780000  0.24640000  1.0 -0.0285767122
C  C37  1  0.53045000  0.16795000  0.76620000  1.0 -0.1679259795
C  C38  1  0.16795000  0.53045000  0.73380000  1.0 -0.1679259795
C  C39  1  0.46955000  0.83205000  0.23380000  1.0 -0.1679259795
C  C40  1  0.83205000  0.46955000  0.26620000  1.0 -0.1679259795
C  C41  1  0.55114000  0.12186000  0.70170000  1.0 -0.0071185717
C  C42  1  0.12186000  0.55114000  0.79830000  1.0 -0.0071185717
C  C43  1  0.44886000  0.87814000  0.29830000  1.0 -0.0071185717
C  C44  1  0.87814000  0.44886000  0.20170000  1.0 -0.0071185717
C  C45  1  0.48229000  0.08511000  0.61770000  1.0 -0.1228752952
C  C46  1  0.08511000  0.48229000  0.88230000  1.0 -0.1228752952
C  C47  1  0.51771000  0.91489000  0.38230000  1.0 -0.1228752952
C  C48  1  0.91489000  0.51771000  0.11770000  1.0 -0.1228752952
C  C49  1  0.39358000  0.09262000  0.60050000  1.0 -0.0504448665
C  C50  1  0.09262000  0.39358000  0.89950000  1.0 -0.0446249653
C  C51  1  0.60642000  0.90738000  0.39950000  1.0 -0.0504448665
C  C52  1  0.90738000  0.60642000  0.10050000  1.0 -0.0504448665
C  C53  1  0.32160000  0.05300000  0.50810000  1.0 0.5710656349
C  C54  1  0.05300000  0.32160000  0.99190000  1.0 0.5710656349
C  C55  1  0.67840000  0.94700000  0.49190000  1.0 0.5710656349
C  C56  1  0.94700000  0.67840000  0.00810000  1.0 0.5710656349
C  C57  1  0.64517000  0.10943000  0.72270000  1.0 0.581999414
C  C58  1  0.10943000  0.64517000  0.77730000  1.0 0.581999414
C  C59  1  0.35483000  0.89057000  0.27730000  1.0 0.581999414
C  C60  1  0.89057000  0.35483000  0.22270000  1.0 0.581999414
C  C61  1  0.22054000  0.97866000  0.76290000  1.0 0.5710656349
C  C62  1  0.97866000  0.22054000  0.73710000  1.0 0.5710656349
C  C63  1  0.77946000  0.02134000  0.23710000  1.0 0.5710656349
C  C64  1  0.02134000  0.77946000  0.26290000  1.0 0.5710656349
C  C65  1  0.61670000  0.14450000  0.24260000  1.0 0.3014038432
C  C66  1  0.14450000  0.61670000  0.25740000  1.0 0.3014038432
C  C67  1  0.38330000  0.85550000  0.75740000  1.0 0.3014038432
C  C68  1  0.85550000  0.38330000  0.74260000  1.0 0.3014038432
C  C69  1  0.45900000  0.11740000  0.12810000  1.0 -0.0504448665
C  C70  1  0.11740000  0.45900000  0.37190000  1.0 -0.0504448665
C  C71  1  0.54100000  0.88260000  0.87190000  1.0 -0.0504448665
C  C72  1  0.88260000  0.54100000  0.62810000  1.0 -0.0504448665
C  C73  1  0.47760000  0.07060000  0.05830000  1.0 -0.4541111063
C  C74  1  0.07060000  0.47760000  0.44170000  1.0 -0.4541111063
C  C75  1  0.52240000  0.92940000  0.94170000  1.0 -0.4541111063
C  C76  1  0.92940000  0.52240000  0.55830000  1.0 -0.4541111063
C  C77  1  0.49220000  0.16260000  0.30380000  1.0 -0.0285767122
C  C78  1  0.16260000  0.49220000  0.19620000  1.0 -0.0285767122
C  C79  1  0.50780000  0.83740000  0.69620000  1.0 -0.0285767122
C  C80  1  0.83740000  0.50780000  0.80380000  1.0 -0.0285767122
C  C81  1  0.50950000  0.27150000  0.28490000  1.0 -0.3897728097
C  C82  1  0.27150000  0.50950000  0.21510000  1.0 -0.3897728097
C  C83  1  0.49050000  0.72850000  0.71510000  1.0 -0.3897728097
C  C84  1  0.72850000  0.49050000  0.78490000  1.0 -0.3897728097
N  N1  1  0.31660000  0.29740000  0.52810000  1.0 0.5087316562
N  N2  1  0.29740000  0.31660000  0.97190000  1.0 0.5087316562
N  N3  1  0.68340000  0.70260000  0.47190000  1.0 0.5087316562
N  N4  1  0.70260000  0.68340000  0.02810000  1.0 0.5087316562
N  N5  1  0.42590000  0.23110000  0.81180000  1.0 0.454880916
N  N6  1  0.23110000  0.42590000  0.68820000  1.0 0.454880916
N  N7  1  0.57410000  0.76890000  0.18820000  1.0 0.454880916
N  N8  1  0.76890000  0.57410000  0.31180000  1.0 0.454880916
N  N9  1  0.52820000  0.14380000  0.21970000  1.0 -0.068412907
N  N10  1  0.14380000  0.52820000  0.28030000  1.0 -0.068412907
N  N11  1  0.47180000  0.85620000  0.78030000  1.0 -0.068412907
N  N12  1  0.85620000  0.47180000  0.71970000  1.0 -0.068412907
O  O1  1  0.50050000  0.29250000  0.85610000  1.0 -0.0025459319
O  O2  1  0.29250000  0.50050000  0.64390000  1.0 -0.0025459319
O  O3  1  0.49950000  0.70750000  0.14390000  1.0 -0.0025459319
O  O4  1  0.70750000  0.49950000  0.35610000  1.0 0.0033135229
O  O5  1  0.92218000  0.06276000  0.61650000  1.0 -0.56828016
O  O6  1  0.06276000  0.92218000  0.88350000  1.0 -0.56828016
O  O7  1  0.07782000  0.93724000  0.38350000  1.0 -0.56828016
O  O8  1  0.93724000  0.07782000  0.11650000  1.0 -0.56828016
O  O9  1  0.95229000  0.15387000  0.46060000  1.0 -0.5778764557
O  O10  1  0.15387000  0.95229000  0.03940000  1.0 -0.5778764557
O  O11  1  0.04771000  0.84613000  0.53940000  1.0 -0.5778764557
O  O12  1  0.84613000  0.04771000  0.96060000  1.0 -0.5778764557
O  O13  1  0.35080000  0.23400000  0.80740000  1.0 -0.2634920101
O  O14  1  0.23400000  0.35080000  0.69260000  1.0 -0.2634920101
O  O15  1  0.64920000  0.76600000  0.19260000  1.0 -0.2634920101
O  O16  1  0.76600000  0.64920000  0.30740000  1.0 -0.2634920101
O  O17  1  0.29420000  0.33780000  0.44030000  1.0 -0.3391172957
O  O18  1  0.33780000  0.29420000  0.05970000  1.0 -0.3391172957
O  O19  1  0.70580000  0.66220000  0.55970000  1.0 -0.3391172957
O  O20  1  0.66220000  0.70580000  0.94030000  1.0 -0.3391172957
O  O21  1  0.39560000  0.32740000  0.57980000  1.0 -0.3326708894
O  O22  1  0.32740000  0.39560000  0.92020000  1.0 -0.3326708894
O  O23  1  0.60440000  0.67260000  0.42020000  1.0 -0.3326708894
O  O24  1  0.67260000  0.60440000  0.07980000  1.0 -0.3326708894
O  O25  1  0.69575000  0.12565000  0.81050000  1.0 -0.5778764557
O  O26  1  0.12565000  0.69575000  0.68950000  1.0 -0.5778764557
O  O27  1  0.30425000  0.87435000  0.18950000  1.0 -0.5778764557
O  O28  1  0.87435000  0.30425000  0.31050000  1.0 -0.5778764557
O  O29  1  0.66790000  0.08570000  0.65100000  1.0 -0.56828016
O  O30  1  0.08570000  0.66790000  0.84900000  1.0 -0.56828016
O  O31  1  0.33210000  0.91430000  0.34900000  1.0 -0.56828016
O  O32  1  0.91430000  0.33210000  0.15100000  1.0 -0.56828016
O  O33  1  0.26730000  0.96770000  0.51870000  1.0 -0.5616602968
O  O34  1  0.96770000  0.26730000  0.98130000  1.0 -0.5616602968
O  O35  1  0.73270000  0.03230000  0.48130000  1.0 -0.5616602968
O  O36  1  0.03230000  0.73270000  0.01870000  1.0 -0.5616602968
O  O37  1  0.31700000  0.10860000  0.42410000  1.0 -0.5177054923
O  O38  1  0.10860000  0.31700000  0.07590000  1.0 -0.5177054923
O  O39  1  0.68300000  0.89140000  0.57590000  1.0 -0.5177054923
O  O40  1  0.89140000  0.68300000  0.92410000  1.0 -0.5177054923
O  O41  1  0.17085000  0.89263000  0.74450000  1.0 -0.6371852826
O  O42  1  0.89263000  0.17085000  0.75550000  1.0 -0.6371852826
O  O43  1  0.82915000  0.10737000  0.25550000  1.0 -0.6371852826
O  O44  1  0.10737000  0.82915000  0.24450000  1.0 -0.6371852826
O  O45  1  0.28087000  0.99873000  0.84180000  1.0 -0.5177054923
O  O46  1  0.99873000  0.28087000  0.65820000  1.0 -0.5177054923
O  O47  1  0.71913000  0.00127000  0.15820000  1.0 -0.5177054923
O  O48  1  0.00127000  0.71913000  0.34180000  1.0 -0.5177054923
O  O49  1  0.78654000  0.96126000  0.78470000  1.0 -0.6783050965
O  O50  1  0.96126000  0.78654000  0.71530000  1.0 -0.6783050965
O  O51  1  0.21346000  0.03874000  0.21530000  1.0 -0.6783050965
O  O52  1  0.03874000  0.21346000  0.28470000  1.0 -0.6783050965
O  O53  1  0.67430000  0.16630000  0.31640000  1.0 -0.4156262573
O  O54  1  0.16630000  0.67430000  0.18360000  1.0 -0.4156262573
O  O55  1  0.32570000  0.83370000  0.68360000  1.0 -0.4156262573
O  O56  1  0.83370000  0.32570000  0.81640000  1.0 -0.4156262573
O  O57  1  0.82575000  0.21905000  0.52940000  1.0 -0.7299450111
O  O58  1  0.21905000  0.82575000  0.97060000  1.0 -0.7299450111
O  O59  1  0.17425000  0.78095000  0.47060000  1.0 -0.7299450111
O  O60  1  0.78095000  0.17425000  0.02940000  1.0 -0.7299450111
O  O61  1  0.47890000  0.24090000  0.90080000  1.0 -0.0207349207
O  O62  1  0.24090000  0.47890000  0.59920000  1.0 -0.0207349207
O  O63  1  0.52110000  0.75910000  0.09920000  1.0 -0.0207349207
O  O64  1  0.75910000  0.52110000  0.40080000  1.0 -0.0207349207
