# DDEC6 charges by PACMAN v1.1 (https://github.com/mtap-research/PACMAN-charge/)
data_OCUPOS_FSR_pacman
_symmetry_space_group_name_H-M   'P 1'
_cell_length_a   10.27110000
_cell_length_b   10.27110000
_cell_length_c   9.34460000
_cell_angle_alpha   90.00000000
_cell_angle_beta   90.00000000
_cell_angle_gamma   137.55400000
_symmetry_Int_Tables_number   1
_chemical_formula_structural   V2P2H10C4O9
_chemical_formula_sum   'V4 P4 H20 C8 O18'
_cell_volume   665.32044226
_cell_formula_units_Z   2
loop_
 _symmetry_equiv_pos_site_id
 _symmetry_equiv_pos_as_xyz
  1  'x, y, z'
loop_
 _atom_site_type_symbol
 _atom_site_label
 _atom_site_symmetry_multiplicity
 _atom_site_fract_x
 _atom_site_fract_y
 _atom_site_fract_z
 _atom_site_occupancy
 _atom_site_charge
V  V1  1  0.94694000  0.46472000  0.75000000  1.0 1.8041381786
V  V2  1  0.05306000  0.53528000  0.25000000  1.0 1.8041381786
V  V3  1  0.53528000  0.05306000  0.75000000  1.0 1.8041381786
V  V4  1  0.46472000  0.94694000  0.25000000  1.0 1.8041381786
P  P1  1  0.81948000  0.18052000  0.48448000  1.0 1.4414403687
P  P2  1  0.18052000  0.81948000  0.98448000  1.0 1.4414403687
P  P3  1  0.81948000  0.18052000  0.01552000  1.0 1.4414403687
P  P4  1  0.18052000  0.81948000  0.51552000  1.0 1.4414403687
H  H1  1  0.01500000  0.19960000  0.62630000  1.0 0.1431684146
H  H2  1  0.98500000  0.80040000  0.12630000  1.0 0.1431684146
H  H3  1  0.80040000  0.98500000  0.87370000  1.0 0.1431684146
H  H4  1  0.19960000  0.01500000  0.37370000  1.0 0.1431684146
H  H5  1  0.98500000  0.80040000  0.37370000  1.0 0.1431684146
H  H6  1  0.01500000  0.19960000  0.87370000  1.0 0.1431684146
H  H7  1  0.19960000  0.01500000  0.12630000  1.0 0.1431684146
H  H8  1  0.80040000  0.98500000  0.62630000  1.0 0.1431684146
H  H9  1  0.07010000  0.14530000  0.39810000  1.0 0.0958616833
H  H10  1  0.92990000  0.85470000  0.89810000  1.0 0.0958616833
H  H11  1  0.85470000  0.92990000  0.10190000  1.0 0.0958616833
H  H12  1  0.14530000  0.07010000  0.60190000  1.0 0.0958616833
H  H13  1  0.92990000  0.85470000  0.60190000  1.0 0.0958616833
H  H14  1  0.07010000  0.14530000  0.10190000  1.0 0.0958616833
H  H15  1  0.14530000  0.07010000  0.89810000  1.0 0.0958616833
H  H16  1  0.85470000  0.92990000  0.39810000  1.0 0.0958616833
H  H17  1  0.37000000  0.63000000  0.19300000  1.0 0.3271070073
H  H18  1  0.63000000  0.37000000  0.69300000  1.0 0.3271070073
H  H19  1  0.37000000  0.63000000  0.30700000  1.0 0.3271070073
H  H20  1  0.63000000  0.37000000  0.80700000  1.0 0.3271070073
C  C1  1  0.90379000  0.09621000  0.56410000  1.0 -0.5199569513
C  C2  1  0.09621000  0.90379000  0.06410000  1.0 -0.5199569513
C  C3  1  0.90379000  0.09621000  0.93590000  1.0 -0.5199569513
C  C4  1  0.09621000  0.90379000  0.43590000  1.0 -0.5199569513
C  C5  1  0.96515000  0.03485000  0.46010000  1.0 -0.1153434043
C  C6  1  0.03485000  0.96515000  0.96010000  1.0 -0.1153434043
C  C7  1  0.96515000  0.03485000  0.03990000  1.0 -0.1153434043
C  C8  1  0.03485000  0.96515000  0.53990000  1.0 -0.1153434043
O  O1  1  0.76533000  0.23467000  0.60990000  1.0 -0.9039770116
O  O2  1  0.23467000  0.76533000  0.10990000  1.0 -0.9039770116
O  O3  1  0.76533000  0.23467000  0.89010000  1.0 -0.9039770116
O  O4  1  0.23467000  0.76533000  0.39010000  1.0 -0.9039770116
O  O5  1  0.98468000  0.36012000  0.39958000  1.0 -0.8140836706
O  O6  1  0.01532000  0.63988000  0.89958000  1.0 -0.8140836706
O  O7  1  0.63988000  0.01532000  0.10042000  1.0 -0.8140836706
O  O8  1  0.36012000  0.98468000  0.60042000  1.0 -0.8140836706
O  O9  1  0.01532000  0.63988000  0.60042000  1.0 -0.8140836706
O  O10  1  0.98468000  0.36012000  0.10042000  1.0 -0.8140836706
O  O11  1  0.36012000  0.98468000  0.89958000  1.0 -0.8140836706
O  O12  1  0.63988000  0.01532000  0.39958000  1.0 -0.8140836706
O  O13  1  0.34860000  0.65140000  0.25000000  1.0 -0.5199569513
O  O14  1  0.65140000  0.34860000  0.75000000  1.0 -0.5199569513
O  O15  1  0.12014000  0.49046000  0.75000000  1.0 -0.6233225664
O  O16  1  0.87986000  0.50954000  0.25000000  1.0 -0.6233225664
O  O17  1  0.50954000  0.87986000  0.75000000  1.0 -0.6233225664
O  O18  1  0.49046000  0.12014000  0.25000000  1.0 -0.6233225664
