# DDEC6 charges by PACMAN v1.1 (https://github.com/mtap-research/PACMAN-charge/)
data_OCUQUZ_FSR_pacman
_symmetry_space_group_name_H-M   'P 1'
_cell_length_a   9.32024000
_cell_length_b   9.32024000
_cell_length_c   18.65600000
_cell_angle_alpha   78.79560000
_cell_angle_beta   101.20400000
_cell_angle_gamma   114.89400000
_symmetry_Int_Tables_number   1
_chemical_formula_structural   V2P2H7(CO3)3
_chemical_formula_sum   'V8 P8 H28 C12 O36'
_cell_volume   1430.42440112
_cell_formula_units_Z   4
loop_
 _symmetry_equiv_pos_site_id
 _symmetry_equiv_pos_as_xyz
  1  'x, y, z'
loop_
 _atom_site_type_symbol
 _atom_site_label
 _atom_site_symmetry_multiplicity
 _atom_site_fract_x
 _atom_site_fract_y
 _atom_site_fract_z
 _atom_site_occupancy
 _atom_site_charge
V  V1  1  0.72038000  0.04582000  0.91629000  1.0 1.9135474437
V  V2  1  0.04582000  0.72038000  0.58371000  1.0 1.9135474437
V  V3  1  0.27962000  0.95418000  0.08371000  1.0 1.9135474437
V  V4  1  0.95418000  0.27962000  0.41629000  1.0 1.9135474437
V  V5  1  0.20364000  0.71188000  0.78392000  1.0 1.8976500505
V  V6  1  0.71188000  0.20364000  0.71608000  1.0 1.8976500505
V  V7  1  0.79636000  0.28812000  0.21608000  1.0 1.8976500505
V  V8  1  0.28812000  0.79636000  0.28392000  1.0 1.8976500505
P  P1  1  0.01259000  0.33171000  0.83712000  1.0 1.4133857959
P  P2  1  0.33171000  0.01259000  0.66288000  1.0 1.4133857959
P  P3  1  0.98741000  0.66829000  0.16288000  1.0 1.4133857959
P  P4  1  0.66829000  0.98741000  0.33712000  1.0 1.4133857959
P  P5  1  0.32707000  0.91539000  0.92102000  1.0 1.4256574982
P  P6  1  0.91539000  0.32707000  0.57898000  1.0 1.4256574982
P  P7  1  0.67293000  0.08461000  0.07898000  1.0 1.4256574982
P  P8  1  0.08461000  0.67293000  0.42102000  1.0 1.4256574982
H  H1  1  0.25160000  0.34740000  0.90510000  1.0 0.1580744558
H  H2  1  0.34740000  0.25160000  0.59490000  1.0 0.1580744558
H  H3  1  0.74840000  0.65260000  0.09490000  1.0 0.1580744558
H  H4  1  0.65260000  0.74840000  0.40510000  1.0 0.1580744558
H  H5  1  0.26160000  0.35780000  0.82140000  1.0 0.1496528559
H  H6  1  0.35780000  0.26160000  0.67860000  1.0 0.1496528559
H  H7  1  0.73840000  0.64220000  0.17860000  1.0 0.1496528559
H  H8  1  0.64220000  0.73840000  0.32140000  1.0 0.1496528559
H  H9  1  0.11550000  0.07030000  0.91300000  1.0 0.1186703765
H  H10  1  0.07030000  0.11550000  0.58700000  1.0 0.1186703765
H  H11  1  0.88450000  0.92970000  0.08700000  1.0 0.1186703765
H  H12  1  0.92970000  0.88450000  0.41300000  1.0 0.1186703765
H  H13  1  0.11400000  0.07720000  0.82820000  1.0 0.1103378483
H  H14  1  0.07720000  0.11400000  0.67180000  1.0 0.1103378483
H  H15  1  0.88600000  0.92280000  0.17180000  1.0 0.1103378483
H  H16  1  0.92280000  0.88600000  0.32820000  1.0 0.1103378483
H  H17  1  0.38500000  0.14800000  0.84110000  1.0 0.1392842294
H  H18  1  0.14800000  0.38500000  0.65890000  1.0 0.1392842294
H  H19  1  0.61500000  0.85200000  0.15890000  1.0 0.1392842294
H  H20  1  0.85200000  0.61500000  0.34110000  1.0 0.1392842294
H  H21  1  0.40690000  0.18450000  0.92180000  1.0 0.1496528559
H  H22  1  0.18450000  0.40690000  0.57820000  1.0 0.1496528559
H  H23  1  0.59310000  0.81550000  0.07820000  1.0 0.1496528559
H  H24  1  0.81550000  0.59310000  0.42180000  1.0 0.1496528559
H  H25  1  0.58400000  0.02000000  0.80600000  1.0 0.4101611176
H  H26  1  0.02000000  0.58400000  0.69400000  1.0 0.4101611176
H  H27  1  0.41600000  0.98000000  0.19400000  1.0 0.4101611176
H  H28  1  0.98000000  0.41600000  0.30600000  1.0 0.4101611176
C  C1  1  0.19520000  0.30080000  0.86030000  1.0 -0.468440575
C  C2  1  0.30080000  0.19520000  0.63970000  1.0 -0.468440575
C  C3  1  0.80480000  0.69920000  0.13970000  1.0 -0.468440575
C  C4  1  0.69920000  0.80480000  0.36030000  1.0 -0.468440575
C  C5  1  0.17480000  0.12680000  0.87170000  1.0 -0.0514268684
C  C6  1  0.12680000  0.17480000  0.62830000  1.0 -0.0514268684
C  C7  1  0.82520000  0.87320000  0.12830000  1.0 -0.0514268684
C  C8  1  0.87320000  0.82520000  0.37170000  1.0 -0.0514268684
C  C9  1  0.33730000  0.11290000  0.88650000  1.0 -0.4935043282
C  C10  1  0.11290000  0.33730000  0.61350000  1.0 -0.4952447838
C  C11  1  0.66270000  0.88710000  0.11350000  1.0 -0.4952447838
C  C12  1  0.88710000  0.66270000  0.38650000  1.0 -0.4935043282
O  O1  1  0.20219000  0.79681000  0.87129000  1.0 -0.7573912269
O  O2  1  0.79681000  0.20219000  0.62871000  1.0 -0.7573912269
O  O3  1  0.79781000  0.20319000  0.12871000  1.0 -0.7573912269
O  O4  1  0.20319000  0.79781000  0.37129000  1.0 -0.7573912269
O  O5  1  0.36131000  0.68069000  0.79084000  1.0 -0.669420836
O  O6  1  0.68069000  0.36131000  0.70916000  1.0 -0.669420836
O  O7  1  0.63869000  0.31931000  0.20916000  1.0 -0.669420836
O  O8  1  0.31931000  0.63869000  0.29084000  1.0 -0.669420836
O  O9  1  0.05334000  0.50966000  0.83165000  1.0 -0.7829849995
O  O10  1  0.50966000  0.05334000  0.66835000  1.0 -0.7829849995
O  O11  1  0.94666000  0.49034000  0.16835000  1.0 -0.7829849995
O  O12  1  0.49034000  0.94666000  0.33165000  1.0 -0.7829849995
O  O13  1  0.93439000  0.26821000  0.76382000  1.0 -0.8261785782
O  O14  1  0.26821000  0.93439000  0.73618000  1.0 -0.8261785782
O  O15  1  0.06561000  0.73179000  0.23618000  1.0 -0.8261785782
O  O16  1  0.73179000  0.06561000  0.26382000  1.0 -0.8242826587
O  O17  1  0.64760000  0.06940000  0.80963000  1.0 -0.7907442651
O  O18  1  0.06940000  0.64760000  0.69037000  1.0 -0.7907442651
O  O19  1  0.35240000  0.93060000  0.19037000  1.0 -0.7907442651
O  O20  1  0.93060000  0.35240000  0.30963000  1.0 -0.7907442651
O  O21  1  0.90833000  0.24487000  0.89837000  1.0 -0.7907442651
O  O22  1  0.24487000  0.90833000  0.60163000  1.0 -0.7907442651
O  O23  1  0.09167000  0.75513000  0.10163000  1.0 -0.7907442651
O  O24  1  0.75513000  0.09167000  0.39837000  1.0 -0.7907442651
O  O25  1  0.79287000  0.91253000  0.93734000  1.0 -0.6570147253
O  O26  1  0.91253000  0.79287000  0.56266000  1.0 -0.6570147253
O  O27  1  0.20713000  0.08747000  0.06266000  1.0 -0.6570147253
O  O28  1  0.08747000  0.20713000  0.43734000  1.0 -0.6570147253
O  O29  1  0.26851000  0.86689000  0.99596000  1.0 -0.7730709738
O  O30  1  0.86689000  0.26851000  0.50404000  1.0 -0.7730709738
O  O31  1  0.73149000  0.13311000  0.00404000  1.0 -0.7730709738
O  O32  1  0.13311000  0.73149000  0.49596000  1.0 -0.7730709738
O  O33  1  0.49087000  0.91293000  0.92450000  1.0 -0.8261785782
O  O34  1  0.91293000  0.49087000  0.57550000  1.0 -0.8242826587
O  O35  1  0.50913000  0.08707000  0.07550000  1.0 -0.8242826587
O  O36  1  0.08707000  0.50913000  0.42450000  1.0 -0.8242826587
