# DDEC6 charges by PACMAN v1.1 (https://github.com/mtap-research/PACMAN-charge/)
data_OCURIO_FSR_pacman
_symmetry_space_group_name_H-M   'P 1'
_cell_length_a   9.16184000
_cell_length_b   9.16184000
_cell_length_c   18.69680000
_cell_angle_alpha   78.78870000
_cell_angle_beta   101.21100000
_cell_angle_gamma   112.48800000
_symmetry_Int_Tables_number   1
_chemical_formula_structural   V3P2H7C3O10
_chemical_formula_sum   'V12 P8 H28 C12 O40'
_cell_volume   1409.85297866
_cell_formula_units_Z   4
loop_
 _symmetry_equiv_pos_site_id
 _symmetry_equiv_pos_as_xyz
  1  'x, y, z'
loop_
 _atom_site_type_symbol
 _atom_site_label
 _atom_site_symmetry_multiplicity
 _atom_site_fract_x
 _atom_site_fract_y
 _atom_site_fract_z
 _atom_site_occupancy
 _atom_site_charge
V  V1  1  0.29520000  0.79920000  0.78282000  1.0 1.101726695
V  V2  1  0.79920000  0.29520000  0.71718000  1.0 1.1098278802
V  V3  1  0.70480000  0.20080000  0.21718000  1.0 1.1098278802
V  V4  1  0.20080000  0.70480000  0.28282000  1.0 1.1098278802
V  V5  1  0.95358000  0.27744000  0.91610000  1.0 1.8889570376
V  V6  1  0.27744000  0.95358000  0.58390000  1.0 1.8889570376
V  V7  1  0.04642000  0.72256000  0.08390000  1.0 1.8889570376
V  V8  1  0.72256000  0.04642000  0.41610000  1.0 1.8889570376
V  V9  1  0.27030000  0.87970000  0.78130000  1.0 1.0812115809
V  V10  1  0.87970000  0.27030000  0.71870000  1.0 1.0812115809
V  V11  1  0.72970000  0.12030000  0.21870000  1.0 1.0812115809
V  V12  1  0.12030000  0.72970000  0.28130000  1.0 1.0812115809
P  P1  1  0.67105000  0.99447000  0.83410000  1.0 1.377186223
P  P2  1  0.99447000  0.67105000  0.66590000  1.0 1.377186223
P  P3  1  0.32895000  0.00553000  0.16590000  1.0 1.377186223
P  P4  1  0.00553000  0.32895000  0.33410000  1.0 1.377186223
P  P5  1  0.09620000  0.66728000  0.92353000  1.0 1.4184978446
P  P6  1  0.66728000  0.09620000  0.57647000  1.0 1.4184978446
P  P7  1  0.90380000  0.33272000  0.07647000  1.0 1.4184978446
P  P8  1  0.33272000  0.90380000  0.42353000  1.0 1.4184978446
H  H1  1  0.65500000  0.74660000  0.81800000  1.0 0.1581511973
H  H2  1  0.74660000  0.65500000  0.68200000  1.0 0.1581511973
H  H3  1  0.34500000  0.25340000  0.18200000  1.0 0.1581511973
H  H4  1  0.25340000  0.34500000  0.31800000  1.0 0.1581511973
H  H5  1  0.65940000  0.75480000  0.90290000  1.0 0.1654451481
H  H6  1  0.75480000  0.65940000  0.59710000  1.0 0.1654451481
H  H7  1  0.34060000  0.24520000  0.09710000  1.0 0.1654451481
H  H8  1  0.24520000  0.34060000  0.40290000  1.0 0.1654451481
H  H9  1  0.93670000  0.89050000  0.82860000  1.0 0.1180181215
H  H10  1  0.89050000  0.93670000  0.67140000  1.0 0.1180181215
H  H11  1  0.06330000  0.10950000  0.17140000  1.0 0.1180181215
H  H12  1  0.10950000  0.06330000  0.32860000  1.0 0.1180181215
H  H13  1  0.93840000  0.88940000  0.91460000  1.0 0.1144104293
H  H14  1  0.88940000  0.93840000  0.58540000  1.0 0.1144104293
H  H15  1  0.06160000  0.11060000  0.08540000  1.0 0.1144104293
H  H16  1  0.11060000  0.06160000  0.41460000  1.0 0.1144104293
H  H17  1  0.82750000  0.59730000  0.92470000  1.0 0.1581511973
H  H18  1  0.59730000  0.82750000  0.57530000  1.0 0.1581511973
H  H19  1  0.17250000  0.40270000  0.07530000  1.0 0.1581511973
H  H20  1  0.40270000  0.17250000  0.42470000  1.0 0.1581511973
H  H21  1  0.86440000  0.61540000  0.84270000  1.0 0.1423658309
H  H22  1  0.61540000  0.86440000  0.65730000  1.0 0.1423658309
H  H23  1  0.13560000  0.38460000  0.15730000  1.0 0.1423658309
H  H24  1  0.38460000  0.13560000  0.34270000  1.0 0.1423658309
H  H25  1  0.42300000  0.99300000  0.69500000  1.0 0.3818828604
H  H26  1  0.99300000  0.42300000  0.80500000  1.0 0.3818828604
H  H27  1  0.57700000  0.00700000  0.30500000  1.0 0.3818828604
H  H28  1  0.00700000  0.57700000  0.19500000  1.0 0.3818828604
C  C1  1  0.70880000  0.81300000  0.85810000  1.0 -0.4699839214
C  C2  1  0.81300000  0.70880000  0.64190000  1.0 -0.4699839214
C  C3  1  0.29120000  0.18700000  0.14190000  1.0 -0.4699839214
C  C4  1  0.18700000  0.29120000  0.35810000  1.0 -0.4699839214
C  C5  1  0.88420000  0.82960000  0.87230000  1.0 -0.0685629612
C  C6  1  0.82960000  0.88420000  0.62770000  1.0 -0.0685629612
C  C7  1  0.11580000  0.17040000  0.12770000  1.0 -0.0685629612
C  C8  1  0.17040000  0.11580000  0.37230000  1.0 -0.0685629612
C  C9  1  0.90010000  0.66530000  0.88860000  1.0 -0.5068841735
C  C10  1  0.66530000  0.90010000  0.61140000  1.0 -0.5068841735
C  C11  1  0.09990000  0.33470000  0.11140000  1.0 -0.5068841735
C  C12  1  0.33470000  0.09990000  0.38860000  1.0 -0.5068841735
O  O1  1  0.33730000  0.64590000  0.78350000  1.0 -0.64594704
O  O2  1  0.64590000  0.33730000  0.71650000  1.0 -0.64594704
O  O3  1  0.66270000  0.35410000  0.21650000  1.0 -0.64594704
O  O4  1  0.35410000  0.66270000  0.28350000  1.0 -0.64594704
O  O5  1  0.49143000  0.95397000  0.82887000  1.0 -0.7280733147
O  O6  1  0.95397000  0.49143000  0.67113000  1.0 -0.7280733147
O  O7  1  0.50857000  0.04603000  0.17113000  1.0 -0.7280733147
O  O8  1  0.04603000  0.50857000  0.32887000  1.0 -0.7280733147
O  O9  1  0.73200000  0.07160000  0.76029000  1.0 -0.7577237248
O  O10  1  0.07160000  0.73200000  0.73971000  1.0 -0.7577237248
O  O11  1  0.26800000  0.92840000  0.23971000  1.0 -0.7577237248
O  O12  1  0.92840000  0.26800000  0.26029000  1.0 -0.7577237248
O  O13  1  0.21695000  0.78965000  0.87523000  1.0 -0.7078498164
O  O14  1  0.78965000  0.21695000  0.62477000  1.0 -0.7078498164
O  O15  1  0.78305000  0.21035000  0.12477000  1.0 -0.7078498164
O  O16  1  0.21035000  0.78305000  0.37523000  1.0 -0.7078498164
O  O17  1  0.09747000  0.50073000  0.92522000  1.0 -0.8003410557
O  O18  1  0.50073000  0.09747000  0.57478000  1.0 -0.8003410557
O  O19  1  0.90253000  0.49927000  0.07478000  1.0 -0.8003410557
O  O20  1  0.49927000  0.90253000  0.42522000  1.0 -0.8003410557
O  O21  1  0.34970000  0.94010000  0.69028000  1.0 -0.7542527873
O  O22  1  0.94010000  0.34970000  0.80972000  1.0 -0.7542527873
O  O23  1  0.65030000  0.05990000  0.30972000  1.0 -0.7577237248
O  O24  1  0.05990000  0.65030000  0.19028000  1.0 -0.7542527873
O  O25  1  0.08010000  0.19070000  0.94064000  1.0 -0.6174350241
O  O26  1  0.19070000  0.08010000  0.55936000  1.0 -0.6174350241
O  O27  1  0.91990000  0.80930000  0.05936000  1.0 -0.6174350241
O  O28  1  0.80930000  0.91990000  0.44064000  1.0 -0.6174350241
O  O29  1  0.75191000  0.10109000  0.89463000  1.0 -0.7577237248
O  O30  1  0.10109000  0.75191000  0.60537000  1.0 -0.7577237248
O  O31  1  0.24809000  0.89891000  0.10537000  1.0 -0.7577237248
O  O32  1  0.89891000  0.24809000  0.39463000  1.0 -0.7577237248
O  O33  1  0.14248000  0.72152000  0.99964000  1.0 -0.7683503339
O  O34  1  0.72152000  0.14248000  0.50036000  1.0 -0.7683503339
O  O35  1  0.85752000  0.27848000  0.00036000  1.0 -0.7683503339
O  O36  1  0.27848000  0.85752000  0.49964000  1.0 -0.7683503339
O  O37  1  0.21360000  0.03240000  0.77080000  1.0 -0.5280844429
O  O38  1  0.03240000  0.21360000  0.72920000  1.0 -0.5280844429
O  O39  1  0.78640000  0.96760000  0.22920000  1.0 -0.5280844429
O  O40  1  0.96760000  0.78640000  0.27080000  1.0 -0.5280844429
