# DDEC6 charges by PACMAN v1.1 (https://github.com/mtap-research/PACMAN-charge/)
data_OCURAG_ion_pacman
_symmetry_space_group_name_H-M   'P 1'
_cell_length_a   9.33927000
_cell_length_b   9.33927000
_cell_length_c   18.67950000
_cell_angle_alpha   77.08270000
_cell_angle_beta   102.91700000
_cell_angle_gamma   113.72100000
_symmetry_Int_Tables_number   1
_chemical_formula_structural   V2P2H16C6NO9
_chemical_formula_sum   'V8 P8 H64 C24 N4 O36'
_cell_volume   1437.47800977
_cell_formula_units_Z   4
loop_
 _symmetry_equiv_pos_site_id
 _symmetry_equiv_pos_as_xyz
  1  'x, y, z'
loop_
 _atom_site_type_symbol
 _atom_site_label
 _atom_site_symmetry_multiplicity
 _atom_site_fract_x
 _atom_site_fract_y
 _atom_site_fract_z
 _atom_site_occupancy
 _atom_site_charge
V  V1  1  0.45433000  0.78441000  0.91550000  1.0 1.8779318091
V  V2  1  0.78441000  0.45433000  0.58450000  1.0 1.8779318091
V  V3  1  0.54567000  0.21559000  0.08450000  1.0 1.8779318091
V  V4  1  0.21559000  0.54567000  0.41550000  1.0 1.8779318091
V  V5  1  0.29862000  0.79516000  0.71252000  1.0 1.8674670712
V  V6  1  0.79516000  0.29862000  0.78748000  1.0 1.8674670712
V  V7  1  0.70138000  0.20484000  0.28748000  1.0 1.8649373706
V  V8  1  0.20484000  0.70138000  0.21252000  1.0 1.8674670712
P  P1  1  0.41269000  0.82747000  0.07875000  1.0 1.3900049385
P  P2  1  0.82747000  0.41269000  0.42125000  1.0 1.3900049385
P  P3  1  0.58731000  0.17253000  0.92125000  1.0 1.3900049385
P  P4  1  0.17253000  0.58731000  0.57875000  1.0 1.3900049385
P  P5  1  0.83183000  0.50357000  0.16281000  1.0 1.3705240246
P  P6  1  0.50357000  0.83183000  0.33719000  1.0 1.3705240246
P  P7  1  0.16817000  0.49643000  0.83719000  1.0 1.3705240246
P  P8  1  0.49643000  0.16817000  0.66281000  1.0 1.3705240246
H  H1  1  0.64370000  0.87090000  0.16220000  1.0 0.1490608817
H  H2  1  0.87090000  0.64370000  0.33780000  1.0 0.1490608817
H  H3  1  0.35630000  0.12910000  0.83780000  1.0 0.1490608817
H  H4  1  0.12910000  0.35630000  0.66220000  1.0 0.1490608817
H  H5  1  0.68000000  0.89980000  0.07950000  1.0 0.1490608817
H  H6  1  0.89980000  0.68000000  0.42050000  1.0 0.1490608817
H  H7  1  0.32000000  0.10020000  0.92050000  1.0 0.1490608817
H  H8  1  0.10020000  0.32000000  0.57950000  1.0 0.1490608817
H  H9  1  0.85410000  0.75050000  0.17760000  1.0 0.1490608817
H  H10  1  0.75050000  0.85410000  0.32240000  1.0 0.1490608817
H  H11  1  0.14590000  0.24950000  0.82240000  1.0 0.1490608817
H  H12  1  0.24950000  0.14590000  0.67760000  1.0 0.1490608817
H  H13  1  0.83610000  0.74090000  0.09170000  1.0 0.1490608817
H  H14  1  0.74090000  0.83610000  0.40830000  1.0 0.1490608817
H  H15  1  0.16390000  0.25910000  0.90830000  1.0 0.1490608817
H  H16  1  0.25910000  0.16390000  0.59170000  1.0 0.1490608817
H  H17  1  0.57490000  0.60110000  0.17330000  1.0 0.1028429913
H  H18  1  0.60110000  0.57490000  0.32670000  1.0 0.1028429913
H  H19  1  0.42510000  0.39890000  0.82670000  1.0 0.1028429913
H  H20  1  0.39890000  0.42510000  0.67330000  1.0 0.1028429913
H  H21  1  0.56150000  0.60830000  0.08560000  1.0 0.1028429913
H  H22  1  0.60830000  0.56150000  0.41440000  1.0 0.1028429913
H  H23  1  0.43850000  0.39170000  0.91440000  1.0 0.1028429913
H  H24  1  0.39170000  0.43850000  0.58560000  1.0 0.1028429913
H  H25  1  0.49300000  0.92700000  0.80400000  1.0 0.3935664352
H  H26  1  0.92700000  0.49300000  0.69600000  1.0 0.3935664352
H  H27  1  0.50700000  0.07300000  0.19600000  1.0 0.3935664352
H  H28  1  0.07300000  0.50700000  0.30400000  1.0 0.3935664352
H  H29  1  0.10030000  0.49850000  0.02750000  1.0 0.2903574463
H  H30  1  0.49850000  0.10030000  0.47250000  1.0 0.2903574463
H  H31  1  0.22300000  0.46020000  0.00570000  1.0 0.3167887088
H  H32  1  0.46020000  0.22300000  0.49430000  1.0 0.3167887088
H  H33  1  0.23570000  0.48230000  0.08350000  1.0 0.3065677639
H  H34  1  0.48230000  0.23570000  0.41650000  1.0 0.3065677639
H  H35  1  0.94320000  0.21160000  0.04170000  1.0 0.1120587941
H  H36  1  0.21160000  0.94320000  0.45830000  1.0 0.1120587941
H  H37  1  0.09760000  0.17380000  0.04620000  1.0 0.1151925865
H  H38  1  0.17380000  0.09760000  0.45380000  1.0 0.1151925865
H  H39  1  0.97550000  0.20050000  0.17240000  1.0 0.1028429913
H  H40  1  0.20050000  0.97550000  0.32760000  1.0 0.1028429913
H  H41  1  0.02280000  0.05800000  0.16590000  1.0 0.1028429913
H  H42  1  0.05800000  0.02280000  0.33410000  1.0 0.1028429913
H  H43  1  0.24300000  0.36040000  0.18960000  1.0 0.0701777395
H  H44  1  0.36040000  0.24300000  0.31040000  1.0 0.0701777395
H  H45  1  0.28650000  0.21490000  0.18630000  1.0 0.0909930374
H  H46  1  0.21490000  0.28650000  0.31370000  1.0 0.0909930374
H  H47  1  0.89970000  0.50150000  0.97250000  1.0 0.2903574463
H  H48  1  0.50150000  0.89970000  0.52750000  1.0 0.2903574463
H  H49  1  0.77700000  0.53980000  0.99430000  1.0 0.3167887088
H  H50  1  0.53980000  0.77700000  0.50570000  1.0 0.3167887088
H  H51  1  0.76430000  0.51770000  0.91650000  1.0 0.3065677639
H  H52  1  0.51770000  0.76430000  0.58350000  1.0 0.3065677639
H  H53  1  0.05680000  0.78840000  0.95830000  1.0 0.1120587941
H  H54  1  0.78840000  0.05680000  0.54170000  1.0 0.1120587941
H  H55  1  0.90240000  0.82620000  0.95380000  1.0 0.1151925865
H  H56  1  0.82620000  0.90240000  0.54620000  1.0 0.1151925865
H  H57  1  0.02450000  0.79950000  0.82760000  1.0 0.1028429913
H  H58  1  0.79950000  0.02450000  0.67240000  1.0 0.1028429913
H  H59  1  0.97720000  0.94200000  0.83410000  1.0 0.1028429913
H  H60  1  0.94200000  0.97720000  0.66590000  1.0 0.1028429913
H  H61  1  0.75700000  0.63960000  0.81040000  1.0 0.0701777395
H  H62  1  0.63960000  0.75700000  0.68960000  1.0 0.0701777395
H  H63  1  0.71350000  0.78510000  0.81370000  1.0 0.0909930374
H  H64  1  0.78510000  0.71350000  0.68630000  1.0 0.0909930374
C  C1  1  0.60760000  0.82760000  0.11470000  1.0 -0.5241622273
C  C2  1  0.82760000  0.60760000  0.38530000  1.0 -0.5241622273
C  C3  1  0.39240000  0.17240000  0.88530000  1.0 -0.5241622273
C  C4  1  0.17240000  0.39240000  0.61470000  1.0 -0.5241622273
C  C5  1  0.79410000  0.68350000  0.13850000  1.0 -0.5104361717
C  C6  1  0.68350000  0.79410000  0.36150000  1.0 -0.5104361717
C  C7  1  0.20590000  0.31650000  0.86150000  1.0 -0.5104361717
C  C8  1  0.31650000  0.20590000  0.63850000  1.0 -0.5104361717
C  C9  1  0.62130000  0.66490000  0.12840000  1.0 -0.0453262683
C  C10  1  0.66490000  0.62130000  0.37160000  1.0 -0.0453262683
C  C11  1  0.37870000  0.33510000  0.87160000  1.0 -0.0453262683
C  C12  1  0.33510000  0.37870000  0.62840000  1.0 -0.0453262683
C  C13  1  0.05440000  0.23440000  0.06620000  1.0 -0.1569642406
C  C14  1  0.23440000  0.05440000  0.43380000  1.0 -0.1569642406
C  C15  1  0.05540000  0.17460000  0.15650000  1.0 -0.1527953502
C  C16  1  0.17460000  0.05540000  0.34350000  1.0 -0.1527953502
C  C17  1  0.21050000  0.24430000  0.20350000  1.0 -0.1380961034
C  C18  1  0.24430000  0.21050000  0.29650000  1.0 -0.1380961034
C  C19  1  0.94560000  0.76560000  0.93380000  1.0 -0.1569642406
C  C20  1  0.76560000  0.94560000  0.56620000  1.0 -0.1569642406
C  C21  1  0.94460000  0.82540000  0.84350000  1.0 -0.1527953502
C  C22  1  0.82540000  0.94460000  0.65650000  1.0 -0.1527953502
C  C23  1  0.78950000  0.75570000  0.79650000  1.0 -0.1380961034
C  C24  1  0.75570000  0.78950000  0.70350000  1.0 -0.1380961034
N  N1  1  0.16750000  0.44530000  0.04280000  1.0 -0.5241622273
N  N2  1  0.44530000  0.16750000  0.45720000  1.0 -0.5241622273
N  N3  1  0.83250000  0.55470000  0.95720000  1.0 -0.5241622273
N  N4  1  0.55470000  0.83250000  0.54280000  1.0 -0.5241622273
O  O1  1  0.36530000  0.78010000  0.00107000  1.0 -0.8288346026
O  O2  1  0.78010000  0.36530000  0.49893000  1.0 -0.8288346026
O  O3  1  0.63470000  0.21990000  0.99893000  1.0 -0.8288346026
O  O4  1  0.21990000  0.63470000  0.50107000  1.0 -0.8288346026
O  O5  1  0.41274000  0.99006000  0.07871000  1.0 -0.8382223193
O  O6  1  0.99006000  0.41274000  0.42129000  1.0 -0.8382223193
O  O7  1  0.58726000  0.00994000  0.92129000  1.0 -0.8382223193
O  O8  1  0.00994000  0.58726000  0.57871000  1.0 -0.8382223193
O  O9  1  0.58500000  0.70640000  0.94082000  1.0 -0.6702553425
O  O10  1  0.70640000  0.58500000  0.55918000  1.0 -0.6702553425
O  O11  1  0.41500000  0.29360000  0.05918000  1.0 -0.6702553425
O  O12  1  0.29360000  0.41500000  0.44082000  1.0 -0.6702553425
O  O13  1  0.74280000  0.39960000  0.10203000  1.0 -0.8288346026
O  O14  1  0.39960000  0.74280000  0.39797000  1.0 -0.8288346026
O  O15  1  0.25720000  0.60040000  0.89797000  1.0 -0.8288346026
O  O16  1  0.60040000  0.25720000  0.60203000  1.0 -0.8288346026
O  O17  1  0.43120000  0.85460000  0.80756000  1.0 -0.8483257536
O  O18  1  0.85460000  0.43120000  0.69244000  1.0 -0.8483257536
O  O19  1  0.56880000  0.14540000  0.19244000  1.0 -0.8483257536
O  O20  1  0.14540000  0.56880000  0.30756000  1.0 -0.8483257536
O  O21  1  0.77730000  0.42570000  0.23814000  1.0 -0.8483257536
O  O22  1  0.42570000  0.77730000  0.26186000  1.0 -0.8483257536
O  O23  1  0.22270000  0.57430000  0.76186000  1.0 -0.8483257536
O  O24  1  0.57430000  0.22270000  0.73814000  1.0 -0.8483257536
O  O25  1  0.14650000  0.83850000  0.70051000  1.0 -0.6702553425
O  O26  1  0.83850000  0.14650000  0.79949000  1.0 -0.6702553425
O  O27  1  0.85350000  0.16150000  0.29949000  1.0 -0.6702553425
O  O28  1  0.16150000  0.85350000  0.20051000  1.0 -0.6702553425
O  O29  1  0.00885000  0.54655000  0.16566000  1.0 -0.8118085582
O  O30  1  0.54655000  0.00885000  0.33434000  1.0 -0.8118085582
O  O31  1  0.99115000  0.45345000  0.83434000  1.0 -0.8118085582
O  O32  1  0.45345000  0.99115000  0.66566000  1.0 -0.8118085582
O  O33  1  0.29297000  0.70023000  0.12641000  1.0 -0.8118085582
O  O34  1  0.70023000  0.29297000  0.37359000  1.0 -0.8118085582
O  O35  1  0.70703000  0.29977000  0.87359000  1.0 -0.8118085582
O  O36  1  0.29977000  0.70703000  0.62641000  1.0 -0.8118085582
