# DDEC6 charges by PACMAN v1.1 (https://github.com/mtap-research/PACMAN-charge/)
data_OCUREK_ASR_pacman
_symmetry_space_group_name_H-M   'P 1'
_cell_length_a   9.37507000
_cell_length_b   9.37507000
_cell_length_c   18.61030000
_cell_angle_alpha   77.97660000
_cell_angle_beta   102.02300000
_cell_angle_gamma   115.09400000
_symmetry_Int_Tables_number   1
_chemical_formula_structural   V3P2H7C3O8
_chemical_formula_sum   'V12 P8 H28 C12 O32'
_cell_volume   1435.46282286
_cell_formula_units_Z   4
loop_
 _symmetry_equiv_pos_site_id
 _symmetry_equiv_pos_as_xyz
  1  'x, y, z'
loop_
 _atom_site_type_symbol
 _atom_site_label
 _atom_site_symmetry_multiplicity
 _atom_site_fract_x
 _atom_site_fract_y
 _atom_site_fract_z
 _atom_site_occupancy
 _atom_site_charge
V  V1  1  0.71364000  0.03688000  0.91482000  1.0 1.528060007
V  V2  1  0.03688000  0.71364000  0.58518000  1.0 1.528060007
V  V3  1  0.28636000  0.96312000  0.08518000  1.0 1.528060007
V  V4  1  0.96312000  0.28636000  0.41482000  1.0 1.528060007
V  V5  1  0.80899000  0.29389000  0.21479000  1.0 1.0196070253
V  V6  1  0.29389000  0.80899000  0.28521000  1.0 1.0196070253
V  V7  1  0.19101000  0.70611000  0.78521000  1.0 1.0196070253
V  V8  1  0.70611000  0.19101000  0.71479000  1.0 1.0196070253
V  V9  1  0.89370000  0.27650000  0.21910000  1.0 1.0049632369
V  V10  1  0.27650000  0.89370000  0.28090000  1.0 1.0061039506
V  V11  1  0.10630000  0.72350000  0.78090000  1.0 1.0061039506
V  V12  1  0.72350000  0.10630000  0.71910000  1.0 1.0049632369
P  P1  1  0.99136000  0.67598000  0.16525000  1.0 1.3516462325
P  P2  1  0.67598000  0.99136000  0.33475000  1.0 1.3516462325
P  P3  1  0.00864000  0.32402000  0.83475000  1.0 1.3516462325
P  P4  1  0.32402000  0.00864000  0.66525000  1.0 1.3516462325
P  P5  1  0.67568000  0.08882000  0.07793000  1.0 1.3824973582
P  P6  1  0.08882000  0.67568000  0.42207000  1.0 1.3824973582
P  P7  1  0.32432000  0.91118000  0.92207000  1.0 1.3824973582
P  P8  1  0.91118000  0.32432000  0.57793000  1.0 1.3824973582
H  H1  1  0.74490000  0.65050000  0.18430000  1.0 0.148044224
H  H2  1  0.65050000  0.74490000  0.31570000  1.0 0.148044224
H  H3  1  0.25510000  0.34950000  0.81570000  1.0 0.148044224
H  H4  1  0.34950000  0.25510000  0.68430000  1.0 0.148044224
H  H5  1  0.74780000  0.65600000  0.09820000  1.0 0.148044224
H  H6  1  0.65600000  0.74780000  0.40180000  1.0 0.148044224
H  H7  1  0.25220000  0.34400000  0.90180000  1.0 0.148044224
H  H8  1  0.34400000  0.25220000  0.59820000  1.0 0.148044224
H  H9  1  0.59730000  0.81970000  0.07850000  1.0 0.137374851
H  H10  1  0.81970000  0.59730000  0.42150000  1.0 0.137374851
H  H11  1  0.40270000  0.18030000  0.92150000  1.0 0.137374851
H  H12  1  0.18030000  0.40270000  0.57850000  1.0 0.137374851
H  H13  1  0.62190000  0.85810000  0.16090000  1.0 0.137374851
H  H14  1  0.85810000  0.62190000  0.33910000  1.0 0.137374851
H  H15  1  0.37810000  0.14190000  0.83910000  1.0 0.137374851
H  H16  1  0.14190000  0.37810000  0.66090000  1.0 0.137374851
H  H17  1  0.89400000  0.93220000  0.17310000  1.0 0.0863527479
H  H18  1  0.93220000  0.89400000  0.32690000  1.0 0.0863527479
H  H19  1  0.10600000  0.06780000  0.82690000  1.0 0.0863527479
H  H20  1  0.06780000  0.10600000  0.67310000  1.0 0.0863527479
H  H21  1  0.88870000  0.93550000  0.08620000  1.0 0.0741414233
H  H22  1  0.93550000  0.88870000  0.41380000  1.0 0.0741414233
H  H23  1  0.11130000  0.06450000  0.91380000  1.0 0.0741414233
H  H24  1  0.06450000  0.11130000  0.58620000  1.0 0.0741414233
H  H25  1  0.58000000  0.01000000  0.80400000  1.0 0.3114279686
H  H26  1  0.01000000  0.58000000  0.69600000  1.0 0.3114279686
H  H27  1  0.42000000  0.99000000  0.19600000  1.0 0.3114279686
H  H28  1  0.99000000  0.42000000  0.30400000  1.0 0.3114279686
C  C1  1  0.80900000  0.70600000  0.14303000  1.0 -0.5046992348
C  C2  1  0.70600000  0.80900000  0.35697000  1.0 -0.5046992348
C  C3  1  0.19100000  0.29400000  0.85697000  1.0 -0.5046992348
C  C4  1  0.29400000  0.19100000  0.64303000  1.0 -0.5046992348
C  C5  1  0.66890000  0.89350000  0.11410000  1.0 -0.5390405478
C  C6  1  0.89350000  0.66890000  0.38590000  1.0 -0.5390405478
C  C7  1  0.33110000  0.10650000  0.88590000  1.0 -0.5390405478
C  C8  1  0.10650000  0.33110000  0.61410000  1.0 -0.5390405478
C  C9  1  0.83020000  0.88000000  0.12924000  1.0 -0.0795590998
C  C10  1  0.88000000  0.83020000  0.37076000  1.0 -0.0795590998
C  C11  1  0.16980000  0.12000000  0.87076000  1.0 -0.0795590998
C  C12  1  0.12000000  0.16980000  0.62924000  1.0 -0.0795590998
O  O1  1  0.95207000  0.50013000  0.16725000  1.0 -0.7706982614
O  O2  1  0.50013000  0.95207000  0.33275000  1.0 -0.7706982614
O  O3  1  0.04793000  0.49987000  0.83275000  1.0 -0.7706982614
O  O4  1  0.49987000  0.04793000  0.66725000  1.0 -0.7706982614
O  O5  1  0.65345000  0.32415000  0.21008000  1.0 -0.7117301049
O  O6  1  0.32415000  0.65345000  0.28992000  1.0 -0.7117301049
O  O7  1  0.34655000  0.67585000  0.78992000  1.0 -0.7117301049
O  O8  1  0.67585000  0.34655000  0.71008000  1.0 -0.7117301049
O  O9  1  0.07110000  0.73730000  0.23934000  1.0 -0.8089923234
O  O10  1  0.73730000  0.07110000  0.26066000  1.0 -0.8089923234
O  O11  1  0.92890000  0.26270000  0.76066000  1.0 -0.8089923234
O  O12  1  0.26270000  0.92890000  0.73934000  1.0 -0.8089923234
O  O13  1  0.80621000  0.21199000  0.12457000  1.0 -0.7607031883
O  O14  1  0.21199000  0.80621000  0.37543000  1.0 -0.7607031883
O  O15  1  0.19379000  0.78801000  0.87543000  1.0 -0.7607031883
O  O16  1  0.78801000  0.19379000  0.62457000  1.0 -0.7607031883
O  O17  1  0.72626000  0.13254000  0.00043000  1.0 -0.7869994761
O  O18  1  0.13254000  0.72626000  0.49957000  1.0 -0.7869994761
O  O19  1  0.27374000  0.86746000  0.99957000  1.0 -0.7869994761
O  O20  1  0.86746000  0.27374000  0.50043000  1.0 -0.7869994761
O  O21  1  0.09369000  0.76811000  0.10272000  1.0 -0.8012566389
O  O22  1  0.76811000  0.09369000  0.39728000  1.0 -0.8012566389
O  O23  1  0.90631000  0.23189000  0.89728000  1.0 -0.8012566389
O  O24  1  0.23189000  0.90631000  0.60272000  1.0 -0.8012566389
O  O25  1  0.51408000  0.08892000  0.07786000  1.0 -0.8235273035
O  O26  1  0.08892000  0.51408000  0.42214000  1.0 -0.8235273035
O  O27  1  0.48592000  0.91108000  0.92214000  1.0 -0.8235273035
O  O28  1  0.91108000  0.48592000  0.57786000  1.0 -0.8235273035
O  O29  1  0.64790000  0.05590000  0.80796000  1.0 -0.7428983272
O  O30  1  0.05590000  0.64790000  0.69204000  1.0 -0.7428983272
O  O31  1  0.35210000  0.94410000  0.19204000  1.0 -0.7428983272
O  O32  1  0.94410000  0.35210000  0.30796000  1.0 -0.7428983272
