# DDEC6 charges by PACMAN v1.1 (https://github.com/mtap-research/PACMAN-charge/)
data_OCUSOV_ASR_pacman
_symmetry_space_group_name_H-M   'P 1'
_cell_length_a   9.05022000
_cell_length_b   9.05022000
_cell_length_c   18.60400000
_cell_angle_alpha   80.90010000
_cell_angle_beta   99.09990000
_cell_angle_gamma   111.96700000
_symmetry_Int_Tables_number   1
_chemical_formula_structural   V2P2H7C3O7
_chemical_formula_sum   'V8 P8 H28 C12 O28'
_cell_volume   1387.19685681
_cell_formula_units_Z   4
loop_
 _symmetry_equiv_pos_site_id
 _symmetry_equiv_pos_as_xyz
  1  'x, y, z'
loop_
 _atom_site_type_symbol
 _atom_site_label
 _atom_site_symmetry_multiplicity
 _atom_site_fract_x
 _atom_site_fract_y
 _atom_site_fract_z
 _atom_site_occupancy
 _atom_site_charge
V  V1  1  0.45509000  0.77305000  0.91415000  1.0 1.550169002
V  V2  1  0.77305000  0.45509000  0.58585000  1.0 1.550169002
V  V3  1  0.54491000  0.22695000  0.08585000  1.0 1.550169002
V  V4  1  0.22695000  0.54491000  0.41415000  1.0 1.550169002
V  V5  1  0.29905000  0.79269000  0.71865000  1.0 1.510163497
V  V6  1  0.79269000  0.29905000  0.78135000  1.0 1.510163497
V  V7  1  0.70095000  0.20731000  0.28135000  1.0 1.510163497
V  V8  1  0.20731000  0.70095000  0.21865000  1.0 1.510163497
P  P1  1  0.59172000  0.16320000  0.92298000  1.0 1.3862937202
P  P2  1  0.16320000  0.59172000  0.57702000  1.0 1.3862937202
P  P3  1  0.40828000  0.83680000  0.07702000  1.0 1.3862937202
P  P4  1  0.83680000  0.40828000  0.42298000  1.0 1.3862937202
P  P5  1  0.16753000  0.49273000  0.83314000  1.0 1.3617478123
P  P6  1  0.49273000  0.16753000  0.66686000  1.0 1.3617478123
P  P7  1  0.83247000  0.50727000  0.16686000  1.0 1.3617478123
P  P8  1  0.50727000  0.83247000  0.33314000  1.0 1.3617478123
H  H1  1  0.32150000  0.09490000  0.92600000  1.0 0.1408975978
H  H2  1  0.09490000  0.32150000  0.57400000  1.0 0.1408975978
H  H3  1  0.67850000  0.90510000  0.07400000  1.0 0.1408975978
H  H4  1  0.90510000  0.67850000  0.42600000  1.0 0.1408975978
H  H5  1  0.35810000  0.10490000  0.84550000  1.0 0.1322869097
H  H6  1  0.10490000  0.35810000  0.65450000  1.0 0.1322869097
H  H7  1  0.64190000  0.89510000  0.15450000  1.0 0.1322869097
H  H8  1  0.89510000  0.64190000  0.34550000  1.0 0.1322869097
H  H9  1  0.42570000  0.38290000  0.91510000  1.0 0.0789003035
H  H10  1  0.38290000  0.42570000  0.58490000  1.0 0.0789003035
H  H11  1  0.57430000  0.61710000  0.08490000  1.0 0.0789003035
H  H12  1  0.61710000  0.57430000  0.41510000  1.0 0.0789003035
H  H13  1  0.43610000  0.38150000  0.83180000  1.0 0.1014938613
H  H14  1  0.38150000  0.43610000  0.66820000  1.0 0.1014938613
H  H15  1  0.56390000  0.61850000  0.16820000  1.0 0.1014938613
H  H16  1  0.61850000  0.56390000  0.33180000  1.0 0.1014938613
H  H17  1  0.15550000  0.24370000  0.81510000  1.0 0.1322869097
H  H18  1  0.24370000  0.15550000  0.68490000  1.0 0.1322869097
H  H19  1  0.84450000  0.75630000  0.18490000  1.0 0.1322869097
H  H20  1  0.75630000  0.84450000  0.31510000  1.0 0.1322869097
H  H21  1  0.14630000  0.24950000  0.89780000  1.0 0.1408975978
H  H22  1  0.24950000  0.14630000  0.60220000  1.0 0.1408975978
H  H23  1  0.85370000  0.75050000  0.10220000  1.0 0.1408975978
H  H24  1  0.75050000  0.85370000  0.39780000  1.0 0.1408975978
H  H25  1  0.48800000  0.90400000  0.80200000  1.0 0.3684253504
H  H26  1  0.90400000  0.48800000  0.69800000  1.0 0.3684253504
H  H27  1  0.51200000  0.09600000  0.19800000  1.0 0.3684253504
H  H28  1  0.09600000  0.51200000  0.30200000  1.0 0.3684253504
C  C1  1  0.39310000  0.15830000  0.88980000  1.0 -0.54151224
C  C2  1  0.15830000  0.39310000  0.61020000  1.0 -0.54151224
C  C3  1  0.60690000  0.84170000  0.11020000  1.0 -0.54151224
C  C4  1  0.84170000  0.60690000  0.38980000  1.0 -0.54151224
C  C5  1  0.37810000  0.32290000  0.87320000  1.0 -0.0670535967
C  C6  1  0.32290000  0.37810000  0.62680000  1.0 -0.0670535967
C  C7  1  0.62190000  0.67710000  0.12680000  1.0 -0.0670535967
C  C8  1  0.67710000  0.62190000  0.37320000  1.0 -0.0670535967
C  C9  1  0.20230000  0.30770000  0.85570000  1.0 -0.5264782945
C  C10  1  0.30770000  0.20230000  0.64430000  1.0 -0.5264782945
C  C11  1  0.79770000  0.69230000  0.14430000  1.0 -0.5264782945
C  C12  1  0.69230000  0.79770000  0.35570000  1.0 -0.5264782945
O  O1  1  0.24810000  0.60010000  0.89451000  1.0 -0.8286176512
O  O2  1  0.60010000  0.24810000  0.60549000  1.0 -0.8286176512
O  O3  1  0.75190000  0.39990000  0.10549000  1.0 -0.8286176512
O  O4  1  0.39990000  0.75190000  0.39451000  1.0 -0.8286176512
O  O5  1  0.63610000  0.22030000  0.99910000  1.0 -0.8042561898
O  O6  1  0.22030000  0.63610000  0.50090000  1.0 -0.805277277
O  O7  1  0.36390000  0.77970000  0.00090000  1.0 -0.805277277
O  O8  1  0.77970000  0.36390000  0.49910000  1.0 -0.8042561898
O  O9  1  0.44310000  0.84150000  0.80890000  1.0 -0.819664296
O  O10  1  0.84150000  0.44310000  0.69110000  1.0 -0.819664296
O  O11  1  0.55690000  0.15850000  0.19110000  1.0 -0.819664296
O  O12  1  0.15850000  0.55690000  0.30890000  1.0 -0.819664296
O  O13  1  0.59820000  0.99820000  0.92300000  1.0 -0.865123559
O  O14  1  0.99820000  0.59820000  0.57700000  1.0 -0.8639032433
O  O15  1  0.40180000  0.00180000  0.07700000  1.0 -0.865123559
O  O16  1  0.00180000  0.40180000  0.42300000  1.0 -0.8639032433
O  O17  1  0.71220000  0.28680000  0.87438000  1.0 -0.7816849838
O  O18  1  0.28680000  0.71220000  0.62562000  1.0 -0.7816849838
O  O19  1  0.28780000  0.71320000  0.12562000  1.0 -0.7816849838
O  O20  1  0.71320000  0.28780000  0.37438000  1.0 -0.7816849838
O  O21  1  0.23457000  0.56783000  0.75990000  1.0 -0.8496070693
O  O22  1  0.56783000  0.23457000  0.74010000  1.0 -0.8496070693
O  O23  1  0.76543000  0.43217000  0.24010000  1.0 -0.8496070693
O  O24  1  0.43217000  0.76543000  0.25990000  1.0 -0.8496070693
O  O25  1  0.98760000  0.45600000  0.82760000  1.0 -0.819664296
O  O26  1  0.45600000  0.98760000  0.67240000  1.0 -0.819664296
O  O27  1  0.01240000  0.54400000  0.17240000  1.0 -0.819664296
O  O28  1  0.54400000  0.01240000  0.32760000  1.0 -0.819664296
