# DDEC6 charges by PACMAN v1.1 (https://github.com/mtap-research/PACMAN-charge/)
data_ODIKEV_FSR_pacman
_symmetry_space_group_name_H-M   'P 1'
_cell_length_a   13.08210000
_cell_length_b   13.08210000
_cell_length_c   18.17100000
_cell_angle_alpha   90.00000000
_cell_angle_beta   90.00000000
_cell_angle_gamma   90.00000000
_symmetry_Int_Tables_number   1
_chemical_formula_structural   Cd3H30C18(N3O5)2
_chemical_formula_sum   'Cd12 H120 C72 N24 O40'
_cell_volume   3109.80929659
_cell_formula_units_Z   4
loop_
 _symmetry_equiv_pos_site_id
 _symmetry_equiv_pos_as_xyz
  1  'x, y, z'
loop_
 _atom_site_type_symbol
 _atom_site_label
 _atom_site_symmetry_multiplicity
 _atom_site_fract_x
 _atom_site_fract_y
 _atom_site_fract_z
 _atom_site_occupancy
 _atom_site_charge
Cd  Cd1  1  0.00964000  0.53533000  0.61929000  1.0 0.9430508868
Cd  Cd2  1  0.99036000  0.46467000  0.11929000  1.0 0.9430508868
Cd  Cd3  1  0.96467000  0.50964000  0.36929000  1.0 0.9430508868
Cd  Cd4  1  0.03533000  0.49036000  0.86929000  1.0 0.9430508868
Cd  Cd5  1  0.49036000  0.03533000  0.13071000  1.0 0.9430508868
Cd  Cd6  1  0.50964000  0.96467000  0.63071000  1.0 0.9430508868
Cd  Cd7  1  0.53533000  0.00964000  0.38071000  1.0 0.9430508868
Cd  Cd8  1  0.46467000  0.99036000  0.88071000  1.0 0.9430508868
Cd  Cd9  1  0.24804000  0.24804000  0.00000000  1.0 0.7463636504
Cd  Cd10  1  0.75196000  0.75196000  0.50000000  1.0 0.7463636504
Cd  Cd11  1  0.25196000  0.74804000  0.75000000  1.0 0.7463636504
Cd  Cd12  1  0.74804000  0.25196000  0.25000000  1.0 0.7463636504
H  H1  1  0.88857000  0.40443000  0.53863000  1.0 0.3913836287
H  H2  1  0.90059000  0.35448000  0.61657000  1.0 0.4044748501
H  H3  1  0.25239000  0.23290000  0.71482000  1.0 0.1480145858
H  H4  1  0.21058000  0.03168000  0.05270000  1.0 0.1003170384
H  H5  1  0.09509000  0.01655000  0.07298000  1.0 0.0693682246
H  H6  1  0.13753000  0.97410000  0.99830000  1.0 0.1115854111
H  H7  1  0.45978000  0.28885000  0.05977000  1.0 0.0889799165
H  H8  1  0.52128000  0.35781000  0.00483000  1.0 0.0693682246
H  H9  1  0.47331000  0.40578000  0.07595000  1.0 0.0779203468
H  H10  1  0.29876000  0.42611000  0.07633000  1.0 0.0889799165
H  H11  1  0.41681000  0.44442000  0.08318000  1.0 0.0779203468
H  H12  1  0.35223000  0.50900000  0.02732000  1.0 0.0693682246
H  H13  1  0.21052000  0.02944000  0.94863000  1.0 0.1003170384
H  H14  1  0.13638000  0.97360000  0.00320000  1.0 0.1115854111
H  H15  1  0.09514000  0.01486000  0.92784000  1.0 0.0595098206
H  H16  1  0.11143000  0.59557000  0.03863000  1.0 0.3913836287
H  H17  1  0.09941000  0.64552000  0.11657000  1.0 0.4044748501
H  H18  1  0.74761000  0.76710000  0.21482000  1.0 0.1480145858
H  H19  1  0.78942000  0.96832000  0.55270000  1.0 0.1003170384
H  H20  1  0.90491000  0.98345000  0.57298000  1.0 0.0693682246
H  H21  1  0.86247000  0.02590000  0.49830000  1.0 0.1115854111
H  H22  1  0.54022000  0.71115000  0.55977000  1.0 0.0889799165
H  H23  1  0.47872000  0.64219000  0.50483000  1.0 0.0693682246
H  H24  1  0.52669000  0.59422000  0.57595000  1.0 0.0779203468
H  H25  1  0.70124000  0.57389000  0.57633000  1.0 0.0889799165
H  H26  1  0.58319000  0.55558000  0.58318000  1.0 0.0779203468
H  H27  1  0.64777000  0.49100000  0.52732000  1.0 0.0693682246
H  H28  1  0.78948000  0.97056000  0.44863000  1.0 0.1003170384
H  H29  1  0.86362000  0.02640000  0.50320000  1.0 0.1115854111
H  H30  1  0.90486000  0.98514000  0.42784000  1.0 0.0595098206
H  H31  1  0.09557000  0.38857000  0.28863000  1.0 0.3913836287
H  H32  1  0.14552000  0.40059000  0.36657000  1.0 0.4044748501
H  H33  1  0.26710000  0.75239000  0.46482000  1.0 0.1480145858
H  H34  1  0.46832000  0.71058000  0.80270000  1.0 0.1003170384
H  H35  1  0.48345000  0.59509000  0.82298000  1.0 0.0693682246
H  H36  1  0.52590000  0.63753000  0.74830000  1.0 0.1115854111
H  H37  1  0.21115000  0.95978000  0.80977000  1.0 0.0889799165
H  H38  1  0.14219000  0.02128000  0.75483000  1.0 0.0693682246
H  H39  1  0.09422000  0.97331000  0.82595000  1.0 0.0779203468
H  H40  1  0.07389000  0.79876000  0.82633000  1.0 0.0889799165
H  H41  1  0.05558000  0.91681000  0.83318000  1.0 0.0779203468
H  H42  1  0.99100000  0.85223000  0.77732000  1.0 0.0693682246
H  H43  1  0.47056000  0.71052000  0.69863000  1.0 0.1003170384
H  H44  1  0.52640000  0.63638000  0.75320000  1.0 0.1115854111
H  H45  1  0.48514000  0.59514000  0.67784000  1.0 0.0595098206
H  H46  1  0.90443000  0.61143000  0.78863000  1.0 0.3913836287
H  H47  1  0.85448000  0.59941000  0.86657000  1.0 0.4044748501
H  H48  1  0.73290000  0.24761000  0.96482000  1.0 0.1480145858
H  H49  1  0.53168000  0.28942000  0.30270000  1.0 0.1003170384
H  H50  1  0.51655000  0.40491000  0.32298000  1.0 0.0693682246
H  H51  1  0.47410000  0.36247000  0.24830000  1.0 0.1115854111
H  H52  1  0.78885000  0.04022000  0.30977000  1.0 0.0889799165
H  H53  1  0.85781000  0.97872000  0.25483000  1.0 0.0693682246
H  H54  1  0.90578000  0.02669000  0.32595000  1.0 0.0779203468
H  H55  1  0.92611000  0.20124000  0.32633000  1.0 0.0889799165
H  H56  1  0.94442000  0.08319000  0.33318000  1.0 0.0779203468
H  H57  1  0.00900000  0.14777000  0.27732000  1.0 0.0693682246
H  H58  1  0.52944000  0.28948000  0.19863000  1.0 0.1003170384
H  H59  1  0.47360000  0.36362000  0.25320000  1.0 0.1115854111
H  H60  1  0.51486000  0.40486000  0.17784000  1.0 0.0595098206
H  H61  1  0.61143000  0.90443000  0.21137000  1.0 0.3913836287
H  H62  1  0.59941000  0.85448000  0.13343000  1.0 0.4044748501
H  H63  1  0.24761000  0.73290000  0.03518000  1.0 0.1480145858
H  H64  1  0.28942000  0.53168000  0.69730000  1.0 0.1003170384
H  H65  1  0.40491000  0.51655000  0.67702000  1.0 0.0693682246
H  H66  1  0.36247000  0.47410000  0.75170000  1.0 0.1115854111
H  H67  1  0.04022000  0.78885000  0.69023000  1.0 0.0889799165
H  H68  1  0.97872000  0.85781000  0.74517000  1.0 0.0693682246
H  H69  1  0.02669000  0.90578000  0.67405000  1.0 0.0779203468
H  H70  1  0.20124000  0.92611000  0.67367000  1.0 0.0889799165
H  H71  1  0.08319000  0.94442000  0.66682000  1.0 0.0779203468
H  H72  1  0.14777000  0.00900000  0.72268000  1.0 0.0693682246
H  H73  1  0.28948000  0.52944000  0.80137000  1.0 0.1003170384
H  H74  1  0.36362000  0.47360000  0.74680000  1.0 0.1115854111
H  H75  1  0.40486000  0.51486000  0.82216000  1.0 0.0595098206
H  H76  1  0.38857000  0.09557000  0.71137000  1.0 0.3913836287
H  H77  1  0.40059000  0.14552000  0.63343000  1.0 0.4044748501
H  H78  1  0.75239000  0.26710000  0.53518000  1.0 0.1480145858
H  H79  1  0.71058000  0.46832000  0.19730000  1.0 0.1003170384
H  H80  1  0.59509000  0.48345000  0.17702000  1.0 0.0693682246
H  H81  1  0.63753000  0.52590000  0.25170000  1.0 0.1115854111
H  H82  1  0.95978000  0.21115000  0.19023000  1.0 0.0889799165
H  H83  1  0.02128000  0.14219000  0.24517000  1.0 0.0693682246
H  H84  1  0.97331000  0.09422000  0.17405000  1.0 0.0779203468
H  H85  1  0.79876000  0.07389000  0.17367000  1.0 0.0889799165
H  H86  1  0.91681000  0.05558000  0.16682000  1.0 0.0779203468
H  H87  1  0.85223000  0.99100000  0.22268000  1.0 0.0693682246
H  H88  1  0.71052000  0.47056000  0.30137000  1.0 0.1003170384
H  H89  1  0.63638000  0.52640000  0.24680000  1.0 0.1115854111
H  H90  1  0.59514000  0.48514000  0.32216000  1.0 0.0595098206
H  H91  1  0.40443000  0.88857000  0.46137000  1.0 0.3913836287
H  H92  1  0.35448000  0.90059000  0.38343000  1.0 0.4044748501
H  H93  1  0.23290000  0.25239000  0.28518000  1.0 0.1480145858
H  H94  1  0.03168000  0.21058000  0.94730000  1.0 0.1003170384
H  H95  1  0.01655000  0.09509000  0.92702000  1.0 0.0693682246
H  H96  1  0.97410000  0.13753000  0.00170000  1.0 0.1115854111
H  H97  1  0.28885000  0.45978000  0.94023000  1.0 0.0889799165
H  H98  1  0.35781000  0.52128000  0.99517000  1.0 0.0693682246
H  H99  1  0.40578000  0.47331000  0.92405000  1.0 0.0779203468
H  H100  1  0.42611000  0.29876000  0.92367000  1.0 0.0889799165
H  H101  1  0.44442000  0.41681000  0.91682000  1.0 0.0779203468
H  H102  1  0.50900000  0.35223000  0.97268000  1.0 0.0693682246
H  H103  1  0.02944000  0.21052000  0.05137000  1.0 0.1003170384
H  H104  1  0.97360000  0.13638000  0.99680000  1.0 0.1115854111
H  H105  1  0.01486000  0.09514000  0.07216000  1.0 0.0595098206
H  H106  1  0.59557000  0.11143000  0.96137000  1.0 0.3913836287
H  H107  1  0.64552000  0.09941000  0.88343000  1.0 0.4044748501
H  H108  1  0.76710000  0.74761000  0.78518000  1.0 0.1480145858
H  H109  1  0.96832000  0.78942000  0.44730000  1.0 0.1003170384
H  H110  1  0.98345000  0.90491000  0.42702000  1.0 0.0693682246
H  H111  1  0.02590000  0.86247000  0.50170000  1.0 0.1115854111
H  H112  1  0.71115000  0.54022000  0.44023000  1.0 0.0889799165
H  H113  1  0.64219000  0.47872000  0.49517000  1.0 0.0693682246
H  H114  1  0.59422000  0.52669000  0.42405000  1.0 0.0779203468
H  H115  1  0.57389000  0.70124000  0.42367000  1.0 0.0889799165
H  H116  1  0.55558000  0.58319000  0.41682000  1.0 0.0779203468
H  H117  1  0.49100000  0.64777000  0.47268000  1.0 0.0693682246
H  H118  1  0.97056000  0.78948000  0.55137000  1.0 0.1003170384
H  H119  1  0.02640000  0.86362000  0.49680000  1.0 0.1115854111
H  H120  1  0.98514000  0.90486000  0.57216000  1.0 0.0595098206
C  C1  1  0.32780000  0.15140000  0.85530000  1.0 0.5114452795
C  C2  1  0.25490000  0.23380000  0.83020000  1.0 0.018727377
C  C3  1  0.22960000  0.26100000  0.75890000  1.0 -0.2377212165
C  C4  1  0.16070000  0.34200000  0.77000000  1.0 0.018727377
C  C5  1  0.10380000  0.40480000  0.71590000  1.0 0.5434193121
C  C6  1  0.14230000  0.02870000  0.03350000  1.0 -0.2087807075
C  C7  1  0.46420000  0.35560000  0.03800000  1.0 -0.1831683951
C  C8  1  0.36000000  0.44300000  0.05000000  1.0 -0.1096252451
C  C9  1  0.14200000  0.02700000  0.96700000  1.0 -0.2188212645
C  C10  1  0.67220000  0.84860000  0.35530000  1.0 0.5114452795
C  C11  1  0.74510000  0.76620000  0.33020000  1.0 0.018727377
C  C12  1  0.77040000  0.73900000  0.25890000  1.0 -0.2377212165
C  C13  1  0.83930000  0.65800000  0.27000000  1.0 0.018727377
C  C14  1  0.89620000  0.59520000  0.21590000  1.0 0.5434193121
C  C15  1  0.85770000  0.97130000  0.53350000  1.0 -0.2087807075
C  C16  1  0.53580000  0.64440000  0.53800000  1.0 -0.1831683951
C  C17  1  0.64000000  0.55700000  0.55000000  1.0 -0.1096252451
C  C18  1  0.85800000  0.97300000  0.46700000  1.0 -0.2188212645
C  C19  1  0.34860000  0.82780000  0.60530000  1.0 0.5114452795
C  C20  1  0.26620000  0.75490000  0.58020000  1.0 0.018727377
C  C21  1  0.23900000  0.72960000  0.50890000  1.0 -0.2377212165
C  C22  1  0.15800000  0.66070000  0.52000000  1.0 0.018727377
C  C23  1  0.09520000  0.60380000  0.46590000  1.0 0.5434193121
C  C24  1  0.47130000  0.64230000  0.78350000  1.0 -0.2087807075
C  C25  1  0.14440000  0.96420000  0.78800000  1.0 -0.1831683951
C  C26  1  0.05700000  0.86000000  0.80000000  1.0 -0.1096252451
C  C27  1  0.47300000  0.64200000  0.71700000  1.0 -0.2188212645
C  C28  1  0.65140000  0.17220000  0.10530000  1.0 0.5114452795
C  C29  1  0.73380000  0.24510000  0.08020000  1.0 0.018727377
C  C30  1  0.76100000  0.27040000  0.00890000  1.0 -0.2377212165
C  C31  1  0.84200000  0.33930000  0.02000000  1.0 0.018727377
C  C32  1  0.90480000  0.39620000  0.96590000  1.0 0.5434193121
C  C33  1  0.52870000  0.35770000  0.28350000  1.0 -0.2087807075
C  C34  1  0.85560000  0.03580000  0.28800000  1.0 -0.1831683951
C  C35  1  0.94300000  0.14000000  0.30000000  1.0 -0.1096252451
C  C36  1  0.52700000  0.35800000  0.21700000  1.0 -0.2188212645
C  C37  1  0.17220000  0.65140000  0.89470000  1.0 0.5114452795
C  C38  1  0.24510000  0.73380000  0.91980000  1.0 0.018727377
C  C39  1  0.27040000  0.76100000  0.99110000  1.0 -0.2377212165
C  C40  1  0.33930000  0.84200000  0.98000000  1.0 0.018727377
C  C41  1  0.39620000  0.90480000  0.03410000  1.0 0.5434193121
C  C42  1  0.35770000  0.52870000  0.71650000  1.0 -0.2087807075
C  C43  1  0.03580000  0.85560000  0.71200000  1.0 -0.1831683951
C  C44  1  0.14000000  0.94300000  0.70000000  1.0 -0.1096252451
C  C45  1  0.35800000  0.52700000  0.78300000  1.0 -0.2188212645
C  C46  1  0.82780000  0.34860000  0.39470000  1.0 0.5114452795
C  C47  1  0.75490000  0.26620000  0.41980000  1.0 0.018727377
C  C48  1  0.72960000  0.23900000  0.49110000  1.0 -0.2377212165
C  C49  1  0.66070000  0.15800000  0.48000000  1.0 0.018727377
C  C50  1  0.60380000  0.09520000  0.53410000  1.0 0.5434193121
C  C51  1  0.64230000  0.47130000  0.21650000  1.0 -0.2087807075
C  C52  1  0.96420000  0.14440000  0.21200000  1.0 -0.1831683951
C  C53  1  0.86000000  0.05700000  0.20000000  1.0 -0.1096252451
C  C54  1  0.64200000  0.47300000  0.28300000  1.0 -0.2188212645
C  C55  1  0.15140000  0.32780000  0.14470000  1.0 0.5114452795
C  C56  1  0.23380000  0.25490000  0.16980000  1.0 0.018727377
C  C57  1  0.26100000  0.22960000  0.24110000  1.0 -0.2377212165
C  C58  1  0.34200000  0.16070000  0.23000000  1.0 0.018727377
C  C59  1  0.40480000  0.10380000  0.28410000  1.0 0.5434193121
C  C60  1  0.02870000  0.14230000  0.96650000  1.0 -0.2087807075
C  C61  1  0.35560000  0.46420000  0.96200000  1.0 -0.1831683951
C  C62  1  0.44300000  0.36000000  0.95000000  1.0 -0.1096252451
C  C63  1  0.02700000  0.14200000  0.03300000  1.0 -0.2188212645
C  C64  1  0.84860000  0.67220000  0.64470000  1.0 0.5114452795
C  C65  1  0.76620000  0.74510000  0.66980000  1.0 0.018727377
C  C66  1  0.73900000  0.77040000  0.74110000  1.0 -0.2377212165
C  C67  1  0.65800000  0.83930000  0.73000000  1.0 0.018727377
C  C68  1  0.59520000  0.89620000  0.78410000  1.0 0.5434193121
C  C69  1  0.97130000  0.85770000  0.46650000  1.0 -0.2087807075
C  C70  1  0.64440000  0.53580000  0.46200000  1.0 -0.1831683951
C  C71  1  0.55700000  0.64000000  0.45000000  1.0 -0.1096252451
C  C72  1  0.97300000  0.85800000  0.53300000  1.0 -0.2188212645
N  N1  1  0.14700000  0.35790000  0.84330000  1.0 -0.2188212645
N  N2  1  0.20580000  0.29170000  0.88010000  1.0 -0.2087807075
N  N3  1  0.85300000  0.64210000  0.34330000  1.0 -0.2188212645
N  N4  1  0.79420000  0.70830000  0.38010000  1.0 -0.2087807075
N  N5  1  0.14210000  0.64700000  0.59330000  1.0 -0.2188212645
N  N6  1  0.20830000  0.70580000  0.63010000  1.0 -0.2087807075
N  N7  1  0.85790000  0.35300000  0.09330000  1.0 -0.2188212645
N  N8  1  0.79170000  0.29420000  0.13010000  1.0 -0.2087807075
N  N9  1  0.35300000  0.85790000  0.90670000  1.0 -0.2188212645
N  N10  1  0.29420000  0.79170000  0.86990000  1.0 -0.2087807075
N  N11  1  0.64700000  0.14210000  0.40670000  1.0 -0.2188212645
N  N12  1  0.70580000  0.20830000  0.36990000  1.0 -0.2087807075
N  N13  1  0.35790000  0.14700000  0.15670000  1.0 -0.2188212645
N  N14  1  0.29170000  0.20580000  0.11990000  1.0 -0.2087807075
N  N15  1  0.64210000  0.85300000  0.65670000  1.0 -0.2188212645
N  N16  1  0.70830000  0.79420000  0.61990000  1.0 -0.2087807075
N  N17  1  0.11910000  0.11910000  0.00000000  1.0 -0.0584607159
N  N18  1  0.37590000  0.37590000  0.00000000  1.0 -0.0950711562
N  N19  1  0.88090000  0.88090000  0.50000000  1.0 -0.0584607159
N  N20  1  0.62410000  0.62410000  0.50000000  1.0 -0.0950711562
N  N21  1  0.38090000  0.61910000  0.75000000  1.0 -0.0584607159
N  N22  1  0.12410000  0.87590000  0.75000000  1.0 -0.0950711562
N  N23  1  0.61910000  0.38090000  0.25000000  1.0 -0.0584607159
N  N24  1  0.87590000  0.12410000  0.25000000  1.0 -0.0950711562
O  O1  1  0.33870000  0.13790000  0.92370000  1.0 -0.5503797798
O  O2  1  0.37000000  0.09730000  0.80860000  1.0 -0.5121498524
O  O3  1  0.03800000  0.46810000  0.74070000  1.0 -0.5756083025
O  O4  1  0.12200000  0.39740000  0.64890000  1.0 -0.5297152444
O  O5  1  0.88740000  0.41710000  0.59070000  1.0 -0.7475014522
O  O6  1  0.66130000  0.86210000  0.42370000  1.0 -0.5503797798
O  O7  1  0.63000000  0.90270000  0.30860000  1.0 -0.5121498524
O  O8  1  0.96200000  0.53190000  0.24070000  1.0 -0.5756083025
O  O9  1  0.87800000  0.60260000  0.14890000  1.0 -0.5297152444
O  O10  1  0.11260000  0.58290000  0.09070000  1.0 -0.7475014522
O  O11  1  0.36210000  0.83870000  0.67370000  1.0 -0.5503797798
O  O12  1  0.40270000  0.87000000  0.55860000  1.0 -0.5121498524
O  O13  1  0.03190000  0.53800000  0.49070000  1.0 -0.5756083025
O  O14  1  0.10260000  0.62200000  0.39890000  1.0 -0.5297152444
O  O15  1  0.08290000  0.38740000  0.34070000  1.0 -0.7475014522
O  O16  1  0.63790000  0.16130000  0.17370000  1.0 -0.5503797798
O  O17  1  0.59730000  0.13000000  0.05860000  1.0 -0.5121498524
O  O18  1  0.96810000  0.46200000  0.99070000  1.0 -0.5756083025
O  O19  1  0.89740000  0.37800000  0.89890000  1.0 -0.5297152444
O  O20  1  0.91710000  0.61260000  0.84070000  1.0 -0.7475014522
O  O21  1  0.16130000  0.63790000  0.82630000  1.0 -0.5503797798
O  O22  1  0.13000000  0.59730000  0.94140000  1.0 -0.5121498524
O  O23  1  0.46200000  0.96810000  0.00930000  1.0 -0.5756083025
O  O24  1  0.37800000  0.89740000  0.10110000  1.0 -0.5297152444
O  O25  1  0.61260000  0.91710000  0.15930000  1.0 -0.7475014522
O  O26  1  0.83870000  0.36210000  0.32630000  1.0 -0.5503797798
O  O27  1  0.87000000  0.40270000  0.44140000  1.0 -0.5121498524
O  O28  1  0.53800000  0.03190000  0.50930000  1.0 -0.5748309984
O  O29  1  0.62200000  0.10260000  0.60110000  1.0 -0.5297152444
O  O30  1  0.38740000  0.08290000  0.65930000  1.0 -0.7475014522
O  O31  1  0.13790000  0.33870000  0.07630000  1.0 -0.5503797798
O  O32  1  0.09730000  0.37000000  0.19140000  1.0 -0.5121498524
O  O33  1  0.46810000  0.03800000  0.25930000  1.0 -0.5748309984
O  O34  1  0.39740000  0.12200000  0.35110000  1.0 -0.5297152444
O  O35  1  0.41710000  0.88740000  0.40930000  1.0 -0.7475014522
O  O36  1  0.86210000  0.66130000  0.57630000  1.0 -0.5503797798
O  O37  1  0.90270000  0.63000000  0.69140000  1.0 -0.5121498524
O  O38  1  0.53190000  0.96200000  0.75930000  1.0 -0.5756083025
O  O39  1  0.60260000  0.87800000  0.85110000  1.0 -0.5297152444
O  O40  1  0.58290000  0.11260000  0.90930000  1.0 -0.7475014522
