# DDEC6 charges by PACMAN v1.1 (https://github.com/mtap-research/PACMAN-charge/)
data_ODIWIL_ASR_pacman
_symmetry_space_group_name_H-M   'P 1'
_cell_length_a   16.72010000
_cell_length_b   16.72010000
_cell_length_c   20.05830000
_cell_angle_alpha   77.66490000
_cell_angle_beta   102.33500000
_cell_angle_gamma   121.17400000
_symmetry_Int_Tables_number   1
_chemical_formula_structural   Co2H14C23(NO2)6
_chemical_formula_sum   'Co8 H56 C92 N24 O48'
_cell_volume   4651.28949112
_cell_formula_units_Z   4
loop_
 _symmetry_equiv_pos_site_id
 _symmetry_equiv_pos_as_xyz
  1  'x, y, z'
loop_
 _atom_site_type_symbol
 _atom_site_label
 _atom_site_symmetry_multiplicity
 _atom_site_fract_x
 _atom_site_fract_y
 _atom_site_fract_z
 _atom_site_occupancy
 _atom_site_charge
Co  Co1  1  0.83810000  0.26378000  0.41855000  1.0 1.0794902666
Co  Co2  1  0.26378000  0.83810000  0.08145000  1.0 1.0794902666
Co  Co3  1  0.16190000  0.73622000  0.58145000  1.0 1.0794902666
Co  Co4  1  0.73622000  0.16190000  0.91855000  1.0 1.0794902666
Co  Co5  1  0.01568000  0.80650000  0.62839000  1.0 1.003204219
Co  Co6  1  0.80650000  0.01568000  0.87161000  1.0 1.003204219
Co  Co7  1  0.98432000  0.19350000  0.37161000  1.0 1.003204219
Co  Co8  1  0.19350000  0.98432000  0.12839000  1.0 1.003204219
H  H1  1  0.32489000  0.65785000  0.67167000  1.0 0.353465028
H  H2  1  0.65785000  0.32489000  0.82833000  1.0 0.353465028
H  H3  1  0.67511000  0.34215000  0.32833000  1.0 0.353465028
H  H4  1  0.34215000  0.67511000  0.17167000  1.0 0.353465028
H  H5  1  0.41563000  0.78477000  0.73439000  1.0 0.353465028
H  H6  1  0.78477000  0.41563000  0.76561000  1.0 0.353465028
H  H7  1  0.58437000  0.21523000  0.26561000  1.0 0.353465028
H  H8  1  0.21523000  0.58437000  0.23439000  1.0 0.353465028
H  H9  1  0.50699000  0.21773000  0.71600000  1.0 0.2861471846
H  H10  1  0.21773000  0.50699000  0.78400000  1.0 0.2861471846
H  H11  1  0.49301000  0.78227000  0.28400000  1.0 0.2861471846
H  H12  1  0.78227000  0.49301000  0.21600000  1.0 0.2861471846
H  H13  1  0.35378000  0.37184000  0.68064000  1.0 0.2810895666
H  H14  1  0.37184000  0.35378000  0.81936000  1.0 0.2810895666
H  H15  1  0.64622000  0.62816000  0.31936000  1.0 0.2810895666
H  H16  1  0.62816000  0.64622000  0.18064000  1.0 0.2810895666
H  H17  1  0.61065000  0.16575000  0.75329000  1.0 0.1306039898
H  H18  1  0.16575000  0.61065000  0.74671000  1.0 0.1306039898
H  H19  1  0.38935000  0.83425000  0.24671000  1.0 0.1306039898
H  H20  1  0.83425000  0.38935000  0.25329000  1.0 0.1306039898
H  H21  1  0.08447000  0.47093000  0.54124000  1.0 0.1415505539
H  H22  1  0.47093000  0.08447000  0.95876000  1.0 0.1415505539
H  H23  1  0.91553000  0.52907000  0.45876000  1.0 0.1415505539
H  H24  1  0.52907000  0.91553000  0.04124000  1.0 0.1415505539
H  H25  1  0.36072000  0.00268000  0.64403000  1.0 0.1415505539
H  H26  1  0.00268000  0.36072000  0.85597000  1.0 0.1415505539
H  H27  1  0.63928000  0.99732000  0.35597000  1.0 0.1415505539
H  H28  1  0.99732000  0.63928000  0.14403000  1.0 0.1415505539
H  H29  1  0.16817000  0.28095000  0.54716000  1.0 0.1306039898
H  H30  1  0.28095000  0.16817000  0.95284000  1.0 0.1306039898
H  H31  1  0.83183000  0.71905000  0.45284000  1.0 0.1306039898
H  H32  1  0.71905000  0.83183000  0.04716000  1.0 0.1306039898
H  H33  1  0.30691000  0.47997000  0.67709000  1.0 0.1155194937
H  H34  1  0.47997000  0.30691000  0.82291000  1.0 0.1155194937
H  H35  1  0.69309000  0.52003000  0.32291000  1.0 0.1155194937
H  H36  1  0.52003000  0.69309000  0.17709000  1.0 0.1155194937
H  H37  1  0.55249000  0.91479000  0.73069000  1.0 0.1306039898
H  H38  1  0.91479000  0.55249000  0.76931000  1.0 0.1306039898
H  H39  1  0.44751000  0.08521000  0.26931000  1.0 0.1306039898
H  H40  1  0.08521000  0.44751000  0.23069000  1.0 0.1306039898
H  H41  1  0.08159000  0.05317000  0.47295000  1.0 0.1306039898
H  H42  1  0.05317000  0.08159000  0.02705000  1.0 0.1306039898
H  H43  1  0.91841000  0.94683000  0.52705000  1.0 0.1306039898
H  H44  1  0.94683000  0.91841000  0.97295000  1.0 0.1306039898
H  H45  1  0.12487000  0.14903000  0.50517000  1.0 0.1306039898
H  H46  1  0.14903000  0.12487000  0.99483000  1.0 0.1306039898
H  H47  1  0.87513000  0.85097000  0.49483000  1.0 0.1306039898
H  H48  1  0.85097000  0.87513000  0.00517000  1.0 0.1306039898
H  H49  1  0.20409000  0.01785000  0.45458000  1.0 0.1415505539
H  H50  1  0.01785000  0.20409000  0.04542000  1.0 0.1415505539
H  H51  1  0.79591000  0.98215000  0.54542000  1.0 0.1415505539
H  H52  1  0.98215000  0.79591000  0.95458000  1.0 0.1415505539
H  H53  1  0.28933000  0.04027000  0.51520000  1.0 0.1415505539
H  H54  1  0.04027000  0.28933000  0.98480000  1.0 0.1415505539
H  H55  1  0.71067000  0.95973000  0.48480000  1.0 0.1415505539
H  H56  1  0.95973000  0.71067000  0.01520000  1.0 0.1415505539
C  C1  1  0.58451000  0.03249000  0.75280000  1.0 0.0233328816
C  C2  1  0.03249000  0.58451000  0.74720000  1.0 0.0233328816
C  C3  1  0.41549000  0.96751000  0.24720000  1.0 0.0233328816
C  C4  1  0.96751000  0.41549000  0.25280000  1.0 0.0233328816
C  C5  1  0.39336000  0.18564000  0.65340000  1.0 0.5316057353
C  C6  1  0.18564000  0.39336000  0.84660000  1.0 0.5316057353
C  C7  1  0.60664000  0.81436000  0.34660000  1.0 0.5316057353
C  C8  1  0.81436000  0.60664000  0.15340000  1.0 0.5316057353
C  C9  1  0.56566000  0.10694000  0.73730000  1.0 -0.2037108914
C  C10  1  0.10694000  0.56566000  0.76270000  1.0 -0.2037108914
C  C11  1  0.43434000  0.89306000  0.26270000  1.0 -0.2037108914
C  C12  1  0.89306000  0.43434000  0.23730000  1.0 -0.2037108914
C  C13  1  0.31947000  0.27073000  0.63050000  1.0 0.5316057353
C  C14  1  0.27073000  0.31947000  0.86950000  1.0 0.5316057353
C  C15  1  0.68053000  0.72927000  0.36950000  1.0 0.5316057353
C  C16  1  0.72927000  0.68053000  0.13050000  1.0 0.5316057353
C  C17  1  0.11487000  0.36833000  0.53720000  1.0 0.0079850274
C  C18  1  0.36833000  0.11487000  0.96280000  1.0 0.0079850274
C  C19  1  0.88513000  0.63167000  0.46280000  1.0 0.0079850274
C  C20  1  0.63167000  0.88513000  0.03720000  1.0 0.0079850274
C  C21  1  0.48102000  0.09598000  0.69830000  1.0 0.2457221671
C  C22  1  0.09598000  0.48102000  0.80170000  1.0 0.2457221671
C  C23  1  0.51898000  0.90402000  0.30170000  1.0 0.2457221671
C  C24  1  0.90402000  0.51898000  0.19830000  1.0 0.2457221671
C  C25  1  0.27125000  0.15115000  0.57010000  1.0 0.4704631938
C  C26  1  0.15115000  0.27125000  0.92990000  1.0 0.4704631938
C  C27  1  0.72875000  0.84885000  0.42990000  1.0 0.4704631938
C  C28  1  0.84885000  0.72875000  0.07010000  1.0 0.4704631938
C  C29  1  0.12571000  0.44649000  0.56060000  1.0 -0.1184198708
C  C30  1  0.44649000  0.12571000  0.93940000  1.0 -0.1184198708
C  C31  1  0.87429000  0.55351000  0.43940000  1.0 -0.1184198708
C  C32  1  0.55351000  0.87429000  0.06060000  1.0 -0.1184198708
C  C33  1  0.21416000  0.57504000  0.63650000  1.0 0.5738717242
C  C34  1  0.57504000  0.21416000  0.86350000  1.0 0.5738717242
C  C35  1  0.78584000  0.42496000  0.36350000  1.0 0.5738717242
C  C36  1  0.42496000  0.78584000  0.13650000  1.0 0.5738717242
C  C37  1  0.36276000  0.84064000  0.66900000  1.0 0.5738717242
C  C38  1  0.84064000  0.36276000  0.83100000  1.0 0.5738717242
C  C39  1  0.63724000  0.15936000  0.33100000  1.0 0.5738717242
C  C40  1  0.15936000  0.63724000  0.16900000  1.0 0.5738717242
C  C41  1  0.41675000  0.01005000  0.67260000  1.0 -0.1693496631
C  C42  1  0.01005000  0.41675000  0.82740000  1.0 -0.1693496631
C  C43  1  0.58325000  0.98995000  0.32740000  1.0 -0.1693496631
C  C44  1  0.98995000  0.58325000  0.17260000  1.0 -0.1693496631
C  C45  1  0.16357000  0.92803000  0.54400000  1.0 0.6539454087
C  C46  1  0.92803000  0.16357000  0.95600000  1.0 0.6539454087
C  C47  1  0.83643000  0.07197000  0.45600000  1.0 0.6539454087
C  C48  1  0.07197000  0.83643000  0.04400000  1.0 0.6539454087
C  C49  1  0.19832000  0.48828000  0.61310000  1.0 -0.0290642465
C  C50  1  0.48828000  0.19832000  0.88690000  1.0 -0.0290642465
C  C51  1  0.80168000  0.51172000  0.38690000  1.0 -0.0290642465
C  C52  1  0.51172000  0.80168000  0.11310000  1.0 -0.0290642465
C  C53  1  0.24808000  0.37412000  0.61740000  1.0 0.2400209605
C  C54  1  0.37412000  0.24808000  0.88260000  1.0 0.2400209605
C  C55  1  0.75192000  0.62588000  0.38260000  1.0 0.2400209605
C  C56  1  0.62588000  0.75192000  0.11740000  1.0 0.2400209605
C  C57  1  0.17567000  0.33333333  0.56450000  1.0 -0.1693496631
C  C58  1  0.33333333  0.17567000  0.93550000  1.0 -0.1693496631
C  C59  1  0.82433000  0.66666667  0.43550000  1.0 -0.1693496631
C  C60  1  0.66666667  0.82433000  0.06450000  1.0 -0.1693496631
C  C61  1  0.03621000  0.31859000  0.48170000  1.0 0.5920689328
C  C62  1  0.31859000  0.03621000  0.01830000  1.0 0.5920689328
C  C63  1  0.96379000  0.68141000  0.51830000  1.0 0.5920689328
C  C64  1  0.68141000  0.96379000  0.98170000  1.0 0.5920689328
C  C65  1  0.25826000  0.45154000  0.64110000  1.0 -0.2383964659
C  C66  1  0.45154000  0.25826000  0.85890000  1.0 -0.2383964659
C  C67  1  0.74174000  0.54846000  0.35890000  1.0 -0.2383964659
C  C68  1  0.54846000  0.74174000  0.14110000  1.0 -0.2383964659
C  C69  1  0.53143000  0.95877000  0.72680000  1.0 -0.1559338869
C  C70  1  0.95877000  0.53143000  0.77320000  1.0 -0.1559338869
C  C71  1  0.46857000  0.04123000  0.27320000  1.0 -0.1559338869
C  C72  1  0.04123000  0.46857000  0.22680000  1.0 -0.1559338869
C  C73  1  0.43535000  0.93505000  0.68930000  1.0 -0.0538585308
C  C74  1  0.93505000  0.43535000  0.81070000  1.0 -0.0538585308
C  C75  1  0.56465000  0.06495000  0.31070000  1.0 -0.0538585308
C  C76  1  0.06495000  0.56465000  0.18930000  1.0 -0.0538585308
C  C77  1  0.67003000  0.04057000  0.79920000  1.0 0.5920689328
C  C78  1  0.04057000  0.67003000  0.70080000  1.0 0.5920689328
C  C79  1  0.32997000  0.95943000  0.20080000  1.0 0.5920689328
C  C80  1  0.95943000  0.32997000  0.29920000  1.0 0.5920689328
C  C81  1  0.13909000  0.11491000  0.47900000  1.0 -0.2481886112
C  C82  1  0.11491000  0.13909000  0.02100000  1.0 -0.2481886112
C  C83  1  0.86091000  0.88509000  0.52100000  1.0 -0.2481886112
C  C84  1  0.88509000  0.86091000  0.97900000  1.0 -0.2481886112
C  C85  1  0.22221000  0.02339000  0.50440000  1.0 -0.2481886112
C  C86  1  0.02339000  0.22221000  0.99560000  1.0 -0.2481886112
C  C87  1  0.77779000  0.97661000  0.49560000  1.0 -0.2481886112
C  C88  1  0.97661000  0.77779000  0.00440000  1.0 -0.2481886112
C  C89  1  0.16140000  0.16980000  0.40930000  1.0 0.6382992937
C  C90  1  0.16980000  0.16140000  0.09070000  1.0 0.6382992937
C  C91  1  0.83860000  0.83020000  0.59070000  1.0 0.6382992937
C  C92  1  0.83020000  0.83860000  0.90930000  1.0 0.6382992937
N  N1  1  0.38977000  0.25763000  0.66860000  1.0 -0.5785730774
N  N2  1  0.25763000  0.38977000  0.83140000  1.0 -0.5785730774
N  N3  1  0.61023000  0.74237000  0.33140000  1.0 -0.5785730774
N  N4  1  0.74237000  0.61023000  0.16860000  1.0 -0.5785730774
N  N5  1  0.46480000  0.17180000  0.69180000  1.0 -0.3586328888
N  N6  1  0.17180000  0.46480000  0.80820000  1.0 -0.3586328888
N  N7  1  0.53520000  0.82820000  0.30820000  1.0 -0.3586328888
N  N8  1  0.82820000  0.53520000  0.19180000  1.0 -0.3586328888
N  N9  1  0.33640000  0.12800000  0.60600000  1.0 -0.5074600355
N  N10  1  0.12800000  0.33640000  0.89400000  1.0 -0.5074600355
N  N11  1  0.66360000  0.87200000  0.39400000  1.0 -0.5074600355
N  N12  1  0.87200000  0.66360000  0.10600000  1.0 -0.5074600355
N  N13  1  0.31232000  0.34188000  0.64690000  1.0 -0.3586328888
N  N14  1  0.34188000  0.31232000  0.85310000  1.0 -0.3586328888
N  N15  1  0.68768000  0.65812000  0.35310000  1.0 -0.3586328888
N  N16  1  0.65812000  0.68768000  0.14690000  1.0 -0.3586328888
N  N17  1  0.25898000  0.22022000  0.58050000  1.0 -0.4897273482
N  N18  1  0.22022000  0.25898000  0.91950000  1.0 -0.4897273482
N  N19  1  0.74102000  0.77978000  0.41950000  1.0 -0.4897273482
N  N20  1  0.77978000  0.74102000  0.08050000  1.0 -0.4897273482
N  N21  1  0.21279000  0.09901000  0.51870000  1.0 -0.0362432749
N  N22  1  0.09901000  0.21279000  0.98130000  1.0 -0.0362432749
N  N23  1  0.78721000  0.90099000  0.48130000  1.0 -0.0362432749
N  N24  1  0.90099000  0.78721000  0.01870000  1.0 -0.0362432749
O  O1  1  0.16263000  0.60797000  0.60833000  1.0 -0.5360754803
O  O2  1  0.60797000  0.16263000  0.89167000  1.0 -0.5360754803
O  O3  1  0.83737000  0.39203000  0.39167000  1.0 -0.5360754803
O  O4  1  0.39203000  0.83737000  0.10833000  1.0 -0.5360754803
O  O5  1  0.97492000  0.34368000  0.46300000  1.0 -0.5686776051
O  O6  1  0.34368000  0.97492000  0.03700000  1.0 -0.5686776051
O  O7  1  0.02508000  0.65632000  0.53700000  1.0 -0.5686776051
O  O8  1  0.65632000  0.02508000  0.96300000  1.0 -0.5686776051
O  O9  1  0.72728000  0.11552000  0.82599000  1.0 -0.6129005925
O  O10  1  0.11552000  0.72728000  0.67401000  1.0 -0.6129005925
O  O11  1  0.27272000  0.88448000  0.17401000  1.0 -0.6129005925
O  O12  1  0.88448000  0.27272000  0.32599000  1.0 -0.6129005925
O  O13  1  0.29978000  0.83062000  0.62199000  1.0 -0.5008231453
O  O14  1  0.83062000  0.29978000  0.87801000  1.0 -0.5008231453
O  O15  1  0.70022000  0.16938000  0.37801000  1.0 -0.5008231453
O  O16  1  0.16938000  0.70022000  0.12199000  1.0 -0.5008231453
O  O17  1  0.27917000  0.60723000  0.68624000  1.0 -0.4481152371
O  O18  1  0.60723000  0.27917000  0.81376000  1.0 -0.4481152371
O  O19  1  0.72083000  0.39277000  0.31376000  1.0 -0.4481152371
O  O20  1  0.39277000  0.72083000  0.18624000  1.0 -0.4481152371
O  O21  1  0.16921000  0.86219000  0.53169000  1.0 -0.5630312339
O  O22  1  0.86219000  0.16921000  0.96831000  1.0 -0.5630312339
O  O23  1  0.83079000  0.13781000  0.46831000  1.0 -0.5630312339
O  O24  1  0.13781000  0.83079000  0.03169000  1.0 -0.5630312339
O  O25  1  0.11578000  0.92522000  0.58631000  1.0 -0.5785730774
O  O26  1  0.92522000  0.11578000  0.91369000  1.0 -0.5785730774
O  O27  1  0.88422000  0.07478000  0.41369000  1.0 -0.5686776051
O  O28  1  0.07478000  0.88422000  0.08631000  1.0 -0.5785730774
O  O29  1  0.04025000  0.25675000  0.45940000  1.0 -0.5686776051
O  O30  1  0.25675000  0.04025000  0.04060000  1.0 -0.5686776051
O  O31  1  0.95975000  0.74325000  0.54060000  1.0 -0.5686776051
O  O32  1  0.74325000  0.95975000  0.95940000  1.0 -0.5686776051
O  O33  1  0.68203000  0.97057000  0.80970000  1.0 -0.5008231453
O  O34  1  0.97057000  0.68203000  0.69030000  1.0 -0.5008231453
O  O35  1  0.31797000  0.02943000  0.19030000  1.0 -0.5008231453
O  O36  1  0.02943000  0.31797000  0.30970000  1.0 -0.5008231453
O  O37  1  0.36390000  0.76690000  0.70910000  1.0 -0.4481152371
O  O38  1  0.76690000  0.36390000  0.79090000  1.0 -0.4481152371
O  O39  1  0.63610000  0.23310000  0.29090000  1.0 -0.4481152371
O  O40  1  0.23310000  0.63610000  0.20910000  1.0 -0.4481152371
O  O41  1  0.09571000  0.17889000  0.37000000  1.0 -0.5785730774
O  O42  1  0.17889000  0.09571000  0.13000000  1.0 -0.5785730774
O  O43  1  0.90429000  0.82111000  0.63000000  1.0 -0.5785730774
O  O44  1  0.82111000  0.90429000  0.87000000  1.0 -0.5785730774
O  O45  1  0.24220000  0.20240000  0.39530000  1.0 -0.5008231453
O  O46  1  0.20240000  0.24220000  0.10470000  1.0 -0.5008231453
O  O47  1  0.75780000  0.79760000  0.60470000  1.0 -0.5008231453
O  O48  1  0.79760000  0.75780000  0.89530000  1.0 -0.5008231453
