# DDEC6 charges by PACMAN v1.1 (https://github.com/mtap-research/PACMAN-charge/)
data_ODODOC_ASR_pacman
_symmetry_space_group_name_H-M   'P 1'
_cell_length_a   13.87500000
_cell_length_b   14.07200000
_cell_length_c   14.31080000
_cell_angle_alpha   110.56800000
_cell_angle_beta   116.08200000
_cell_angle_gamma   101.42800000
_symmetry_Int_Tables_number   1
_chemical_formula_structural   Cd2SiH37C37N3O11
_chemical_formula_sum   'Cd4 Si2 H74 C74 N6 O22'
_cell_volume   2133.12568604
_cell_formula_units_Z   2
loop_
 _symmetry_equiv_pos_site_id
 _symmetry_equiv_pos_as_xyz
  1  'x, y, z'
loop_
 _atom_site_type_symbol
 _atom_site_label
 _atom_site_symmetry_multiplicity
 _atom_site_fract_x
 _atom_site_fract_y
 _atom_site_fract_z
 _atom_site_occupancy
 _atom_site_charge
Cd  Cd1  1  0.00000000  0.00000000  0.00000000  1.0 1.1187022037
Cd  Cd2  1  0.81919000  0.98764000  0.11388000  1.0 0.9461412139
Cd  Cd3  1  0.18081000  0.01236000  0.88612000  1.0 0.9461412139
Cd  Cd4  1  0.50000000  0.50000000  0.00000000  1.0 1.0077945298
Si  Si1  1  0.60079000  0.26487000  0.61091000  1.0 0.6455934352
Si  Si2  1  0.39921000  0.73513000  0.38909000  1.0 0.6438579864
H  H1  1  0.57930000  0.26720000  0.81030000  1.0 0.1117815477
H  H2  1  0.42070000  0.73280000  0.18970000  1.0 0.1117815477
H  H3  1  0.56030000  0.99450000  0.25460000  1.0 0.1117815477
H  H4  1  0.43970000  0.00550000  0.74540000  1.0 0.1117815477
H  H5  1  0.39570000  0.10610000  0.57980000  1.0 0.1117815477
H  H6  1  0.60430000  0.89390000  0.42020000  1.0 0.1117815477
H  H7  1  0.63980000  0.19060000  0.93470000  1.0 0.1117815477
H  H8  1  0.36020000  0.80940000  0.06530000  1.0 0.1117815477
H  H9  1  0.42960000  0.29040000  0.42370000  1.0 0.1117815477
H  H10  1  0.57040000  0.70960000  0.57630000  1.0 0.1117815477
H  H11  1  0.19080000  0.02700000  0.44740000  1.0 0.1117815477
H  H12  1  0.80920000  0.97300000  0.55260000  1.0 0.1117815477
H  H13  1  0.22570000  0.20910000  0.28990000  1.0 0.1206790483
H  H14  1  0.77430000  0.79090000  0.71010000  1.0 0.1206790483
H  H15  1  0.49700000  0.07430000  0.37620000  1.0 0.1117815477
H  H16  1  0.50300000  0.92570000  0.62380000  1.0 0.1117815477
H  H17  1  0.74550000  0.14320000  0.65920000  1.0 0.1013076517
H  H18  1  0.25450000  0.85680000  0.34080000  1.0 0.1013076517
H  H19  1  0.58830000  0.61710000  0.81280000  1.0 0.1206790483
H  H20  1  0.41170000  0.38290000  0.18720000  1.0 0.1206790483
H  H21  1  0.51170000  0.42690000  0.68480000  1.0 0.1206790483
H  H22  1  0.48830000  0.57310000  0.31520000  1.0 0.1206790483
H  H23  1  0.81840000  0.33200000  0.61090000  1.0 0.1013076517
H  H24  1  0.18160000  0.66800000  0.38910000  1.0 0.1013076517
H  H25  1  0.83230000  0.45840000  0.75390000  1.0 0.1013076517
H  H26  1  0.16770000  0.54160000  0.24610000  1.0 0.1013076517
H  H27  1  0.90610000  0.65080000  0.87160000  1.0 0.1206790483
H  H28  1  0.09390000  0.34920000  0.12840000  1.0 0.1206790483
H  H29  1  0.81070000  0.07170000  0.78800000  1.0 0.1117815477
H  H30  1  0.18930000  0.92830000  0.21200000  1.0 0.1117815477
H  H31  1  0.87990000  0.25530000  0.48570000  1.0 0.1206790483
H  H32  1  0.12010000  0.74470000  0.51430000  1.0 0.1206790483
H  H33  1  0.52710000  0.74090000  0.01680000  1.0 0.0905978537
H  H34  1  0.47290000  0.25910000  0.98320000  1.0 0.0905978537
H  H35  1  0.52000000  0.89210000  0.00100000  1.0 0.1398889793
H  H36  1  0.48000000  0.10790000  0.99900000  1.0 0.1398889793
H  H37  1  0.39400000  0.86840000  0.89430000  1.0 0.1398889793
H  H38  1  0.60600000  0.13160000  0.10570000  1.0 0.1398889793
H  H39  1  0.50270000  0.88170000  0.87910000  1.0 0.1398889793
H  H40  1  0.49730000  0.11830000  0.12090000  1.0 0.1398889793
H  H41  1  0.75500000  0.66840000  0.08160000  1.0 0.1117815477
H  H42  1  0.24500000  0.33160000  0.91840000  1.0 0.1117815477
H  H43  1  0.92320000  0.76750000  0.16430000  1.0 0.1398889793
H  H44  1  0.07680000  0.23250000  0.83570000  1.0 0.1398889793
H  H45  1  0.99890000  0.71660000  0.12080000  1.0 0.1398889793
H  H46  1  0.00110000  0.28340000  0.87920000  1.0 0.1398889793
H  H47  1  0.01390000  0.73000000  0.24280000  1.0 0.1309924998
H  H48  1  0.98610000  0.27000000  0.75720000  1.0 0.1309924998
H  H49  1  0.94510000  0.51120000  0.14680000  1.0 0.1309924998
H  H50  1  0.05490000  0.48880000  0.85320000  1.0 0.1309924998
H  H51  1  0.94420000  0.51820000  0.03720000  1.0 0.1309924998
H  H52  1  0.05580000  0.48180000  0.96280000  1.0 0.1309924998
H  H53  1  0.82630000  0.44070000  0.01510000  1.0 0.1451944268
H  H54  1  0.17370000  0.55930000  0.98490000  1.0 0.1451944268
H  H55  1  0.39020000  0.67050000  0.69540000  1.0 0.1309924998
H  H56  1  0.60980000  0.32950000  0.30460000  1.0 0.1309924998
H  H57  1  0.28480000  0.68840000  0.70720000  1.0 0.1309924998
H  H58  1  0.71520000  0.31160000  0.29280000  1.0 0.1309924998
H  H59  1  0.31490000  0.58610000  0.71440000  1.0 0.1309924998
H  H60  1  0.68510000  0.41390000  0.28560000  1.0 0.1309924998
H  H61  1  0.68970000  0.81310000  0.22670000  1.0 0.1013076517
H  H62  1  0.31030000  0.18690000  0.77330000  1.0 0.1013076517
H  H63  1  0.78200000  0.69520000  0.43550000  1.0 0.1398889793
H  H64  1  0.21800000  0.30480000  0.56450000  1.0 0.1398889793
H  H65  1  0.82740000  0.63860000  0.35470000  1.0 0.1309924998
H  H66  1  0.17260000  0.36140000  0.64530000  1.0 0.1309924998
H  H67  1  0.68910000  0.60600000  0.29590000  1.0 0.1398889793
H  H68  1  0.31090000  0.39400000  0.70410000  1.0 0.1398889793
H  H69  1  0.88500000  0.90500000  0.37300000  1.0 0.1398889793
H  H70  1  0.11500000  0.09500000  0.62700000  1.0 0.1398889793
H  H71  1  0.94770000  0.82220000  0.38570000  1.0 0.1309924998
H  H72  1  0.05230000  0.17780000  0.61430000  1.0 0.1309924998
H  H73  1  0.91980000  0.88170000  0.48270000  1.0 0.1398889793
H  H74  1  0.08020000  0.11830000  0.51730000  1.0 0.1398889793
C  C1  1  0.62460000  0.22580000  0.80370000  1.0 -0.0914000117
C  C2  1  0.37540000  0.77420000  0.19630000  1.0 -0.0914000117
C  C3  1  0.43530000  0.20540000  0.51550000  1.0 -0.2186346594
C  C4  1  0.56470000  0.79460000  0.48450000  1.0 -0.2186346594
C  C5  1  0.66080000  0.42090000  0.69940000  1.0 -0.2018181675
C  C6  1  0.33920000  0.57910000  0.30060000  1.0 -0.2018181675
C  C7  1  0.65040000  0.21280000  0.50730000  1.0 -0.2186346594
C  C8  1  0.34960000  0.78720000  0.49270000  1.0 -0.2186346594
C  C9  1  0.18840000  0.10980000  0.35450000  1.0 -0.020682338
C  C10  1  0.81160000  0.89020000  0.64550000  1.0 -0.020682338
C  C11  1  0.76310000  0.07070000  0.27350000  1.0 0.5354016132
C  C12  1  0.23690000  0.92930000  0.72650000  1.0 0.5354016132
C  C13  1  0.05670000  0.05420000  0.26570000  1.0 0.5609276003
C  C14  1  0.94330000  0.94580000  0.73430000  1.0 0.5609276003
C  C15  1  0.61290000  0.06440000  0.32640000  1.0 -0.1111253112
C  C16  1  0.38710000  0.93560000  0.67360000  1.0 -0.1111253112
C  C17  1  0.72520000  0.11800000  0.35690000  1.0 -0.0107178751
C  C18  1  0.27480000  0.88200000  0.64310000  1.0 -0.0107178751
C  C19  1  0.65360000  0.21140000  0.71880000  1.0 -0.2186346594
C  C20  1  0.34640000  0.78860000  0.28120000  1.0 -0.2186346594
C  C21  1  0.80740000  0.77600000  0.94130000  1.0 0.5711152262
C  C22  1  0.19260000  0.22400000  0.05870000  1.0 0.5711152262
C  C23  1  0.75430000  0.65340000  0.85300000  1.0 -0.0301517875
C  C24  1  0.24570000  0.34660000  0.14700000  1.0 -0.0301517875
C  C25  1  0.36180000  0.12730000  0.52100000  1.0 -0.0820054238
C  C26  1  0.63820000  0.87270000  0.47900000  1.0 -0.0820054238
C  C27  1  0.66130000  0.18080000  0.87860000  1.0 -0.1111253112
C  C28  1  0.33870000  0.81920000  0.12140000  1.0 -0.1111253112
C  C29  1  0.38160000  0.23600000  0.42810000  1.0 -0.0820054238
C  C30  1  0.61840000  0.76400000  0.57190000  1.0 -0.0820054238
C  C31  1  0.23960000  0.07990000  0.44200000  1.0 -0.1111253112
C  C32  1  0.76040000  0.92010000  0.55800000  1.0 -0.1111253112
C  C33  1  0.26010000  0.18810000  0.34880000  1.0 -0.1012715244
C  C34  1  0.73990000  0.81190000  0.65120000  1.0 -0.1012715244
C  C35  1  0.57560000  0.11190000  0.40000000  1.0 -0.0820054238
C  C36  1  0.42440000  0.88810000  0.60000000  1.0 -0.0820054238
C  C37  1  0.72350000  0.15330000  0.71500000  1.0 -0.0820054238
C  C38  1  0.27650000  0.84670000  0.28500000  1.0 -0.0820054238
C  C39  1  0.63840000  0.58570000  0.79850000  1.0 -0.1111253112
C  C40  1  0.36160000  0.41430000  0.20150000  1.0 -0.1111253112
C  C41  1  0.59300000  0.47160000  0.72240000  1.0 -0.0709258908
C  C42  1  0.40700000  0.52840000  0.27760000  1.0 -0.0709258908
C  C43  1  0.76430000  0.26380000  0.53740000  1.0 -0.0914000117
C  C44  1  0.23570000  0.73620000  0.46260000  1.0 -0.0914000117
C  C45  1  0.78020000  0.49050000  0.76160000  1.0 -0.0914000117
C  C46  1  0.21980000  0.50950000  0.23840000  1.0 -0.0914000117
C  C47  1  0.82540000  0.60540000  0.83450000  1.0 -0.1012715244
C  C48  1  0.17460000  0.39460000  0.16550000  1.0 -0.1012715244
C  C49  1  0.72920000  0.12120000  0.87160000  1.0 -0.0107178751
C  C50  1  0.27080000  0.87880000  0.12840000  1.0 -0.0107178751
C  C51  1  0.76180000  0.10970000  0.79130000  1.0 -0.1012715244
C  C52  1  0.23820000  0.89030000  0.20870000  1.0 -0.1012715244
C  C53  1  0.80190000  0.21790000  0.46310000  1.0 -0.1177297824
C  C54  1  0.19810000  0.78210000  0.53690000  1.0 -0.1177297824
C  C55  1  0.76410000  0.06400000  0.94460000  1.0 0.5711152262
C  C56  1  0.23590000  0.93600000  0.05540000  1.0 0.5711152262
C  C57  1  0.47440000  0.69150000  0.93280000  1.0 0.2775472708
C  C58  1  0.52560000  0.30850000  0.06720000  1.0 0.2775472708
C  C59  1  0.46470000  0.85390000  0.91370000  1.0 -0.3422041827
C  C60  1  0.53530000  0.14610000  0.08630000  1.0 -0.3422041827
C  C61  1  0.75950000  0.59860000  0.06610000  1.0 0.2698369927
C  C62  1  0.24050000  0.40140000  0.93390000  1.0 0.2698369927
C  C63  1  0.95770000  0.71290000  0.16110000  1.0 -0.3616532379
C  C64  1  0.04230000  0.28710000  0.83890000  1.0 -0.3616532379
C  C65  1  0.89770000  0.51100000  0.07180000  1.0 -0.3311064088
C  C66  1  0.10230000  0.48900000  0.92820000  1.0 -0.3311064088
C  C67  1  0.34850000  0.66410000  0.73470000  1.0 -0.3311064088
C  C68  1  0.65150000  0.33590000  0.26530000  1.0 -0.3311064088
C  C69  1  0.68300000  0.75100000  0.23960000  1.0 0.2485605187
C  C70  1  0.31700000  0.24900000  0.76040000  1.0 0.2485605187
C  C71  1  0.76850000  0.66680000  0.35570000  1.0 -0.3422041827
C  C72  1  0.23150000  0.33320000  0.64430000  1.0 -0.3422041827
C  C73  1  0.89170000  0.84860000  0.39770000  1.0 -0.3470599942
C  C74  1  0.10830000  0.15140000  0.60230000  1.0 -0.3470599942
N  N1  1  0.43100000  0.73440000  0.86420000  1.0 0.0399438485
N  N2  1  0.56900000  0.26560000  0.13580000  1.0 0.0399438485
N  N3  1  0.86540000  0.60250000  0.09560000  1.0 0.0229408356
N  N4  1  0.13460000  0.39750000  0.90440000  1.0 0.0229408356
N  N5  1  0.77890000  0.75690000  0.32740000  1.0 0.0229408356
N  N6  1  0.22110000  0.24310000  0.67260000  1.0 0.0229408356
O  O1  1  0.99190000  0.98800000  0.27510000  1.0 -0.5380669528
O  O2  1  0.00810000  0.01200000  0.72490000  1.0 -0.5380669528
O  O3  1  0.01550000  0.07890000  0.18200000  1.0 -0.5909058743
O  O4  1  0.98450000  0.92110000  0.81800000  1.0 -0.5909058743
O  O5  1  0.85210000  0.13430000  0.28900000  1.0 -0.5230650895
O  O6  1  0.14790000  0.86570000  0.71100000  1.0 -0.5230650895
O  O7  1  0.70280000  0.96990000  0.19030000  1.0 -0.5711966449
O  O8  1  0.29720000  0.03010000  0.80970000  1.0 -0.5711966449
O  O9  1  0.74850000  0.81020000  0.98080000  1.0 -0.556310504
O  O10  1  0.25150000  0.18980000  0.01920000  1.0 -0.556310504
O  O11  1  0.72810000  0.06830000  0.01180000  1.0 -0.5230650895
O  O12  1  0.27190000  0.93170000  0.98820000  1.0 -0.5230650895
O  O13  1  0.90810000  0.83370000  0.97060000  1.0 -0.5786523514
O  O14  1  0.09190000  0.16630000  0.02940000  1.0 -0.5786523514
O  O15  1  0.82560000  0.01270000  0.93260000  1.0 -0.5909058743
O  O16  1  0.17440000  0.98730000  0.06740000  1.0 -0.5909058743
O  O17  1  0.45050000  0.59010000  0.89440000  1.0 -0.484678834
O  O18  1  0.54950000  0.40990000  0.10560000  1.0 -0.484678834
O  O19  1  0.58400000  0.66830000  0.17260000  1.0 -0.5034112626
O  O20  1  0.41600000  0.33170000  0.82740000  1.0 -0.5034112626
O  O21  1  0.67760000  0.53110000  0.02780000  1.0 -0.3470599942
O  O22  1  0.32240000  0.46890000  0.97220000  1.0 -0.3470599942
