# DDEC6 charges by PACMAN v1.1 (https://github.com/mtap-research/PACMAN-charge/)
data_OFAMUF_FSR_pacman
_symmetry_space_group_name_H-M   'P 1'
_cell_length_a   15.01030000
_cell_length_b   15.01030000
_cell_length_c   10.07910000
_cell_angle_alpha   90.00000000
_cell_angle_beta   90.00000000
_cell_angle_gamma   90.00000000
_symmetry_Int_Tables_number   1
_chemical_formula_structural   CoH15C29N3O4
_chemical_formula_sum   'Co4 H60 C116 N12 O16'
_cell_volume   2270.91301119
_cell_formula_units_Z   4
loop_
 _symmetry_equiv_pos_site_id
 _symmetry_equiv_pos_as_xyz
  1  'x, y, z'
loop_
 _atom_site_type_symbol
 _atom_site_label
 _atom_site_symmetry_multiplicity
 _atom_site_fract_x
 _atom_site_fract_y
 _atom_site_fract_z
 _atom_site_occupancy
 _atom_site_charge
Co  Co1  1  0.93342000  0.33643000  0.00000000  1.0 0.6852955946
Co  Co2  1  0.06658000  0.66357000  0.00000000  1.0 0.6852955946
Co  Co3  1  0.33643000  0.06658000  0.50000000  1.0 0.6837461123
Co  Co4  1  0.66357000  0.93342000  0.50000000  1.0 0.6852955946
H  H1  1  0.80360000  0.83140000  0.33250000  1.0 0.1289424727
H  H2  1  0.19640000  0.16860000  0.33250000  1.0 0.1289424727
H  H3  1  0.83140000  0.19640000  0.83250000  1.0 0.1289424727
H  H4  1  0.16860000  0.80360000  0.83250000  1.0 0.1289424727
H  H5  1  0.19640000  0.16860000  0.66750000  1.0 0.1289424727
H  H6  1  0.80360000  0.83140000  0.66750000  1.0 0.1289424727
H  H7  1  0.16860000  0.80360000  0.16750000  1.0 0.1289424727
H  H8  1  0.83140000  0.19640000  0.16750000  1.0 0.1289424727
H  H9  1  0.85790000  0.53990000  0.30160000  1.0 0.1215210598
H  H10  1  0.14210000  0.46010000  0.30160000  1.0 0.1215210598
H  H11  1  0.53990000  0.14210000  0.80160000  1.0 0.1215210598
H  H12  1  0.46010000  0.85790000  0.80160000  1.0 0.1215210598
H  H13  1  0.14210000  0.46010000  0.69840000  1.0 0.1215210598
H  H14  1  0.85790000  0.53990000  0.69840000  1.0 0.1215210598
H  H15  1  0.46010000  0.85790000  0.19840000  1.0 0.1215210598
H  H16  1  0.53990000  0.14210000  0.19840000  1.0 0.1215210598
H  H17  1  0.94590000  0.32570000  0.50000000  1.0 0.1215210598
H  H18  1  0.05410000  0.67430000  0.50000000  1.0 0.1215210598
H  H19  1  0.32570000  0.05410000  0.00000000  1.0 0.1215210598
H  H20  1  0.67430000  0.94590000  0.00000000  1.0 0.1215210598
H  H21  1  0.08410000  0.17860000  0.00000000  1.0 0.1215210598
H  H22  1  0.91590000  0.82140000  0.00000000  1.0 0.1215210598
H  H23  1  0.17860000  0.91590000  0.50000000  1.0 0.1215210598
H  H24  1  0.82140000  0.08410000  0.50000000  1.0 0.1215210598
H  H25  1  0.23630000  0.21690000  0.90870000  1.0 0.1126820629
H  H26  1  0.76370000  0.78310000  0.90870000  1.0 0.1126820629
H  H27  1  0.21690000  0.76370000  0.40870000  1.0 0.1126820629
H  H28  1  0.78310000  0.23630000  0.40870000  1.0 0.1126820629
H  H29  1  0.76370000  0.78310000  0.09130000  1.0 0.1126820629
H  H30  1  0.23630000  0.21690000  0.09130000  1.0 0.1126820629
H  H31  1  0.78310000  0.23630000  0.59130000  1.0 0.1126820629
H  H32  1  0.21690000  0.76370000  0.59130000  1.0 0.1126820629
H  H33  1  0.11740000  0.43730000  0.00000000  1.0 0.1289424727
H  H34  1  0.88260000  0.56270000  0.00000000  1.0 0.1289424727
H  H35  1  0.43730000  0.88260000  0.50000000  1.0 0.1289424727
H  H36  1  0.56270000  0.11740000  0.50000000  1.0 0.1289424727
H  H37  1  0.36810000  0.27670000  0.00000000  1.0 0.088136887
H  H38  1  0.63190000  0.72330000  0.00000000  1.0 0.088136887
H  H39  1  0.27670000  0.63190000  0.50000000  1.0 0.088136887
H  H40  1  0.72330000  0.36810000  0.50000000  1.0 0.088136887
H  H41  1  0.49580000  0.36080000  0.89400000  1.0 0.1043958941
H  H42  1  0.50420000  0.63920000  0.89400000  1.0 0.1043958941
H  H43  1  0.36080000  0.50420000  0.39400000  1.0 0.1043958941
H  H44  1  0.63920000  0.49580000  0.39400000  1.0 0.1043958941
H  H45  1  0.50420000  0.63920000  0.10600000  1.0 0.1043958941
H  H46  1  0.49580000  0.36080000  0.10600000  1.0 0.1043958941
H  H47  1  0.63920000  0.49580000  0.60600000  1.0 0.1043958941
H  H48  1  0.36080000  0.50420000  0.60600000  1.0 0.1043958941
H  H49  1  0.37920000  0.58540000  0.00000000  1.0 0.088136887
H  H50  1  0.62080000  0.41460000  0.00000000  1.0 0.088136887
H  H51  1  0.58540000  0.62080000  0.50000000  1.0 0.088136887
H  H52  1  0.41460000  0.37920000  0.50000000  1.0 0.088136887
H  H53  1  0.25240000  0.50480000  0.10130000  1.0 0.1215210598
H  H54  1  0.74760000  0.49520000  0.10130000  1.0 0.1215210598
H  H55  1  0.50480000  0.74760000  0.60130000  1.0 0.1215210598
H  H56  1  0.49520000  0.25240000  0.60130000  1.0 0.1215210598
H  H57  1  0.74760000  0.49520000  0.89870000  1.0 0.1215210598
H  H58  1  0.25240000  0.50480000  0.89870000  1.0 0.1215210598
H  H59  1  0.49520000  0.25240000  0.39870000  1.0 0.1215210598
H  H60  1  0.50480000  0.74760000  0.39870000  1.0 0.1215210598
C  C1  1  0.78940000  0.78970000  0.40430000  1.0 0.0075179783
C  C2  1  0.21060000  0.21030000  0.40430000  1.0 0.0075179783
C  C3  1  0.78970000  0.21060000  0.90430000  1.0 0.0075179783
C  C4  1  0.21030000  0.78940000  0.90430000  1.0 0.0075179783
C  C5  1  0.21060000  0.21030000  0.59570000  1.0 0.0075179783
C  C6  1  0.78940000  0.78970000  0.59570000  1.0 0.0075179783
C  C7  1  0.21030000  0.78940000  0.09570000  1.0 0.0075179783
C  C8  1  0.78970000  0.21060000  0.09570000  1.0 0.0075179783
C  C9  1  0.82620000  0.70540000  0.39810000  1.0 -0.0298388109
C  C10  1  0.17380000  0.29460000  0.39810000  1.0 -0.0298388109
C  C11  1  0.70540000  0.17380000  0.89810000  1.0 -0.0298388109
C  C12  1  0.29460000  0.82620000  0.89810000  1.0 -0.0298388109
C  C13  1  0.17380000  0.29460000  0.60190000  1.0 -0.0298388109
C  C14  1  0.82620000  0.70540000  0.60190000  1.0 -0.0298388109
C  C15  1  0.29460000  0.82620000  0.10190000  1.0 -0.0298388109
C  C16  1  0.70540000  0.17380000  0.10190000  1.0 -0.0298388109
C  C17  1  0.81369000  0.64555000  0.50000000  1.0 0.0832053756
C  C18  1  0.18631000  0.35445000  0.50000000  1.0 0.0832053756
C  C19  1  0.64555000  0.18631000  0.00000000  1.0 0.0832053756
C  C20  1  0.35445000  0.81369000  0.00000000  1.0 0.0832053756
C  C21  1  0.85169000  0.55571000  0.50000000  1.0 0.0638536455
C  C22  1  0.14831000  0.44429000  0.50000000  1.0 0.0638536455
C  C23  1  0.55571000  0.14831000  0.00000000  1.0 0.0638536455
C  C24  1  0.44429000  0.85169000  0.00000000  1.0 0.0638536455
C  C25  1  0.86959000  0.51152000  0.38179000  1.0 -0.150527986
C  C26  1  0.13041000  0.48848000  0.38179000  1.0 -0.150527986
C  C27  1  0.51152000  0.13041000  0.88179000  1.0 -0.150527986
C  C28  1  0.48848000  0.86959000  0.88179000  1.0 -0.150527986
C  C29  1  0.13041000  0.48848000  0.61821000  1.0 -0.150527986
C  C30  1  0.86959000  0.51152000  0.61821000  1.0 -0.150527986
C  C31  1  0.48848000  0.86959000  0.11821000  1.0 -0.150527986
C  C32  1  0.51152000  0.13041000  0.11821000  1.0 -0.150527986
C  C33  1  0.90424000  0.42673000  0.38112000  1.0 -0.0114437545
C  C34  1  0.09576000  0.57327000  0.38112000  1.0 -0.0114437545
C  C35  1  0.42673000  0.09576000  0.88112000  1.0 -0.0114437545
C  C36  1  0.57327000  0.90424000  0.88112000  1.0 -0.0114437545
C  C37  1  0.09576000  0.57327000  0.61888000  1.0 -0.0114437545
C  C38  1  0.90424000  0.42673000  0.61888000  1.0 -0.0114437545
C  C39  1  0.57327000  0.90424000  0.11888000  1.0 -0.0114437545
C  C40  1  0.42673000  0.09576000  0.11888000  1.0 -0.0114437545
C  C41  1  0.92228000  0.38296000  0.50000000  1.0 -0.1571337899
C  C42  1  0.07772000  0.61704000  0.50000000  1.0 -0.1571337899
C  C43  1  0.38296000  0.07772000  0.00000000  1.0 -0.1571337899
C  C44  1  0.61704000  0.92228000  0.00000000  1.0 -0.1571337899
C  C45  1  0.92225000  0.38140000  0.24993000  1.0 0.5212153921
C  C46  1  0.07775000  0.61860000  0.24993000  1.0 0.5212153921
C  C47  1  0.38140000  0.07775000  0.74993000  1.0 0.5212153921
C  C48  1  0.61860000  0.92225000  0.74993000  1.0 0.5212153921
C  C49  1  0.07775000  0.61860000  0.75007000  1.0 0.5212153921
C  C50  1  0.92225000  0.38140000  0.75007000  1.0 0.5212153921
C  C51  1  0.61860000  0.92225000  0.25007000  1.0 0.5212153921
C  C52  1  0.38140000  0.07775000  0.25007000  1.0 0.5212153921
C  C53  1  0.11230000  0.23752000  0.00000000  1.0 -0.0425145674
C  C54  1  0.88770000  0.76248000  0.00000000  1.0 -0.0425145674
C  C55  1  0.23752000  0.88770000  0.50000000  1.0 -0.0425145674
C  C56  1  0.76248000  0.11230000  0.50000000  1.0 -0.0425145674
C  C57  1  0.19865000  0.25313000  0.96710000  1.0 -0.0114437545
C  C58  1  0.80135000  0.74687000  0.96710000  1.0 -0.0114437545
C  C59  1  0.25313000  0.80135000  0.46710000  1.0 -0.0114437545
C  C60  1  0.74687000  0.19865000  0.46710000  1.0 -0.0114437545
C  C61  1  0.80135000  0.74687000  0.03290000  1.0 -0.0114437545
C  C62  1  0.19865000  0.25313000  0.03290000  1.0 -0.0114437545
C  C63  1  0.74687000  0.19865000  0.53290000  1.0 -0.0114437545
C  C64  1  0.25313000  0.80135000  0.53290000  1.0 -0.0114437545
C  C65  1  0.12899000  0.37640000  0.00000000  1.0 0.0259832403
C  C66  1  0.87101000  0.62360000  0.00000000  1.0 0.0259832403
C  C67  1  0.37640000  0.87101000  0.50000000  1.0 0.0259832403
C  C68  1  0.62360000  0.12899000  0.50000000  1.0 0.0259832403
C  C69  1  0.29312000  0.38829000  0.00000000  1.0 0.0542264858
C  C70  1  0.70688000  0.61171000  0.00000000  1.0 0.0542264858
C  C71  1  0.38829000  0.70688000  0.50000000  1.0 0.0542264858
C  C72  1  0.61171000  0.29312000  0.50000000  1.0 0.0542264858
C  C73  1  0.36970000  0.34200000  0.00000000  1.0 -0.1867300442
C  C74  1  0.63030000  0.65800000  0.00000000  1.0 -0.1867300442
C  C75  1  0.34200000  0.63030000  0.50000000  1.0 -0.1867300442
C  C76  1  0.65800000  0.36970000  0.50000000  1.0 -0.1867300442
C  C77  1  0.44970000  0.38930000  0.94820000  1.0 -0.0298388109
C  C78  1  0.55030000  0.61070000  0.94820000  1.0 -0.0298388109
C  C79  1  0.38930000  0.55030000  0.44820000  1.0 -0.0298388109
C  C80  1  0.61070000  0.44970000  0.44820000  1.0 -0.0298388109
C  C81  1  0.55030000  0.61070000  0.05180000  1.0 -0.0298388109
C  C82  1  0.44970000  0.38930000  0.05180000  1.0 -0.0298388109
C  C83  1  0.61070000  0.44970000  0.55180000  1.0 -0.0298388109
C  C84  1  0.38930000  0.55030000  0.55180000  1.0 -0.0298388109
C  C85  1  0.45662000  0.47600000  0.00000000  1.0 0.021672478
C  C86  1  0.54338000  0.52400000  0.00000000  1.0 0.021672478
C  C87  1  0.47600000  0.54338000  0.50000000  1.0 0.021672478
C  C88  1  0.52400000  0.45662000  0.50000000  1.0 0.021672478
C  C89  1  0.37798000  0.52010000  0.00000000  1.0 -0.1571337899
C  C90  1  0.62202000  0.47990000  0.00000000  1.0 -0.1571337899
C  C91  1  0.52010000  0.62202000  0.50000000  1.0 -0.1571337899
C  C92  1  0.47990000  0.37798000  0.50000000  1.0 -0.1571337899
C  C93  1  0.29818000  0.47610000  0.04650000  1.0 -0.0425145674
C  C94  1  0.70182000  0.52390000  0.04650000  1.0 -0.0425145674
C  C95  1  0.47610000  0.70182000  0.54650000  1.0 -0.0425145674
C  C96  1  0.52390000  0.29818000  0.54650000  1.0 -0.0425145674
C  C97  1  0.70182000  0.52390000  0.95350000  1.0 -0.0425145674
C  C98  1  0.29818000  0.47610000  0.95350000  1.0 -0.0425145674
C  C99  1  0.52390000  0.29818000  0.45350000  1.0 -0.0425145674
C  C100  1  0.47610000  0.70182000  0.45350000  1.0 -0.0425145674
C  C101  1  0.75250000  0.67070000  0.40070000  1.0 -0.0888491117
C  C102  1  0.24750000  0.32930000  0.40070000  1.0 -0.0888491117
C  C103  1  0.67070000  0.24750000  0.90070000  1.0 -0.0888491117
C  C104  1  0.32930000  0.75250000  0.90070000  1.0 -0.0888491117
C  C105  1  0.24750000  0.32930000  0.59930000  1.0 -0.0888491117
C  C106  1  0.75250000  0.67070000  0.59930000  1.0 -0.0888491117
C  C107  1  0.32930000  0.75250000  0.09930000  1.0 -0.0888491117
C  C108  1  0.67070000  0.24750000  0.09930000  1.0 -0.0888491117
C  C109  1  0.71730000  0.75550000  0.40360000  1.0 -0.0114437545
C  C110  1  0.28270000  0.24450000  0.40360000  1.0 -0.0114437545
C  C111  1  0.75550000  0.28270000  0.90360000  1.0 -0.0114437545
C  C112  1  0.24450000  0.71730000  0.90360000  1.0 -0.0114437545
C  C113  1  0.28270000  0.24450000  0.59640000  1.0 -0.0114437545
C  C114  1  0.71730000  0.75550000  0.59640000  1.0 -0.0114437545
C  C115  1  0.24450000  0.71730000  0.09640000  1.0 -0.0114437545
C  C116  1  0.75550000  0.28270000  0.09640000  1.0 -0.0114437545
N  N1  1  0.73675000  0.81795000  0.50000000  1.0 -0.0479954055
N  N2  1  0.26325000  0.18205000  0.50000000  1.0 -0.0479954055
N  N3  1  0.81795000  0.26325000  0.00000000  1.0 -0.0479954055
N  N4  1  0.18205000  0.73675000  0.00000000  1.0 -0.0479954055
N  N5  1  0.06735000  0.31602000  0.00000000  1.0 -0.2945309252
N  N6  1  0.93265000  0.68398000  0.00000000  1.0 -0.2945309252
N  N7  1  0.31602000  0.93265000  0.50000000  1.0 -0.2954455486
N  N8  1  0.68398000  0.06735000  0.50000000  1.0 -0.2945309252
N  N9  1  0.21091000  0.34195000  0.00000000  1.0 0.021672478
N  N10  1  0.78909000  0.65805000  0.00000000  1.0 0.021672478
N  N11  1  0.34195000  0.78909000  0.50000000  1.0 0.021672478
N  N12  1  0.65805000  0.21091000  0.50000000  1.0 0.021672478
O  O1  1  0.94881000  0.30482000  0.24955000  1.0 -0.528318288
O  O2  1  0.05119000  0.69518000  0.24955000  1.0 -0.528318288
O  O3  1  0.30482000  0.05119000  0.74955000  1.0 -0.528318288
O  O4  1  0.69518000  0.94881000  0.74955000  1.0 -0.528318288
O  O5  1  0.05119000  0.69518000  0.75045000  1.0 -0.528318288
O  O6  1  0.94881000  0.30482000  0.75045000  1.0 -0.528318288
O  O7  1  0.69518000  0.94881000  0.25045000  1.0 -0.528318288
O  O8  1  0.30482000  0.05119000  0.25045000  1.0 -0.528318288
O  O9  1  0.90639000  0.42433000  0.14536000  1.0 -0.522333639
O  O10  1  0.09361000  0.57567000  0.14536000  1.0 -0.522333639
O  O11  1  0.42433000  0.09361000  0.64536000  1.0 -0.522333639
O  O12  1  0.57567000  0.90639000  0.64536000  1.0 -0.522333639
O  O13  1  0.09361000  0.57567000  0.85464000  1.0 -0.522333639
O  O14  1  0.90639000  0.42433000  0.85464000  1.0 -0.522333639
O  O15  1  0.57567000  0.90639000  0.35464000  1.0 -0.522333639
O  O16  1  0.42433000  0.09361000  0.35464000  1.0 -0.522333639
