# DDEC6 charges by PACMAN v1.1 (https://github.com/mtap-research/PACMAN-charge/)
data_OFEZIJ_FSR_pacman
_symmetry_space_group_name_H-M   'P 1'
_cell_length_a   14.49480000
_cell_length_b   14.49480000
_cell_length_c   14.49480000
_cell_angle_alpha   109.47100000
_cell_angle_beta   109.47100000
_cell_angle_gamma   109.47100000
_symmetry_Int_Tables_number   1
_chemical_formula_structural   AlCo2(PO4)4
_chemical_formula_sum   'Al3 Co6 P12 O48'
_cell_volume   2344.32780631
_cell_formula_units_Z   3
loop_
 _symmetry_equiv_pos_site_id
 _symmetry_equiv_pos_as_xyz
  1  'x, y, z'
loop_
 _atom_site_type_symbol
 _atom_site_label
 _atom_site_symmetry_multiplicity
 _atom_site_fract_x
 _atom_site_fract_y
 _atom_site_fract_z
 _atom_site_occupancy
 _atom_site_charge
Al  Al1  1  0.50000000  0.00000000  0.50000000  1.0 1.7091347731
Al  Al2  1  0.00000000  0.50000000  0.50000000  1.0 1.715958134
Al  Al3  1  0.50000000  0.50000000  0.00000000  1.0 1.7091347731
Co  Co1  1  0.50000000  0.25000000  0.75000000  1.0 1.1215695298
Co  Co2  1  0.75000000  0.50000000  0.25000000  1.0 1.1215695298
Co  Co3  1  0.50000000  0.75000000  0.25000000  1.0 1.1215695298
Co  Co4  1  0.25000000  0.50000000  0.75000000  1.0 1.1215695298
Co  Co5  1  0.25000000  0.75000000  0.50000000  1.0 1.1253819621
Co  Co6  1  0.75000000  0.25000000  0.50000000  1.0 1.1215695298
P  P1  1  0.30012000  0.00052000  0.56520000  1.0 1.2891469266
P  P2  1  0.99948000  0.56468000  0.29960000  1.0 1.2839247144
P  P3  1  0.69988000  0.26508000  0.70040000  1.0 1.2891469266
P  P4  1  0.56520000  0.30012000  0.00052000  1.0 1.2891469266
P  P5  1  0.43532000  0.73492000  0.43480000  1.0 1.2891469266
P  P6  1  0.73492000  0.43532000  0.43480000  1.0 1.2891469266
P  P7  1  0.69988000  0.70040000  0.26508000  1.0 1.2891469266
P  P8  1  0.26508000  0.69988000  0.70040000  1.0 1.2891469266
P  P9  1  0.56468000  0.99948000  0.29960000  1.0 1.2891469266
P  P10  1  0.29960000  0.56468000  0.99948000  1.0 1.2891469266
P  P11  1  0.00052000  0.30012000  0.56520000  1.0 1.2891469266
P  P12  1  0.43532000  0.43480000  0.73492000  1.0 1.2891469266
O  O1  1  0.20250000  0.00000000  0.49130000  1.0 -0.4328214569
O  O2  1  0.00000000  0.49130000  0.20250000  1.0 -0.4328214569
O  O3  1  0.79750000  0.28880000  0.79750000  1.0 -0.4328214569
O  O4  1  0.49130000  0.20250000  0.00000000  1.0 -0.43880173
O  O5  1  0.50870000  0.71120000  0.50870000  1.0 -0.43880173
O  O6  1  0.71120000  0.50870000  0.50870000  1.0 -0.4328214569
O  O7  1  0.79750000  0.79750000  0.28880000  1.0 -0.43880173
O  O8  1  0.28880000  0.79750000  0.79750000  1.0 -0.4328214569
O  O9  1  0.49130000  0.00000000  0.20250000  1.0 -0.4328214569
O  O10  1  0.20250000  0.49130000  0.00000000  1.0 -0.4328214569
O  O11  1  0.00000000  0.20250000  0.49130000  1.0 -0.4328214569
O  O12  1  0.50870000  0.50870000  0.71120000  1.0 -0.4328214569
O  O13  1  0.38560000  0.10180000  0.67380000  1.0 -0.5773403895
O  O14  1  0.89820000  0.57200000  0.28380000  1.0 -0.5773403895
O  O15  1  0.61440000  0.28820000  0.71620000  1.0 -0.5773403895
O  O16  1  0.67380000  0.38560000  0.10180000  1.0 -0.5724661493
O  O17  1  0.42800000  0.71180000  0.32620000  1.0 -0.5773403895
O  O18  1  0.71180000  0.42800000  0.32620000  1.0 -0.5773403895
O  O19  1  0.61440000  0.71620000  0.28820000  1.0 -0.5773403895
O  O20  1  0.28820000  0.61440000  0.71620000  1.0 -0.5773403895
O  O21  1  0.57200000  0.89820000  0.28380000  1.0 -0.5773403895
O  O22  1  0.28380000  0.57200000  0.89820000  1.0 -0.5773403895
O  O23  1  0.10180000  0.38560000  0.67380000  1.0 -0.5773403895
O  O24  1  0.42800000  0.32620000  0.71180000  1.0 -0.5773403895
O  O25  1  0.32620000  0.42800000  0.71180000  1.0 -0.5773403895
O  O26  1  0.38560000  0.67380000  0.10180000  1.0 -0.5773403895
O  O27  1  0.71620000  0.61440000  0.28820000  1.0 -0.5773403895
O  O28  1  0.57200000  0.28380000  0.89820000  1.0 -0.5724661493
O  O29  1  0.10180000  0.67380000  0.38560000  1.0 -0.5773403895
O  O30  1  0.32620000  0.71180000  0.42800000  1.0 -0.5773403895
O  O31  1  0.71620000  0.28820000  0.61440000  1.0 -0.5773403895
O  O32  1  0.89820000  0.28380000  0.57200000  1.0 -0.5773403895
O  O33  1  0.67380000  0.10180000  0.38560000  1.0 -0.5773403895
O  O34  1  0.71180000  0.32620000  0.42800000  1.0 -0.5773403895
O  O35  1  0.28820000  0.71620000  0.61440000  1.0 -0.5773403895
O  O36  1  0.28380000  0.89820000  0.57200000  1.0 -0.5773403895
O  O37  1  0.37470000  0.00000000  0.49070000  1.0 -0.6894815856
O  O38  1  0.00000000  0.49070000  0.37470000  1.0 -0.6894815856
O  O39  1  0.62530000  0.11600000  0.62530000  1.0 -0.6894815856
O  O40  1  0.49070000  0.37470000  0.00000000  1.0 -0.6894815856
O  O41  1  0.50930000  0.88400000  0.50930000  1.0 -0.6894815856
O  O42  1  0.88400000  0.50930000  0.50930000  1.0 -0.6894815856
O  O43  1  0.62530000  0.62530000  0.11600000  1.0 -0.6894815856
O  O44  1  0.11600000  0.62530000  0.62530000  1.0 -0.6894815856
O  O45  1  0.49070000  0.00000000  0.37470000  1.0 -0.6894815856
O  O46  1  0.37470000  0.49070000  0.00000000  1.0 -0.6894815856
O  O47  1  0.00000000  0.37470000  0.49070000  1.0 -0.6894815856
O  O48  1  0.50930000  0.50930000  0.88400000  1.0 -0.6894815856
