# DDEC6 charges by PACMAN v1.1 (https://github.com/mtap-research/PACMAN-charge/)
data_OFIFES_ASR_pacman
_symmetry_space_group_name_H-M   'P 1'
_cell_length_a   21.04190000
_cell_length_b   21.04190000
_cell_length_c   21.04190000
_cell_angle_alpha   53.40470000
_cell_angle_beta   53.40470000
_cell_angle_gamma   53.40470000
_symmetry_Int_Tables_number   1
_chemical_formula_structural   CuH11C23O4
_chemical_formula_sum   'Cu6 H66 C138 O24'
_cell_volume   5570.79304991
_cell_formula_units_Z   6
loop_
 _symmetry_equiv_pos_site_id
 _symmetry_equiv_pos_as_xyz
  1  'x, y, z'
loop_
 _atom_site_type_symbol
 _atom_site_label
 _atom_site_symmetry_multiplicity
 _atom_site_fract_x
 _atom_site_fract_y
 _atom_site_fract_z
 _atom_site_occupancy
 _atom_site_charge
Cu  Cu1  1  0.50203000  0.50203000  0.93455000  1.0 0.8633679232
Cu  Cu2  1  0.50203000  0.93455000  0.50203000  1.0 0.8633679232
Cu  Cu3  1  0.93455000  0.50203000  0.50203000  1.0 0.8633679232
Cu  Cu4  1  0.49797000  0.06545000  0.49797000  1.0 0.8633679232
Cu  Cu5  1  0.49797000  0.49797000  0.06545000  1.0 0.8633679232
Cu  Cu6  1  0.06545000  0.49797000  0.49797000  1.0 0.8633679232
H  H1  1  0.23253000  0.53029000  0.23253000  1.0 0.1471923571
H  H2  1  0.53029000  0.23252000  0.23253000  1.0 0.1471923571
H  H3  1  0.23253000  0.23253000  0.53029000  1.0 0.1471923571
H  H4  1  0.76748000  0.76748000  0.46971000  1.0 0.1471923571
H  H5  1  0.46971000  0.76747000  0.76748000  1.0 0.1471923571
H  H6  1  0.76748000  0.46971000  0.76748000  1.0 0.1471923571
H  H7  1  0.24687000  0.53129000  0.03261000  1.0 0.1417032164
H  H8  1  0.53129000  0.03261000  0.24687000  1.0 0.1417032164
H  H9  1  0.03261000  0.24687000  0.53129000  1.0 0.1417032164
H  H10  1  0.75313000  0.96739000  0.46871000  1.0 0.1417032164
H  H11  1  0.46871000  0.75313000  0.96739000  1.0 0.1417032164
H  H12  1  0.96739000  0.46871000  0.75313000  1.0 0.1417032164
H  H13  1  0.75313000  0.46871000  0.96739000  1.0 0.1417032164
H  H14  1  0.46871000  0.96739000  0.75313000  1.0 0.1417032164
H  H15  1  0.96739000  0.75313000  0.46871000  1.0 0.1417032164
H  H16  1  0.24687000  0.03261000  0.53129000  1.0 0.1417032164
H  H17  1  0.53129000  0.24687000  0.03261000  1.0 0.1417032164
H  H18  1  0.03261000  0.53129000  0.24687000  1.0 0.1417032164
H  H19  1  0.90991000  0.56761000  0.15736000  1.0 0.1042156276
H  H20  1  0.56761000  0.15736000  0.90991000  1.0 0.1042156276
H  H21  1  0.15736000  0.90991000  0.56761000  1.0 0.1042156276
H  H22  1  0.09009000  0.84264000  0.43239000  1.0 0.1042156276
H  H23  1  0.43239000  0.09009000  0.84264000  1.0 0.1042156276
H  H24  1  0.84264000  0.43239000  0.09009000  1.0 0.1042156276
H  H25  1  0.09009000  0.43239000  0.84264000  1.0 0.1042156276
H  H26  1  0.43239000  0.84264000  0.09009000  1.0 0.1042156276
H  H27  1  0.84264000  0.09009000  0.43239000  1.0 0.1042156276
H  H28  1  0.90991000  0.15736000  0.56761000  1.0 0.1042156276
H  H29  1  0.56761000  0.90991000  0.15736000  1.0 0.1042156276
H  H30  1  0.15736000  0.56761000  0.90991000  1.0 0.1042156276
H  H31  1  0.76609000  0.58916000  0.21927000  1.0 0.1079047312
H  H32  1  0.58916000  0.21927000  0.76609000  1.0 0.1079047312
H  H33  1  0.21927000  0.76609000  0.58916000  1.0 0.1079047312
H  H34  1  0.23391000  0.78073000  0.41084000  1.0 0.1079047312
H  H35  1  0.41084000  0.23391000  0.78073000  1.0 0.1079047312
H  H36  1  0.78073000  0.41084000  0.23391000  1.0 0.1079047312
H  H37  1  0.23391000  0.41084000  0.78073000  1.0 0.1079047312
H  H38  1  0.41084000  0.78073000  0.23391000  1.0 0.1079047312
H  H39  1  0.78073000  0.23391000  0.41084000  1.0 0.1079047312
H  H40  1  0.76609000  0.21927000  0.58916000  1.0 0.1079047312
H  H41  1  0.58916000  0.76609000  0.21927000  1.0 0.1079047312
H  H42  1  0.21927000  0.58916000  0.76609000  1.0 0.1079047312
H  H43  1  0.71361000  0.56692000  0.16581000  1.0 0.1079047312
H  H44  1  0.56692000  0.16581000  0.71361000  1.0 0.1079047312
H  H45  1  0.16581000  0.71361000  0.56692000  1.0 0.1079047312
H  H46  1  0.28639000  0.83419000  0.43308000  1.0 0.1079047312
H  H47  1  0.43308000  0.28639000  0.83419000  1.0 0.1079047312
H  H48  1  0.83419000  0.43308000  0.28639000  1.0 0.1079047312
H  H49  1  0.28639000  0.43308000  0.83419000  1.0 0.1079047312
H  H50  1  0.43308000  0.83419000  0.28639000  1.0 0.1079047312
H  H51  1  0.83419000  0.28639000  0.43308000  1.0 0.1079047312
H  H52  1  0.71361000  0.16581000  0.56692000  1.0 0.1079047312
H  H53  1  0.56692000  0.71361000  0.16581000  1.0 0.1079047312
H  H54  1  0.16581000  0.56692000  0.71361000  1.0 0.1079047312
H  H55  1  0.80496000  0.52312000  0.05044000  1.0 0.1079047312
H  H56  1  0.52312000  0.05044000  0.80496000  1.0 0.1079047312
H  H57  1  0.05044000  0.80496000  0.52312000  1.0 0.1079047312
H  H58  1  0.19504000  0.94956000  0.47688000  1.0 0.1079047312
H  H59  1  0.47688000  0.19504000  0.94956000  1.0 0.1079047312
H  H60  1  0.94956000  0.47688000  0.19504000  1.0 0.1079047312
H  H61  1  0.19504000  0.47688000  0.94956000  1.0 0.1079047312
H  H62  1  0.47688000  0.94956000  0.19504000  1.0 0.1079047312
H  H63  1  0.94956000  0.19504000  0.47688000  1.0 0.1079047312
H  H64  1  0.80496000  0.05044000  0.52312000  1.0 0.1079047312
H  H65  1  0.52312000  0.80496000  0.05044000  1.0 0.1079047312
H  H66  1  0.05044000  0.52312000  0.80496000  1.0 0.1079047312
C  C1  1  0.34312000  0.52537000  0.07741000  1.0 0.5944053413
C  C2  1  0.52537000  0.07741000  0.34312000  1.0 0.5944053413
C  C3  1  0.07741000  0.34312000  0.52537000  1.0 0.5944053413
C  C4  1  0.65688000  0.92259000  0.47463000  1.0 0.5944053413
C  C5  1  0.47463000  0.65688000  0.92259000  1.0 0.5944053413
C  C6  1  0.92259000  0.47463000  0.65688000  1.0 0.5944053413
C  C7  1  0.65688000  0.47463000  0.92259000  1.0 0.5944053413
C  C8  1  0.47463000  0.92259000  0.65688000  1.0 0.5944053413
C  C9  1  0.92259000  0.65688000  0.47463000  1.0 0.5944053413
C  C10  1  0.34312000  0.07741000  0.52537000  1.0 0.5944053413
C  C11  1  0.52537000  0.34312000  0.07741000  1.0 0.5944053413
C  C12  1  0.07741000  0.52537000  0.34312000  1.0 0.5944053413
C  C13  1  0.25297000  0.53017000  0.12487000  1.0 -0.0172801905
C  C14  1  0.53017000  0.12487000  0.25297000  1.0 -0.0172801905
C  C15  1  0.12487000  0.25297000  0.53017000  1.0 -0.0172801905
C  C16  1  0.74703000  0.87513000  0.46983000  1.0 -0.0172801905
C  C17  1  0.46983000  0.74703000  0.87513000  1.0 -0.0172801905
C  C18  1  0.87513000  0.46983000  0.74703000  1.0 -0.0172801905
C  C19  1  0.74703000  0.46983000  0.87513000  1.0 -0.0172801905
C  C20  1  0.46983000  0.87513000  0.74703000  1.0 -0.0172801905
C  C21  1  0.87513000  0.74703000  0.46983000  1.0 -0.0172801905
C  C22  1  0.25297000  0.12487000  0.53017000  1.0 -0.0172801905
C  C23  1  0.53017000  0.25297000  0.12487000  1.0 -0.0172801905
C  C24  1  0.12487000  0.53017000  0.25297000  1.0 -0.0172801905
C  C25  1  0.20756000  0.53021000  0.20756000  1.0 -0.068715803
C  C26  1  0.53021000  0.20756000  0.20756000  1.0 -0.068715803
C  C27  1  0.20756000  0.20756000  0.53021000  1.0 -0.068715803
C  C28  1  0.79244000  0.79244000  0.46979000  1.0 -0.068715803
C  C29  1  0.46979000  0.79244000  0.79244000  1.0 -0.068715803
C  C30  1  0.79244000  0.46979000  0.79244000  1.0 -0.068715803
C  C31  1  0.21590000  0.53100000  0.08830000  1.0 -0.1239418518
C  C32  1  0.53100000  0.08830000  0.21590000  1.0 -0.1239418518
C  C33  1  0.08830000  0.21590000  0.53100000  1.0 -0.1239418518
C  C34  1  0.78410000  0.91170000  0.46900000  1.0 -0.1239418518
C  C35  1  0.46900000  0.78410000  0.91170000  1.0 -0.1239418518
C  C36  1  0.91170000  0.46900000  0.78410000  1.0 -0.1239418518
C  C37  1  0.78410000  0.46900000  0.91170000  1.0 -0.1239418518
C  C38  1  0.46900000  0.91170000  0.78410000  1.0 -0.1239418518
C  C39  1  0.91170000  0.78410000  0.46900000  1.0 -0.1239418518
C  C40  1  0.21590000  0.08830000  0.53100000  1.0 -0.1239418518
C  C41  1  0.53100000  0.21590000  0.08830000  1.0 -0.1239418518
C  C42  1  0.08830000  0.53100000  0.21590000  1.0 -0.1239418518
C  C43  1  0.13239000  0.53124000  0.13239000  1.0 0.1256891396
C  C44  1  0.53124000  0.13239000  0.13239000  1.0 0.1256891396
C  C45  1  0.13239000  0.13239000  0.53124000  1.0 0.12459944
C  C46  1  0.86761000  0.86761000  0.46876000  1.0 0.1256891396
C  C47  1  0.46876000  0.86761000  0.86761000  1.0 0.1256891396
C  C48  1  0.86761000  0.46876000  0.86761000  1.0 0.1256891396
C  C49  1  0.09550000  0.52870000  0.09550000  1.0 -0.1006015694
C  C50  1  0.52870000  0.09550000  0.09550000  1.0 -0.1006015694
C  C51  1  0.09550000  0.09550000  0.52870000  1.0 -0.1006015694
C  C52  1  0.90450000  0.90450000  0.47130000  1.0 -0.1006015694
C  C53  1  0.47130000  0.90450000  0.90450000  1.0 -0.1006015694
C  C54  1  0.90450000  0.47130000  0.90450000  1.0 -0.1006015694
C  C55  1  0.06655000  0.52300000  0.06655000  1.0 -0.2594938048
C  C56  1  0.52300000  0.06655000  0.06655000  1.0 -0.2594938048
C  C57  1  0.06655000  0.06655000  0.52300000  1.0 -0.2594938048
C  C58  1  0.93345000  0.93345000  0.47700000  1.0 -0.2594938048
C  C59  1  0.47700000  0.93345000  0.93345000  1.0 -0.2594938048
C  C60  1  0.93345000  0.47700000  0.93345000  1.0 -0.2594938048
C  C61  1  0.03450000  0.50940000  0.03450000  1.0 0.0139943474
C  C62  1  0.50940000  0.03450000  0.03450000  1.0 0.0139943474
C  C63  1  0.03450000  0.03450000  0.50940000  1.0 0.0139943474
C  C64  1  0.96550000  0.96550000  0.49060000  1.0 0.0139943474
C  C65  1  0.49060000  0.96550000  0.96550000  1.0 0.0139943474
C  C66  1  0.96550000  0.49060000  0.96550000  1.0 0.0154901948
C  C67  1  0.94320000  0.53250000  0.06700000  1.0 0.0486206077
C  C68  1  0.53250000  0.06700000  0.94320000  1.0 0.0486206077
C  C69  1  0.06700000  0.94320000  0.53250000  1.0 0.0486206077
C  C70  1  0.05680000  0.93300000  0.46750000  1.0 0.0486206077
C  C71  1  0.46750000  0.05680000  0.93300000  1.0 0.0486206077
C  C72  1  0.93300000  0.46750000  0.05680000  1.0 0.0486206077
C  C73  1  0.05680000  0.46750000  0.93300000  1.0 0.0486206077
C  C74  1  0.46750000  0.93300000  0.05680000  1.0 0.0486206077
C  C75  1  0.93300000  0.05680000  0.46750000  1.0 0.0486206077
C  C76  1  0.94320000  0.06700000  0.53250000  1.0 0.0486206077
C  C77  1  0.53250000  0.94320000  0.06700000  1.0 0.0486206077
C  C78  1  0.06700000  0.53250000  0.94320000  1.0 0.0486206077
C  C79  1  0.88879000  0.55859000  0.13579000  1.0 -0.068715803
C  C80  1  0.55859000  0.13579000  0.88879000  1.0 -0.068715803
C  C81  1  0.13579000  0.88879000  0.55859000  1.0 -0.068715803
C  C82  1  0.11121000  0.86421000  0.44141000  1.0 -0.068715803
C  C83  1  0.44141000  0.11121000  0.86421000  1.0 -0.068715803
C  C84  1  0.86421000  0.44141000  0.11121000  1.0 -0.068715803
C  C85  1  0.11121000  0.44141000  0.86421000  1.0 -0.068715803
C  C86  1  0.44141000  0.86421000  0.11121000  1.0 -0.068715803
C  C87  1  0.86421000  0.11121000  0.44141000  1.0 -0.0623376777
C  C88  1  0.88879000  0.13579000  0.55859000  1.0 -0.068715803
C  C89  1  0.55859000  0.88879000  0.13579000  1.0 -0.068715803
C  C90  1  0.13579000  0.55859000  0.88879000  1.0 -0.068715803
C  C91  1  0.80300000  0.57150000  0.17270000  1.0 -0.1546894926
C  C92  1  0.57150000  0.17270000  0.80300000  1.0 -0.1604671238
C  C93  1  0.17270000  0.80300000  0.57150000  1.0 -0.1604671238
C  C94  1  0.19700000  0.82730000  0.42850000  1.0 -0.1604671238
C  C95  1  0.42850000  0.19700000  0.82730000  1.0 -0.1604671238
C  C96  1  0.82730000  0.42850000  0.19700000  1.0 -0.1604671238
C  C97  1  0.19700000  0.42850000  0.82730000  1.0 -0.1604671238
C  C98  1  0.42850000  0.82730000  0.19700000  1.0 -0.1604671238
C  C99  1  0.82730000  0.19700000  0.42850000  1.0 -0.1604671238
C  C100  1  0.80300000  0.17270000  0.57150000  1.0 -0.1604671238
C  C101  1  0.57150000  0.80300000  0.17270000  1.0 -0.1604671238
C  C102  1  0.17270000  0.57150000  0.80300000  1.0 -0.1604671238
C  C103  1  0.77170000  0.55820000  0.14080000  1.0 -0.1604671238
C  C104  1  0.55820000  0.14080000  0.77170000  1.0 -0.1604671238
C  C105  1  0.14080000  0.77170000  0.55820000  1.0 -0.1604671238
C  C106  1  0.22830000  0.85920000  0.44180000  1.0 -0.1604671238
C  C107  1  0.44180000  0.22830000  0.85920000  1.0 -0.1604671238
C  C108  1  0.85920000  0.44180000  0.22830000  1.0 -0.1604671238
C  C109  1  0.22830000  0.44180000  0.85920000  1.0 -0.1604671238
C  C110  1  0.44180000  0.85920000  0.22830000  1.0 -0.1604671238
C  C111  1  0.85920000  0.22830000  0.44180000  1.0 -0.1604671238
C  C112  1  0.77170000  0.14080000  0.55820000  1.0 -0.1604671238
C  C113  1  0.55820000  0.77170000  0.14080000  1.0 -0.1604671238
C  C114  1  0.14080000  0.55820000  0.77170000  1.0 -0.1604671238
C  C115  1  0.82611000  0.53211000  0.07201000  1.0 -0.0623376777
C  C116  1  0.53211000  0.07201000  0.82611000  1.0 -0.0623376777
C  C117  1  0.07201000  0.82611000  0.53211000  1.0 -0.0623376777
C  C118  1  0.17389000  0.92799000  0.46789000  1.0 -0.0623376777
C  C119  1  0.46789000  0.17389000  0.92799000  1.0 -0.0623376777
C  C120  1  0.92799000  0.46789000  0.17389000  1.0 -0.0623376777
C  C121  1  0.17389000  0.46789000  0.92799000  1.0 -0.0623376777
C  C122  1  0.46789000  0.92799000  0.17389000  1.0 -0.0623376777
C  C123  1  0.92799000  0.17389000  0.46789000  1.0 -0.0623376777
C  C124  1  0.82611000  0.07201000  0.53211000  1.0 -0.0623376777
C  C125  1  0.53211000  0.82611000  0.07201000  1.0 -0.0623376777
C  C126  1  0.07201000  0.53211000  0.82611000  1.0 -0.0623376777
C  C127  1  0.91190000  0.51920000  0.03510000  1.0 0.0410705457
C  C128  1  0.51920000  0.03510000  0.91190000  1.0 0.0410705457
C  C129  1  0.03510000  0.91190000  0.51920000  1.0 0.0410705457
C  C130  1  0.08810000  0.96490000  0.48080000  1.0 0.0410705457
C  C131  1  0.48080000  0.08810000  0.96490000  1.0 0.0410705457
C  C132  1  0.96490000  0.48080000  0.08810000  1.0 0.0410705457
C  C133  1  0.08810000  0.48080000  0.96490000  1.0 0.0410705457
C  C134  1  0.48080000  0.96490000  0.08810000  1.0 0.0410705457
C  C135  1  0.96490000  0.08810000  0.48080000  1.0 0.0410705457
C  C136  1  0.91190000  0.03510000  0.51920000  1.0 0.0410705457
C  C137  1  0.51920000  0.91190000  0.03510000  1.0 0.0410705457
C  C138  1  0.03510000  0.51920000  0.91190000  1.0 0.0410705457
O  O1  1  0.37564000  0.52044000  0.11501000  1.0 -0.5015992342
O  O2  1  0.52044000  0.11501000  0.37564000  1.0 -0.5015992342
O  O3  1  0.11501000  0.37564000  0.52044000  1.0 -0.5015992342
O  O4  1  0.62436000  0.88499000  0.47956000  1.0 -0.5015992342
O  O5  1  0.47956000  0.62436000  0.88499000  1.0 -0.5015992342
O  O6  1  0.88499000  0.47956000  0.62436000  1.0 -0.5015992342
O  O7  1  0.62436000  0.47956000  0.88499000  1.0 -0.5015992342
O  O8  1  0.47956000  0.88499000  0.62436000  1.0 -0.5015992342
O  O9  1  0.88499000  0.62436000  0.47956000  1.0 -0.5015992342
O  O10  1  0.37564000  0.11501000  0.52044000  1.0 -0.5015992342
O  O11  1  0.52044000  0.37564000  0.11501000  1.0 -0.5015992342
O  O12  1  0.11501000  0.52044000  0.37564000  1.0 -0.5015992342
O  O13  1  0.38005000  0.52399000  0.00427000  1.0 -0.520683648
O  O14  1  0.52399000  0.00427000  0.38005000  1.0 -0.520683648
O  O15  1  0.00427000  0.38005000  0.52399000  1.0 -0.520683648
O  O16  1  0.61995000  0.99573000  0.47601000  1.0 -0.520683648
O  O17  1  0.47601000  0.61995000  0.99573000  1.0 -0.520683648
O  O18  1  0.99573000  0.47601000  0.61995000  1.0 -0.520683648
O  O19  1  0.61995000  0.47601000  0.99573000  1.0 -0.520683648
O  O20  1  0.47601000  0.99573000  0.61995000  1.0 -0.520683648
O  O21  1  0.99573000  0.61995000  0.47601000  1.0 -0.520683648
O  O22  1  0.38005000  0.00427000  0.52399000  1.0 -0.520683648
O  O23  1  0.52399000  0.38005000  0.00427000  1.0 -0.520683648
O  O24  1  0.00427000  0.52399000  0.38005000  1.0 -0.520683648
