# DDEC6 charges by PACMAN v1.1 (https://github.com/mtap-research/PACMAN-charge/)
data_OFOLUU_ASR_pacman
_symmetry_space_group_name_H-M   'P 1'
_cell_length_a   12.97200000
_cell_length_b   17.73700000
_cell_length_c   22.20900000
_cell_angle_alpha   95.58300000
_cell_angle_beta   91.35400000
_cell_angle_gamma   96.72900000
_symmetry_Int_Tables_number   1
_chemical_formula_structural   Nd4Zr3P2H6W18C14(NO34)2
_chemical_formula_sum   'Nd8 Zr6 P4 H12 W36 C28 N4 O136'
_cell_volume   5047.49779531
_cell_formula_units_Z   2
loop_
 _symmetry_equiv_pos_site_id
 _symmetry_equiv_pos_as_xyz
  1  'x, y, z'
loop_
 _atom_site_type_symbol
 _atom_site_label
 _atom_site_symmetry_multiplicity
 _atom_site_fract_x
 _atom_site_fract_y
 _atom_site_fract_z
 _atom_site_occupancy
 _atom_site_charge
Nd  Nd1  1  0.03699000  0.67039000  0.44248000  1.0 2.0838862781
Nd  Nd2  1  0.96301000  0.32961000  0.55752000  1.0 2.0838862781
Nd  Nd3  1  0.95346000  0.61104000  0.02942000  1.0 2.1779954557
Nd  Nd4  1  0.04654000  0.38896000  0.97058000  1.0 2.1779954557
Nd  Nd5  1  0.71188000  0.87811000  0.08609000  1.0 2.1515206223
Nd  Nd6  1  0.28812000  0.12189000  0.91391000  1.0 2.1515206223
Nd  Nd7  1  0.72320000  0.89944000  0.40974000  1.0 2.0340538149
Nd  Nd8  1  0.27680000  0.10056000  0.59026000  1.0 2.0340538149
Zr  Zr1  1  0.39269000  0.31394000  0.34201000  1.0 2.5678368931
Zr  Zr2  1  0.60731000  0.68606000  0.65799000  1.0 2.5678368931
Zr  Zr3  1  0.62348000  0.22394000  0.24723000  1.0 2.5678368931
Zr  Zr4  1  0.37652000  0.77606000  0.75277000  1.0 2.5678368931
Zr  Zr5  1  0.36864000  0.29821000  0.16486000  1.0 2.5590114717
Zr  Zr6  1  0.63136000  0.70179000  0.83514000  1.0 2.5590114717
P  P1  1  0.59120000  0.44170000  0.25203000  1.0 1.3858769064
P  P2  1  0.40880000  0.55830000  0.74797000  1.0 1.3858769064
P  P3  1  0.33600000  0.11000000  0.25067000  1.0 1.3401317124
P  P4  1  0.66400000  0.89000000  0.74933000  1.0 1.3401317124
H  H1  1  0.11458000  0.41587000  0.33627000  1.0 0.0901501104
H  H2  1  0.88542000  0.58413000  0.66373000  1.0 0.0901501104
H  H3  1  0.05563000  0.57433000  0.22514000  1.0 0.0901501104
H  H4  1  0.94437000  0.42567000  0.77486000  1.0 0.0901501104
H  H5  1  0.10678000  0.36331000  0.15845000  1.0 0.0901501104
H  H6  1  0.89322000  0.63669000  0.84155000  1.0 0.0901501104
H  H7  1  0.09128000  0.73323000  0.14646000  1.0 0.0647828926
H  H8  1  0.90872000  0.26677000  0.85354000  1.0 0.0647828926
H  H9  1  0.85208000  0.79352000  0.24261000  1.0 0.0969977205
H  H10  1  0.14792000  0.20648000  0.75739000  1.0 0.0969977205
H  H11  1  0.12294000  0.76719000  0.32507000  1.0 0.0516121418
H  H12  1  0.87706000  0.23281000  0.67493000  1.0 0.0516121418
W  W1  1  0.78683000  0.57701000  0.32699000  1.0 2.4159131174
W  W2  1  0.21317000  0.42299000  0.67301000  1.0 2.413952363
W  W3  1  0.76307000  0.56532000  0.17300000  1.0 2.413952363
W  W4  1  0.23693000  0.43468000  0.82700000  1.0 2.413952363
W  W5  1  0.57997000  0.64201000  0.25956000  1.0 2.4708103661
W  W6  1  0.42003000  0.35799000  0.74044000  1.0 2.4708103661
W  W7  1  0.60561000  0.45141000  0.41109000  1.0 2.4898467188
W  W8  1  0.39439000  0.54859000  0.58891000  1.0 2.4898467188
W  W9  1  0.81084000  0.37118000  0.31855000  1.0 2.4611563806
W  W10  1  0.18916000  0.62882000  0.68145000  1.0 2.4611563806
W  W11  1  0.78257000  0.35752000  0.16641000  1.0 2.4708103661
W  W12  1  0.21743000  0.64248000  0.83359000  1.0 2.4708103661
W  W13  1  0.55318000  0.42756000  0.09380000  1.0 2.4898467188
W  W14  1  0.44682000  0.57244000  0.90620000  1.0 2.4898467188
W  W15  1  0.37420000  0.50267000  0.17913000  1.0 2.4611563806
W  W16  1  0.62580000  0.49733000  0.82087000  1.0 2.4611563806
W  W17  1  0.40195000  0.51856000  0.34711000  1.0 2.4812640076
W  W18  1  0.59805000  0.48144000  0.65289000  1.0 2.4812640076
W  W19  1  0.54061000  0.03397000  0.17236000  1.0 2.2974822645
W  W20  1  0.45939000  0.96603000  0.82764000  1.0 2.2776677732
W  W21  1  0.55409000  0.05244000  0.32499000  1.0 2.3085372572
W  W22  1  0.44591000  0.94756000  0.67501000  1.0 2.2911405687
W  W23  1  0.34489000  0.13637000  0.41211000  1.0 2.2232697134
W  W24  1  0.65511000  0.86363000  0.58789000  1.0 2.2232697134
W  W25  1  0.14477000  0.19440000  0.33769000  1.0 2.4898467188
W  W26  1  0.85523000  0.80560000  0.66231000  1.0 2.4898467188
W  W27  1  0.12652000  0.17448000  0.16915000  1.0 2.4812640076
W  W28  1  0.87348000  0.82552000  0.83085000  1.0 2.4812640076
W  W29  1  0.32000000  0.10122000  0.09216000  1.0 2.2911405687
W  W30  1  0.68000000  0.89878000  0.90784000  1.0 2.2911405687
W  W31  1  0.27811000  0.92555000  0.17168000  1.0 2.4393406515
W  W32  1  0.72189000  0.07445000  0.82832000  1.0 2.4393406515
W  W33  1  0.29171000  0.94402000  0.32579000  1.0 2.4393406515
W  W34  1  0.70829000  0.05598000  0.67421000  1.0 2.4393406515
W  W35  1  0.08720000  0.00209000  0.25111000  1.0 2.4468426828
W  W36  1  0.91280000  0.99791000  0.74889000  1.0 2.4393406515
C  C1  1  0.07820000  0.56020000  0.34460000  1.0 0.5478798275
C  C2  1  0.92180000  0.43980000  0.65540000  1.0 0.5478798275
C  C3  1  0.06580000  0.49050000  0.11770000  1.0 0.6146203999
C  C4  1  0.93420000  0.50950000  0.88230000  1.0 0.6146203999
C  C5  1  0.10610000  0.43100000  0.29770000  1.0 -0.0311390559
C  C6  1  0.89390000  0.56900000  0.70230000  1.0 -0.0311390559
C  C7  1  0.08640000  0.50520000  0.29080000  1.0 -0.1141529928
C  C8  1  0.91360000  0.49480000  0.70920000  1.0 -0.1179113612
C  C9  1  0.07040000  0.52550000  0.23130000  1.0 -0.0876599836
C  C10  1  0.92960000  0.47450000  0.76870000  1.0 -0.0876599836
C  C11  1  0.07710000  0.47090000  0.18220000  1.0 -0.1396726022
C  C12  1  0.92290000  0.52910000  0.81780000  1.0 -0.1396726022
C  C13  1  0.10010000  0.39920000  0.19110000  1.0 -0.0209249041
C  C14  1  0.89990000  0.60080000  0.80890000  1.0 -0.0209249041
C  C15  1  0.90140000  0.76560000  0.12850000  1.0 0.658274961
C  C16  1  0.09860000  0.23440000  0.87150000  1.0 0.658274961
C  C17  1  0.93590000  0.80100000  0.35440000  1.0 0.6409206514
C  C18  1  0.06410000  0.19900000  0.64560000  1.0 0.6409206514
C  C19  1  0.06290000  0.74640000  0.18350000  1.0 0.0131409739
C  C20  1  0.93710000  0.25360000  0.81650000  1.0 0.0131409739
C  C21  1  0.96110000  0.76260000  0.18680000  1.0 -0.1179113612
C  C22  1  0.03890000  0.23740000  0.81320000  1.0 -0.1179113612
C  C23  1  0.91970000  0.78100000  0.24110000  1.0 -0.0819999005
C  C24  1  0.08030000  0.21900000  0.75890000  1.0 -0.0819999005
C  C25  1  0.97890000  0.78110000  0.29510000  1.0 -0.1509154389
C  C26  1  0.02110000  0.21890000  0.70490000  1.0 -0.1509154389
C  C27  1  0.08150000  0.76620000  0.29020000  1.0 0.0516121418
C  C28  1  0.91850000  0.23380000  0.70980000  1.0 0.0516121418
N  N1  1  0.11290000  0.38180000  0.24910000  1.0 -0.1396726022
N  N2  1  0.88710000  0.61820000  0.75090000  1.0 -0.1396726022
N  N3  1  0.12110000  0.75060000  0.23690000  1.0 -0.2235509853
N  N4  1  0.87890000  0.24940000  0.76310000  1.0 -0.2235509853
O  O1  1  0.88410000  0.62920000  0.37440000  1.0 -0.9799368377
O  O2  1  0.11590000  0.37080000  0.62560000  1.0 -0.9799368377
O  O3  1  0.84170000  0.60460000  0.11940000  1.0 -0.8911193485
O  O4  1  0.15830000  0.39540000  0.88060000  1.0 -0.8911193485
O  O5  1  0.61560000  0.98510000  0.12190000  1.0 -0.9902914804
O  O6  1  0.38440000  0.01490000  0.87810000  1.0 -0.9902914804
O  O7  1  0.63580000  0.01120000  0.37280000  1.0 -0.9902914804
O  O8  1  0.36420000  0.98880000  0.62720000  1.0 -0.9902914804
O  O9  1  0.35490000  0.12360000  0.48790000  1.0 -0.9581840975
O  O10  1  0.64510000  0.87640000  0.51210000  1.0 -0.9524256165
O  O11  1  0.32020000  0.07500000  0.01490000  1.0 -0.9697186856
O  O12  1  0.67980000  0.92500000  0.98510000  1.0 -0.9799368377
O  O13  1  0.83790000  0.59760000  0.24800000  1.0 -0.8911193485
O  O14  1  0.16210000  0.40240000  0.75200000  1.0 -0.8911193485
O  O15  1  0.69930000  0.65740000  0.31580000  1.0 -0.9697186856
O  O16  1  0.30070000  0.34260000  0.68420000  1.0 -0.9697186856
O  O17  1  0.69340000  0.53880000  0.38040000  1.0 -0.9581840975
O  O18  1  0.30660000  0.46120000  0.61960000  1.0 -0.9581840975
O  O19  1  0.83420000  0.48270000  0.31540000  1.0 -0.9524256165
O  O20  1  0.16580000  0.51730000  0.68460000  1.0 -0.9524256165
O  O21  1  0.67850000  0.64780000  0.19580000  1.0 -0.9697186856
O  O22  1  0.32150000  0.35220000  0.80420000  1.0 -0.9697186856
O  O23  1  0.64880000  0.51920000  0.12550000  1.0 -0.9524256165
O  O24  1  0.35120000  0.48080000  0.87450000  1.0 -0.9581840975
O  O25  1  0.80690000  0.47010000  0.17270000  1.0 -0.9121590878
O  O26  1  0.19310000  0.52990000  0.82730000  1.0 -0.9121590878
O  O27  1  0.48240000  0.58910000  0.20260000  1.0 -1.0112362082
O  O28  1  0.51760000  0.41090000  0.79740000  1.0 -1.0112362082
O  O29  1  0.49910000  0.59930000  0.31990000  1.0 -1.0304211403
O  O30  1  0.50090000  0.40070000  0.68010000  1.0 -1.0214095946
O  O31  1  0.49960000  0.51860000  0.41350000  1.0 -0.9799368377
O  O32  1  0.50040000  0.48140000  0.58650000  1.0 -0.9799368377
O  O33  1  0.50770000  0.36920000  0.41170000  1.0 -1.0214095946
O  O34  1  0.49230000  0.63080000  0.58830000  1.0 -1.0214095946
O  O35  1  0.70990000  0.39450000  0.37580000  1.0 -0.9902914804
O  O36  1  0.29010000  0.60550000  0.62420000  1.0 -0.9902914804
O  O37  1  0.74910000  0.27240000  0.30270000  1.0 -1.0304211403
O  O38  1  0.25090000  0.72760000  0.69730000  1.0 -1.0304211403
O  O39  1  0.86650000  0.36610000  0.23900000  1.0 -0.9524256165
O  O40  1  0.13350000  0.63390000  0.76100000  1.0 -0.9524256165
O  O41  1  0.72550000  0.26310000  0.18150000  1.0 -0.9902914804
O  O42  1  0.27450000  0.73690000  0.81850000  1.0 -0.9902914804
O  O43  1  0.66560000  0.37340000  0.11600000  1.0 -0.9799368377
O  O44  1  0.33440000  0.62660000  0.88400000  1.0 -0.9799368377
O  O45  1  0.45580000  0.34370000  0.09470000  1.0 -1.0486423845
O  O46  1  0.54420000  0.65630000  0.90530000  1.0 -1.0486423845
O  O47  1  0.44710000  0.49380000  0.10470000  1.0 -0.9799368377
O  O48  1  0.55290000  0.50620000  0.89530000  1.0 -0.9799368377
O  O49  1  0.31220000  0.40470000  0.16190000  1.0 -0.9902914804
O  O50  1  0.68780000  0.59530000  0.83810000  1.0 -0.9902914804
O  O51  1  0.35460000  0.50310000  0.26270000  1.0 -0.9524256165
O  O52  1  0.64540000  0.49690000  0.73730000  1.0 -0.9524256165
O  O53  1  0.34400000  0.42180000  0.35860000  1.0 -1.0214095946
O  O54  1  0.65600000  0.57820000  0.64140000  1.0 -1.0304211403
O  O55  1  0.58920000  0.00410000  0.24710000  1.0 -0.9697186856
O  O56  1  0.41080000  0.99590000  0.75290000  1.0 -0.9799368377
O  O57  1  0.62400000  0.12620000  0.18760000  1.0 -1.0214095946
O  O58  1  0.37600000  0.87380000  0.81240000  1.0 -1.0214095946
O  O59  1  0.45060000  0.07790000  0.11860000  1.0 -0.9363721883
O  O60  1  0.54940000  0.92210000  0.88140000  1.0 -0.9298914786
O  O61  1  0.42290000  0.95760000  0.17590000  1.0 -0.9697186856
O  O62  1  0.57710000  0.04240000  0.82410000  1.0 -0.9697186856
O  O63  1  0.63370000  0.13870000  0.30920000  1.0 -0.9799368377
O  O64  1  0.36630000  0.86130000  0.69080000  1.0 -0.9799368377
O  O65  1  0.47540000  0.10540000  0.38180000  1.0 -0.9524256165
O  O66  1  0.52460000  0.89460000  0.61820000  1.0 -0.9524256165
O  O67  1  0.43660000  0.97210000  0.31950000  1.0 -0.9697186856
O  O68  1  0.56340000  0.02790000  0.68050000  1.0 -0.9697186856
O  O69  1  0.39090000  0.23530000  0.40980000  1.0 -0.9902914804
O  O70  1  0.60910000  0.76470000  0.59020000  1.0 -0.9902914804
O  O71  1  0.20480000  0.15630000  0.40680000  1.0 -0.9902914804
O  O72  1  0.79520000  0.84370000  0.59320000  1.0 -0.9902914804
O  O73  1  0.28980000  0.03230000  0.37870000  1.0 -0.9524256165
O  O74  1  0.71020000  0.96770000  0.62130000  1.0 -0.9524256165
O  O75  1  0.23020000  0.28290000  0.35170000  1.0 -0.9978091792
O  O76  1  0.76980000  0.71710000  0.64830000  1.0 -0.9978091792
O  O77  1  0.12390000  0.20740000  0.25320000  1.0 -0.9799368377
O  O78  1  0.87610000  0.79260000  0.74680000  1.0 -0.9697186856
O  O79  1  0.10170000  0.08570000  0.31040000  1.0 -0.9902914804
O  O80  1  0.89830000  0.91430000  0.68960000  1.0 -0.9902914804
O  O81  1  0.20930000  0.26190000  0.15560000  1.0 -1.0214095946
O  O82  1  0.79070000  0.73810000  0.84440000  1.0 -1.0214095946
O  O83  1  0.17670000  0.12090000  0.09680000  1.0 -0.9978091792
O  O84  1  0.82330000  0.87910000  0.90320000  1.0 -0.9902914804
O  O85  1  0.09050000  0.07320000  0.19420000  1.0 -0.9799368377
O  O86  1  0.90950000  0.92680000  0.80580000  1.0 -0.9799368377
O  O87  1  0.36200000  0.20250000  0.09530000  1.0 -0.9799368377
O  O88  1  0.63800000  0.79750000  0.90470000  1.0 -0.9799368377
O  O89  1  0.26640000  0.00230000  0.12050000  1.0 -0.9581840975
O  O90  1  0.73360000  0.99770000  0.87950000  1.0 -0.9581840975
O  O91  1  0.29970000  0.88860000  0.24860000  1.0 -0.9697186856
O  O92  1  0.70030000  0.11140000  0.75140000  1.0 -0.9697186856
O  O93  1  0.13530000  0.93410000  0.18880000  1.0 -0.9697186856
O  O94  1  0.86470000  0.06590000  0.81120000  1.0 -0.9581840975
O  O95  1  0.14620000  0.94570000  0.31040000  1.0 -0.9697186856
O  O96  1  0.85380000  0.05430000  0.68960000  1.0 -0.9697186856
O  O97  1  0.65540000  0.52370000  0.25240000  1.0 -1.0214095946
O  O98  1  0.34460000  0.47630000  0.74760000  1.0 -1.0214095946
O  O99  1  0.66666667  0.38200000  0.24680000  1.0 -0.9581840975
O  O100  1  0.33333333  0.61800000  0.75320000  1.0 -0.9581840975
O  O101  1  0.51390000  0.42950000  0.19780000  1.0 -0.9697186856
O  O102  1  0.48610000  0.57050000  0.80220000  1.0 -0.9697186856
O  O103  1  0.53130000  0.43830000  0.31110000  1.0 -0.9799368377
O  O104  1  0.46870000  0.56170000  0.68890000  1.0 -0.9799368377
O  O105  1  0.45310000  0.10130000  0.25110000  1.0 -0.9121590878
O  O106  1  0.54690000  0.89870000  0.74890000  1.0 -0.9121590878
O  O107  1  0.31280000  0.16000000  0.30850000  1.0 -0.9298914786
O  O108  1  0.68720000  0.84000000  0.69150000  1.0 -0.9298914786
O  O109  1  0.30110000  0.14610000  0.19430000  1.0 -0.9363721883
O  O110  1  0.69890000  0.85390000  0.80570000  1.0 -0.9363721883
O  O111  1  0.27460000  0.02960000  0.25060000  1.0 -0.9799368377
O  O112  1  0.72540000  0.97040000  0.74940000  1.0 -0.9902914804
O  O113  1  0.52930000  0.26410000  0.31360000  1.0 -1.091155318
O  O114  1  0.47070000  0.73590000  0.68640000  1.0 -1.091155318
O  O115  1  0.51110000  0.25010000  0.18380000  1.0 -1.091155318
O  O116  1  0.48890000  0.74990000  0.81620000  1.0 -1.0828740473
O  O117  1  0.36150000  0.31350000  0.25360000  1.0 -1.1247321244
O  O118  1  0.63850000  0.68650000  0.74640000  1.0 -1.1286134596
O  O119  1  0.06210000  0.53770000  0.39640000  1.0 -0.6757171328
O  O120  1  0.93790000  0.46230000  0.60360000  1.0 -0.6757171328
O  O121  1  0.08940000  0.63020000  0.33710000  1.0 -0.6422559793
O  O122  1  0.91060000  0.36980000  0.66290000  1.0 -0.6422559793
O  O123  1  0.04110000  0.55630000  0.10960000  1.0 -0.6628080483
O  O124  1  0.95890000  0.44370000  0.89040000  1.0 -0.6628080483
O  O125  1  0.08280000  0.44000000  0.07710000  1.0 -0.6487485047
O  O126  1  0.91720000  0.56000000  0.92290000  1.0 -0.6487485047
O  O127  1  0.82080000  0.79880000  0.13280000  1.0 -0.7211075003
O  O128  1  0.17920000  0.20120000  0.86720000  1.0 -0.7211075003
O  O129  1  0.93310000  0.73640000  0.07890000  1.0 -0.7389739628
O  O130  1  0.06690000  0.26360000  0.92110000  1.0 -0.7389739628
O  O131  1  0.85380000  0.83160000  0.35500000  1.0 -0.6757171328
O  O132  1  0.14620000  0.16840000  0.64500000  1.0 -0.6757171328
O  O133  1  0.98430000  0.78610000  0.40190000  1.0 -0.7211075003
O  O134  1  0.01570000  0.21390000  0.59810000  1.0 -0.7211075003
O  O135  1  0.89450000  0.46680000  0.02310000  1.0 -0.9298914786
O  O136  1  0.10550000  0.53320000  0.97690000  1.0 -0.9298914786
