# DDEC6 charges by PACMAN v1.1 (https://github.com/mtap-research/PACMAN-charge/)
data_OFOMOP_ASR_pacman
_symmetry_space_group_name_H-M   'P 1'
_cell_length_a   21.44600000
_cell_length_b   21.44600000
_cell_length_c   15.03580000
_cell_angle_alpha   84.24940000
_cell_angle_beta   95.75060000
_cell_angle_gamma   49.00790000
_symmetry_Int_Tables_number   1
_chemical_formula_structural   UH29C47(NO3)4
_chemical_formula_sum   'U4 H116 C188 N16 O48'
_cell_volume   5065.15605356
_cell_formula_units_Z   4
loop_
 _symmetry_equiv_pos_site_id
 _symmetry_equiv_pos_as_xyz
  1  'x, y, z'
loop_
 _atom_site_type_symbol
 _atom_site_label
 _atom_site_symmetry_multiplicity
 _atom_site_fract_x
 _atom_site_fract_y
 _atom_site_fract_z
 _atom_site_occupancy
 _atom_site_charge
U  U1  1  0.73640000  0.92930000  0.50051000  1.0 1.8991187936
U  U2  1  0.92930000  0.73640000  0.99949000  1.0 1.8991187936
U  U3  1  0.26360000  0.07070000  0.49949000  1.0 1.8991187936
U  U4  1  0.07070000  0.26360000  0.00051000  1.0 1.8898991868
H  H1  1  0.72375000  0.71065000  0.46420000  1.0 0.1311072536
H  H2  1  0.71065000  0.72375000  0.03580000  1.0 0.1311072536
H  H3  1  0.27625000  0.28935000  0.53580000  1.0 0.1311072536
H  H4  1  0.28935000  0.27625000  0.96420000  1.0 0.1311072536
H  H5  1  0.49287000  0.94471000  0.43505000  1.0 0.1311072536
H  H6  1  0.94471000  0.49287000  0.06495000  1.0 0.1311072536
H  H7  1  0.50713000  0.05529000  0.56495000  1.0 0.1311072536
H  H8  1  0.05529000  0.50713000  0.93505000  1.0 0.1311072536
H  H9  1  0.69121000  0.18615000  0.47685000  1.0 0.1198662672
H  H10  1  0.18615000  0.69121000  0.02315000  1.0 0.1198662672
H  H11  1  0.30879000  0.81385000  0.52315000  1.0 0.1198662672
H  H12  1  0.81385000  0.30879000  0.97685000  1.0 0.1198662672
H  H13  1  0.52460000  0.21520000  0.28112000  1.0 0.1444863752
H  H14  1  0.21520000  0.52460000  0.21888000  1.0 0.1444863752
H  H15  1  0.47540000  0.78480000  0.71888000  1.0 0.1444863752
H  H16  1  0.78480000  0.47540000  0.78112000  1.0 0.1444863752
H  H17  1  0.66115000  0.65509000  0.44436000  1.0 0.1198662672
H  H18  1  0.65509000  0.66115000  0.05564000  1.0 0.1198662672
H  H19  1  0.33885000  0.34491000  0.55564000  1.0 0.1198662672
H  H20  1  0.34491000  0.33885000  0.94436000  1.0 0.1198662672
H  H21  1  0.43013000  0.88933000  0.41778000  1.0 0.1114123542
H  H22  1  0.88933000  0.43013000  0.08222000  1.0 0.1114123542
H  H23  1  0.56987000  0.11067000  0.58222000  1.0 0.1114123542
H  H24  1  0.11067000  0.56987000  0.91778000  1.0 0.1114123542
H  H25  1  0.63073000  0.32321000  0.41865000  1.0 0.1114123542
H  H26  1  0.32321000  0.63073000  0.08135000  1.0 0.1114123542
H  H27  1  0.36927000  0.67679000  0.58135000  1.0 0.1114123542
H  H28  1  0.67679000  0.36927000  0.91865000  1.0 0.1114123542
H  H29  1  0.46705000  0.35173000  0.21994000  1.0 0.1198662672
H  H30  1  0.35173000  0.46705000  0.28006000  1.0 0.1198662672
H  H31  1  0.53295000  0.64827000  0.78006000  1.0 0.1198662672
H  H32  1  0.64827000  0.53295000  0.71994000  1.0 0.1198662672
H  H33  1  0.58139000  0.61657000  0.49443000  1.0 0.29718633
H  H34  1  0.61658000  0.58139000  0.00557000  1.0 0.29718633
H  H35  1  0.41862000  0.38343000  0.50557000  1.0 0.29718633
H  H36  1  0.38343000  0.41862000  0.99443000  1.0 0.29718633
H  H37  1  0.44432000  0.84936000  0.24428000  1.0 0.1198662672
H  H38  1  0.84936000  0.44432000  0.25572000  1.0 0.1198662672
H  H39  1  0.55568000  0.15064000  0.75572000  1.0 0.1198662672
H  H40  1  0.15064000  0.55568000  0.74428000  1.0 0.1198662672
H  H41  1  0.25110000  0.88378000  0.32378000  1.0 0.1311072536
H  H42  1  0.88378000  0.25110000  0.17622000  1.0 0.1311072536
H  H43  1  0.74890000  0.11622000  0.67622000  1.0 0.1311072536
H  H44  1  0.11622000  0.74890000  0.82378000  1.0 0.1311072536
H  H45  1  0.37511000  0.61645000  0.39701000  1.0 0.1114123542
H  H46  1  0.61645000  0.37511000  0.10299000  1.0 0.1114123542
H  H47  1  0.62489000  0.38355000  0.60299000  1.0 0.1114123542
H  H48  1  0.38355000  0.62489000  0.89701000  1.0 0.1114123542
H  H49  1  0.60627000  0.50069000  0.54745000  1.0 0.1198662672
H  H50  1  0.50069000  0.60627000  0.95255000  1.0 0.1198662672
H  H51  1  0.39373000  0.49931000  0.45255000  1.0 0.1198662672
H  H52  1  0.49931000  0.39373000  0.04745000  1.0 0.1198662672
H  H53  1  0.34873000  0.98479000  0.15091000  1.0 0.1311072536
H  H54  1  0.98479000  0.34873000  0.34909000  1.0 0.1311072536
H  H55  1  0.65127000  0.01521000  0.84909000  1.0 0.1311072536
H  H56  1  0.01521000  0.65127000  0.65091000  1.0 0.1311072536
H  H57  1  0.15493000  0.01597000  0.22496000  1.0 0.1311072536
H  H58  1  0.01597000  0.15493000  0.27504000  1.0 0.1311072536
H  H59  1  0.84507000  0.98403000  0.77504000  1.0 0.1311072536
H  H60  1  0.98403000  0.84507000  0.72496000  1.0 0.1311072536
H  H61  1  0.67199000  0.46933000  0.34755000  1.0 0.1198662672
H  H62  1  0.46933000  0.67199000  0.15245000  1.0 0.1198662672
H  H63  1  0.32801000  0.53067000  0.65245000  1.0 0.1198662672
H  H64  1  0.53067000  0.32801000  0.84755000  1.0 0.1198662672
H  H65  1  0.73165000  0.52901000  0.34644000  1.0 0.1198662672
H  H66  1  0.52901000  0.73165000  0.15356000  1.0 0.1198662672
H  H67  1  0.26835000  0.47099000  0.65356000  1.0 0.1198662672
H  H68  1  0.47099000  0.26835000  0.84644000  1.0 0.1198662672
H  H69  1  0.56398000  0.90612000  0.24117000  1.0 0.0802349903
H  H70  1  0.90612000  0.56398000  0.25883000  1.0 0.0802349903
H  H71  1  0.43602000  0.09388000  0.75883000  1.0 0.0802349903
H  H72  1  0.09388000  0.43602000  0.74117000  1.0 0.0802349903
H  H73  1  0.79586000  0.78621000  0.18772000  1.0 0.0802349903
H  H74  1  0.78621000  0.79587000  0.31228000  1.0 0.0802349903
H  H75  1  0.20414000  0.21379000  0.81228000  1.0 0.0802349903
H  H76  1  0.21379000  0.20414000  0.68772000  1.0 0.0802349903
H  H77  1  0.52438000  0.03702000  0.19222000  1.0 0.0802349903
H  H78  1  0.03702000  0.52438000  0.30778000  1.0 0.0802349903
H  H79  1  0.47562000  0.96298000  0.80778000  1.0 0.0802349903
H  H80  1  0.96298000  0.47562000  0.69222000  1.0 0.0802349903
H  H81  1  0.75627000  0.91710000  0.13877000  1.0 0.1031522071
H  H82  1  0.91709000  0.75626000  0.36123000  1.0 0.1031522071
H  H83  1  0.24374000  0.08291000  0.86123000  1.0 0.1031522071
H  H84  1  0.08291000  0.24374000  0.63877000  1.0 0.1031522071
H  H85  1  0.51807000  0.14219000  0.04797000  1.0 0.238024287
H  H86  1  0.14219000  0.51807000  0.45203000  1.0 0.238024287
H  H87  1  0.48193000  0.85781000  0.95203000  1.0 0.238024287
H  H88  1  0.85781000  0.48193000  0.54797000  1.0 0.238024287
H  H89  1  0.66397000  0.96489000  0.01036000  1.0 0.1114123542
H  H90  1  0.96489000  0.66397000  0.48964000  1.0 0.1114123542
H  H91  1  0.33603000  0.03511000  0.98964000  1.0 0.1114123542
H  H92  1  0.03511000  0.33603000  0.51036000  1.0 0.1114123542
H  H93  1  0.46264000  0.06643000  0.12724000  1.0 0.1114123542
H  H94  1  0.06644000  0.46264000  0.37276000  1.0 0.1114123542
H  H95  1  0.53736000  0.93356000  0.87276000  1.0 0.1114123542
H  H96  1  0.93356000  0.53736000  0.62724000  1.0 0.1114123542
H  H97  1  0.52928000  0.93130000  0.20993000  1.0 0.0802349903
H  H98  1  0.93130000  0.52928000  0.29007000  1.0 0.0802349903
H  H99  1  0.47072000  0.06870000  0.79007000  1.0 0.0802349903
H  H100  1  0.06870000  0.47072000  0.70993000  1.0 0.0802349903
H  H101  1  0.73061000  0.82975000  0.09305000  1.0 0.1031522071
H  H102  1  0.82975000  0.73061000  0.40695000  1.0 0.1031522071
H  H103  1  0.26939000  0.17025000  0.90695000  1.0 0.1031522071
H  H104  1  0.17025000  0.26939000  0.59305000  1.0 0.1031522071
H  H105  1  0.57941000  0.79333000  0.18301000  1.0 0.274223201
H  H106  1  0.79333000  0.57941000  0.31699000  1.0 0.274223201
H  H107  1  0.42059000  0.20667000  0.81699000  1.0 0.274223201
H  H108  1  0.20667000  0.42059000  0.68301000  1.0 0.274223201
H  H109  1  0.62085000  0.40875000  0.31995000  1.0 0.2781748072
H  H110  1  0.40875000  0.62085000  0.18005000  1.0 0.2781748072
H  H111  1  0.37915000  0.59125000  0.68005000  1.0 0.2781748072
H  H112  1  0.59125000  0.37915000  0.81995000  1.0 0.2781748072
H  H113  1  0.36245000  0.72477000  0.34872000  1.0 0.2781748072
H  H114  1  0.72477000  0.36245000  0.15128000  1.0 0.2781748072
H  H115  1  0.63755000  0.27523000  0.65128000  1.0 0.2781748072
H  H116  1  0.27523000  0.63755000  0.84872000  1.0 0.2781748072
C  C1  1  0.65520000  0.86680000  0.46390000  1.0 0.5321964548
C  C2  1  0.86680000  0.65520000  0.03610000  1.0 0.5321964548
C  C3  1  0.34480000  0.13320000  0.53610000  1.0 0.5321964548
C  C4  1  0.13320000  0.34480000  0.96390000  1.0 0.5321964548
C  C5  1  0.65320000  0.09980000  0.42520000  1.0 0.5321964548
C  C6  1  0.09980000  0.65320000  0.07480000  1.0 0.5321964548
C  C7  1  0.34680000  0.90020000  0.57480000  1.0 0.5321964548
C  C8  1  0.90020000  0.34680000  0.92520000  1.0 0.5321964548
C  C9  1  0.61444000  0.83284000  0.44980000  1.0 -0.0291059457
C  C10  1  0.83284000  0.61444000  0.05020000  1.0 -0.0291059457
C  C11  1  0.38556000  0.16716000  0.55020000  1.0 -0.0291059457
C  C12  1  0.16716000  0.38556000  0.94980000  1.0 -0.0291059457
C  C13  1  0.61306000  0.18786000  0.38590000  1.0 -0.0230667595
C  C14  1  0.18786000  0.61306000  0.11410000  1.0 -0.0291059457
C  C15  1  0.38694000  0.81214000  0.61410000  1.0 -0.0291059457
C  C16  1  0.81214000  0.38694000  0.88590000  1.0 -0.0291059457
C  C17  1  0.66391000  0.74691000  0.45370000  1.0 -0.0672256285
C  C18  1  0.74691000  0.66391000  0.04630000  1.0 -0.0672256285
C  C19  1  0.33609000  0.25309000  0.54630000  1.0 -0.0672256285
C  C20  1  0.25309000  0.33609000  0.95370000  1.0 -0.0672256285
C  C21  1  0.52683000  0.88603000  0.43680000  1.0 -0.101005943
C  C22  1  0.88603000  0.52683000  0.06320000  1.0 -0.101005943
C  C23  1  0.47317000  0.11397000  0.56320000  1.0 -0.101005943
C  C24  1  0.11397000  0.47317000  0.93680000  1.0 -0.101005943
C  C25  1  0.64478000  0.22018000  0.42530000  1.0 -0.101005943
C  C26  1  0.22018000  0.64478000  0.07470000  1.0 -0.101005943
C  C27  1  0.35522000  0.77982000  0.57470000  1.0 -0.101005943
C  C28  1  0.77982000  0.35522000  0.92530000  1.0 -0.101005943
C  C29  1  0.54638000  0.23718000  0.30880000  1.0 -0.0917857463
C  C30  1  0.23718000  0.54638000  0.19120000  1.0 -0.0917857463
C  C31  1  0.45362000  0.76282000  0.69120000  1.0 -0.0917857463
C  C32  1  0.76282000  0.45362000  0.80880000  1.0 -0.0917857463
C  C33  1  0.62684000  0.71384000  0.44260000  1.0 -0.1476964713
C  C34  1  0.71384000  0.62684000  0.05740000  1.0 -0.144644536
C  C35  1  0.37316000  0.28616000  0.55740000  1.0 -0.1476964713
C  C36  1  0.28616000  0.37316000  0.94260000  1.0 -0.1476964713
C  C37  1  0.48989000  0.85289000  0.42650000  1.0 -0.1476964713
C  C38  1  0.85289000  0.48989000  0.07350000  1.0 -0.1476964713
C  C39  1  0.51011000  0.14711000  0.57350000  1.0 -0.1476964713
C  C40  1  0.14711000  0.51011000  0.92650000  1.0 -0.1476964713
C  C41  1  0.60940000  0.30120000  0.39000000  1.0 -0.180048388
C  C42  1  0.30120000  0.60940000  0.11000000  1.0 -0.180048388
C  C43  1  0.39060000  0.69880000  0.61000000  1.0 -0.180048388
C  C44  1  0.69880000  0.39060000  0.89000000  1.0 -0.180048388
C  C45  1  0.51217000  0.31837000  0.27280000  1.0 -0.1699489495
C  C46  1  0.31837000  0.51217000  0.22720000  1.0 -0.1699489495
C  C47  1  0.48783000  0.68163000  0.72720000  1.0 -0.1699489495
C  C48  1  0.68163000  0.48783000  0.77280000  1.0 -0.1699489495
C  C49  1  0.53830000  0.76690000  0.42870000  1.0 0.0606812227
C  C50  1  0.76690000  0.53830000  0.07130000  1.0 0.0606812227
C  C51  1  0.46170000  0.23310000  0.57130000  1.0 0.0606812227
C  C52  1  0.23310000  0.46170000  0.92870000  1.0 0.0606812227
C  C53  1  0.54278000  0.35198000  0.31290000  1.0 0.0606812227
C  C54  1  0.35198000  0.54278000  0.18710000  1.0 0.0606812227
C  C55  1  0.45722000  0.64802000  0.68710000  1.0 0.0606812227
C  C56  1  0.64802000  0.45722000  0.81290000  1.0 0.0606812227
C  C57  1  0.49662000  0.73442000  0.41350000  1.0 0.0802349903
C  C58  1  0.73442000  0.49662000  0.08650000  1.0 0.0802349903
C  C59  1  0.50338000  0.26558000  0.58650000  1.0 0.0802349903
C  C60  1  0.26558000  0.50338000  0.91350000  1.0 0.0802349903
C  C61  1  0.51111000  0.43651000  0.27500000  1.0 0.0204695805
C  C62  1  0.43651000  0.51111000  0.22500000  1.0 0.0204695805
C  C63  1  0.48889000  0.56349000  0.72500000  1.0 0.0204695805
C  C64  1  0.56349000  0.48889000  0.77500000  1.0 0.0204695805
C  C65  1  0.41956000  0.77136000  0.36190000  1.0 0.0508766119
C  C66  1  0.77136000  0.41956000  0.13810000  1.0 0.0508766119
C  C67  1  0.58044000  0.22864000  0.63810000  1.0 0.0508766119
C  C68  1  0.22864000  0.58044000  0.86190000  1.0 0.0508766119
C  C69  1  0.47556000  0.64636000  0.43240000  1.0 0.2188841105
C  C70  1  0.64636000  0.47556000  0.06760000  1.0 0.2188841105
C  C71  1  0.52444000  0.35364000  0.56760000  1.0 0.2188841105
C  C72  1  0.35364000  0.52444000  0.93240000  1.0 0.2188841105
C  C73  1  0.35807000  0.85387000  0.29690000  1.0 0.0606812227
C  C74  1  0.85387000  0.35807000  0.20310000  1.0 0.0606812227
C  C75  1  0.64193000  0.14613000  0.70310000  1.0 0.0606812227
C  C76  1  0.14613000  0.64193000  0.79690000  1.0 0.0606812227
C  C77  1  0.52741000  0.52741000  0.25000000  1.0 0.1990848929
C  C78  1  0.47259000  0.47259000  0.75000000  1.0 0.1990848929
C  C79  1  0.48851000  0.57151000  0.46630000  1.0 -0.0130404032
C  C80  1  0.57151000  0.48851000  0.03370000  1.0 -0.0130404032
C  C81  1  0.51149000  0.42849000  0.53370000  1.0 -0.0130404032
C  C82  1  0.42849000  0.51149000  0.96630000  1.0 -0.0130404032
C  C83  1  0.38553000  0.88413000  0.24240000  1.0 -0.1476964713
C  C84  1  0.88413000  0.38553000  0.25760000  1.0 -0.1476964713
C  C85  1  0.61447000  0.11587000  0.75760000  1.0 -0.1476964713
C  C86  1  0.11587000  0.61447000  0.74240000  1.0 -0.1476964713
C  C87  1  0.27116000  0.90416000  0.28860000  1.0 -0.1636095759
C  C88  1  0.90416000  0.27116000  0.21140000  1.0 -0.1636095759
C  C89  1  0.72884000  0.09584000  0.71140000  1.0 -0.1636095759
C  C90  1  0.09584000  0.72884000  0.78860000  1.0 -0.1636095759
C  C91  1  0.56447000  0.56447000  0.25000000  1.0 -0.0130404032
C  C92  1  0.43553000  0.43553000  0.75000000  1.0 -0.0130404032
C  C93  1  0.42617000  0.56917000  0.43900000  1.0 -0.1636095759
C  C94  1  0.56917000  0.42617000  0.06100000  1.0 -0.1636095759
C  C95  1  0.57383000  0.43083000  0.56100000  1.0 -0.1699489495
C  C96  1  0.43083000  0.57383000  0.93900000  1.0 -0.1636095759
C  C97  1  0.56273000  0.50073000  0.52790000  1.0 -0.1699489495
C  C98  1  0.50073000  0.56273000  0.97210000  1.0 -0.1699489495
C  C99  1  0.43727000  0.49927000  0.47210000  1.0 -0.1699489495
C  C100  1  0.49927000  0.43727000  0.02790000  1.0 -0.1699489495
C  C101  1  0.32876000  0.96396000  0.18550000  1.0 -0.0793944224
C  C102  1  0.96396000  0.32876000  0.31450000  1.0 -0.0793944224
C  C103  1  0.67124000  0.03604000  0.81450000  1.0 -0.0793944224
C  C104  1  0.03604000  0.67124000  0.68550000  1.0 -0.0793944224
C  C105  1  0.21405000  0.98265000  0.23030000  1.0 -0.0917857463
C  C106  1  0.98265000  0.21405000  0.26970000  1.0 -0.0917857463
C  C107  1  0.78595000  0.01735000  0.76970000  1.0 -0.0917857463
C  C108  1  0.01735000  0.78595000  0.73030000  1.0 -0.0917857463
C  C109  1  0.64288000  0.52248000  0.30780000  1.0 -0.180048388
C  C110  1  0.52248000  0.64288000  0.19220000  1.0 -0.180048388
C  C111  1  0.35712000  0.47752000  0.69220000  1.0 -0.180048388
C  C112  1  0.47752000  0.35712000  0.80780000  1.0 -0.180048388
C  C113  1  0.24303000  0.01343000  0.17910000  1.0 -0.0230667595
C  C114  1  0.01343000  0.24303000  0.32090000  1.0 -0.0230667595
C  C115  1  0.75697000  0.98657000  0.82090000  1.0 -0.0230667595
C  C116  1  0.98657000  0.75697000  0.67910000  1.0 -0.0230667595
C  C117  1  0.67821000  0.55821000  0.30720000  1.0 -0.144644536
C  C118  1  0.55821000  0.67821000  0.19280000  1.0 -0.144644536
C  C119  1  0.32179000  0.44179000  0.69280000  1.0 -0.144644536
C  C120  1  0.44179000  0.32179000  0.80720000  1.0 -0.144644536
C  C121  1  0.18312000  0.09892000  0.11880000  1.0 0.5539824292
C  C122  1  0.09892000  0.18312000  0.38120000  1.0 0.5539824292
C  C123  1  0.81688000  0.90108000  0.88120000  1.0 0.5539824292
C  C124  1  0.90108000  0.81688000  0.61880000  1.0 0.5539824292
C  C125  1  0.63633000  0.63633000  0.25000000  1.0 0.0204695805
C  C126  1  0.36367000  0.36367000  0.75000000  1.0 0.0204695805
C  C127  1  0.67430000  0.67430000  0.25000000  1.0 0.2781748072
C  C128  1  0.32570000  0.32570000  0.75000000  1.0 0.2781748072
C  C129  1  0.69016000  0.76396000  0.22700000  1.0 0.0204695805
C  C130  1  0.76396000  0.69016000  0.27300000  1.0 0.0204695805
C  C131  1  0.30984000  0.23604000  0.77300000  1.0 0.0204695805
C  C132  1  0.23604000  0.30984000  0.72700000  1.0 0.0204695805
C  C133  1  0.68365000  0.83385000  0.21900000  1.0 0.0204695805
C  C134  1  0.83385000  0.68365000  0.28100000  1.0 0.0204695805
C  C135  1  0.31635000  0.16615000  0.78100000  1.0 0.0204695805
C  C136  1  0.16615000  0.31635000  0.71900000  1.0 0.0204695805
C  C137  1  0.60298000  0.90838000  0.22040000  1.0 -0.0672256285
C  C138  1  0.90838000  0.60298000  0.27960000  1.0 -0.0672256285
C  C139  1  0.39702000  0.09162000  0.77960000  1.0 -0.0672256285
C  C140  1  0.09162000  0.39702000  0.72040000  1.0 -0.0672256285
C  C141  1  0.74070000  0.83710000  0.18860000  1.0 -0.101005943
C  C142  1  0.83710000  0.74070000  0.31140000  1.0 -0.101005943
C  C143  1  0.25930000  0.16290000  0.81140000  1.0 -0.101005943
C  C144  1  0.16290000  0.25930000  0.68860000  1.0 -0.101005943
C  C145  1  0.57950000  0.98610000  0.19130000  1.0 -0.0291059457
C  C146  1  0.98610000  0.57950000  0.30870000  1.0 -0.0291059457
C  C147  1  0.42050000  0.01390000  0.80870000  1.0 -0.0291059457
C  C148  1  0.01390000  0.42050000  0.69130000  1.0 -0.0291059457
C  C149  1  0.71725000  0.91485000  0.15960000  1.0 -0.0793944224
C  C150  1  0.91485000  0.71725000  0.34040000  1.0 -0.0793944224
C  C151  1  0.28275000  0.08515000  0.84040000  1.0 -0.0793944224
C  C152  1  0.08515000  0.28275000  0.65960000  1.0 -0.0793944224
C  C153  1  0.63658000  0.98938000  0.16090000  1.0 -0.0917857463
C  C154  1  0.98938000  0.63658000  0.33910000  1.0 -0.0917857463
C  C155  1  0.36342000  0.01062000  0.83910000  1.0 -0.0917857463
C  C156  1  0.01062000  0.36342000  0.66090000  1.0 -0.0917857463
C  C157  1  0.61220000  0.07080000  0.13340000  1.0 0.4072463662
C  C158  1  0.07080000  0.61220000  0.36660000  1.0 0.4072463662
C  C159  1  0.38780000  0.92920000  0.86660000  1.0 0.4072463662
C  C160  1  0.92920000  0.38780000  0.63340000  1.0 0.4072463662
C  C161  1  0.51690000  0.11130000  0.00860000  1.0 0.3366146461
C  C162  1  0.11130000  0.51690000  0.49140000  1.0 0.3366146461
C  C163  1  0.48310000  0.88870000  0.99140000  1.0 0.3366146461
C  C164  1  0.88870000  0.48310000  0.50860000  1.0 0.3366146461
C  C165  1  0.63670000  0.95810000  0.05090000  1.0 0.0141870825
C  C166  1  0.95810000  0.63670000  0.44910000  1.0 0.0141870825
C  C167  1  0.36330000  0.04190000  0.94910000  1.0 0.0141870825
C  C168  1  0.04190000  0.36330000  0.55090000  1.0 0.0141870825
C  C169  1  0.55700000  0.02840000  0.06100000  1.0 -0.0230667595
C  C170  1  0.02840000  0.55700000  0.43900000  1.0 -0.0230667595
C  C171  1  0.44300000  0.97160000  0.93900000  1.0 -0.0230667595
C  C172  1  0.97160000  0.44300000  0.56100000  1.0 -0.0230667595
C  C173  1  0.51700000  0.01840000  0.12030000  1.0 -0.101005943
C  C174  1  0.01840000  0.51700000  0.37970000  1.0 -0.101005943
C  C175  1  0.48300000  0.98160000  0.87970000  1.0 -0.101005943
C  C176  1  0.98160000  0.48300000  0.62030000  1.0 -0.101005943
C  C177  1  0.55660000  0.93820000  0.16940000  1.0 -0.0620963014
C  C178  1  0.93820000  0.55660000  0.33060000  1.0 -0.0620963014
C  C179  1  0.44340000  0.06180000  0.83060000  1.0 -0.0620963014
C  C180  1  0.06180000  0.44340000  0.66940000  1.0 -0.0620963014
C  C181  1  0.63620000  0.86780000  0.15930000  1.0 0.0315647647
C  C182  1  0.86780000  0.63620000  0.34070000  1.0 0.0315647647
C  C183  1  0.36380000  0.13220000  0.84070000  1.0 0.0315647647
C  C184  1  0.13220000  0.36380000  0.65930000  1.0 0.0315647647
C  C185  1  0.67620000  0.87780000  0.10000000  1.0 -0.0130404032
C  C186  1  0.87780000  0.67620000  0.40000000  1.0 -0.0130404032
C  C187  1  0.32380000  0.12220000  0.90000000  1.0 -0.0130404032
C  C188  1  0.12220000  0.32380000  0.60000000  1.0 -0.0130404032
N  N1  1  0.53131000  0.65511000  0.45700000  1.0 -0.293017514
N  N2  1  0.65511000  0.53131000  0.04300000  1.0 -0.293017514
N  N3  1  0.46869000  0.34489000  0.54300000  1.0 -0.293017514
N  N4  1  0.34489000  0.46869000  0.95700000  1.0 -0.293017514
N  N5  1  0.56769000  0.44749000  0.28970000  1.0 -0.3082239553
N  N6  1  0.44749000  0.56769000  0.21030000  1.0 -0.3082239553
N  N7  1  0.43231000  0.55251000  0.71030000  1.0 -0.3082239553
N  N8  1  0.55251000  0.43231000  0.78970000  1.0 -0.3082239553
N  N9  1  0.40716000  0.71576000  0.37440000  1.0 -0.293017514
N  N10  1  0.71576000  0.40716000  0.12560000  1.0 -0.293017514
N  N11  1  0.59284000  0.28424000  0.62560000  1.0 -0.293017514
N  N12  1  0.28424000  0.59284000  0.87440000  1.0 -0.293017514
N  N13  1  0.63289000  0.75429000  0.21200000  1.0 -0.3853676393
N  N14  1  0.75429000  0.63289000  0.28800000  1.0 -0.3839484676
N  N15  1  0.36711000  0.24571000  0.78800000  1.0 -0.3853676393
N  N16  1  0.24571000  0.36711000  0.71200000  1.0 -0.3839484676
O  O1  1  0.61579000  0.94419000  0.43660000  1.0 -0.569587407
O  O2  1  0.94419000  0.61579000  0.06340000  1.0 -0.569587407
O  O3  1  0.38421000  0.05581000  0.56340000  1.0 -0.569587407
O  O4  1  0.05581000  0.38421000  0.93660000  1.0 -0.569587407
O  O5  1  0.73316000  0.81736000  0.50680000  1.0 -0.569587407
O  O6  1  0.81736000  0.73316000  0.99320000  1.0 -0.569587407
O  O7  1  0.26684000  0.18264000  0.49320000  1.0 -0.569587407
O  O8  1  0.18264000  0.26684000  0.00680000  1.0 -0.569587407
O  O9  1  0.61835000  0.07175000  0.40380000  1.0 -0.569587407
O  O10  1  0.07175000  0.61835000  0.09620000  1.0 -0.569587407
O  O11  1  0.38165000  0.92825000  0.59620000  1.0 -0.569587407
O  O12  1  0.92825000  0.38165000  0.90380000  1.0 -0.569587407
O  O13  1  0.72437000  0.05077000  0.48160000  1.0 -0.5785958007
O  O14  1  0.05077000  0.72437000  0.01840000  1.0 -0.5785958007
O  O15  1  0.27563000  0.94923000  0.51840000  1.0 -0.5785958007
O  O16  1  0.94923000  0.27563000  0.98160000  1.0 -0.5785958007
O  O17  1  0.20816000  0.13656000  0.09530000  1.0 -0.5549351051
O  O18  1  0.13656000  0.20816000  0.40470000  1.0 -0.557205287
O  O19  1  0.79184000  0.86344000  0.90470000  1.0 -0.557205287
O  O20  1  0.86344000  0.79184000  0.59530000  1.0 -0.557205287
O  O21  1  0.10623000  0.13583000  0.08730000  1.0 -0.5785958007
O  O22  1  0.13583000  0.10623000  0.41270000  1.0 -0.5864216759
O  O23  1  0.89377000  0.86417000  0.91270000  1.0 -0.5864216759
O  O24  1  0.86417000  0.89377000  0.58730000  1.0 -0.5864216759
O  O25  1  0.53410000  0.14030000  0.10230000  1.0 -0.180048388
O  O26  1  0.14030000  0.53410000  0.39770000  1.0 -0.180048388
O  O27  1  0.46590000  0.85970000  0.89770000  1.0 -0.180048388
O  O28  1  0.85970000  0.46590000  0.60230000  1.0 -0.180048388
O  O29  1  0.66790000  0.07570000  0.13150000  1.0 -0.4542651549
O  O30  1  0.07570000  0.66790000  0.36850000  1.0 -0.4542651549
O  O31  1  0.33210000  0.92430000  0.86850000  1.0 -0.4542651549
O  O32  1  0.92430000  0.33210000  0.63150000  1.0 -0.4542651549
O  O33  1  0.53480000  0.12380000  0.93640000  1.0 -0.2406834215
O  O34  1  0.12380000  0.53480000  0.56360000  1.0 -0.2406834215
O  O35  1  0.46520000  0.87620000  0.06360000  1.0 -0.2406834215
O  O36  1  0.87620000  0.46520000  0.43640000  1.0 -0.2406834215
O  O37  1  0.45640000  0.17940000  0.03900000  1.0 -0.2816583588
O  O38  1  0.17940000  0.45640000  0.46100000  1.0 -0.2816583588
O  O39  1  0.54360000  0.82060000  0.96100000  1.0 -0.2816583588
O  O40  1  0.82060000  0.54360000  0.53900000  1.0 -0.2816583588
O  O41  1  0.47740000  0.12280000  0.93460000  1.0 -0.180048388
O  O42  1  0.12280000  0.47740000  0.56540000  1.0 -0.1891964376
O  O43  1  0.52260000  0.87720000  0.06540000  1.0 -0.1891964376
O  O44  1  0.87720000  0.52260000  0.43460000  1.0 -0.180048388
O  O45  1  0.60060000  0.93940000  0.96540000  1.0 -0.3726055845
O  O46  1  0.93940000  0.60060000  0.53460000  1.0 -0.3726055845
O  O47  1  0.39940000  0.06060000  0.03460000  1.0 -0.3726055845
O  O48  1  0.06060000  0.39940000  0.46540000  1.0 -0.3726055845
