# DDEC6 charges by PACMAN v1.1 (https://github.com/mtap-research/PACMAN-charge/)
data_OFORUX_FSR_pacman
_symmetry_space_group_name_H-M   'P 1'
_cell_length_a   15.58910000
_cell_length_b   15.58910000
_cell_length_c   7.21120000
_cell_angle_alpha   82.08640000
_cell_angle_beta   97.91360000
_cell_angle_gamma   124.71900000
_symmetry_Int_Tables_number   1
_chemical_formula_structural   CdCuH22C26N4(ClO)2
_chemical_formula_sum   'Cd2 Cu2 H44 C52 N8 Cl4 O4'
_cell_volume   1422.94582860
_cell_formula_units_Z   2
loop_
 _symmetry_equiv_pos_site_id
 _symmetry_equiv_pos_as_xyz
  1  'x, y, z'
loop_
 _atom_site_type_symbol
 _atom_site_label
 _atom_site_symmetry_multiplicity
 _atom_site_fract_x
 _atom_site_fract_y
 _atom_site_fract_z
 _atom_site_occupancy
 _atom_site_charge
Cd  Cd1  1  0.94025000  0.94025000  0.25000000  1.0 0.7446050151
Cd  Cd2  1  0.05975000  0.05975000  0.75000000  1.0 0.7446050151
Cu  Cu1  1  0.50000000  0.00000000  0.50000000  1.0 0.6770927414
Cu  Cu2  1  0.00000000  0.50000000  0.00000000  1.0 0.6770927414
H  H1  1  0.69170000  0.34610000  0.48430000  1.0 0.1200645334
H  H2  1  0.34610000  0.69170000  0.01570000  1.0 0.1200645334
H  H3  1  0.30830000  0.65390000  0.51570000  1.0 0.1200645334
H  H4  1  0.65390000  0.30830000  0.98430000  1.0 0.1200645334
H  H5  1  0.86780000  0.46180000  0.53660000  1.0 0.1026636714
H  H6  1  0.46180000  0.86780000  0.96340000  1.0 0.1026636714
H  H7  1  0.13220000  0.53820000  0.46340000  1.0 0.1026636714
H  H8  1  0.53820000  0.13220000  0.03660000  1.0 0.1026636714
H  H9  1  0.97600000  0.40600000  0.62710000  1.0 0.1112097671
H  H10  1  0.40600000  0.97600000  0.87290000  1.0 0.1112097671
H  H11  1  0.02400000  0.59400000  0.37290000  1.0 0.1112097671
H  H12  1  0.59400000  0.02400000  0.12710000  1.0 0.1112097671
H  H13  1  0.90530000  0.22890000  0.68010000  1.0 0.1112097671
H  H14  1  0.22890000  0.90530000  0.81990000  1.0 0.1112097671
H  H15  1  0.09470000  0.77110000  0.31990000  1.0 0.1112097671
H  H16  1  0.77110000  0.09470000  0.18010000  1.0 0.1112097671
H  H17  1  0.76370000  0.05390000  0.68530000  1.0 0.1026636714
H  H18  1  0.05390000  0.76370000  0.81470000  1.0 0.1026636714
H  H19  1  0.23630000  0.94610000  0.31470000  1.0 0.1026636714
H  H20  1  0.94610000  0.23630000  0.18530000  1.0 0.1026636714
H  H21  1  0.65480000  0.88980000  0.74450000  1.0 0.1112097671
H  H22  1  0.88980000  0.65480000  0.75550000  1.0 0.1112097671
H  H23  1  0.34520000  0.11020000  0.25550000  1.0 0.1112097671
H  H24  1  0.11020000  0.34520000  0.24450000  1.0 0.1112097671
H  H25  1  0.53720000  0.83200000  0.66666667  1.0 0.1200645334
H  H26  1  0.83200000  0.53720000  0.83340000  1.0 0.1200645334
H  H27  1  0.46280000  0.16800000  0.33340000  1.0 0.1200645334
H  H28  1  0.16800000  0.46280000  0.16660000  1.0 0.1200645334
H  H29  1  0.49200000  0.79000000  0.32950000  1.0 0.1393111154
H  H30  1  0.79000000  0.49200000  0.17050000  1.0 0.1393111154
H  H31  1  0.50800000  0.21000000  0.67050000  1.0 0.1393111154
H  H32  1  0.21000000  0.50800000  0.82950000  1.0 0.1393111154
H  H33  1  0.54080000  0.75640000  0.07180000  1.0 0.1310425355
H  H34  1  0.75640000  0.54080000  0.42820000  1.0 0.1310425355
H  H35  1  0.45920000  0.24360000  0.92820000  1.0 0.1310425355
H  H36  1  0.24360000  0.45920000  0.57180000  1.0 0.1310425355
H  H37  1  0.70900000  0.80460000  0.06500000  1.0 0.1026636714
H  H38  1  0.80460000  0.70900000  0.43500000  1.0 0.1026636714
H  H39  1  0.29100000  0.19540000  0.93500000  1.0 0.1026636714
H  H40  1  0.19540000  0.29100000  0.56500000  1.0 0.1026636714
H  H41  1  0.78520000  0.92240000  0.55050000  1.0 0.1112097671
H  H42  1  0.92240000  0.78520000  0.94950000  1.0 0.1112097671
H  H43  1  0.21480000  0.07760000  0.44950000  1.0 0.1112097671
H  H44  1  0.07760000  0.21480000  0.05050000  1.0 0.1112097671
C  C1  1  0.68534000  0.21106000  0.54630000  1.0 0.3223592445
C  C2  1  0.21106000  0.68534000  0.95370000  1.0 0.3223592445
C  C3  1  0.31466000  0.78894000  0.45370000  1.0 0.3223592445
C  C4  1  0.78894000  0.31466000  0.04630000  1.0 0.3223592445
C  C5  1  0.73330000  0.32070000  0.52240000  1.0 -0.2313300267
C  C6  1  0.32070000  0.73330000  0.97760000  1.0 -0.2313300267
C  C7  1  0.26670000  0.67930000  0.47760000  1.0 -0.2313300267
C  C8  1  0.67930000  0.26670000  0.02240000  1.0 -0.2313300267
C  C9  1  0.83930000  0.39050000  0.55370000  1.0 -0.0784920835
C  C10  1  0.39050000  0.83930000  0.94630000  1.0 -0.0784920835
C  C11  1  0.16070000  0.60950000  0.44630000  1.0 -0.0784920835
C  C12  1  0.60950000  0.16070000  0.05370000  1.0 -0.0784920835
C  C13  1  0.90400000  0.35760000  0.60930000  1.0 -0.1593217448
C  C14  1  0.35760000  0.90400000  0.89070000  1.0 -0.1593217448
C  C15  1  0.09600000  0.64240000  0.39070000  1.0 -0.1593217448
C  C16  1  0.64240000  0.09600000  0.10930000  1.0 -0.1593217448
C  C17  1  0.86150000  0.25130000  0.63910000  1.0 -0.1158491307
C  C18  1  0.25130000  0.86150000  0.86090000  1.0 -0.1158491307
C  C19  1  0.13850000  0.74870000  0.36090000  1.0 -0.1158491307
C  C20  1  0.74870000  0.13850000  0.13910000  1.0 -0.1158491307
C  C21  1  0.75243000  0.17597000  0.60850000  1.0 -0.067150955
C  C22  1  0.17597000  0.75243000  0.89150000  1.0 -0.067150955
C  C23  1  0.24757000  0.82403000  0.39150000  1.0 -0.067150955
C  C24  1  0.82403000  0.24757000  0.10850000  1.0 -0.067150955
C  C25  1  0.71478000  0.06882000  0.63650000  1.0 0.0699510212
C  C26  1  0.06882000  0.71478000  0.86350000  1.0 0.0699510212
C  C27  1  0.28522000  0.93118000  0.36350000  1.0 0.0699510212
C  C28  1  0.93118000  0.28522000  0.13650000  1.0 0.0699510212
C  C29  1  0.60839000  0.88661000  0.63710000  1.0 -0.1389767573
C  C30  1  0.88661000  0.60839000  0.86290000  1.0 -0.1389767573
C  C31  1  0.39161000  0.11339000  0.36290000  1.0 -0.1389767573
C  C32  1  0.11339000  0.39161000  0.13710000  1.0 -0.1389767573
C  C33  1  0.63410000  0.85990000  0.46870000  1.0 0.0754699531
C  C34  1  0.85990000  0.63410000  0.03130000  1.0 0.0754699531
C  C35  1  0.36590000  0.14010000  0.53130000  1.0 0.0754699531
C  C36  1  0.14010000  0.36590000  0.96870000  1.0 0.0754699531
C  C37  1  0.56037000  0.81003000  0.32450000  1.0 -0.0784920835
C  C38  1  0.81003000  0.56037000  0.17550000  1.0 -0.0784920835
C  C39  1  0.43963000  0.18997000  0.67550000  1.0 -0.0784920835
C  C40  1  0.18997000  0.43963000  0.82450000  1.0 -0.0784920835
C  C41  1  0.58961000  0.78999000  0.17110000  1.0 -0.1494314194
C  C42  1  0.78999000  0.58961000  0.32890000  1.0 -0.1494314194
C  C43  1  0.41039000  0.21001000  0.82890000  1.0 -0.1494314194
C  C44  1  0.21001000  0.41039000  0.67110000  1.0 -0.1494314194
C  C45  1  0.69069000  0.81991000  0.16730000  1.0 0.0699510212
C  C46  1  0.81991000  0.69069000  0.33270000  1.0 0.0699510212
C  C47  1  0.30931000  0.18009000  0.83270000  1.0 0.0699510212
C  C48  1  0.18009000  0.30931000  0.66730000  1.0 0.0699510212
C  C49  1  0.73499000  0.88861000  0.45300000  1.0 0.0210588259
C  C50  1  0.88861000  0.73499000  0.04700000  1.0 0.0210588259
C  C51  1  0.26501000  0.11139000  0.54700000  1.0 0.0210588259
C  C52  1  0.11139000  0.26501000  0.95300000  1.0 0.0210588259
N  N1  1  0.61946000  0.98834000  0.60180000  1.0 -0.2522133113
N  N2  1  0.98834000  0.61946000  0.89820000  1.0 -0.2522133113
N  N3  1  0.38054000  0.01166000  0.39820000  1.0 -0.2522133113
N  N4  1  0.01166000  0.38054000  0.10180000  1.0 -0.2522133113
N  N5  1  0.76407000  0.87013000  0.30370000  1.0 -0.215629951
N  N6  1  0.87013000  0.76407000  0.19630000  1.0 -0.215629951
N  N7  1  0.23593000  0.12987000  0.69630000  1.0 -0.215629951
N  N8  1  0.12987000  0.23593000  0.80370000  1.0 -0.215629951
Cl  Cl1  1  0.10924000  0.00334000  0.09531000  1.0 -0.5269984052
Cl  Cl2  1  0.00334000  0.10924000  0.40469000  1.0 -0.5269984052
Cl  Cl3  1  0.89076000  0.99666000  0.90469000  1.0 -0.5269984052
Cl  Cl4  1  0.99666000  0.89076000  0.59531000  1.0 -0.5269984052
O  O1  1  0.58429000  0.14651000  0.51590000  1.0 -0.5190658764
O  O2  1  0.14651000  0.58429000  0.98410000  1.0 -0.5190658764
O  O3  1  0.41571000  0.85349000  0.48410000  1.0 -0.5190658764
O  O4  1  0.85349000  0.41571000  0.01590000  1.0 -0.5190658764
