# DDEC6 charges by PACMAN v1.1 (https://github.com/mtap-research/PACMAN-charge/)
data_OFOTOW_ASR_pacman
_symmetry_space_group_name_H-M   'P 1'
_cell_length_a   8.06760000
_cell_length_b   8.16690000
_cell_length_c   13.92430000
_cell_angle_alpha   88.36500000
_cell_angle_beta   106.72800000
_cell_angle_gamma   101.59600000
_symmetry_Int_Tables_number   1
_chemical_formula_structural   SrH5C15NO6
_chemical_formula_sum   'Sr2 H10 C30 N2 O12'
_cell_volume   860.25662826
_cell_formula_units_Z   2
loop_
 _symmetry_equiv_pos_site_id
 _symmetry_equiv_pos_as_xyz
  1  'x, y, z'
loop_
 _atom_site_type_symbol
 _atom_site_label
 _atom_site_symmetry_multiplicity
 _atom_site_fract_x
 _atom_site_fract_y
 _atom_site_fract_z
 _atom_site_occupancy
 _atom_site_charge
Sr  Sr1  1  0.23403000  0.91923000  0.01159000  1.0 1.4322825479
Sr  Sr2  1  0.76597000  0.08077000  0.98841000  1.0 1.4322825479
H  H1  1  0.24834000  0.54756000  0.94116000  1.0 0.1240733448
H  H2  1  0.75166000  0.45244000  0.05884000  1.0 0.1240733448
H  H3  1  0.59405000  0.53852000  0.78363000  1.0 0.1390954363
H  H4  1  0.40595000  0.46148000  0.21637000  1.0 0.1390954363
H  H5  1  0.19445000  0.14727000  0.76609000  1.0 0.1307665366
H  H6  1  0.80555000  0.85273000  0.23391000  1.0 0.1307665366
H  H7  1  0.65168000  0.84013000  0.73213000  1.0 0.1307665366
H  H8  1  0.34832000  0.15987000  0.26787000  1.0 0.1307665366
H  H9  1  0.32507000  0.33259000  0.39112000  1.0 0.1307665366
H  H10  1  0.67493000  0.66741000  0.60888000  1.0 0.1307665366
C  C1  1  0.43600000  0.56830000  0.86980000  1.0 -0.0111158336
C  C2  1  0.56400000  0.43170000  0.13020000  1.0 -0.0111158336
C  C3  1  0.28680000  0.49260000  0.89660000  1.0 -0.1257233028
C  C4  1  0.71320000  0.50740000  0.10340000  1.0 -0.1257233028
C  C5  1  0.54100000  0.73470000  0.91600000  1.0 0.5807989049
C  C6  1  0.45900000  0.26530000  0.08400000  1.0 0.5807989049
C  C7  1  0.19390000  0.33460000  0.85740000  1.0 0.0063845399
C  C8  1  0.80610000  0.66540000  0.14260000  1.0 0.0063845399
C  C9  1  0.49300000  0.48890000  0.80120000  1.0 -0.1668733698
C  C10  1  0.50700000  0.51110000  0.19880000  1.0 -0.1668733698
C  C11  1  0.03620000  0.24890000  0.88840000  1.0 0.5807989049
C  C12  1  0.96380000  0.75110000  0.11160000  1.0 0.5807989049
C  C13  1  0.25210000  0.25480000  0.79050000  1.0 -0.1870134365
C  C14  1  0.74790000  0.74520000  0.20950000  1.0 -0.1870134365
C  C15  1  0.39550000  0.33450000  0.76010000  1.0 0.1927743662
C  C16  1  0.60450000  0.66550000  0.23990000  1.0 0.1927743662
C  C17  1  0.52650000  0.11480000  0.71720000  1.0 0.4710075069
C  C18  1  0.47350000  0.88520000  0.28280000  1.0 0.4710075069
C  C19  1  0.54740000  0.00910000  0.63860000  1.0 -0.0626901914
C  C20  1  0.45260000  0.99090000  0.36140000  1.0 -0.0673553699
C  C21  1  0.49260000  0.05310000  0.53730000  1.0 0.0286725345
C  C22  1  0.50740000  0.94690000  0.46270000  1.0 0.0286725345
C  C23  1  0.61540000  0.86720000  0.66500000  1.0 -0.0626901914
C  C24  1  0.38460000  0.13280000  0.33500000  1.0 -0.0626901914
C  C25  1  0.42180000  0.19720000  0.50890000  1.0 -0.0626901914
C  C26  1  0.57820000  0.80280000  0.49110000  1.0 -0.0626901914
C  C27  1  0.39570000  0.30260000  0.58600000  1.0 0.4407821107
C  C28  1  0.60430000  0.69740000  0.41400000  1.0 0.4407821107
C  C29  1  0.37010000  0.23630000  0.40920000  1.0 -0.0673553699
C  C30  1  0.62990000  0.76370000  0.59080000  1.0 -0.0673553699
N  N1  1  0.44470000  0.24980000  0.68570000  1.0 -0.2245088708
N  N2  1  0.55530000  0.75020000  0.31430000  1.0 -0.2245088708
O  O1  1  0.69290000  0.78370000  0.90670000  1.0 -0.5817362708
O  O2  1  0.30710000  0.21630000  0.09330000  1.0 -0.5817362708
O  O3  1  0.47370000  0.82010000  0.96380000  1.0 -0.6868299139
O  O4  1  0.52630000  0.17990000  0.03620000  1.0 -0.6868299139
O  O5  1  0.01760000  0.09260000  0.90180000  1.0 -0.6833157134
O  O6  1  0.98240000  0.90740000  0.09820000  1.0 -0.6833157134
O  O7  1  0.93210000  0.33430000  0.90190000  1.0 -0.5817362708
O  O8  1  0.06790000  0.66570000  0.09810000  1.0 -0.5817362708
O  O9  1  0.57040000  0.08430000  0.80600000  1.0 -0.4614508343
O  O10  1  0.42960000  0.91570000  0.19400000  1.0 -0.4614508343
O  O11  1  0.33430000  0.42720000  0.56640000  1.0 -0.4209074569
O  O12  1  0.66570000  0.57280000  0.43360000  1.0 -0.4209074569
