# DDEC6 charges by PACMAN v1.1 (https://github.com/mtap-research/PACMAN-charge/)
data_OFOTEM_ASR_pacman
_symmetry_space_group_name_H-M   'P 1'
_cell_length_a   8.27020000
_cell_length_b   8.30020000
_cell_length_c   13.46460000
_cell_angle_alpha   79.50200000
_cell_angle_beta   74.69400000
_cell_angle_gamma   78.18400000
_symmetry_Int_Tables_number   1
_chemical_formula_structural   SrH5C15NO6
_chemical_formula_sum   'Sr2 H10 C30 N2 O12'
_cell_volume   864.51805894
_cell_formula_units_Z   2
loop_
 _symmetry_equiv_pos_site_id
 _symmetry_equiv_pos_as_xyz
  1  'x, y, z'
loop_
 _atom_site_type_symbol
 _atom_site_label
 _atom_site_symmetry_multiplicity
 _atom_site_fract_x
 _atom_site_fract_y
 _atom_site_fract_z
 _atom_site_occupancy
 _atom_site_charge
Sr  Sr1  1  0.75945000  0.93946000  0.99644000  1.0 1.4245581928
Sr  Sr2  1  0.24055000  0.06054000  0.00356000  1.0 1.4245581928
H  H1  1  0.64274000  0.11258000  0.23110000  1.0 0.1242997202
H  H2  1  0.35726000  0.88742000  0.76890000  1.0 0.1242997202
H  H3  1  0.71949000  0.54446000  0.04945000  1.0 0.1323912146
H  H4  1  0.28051000  0.45554000  0.95055000  1.0 0.1323912146
H  H5  1  0.25648000  0.49256000  0.23150000  1.0 0.1403025541
H  H6  1  0.74352000  0.50744000  0.76850000  1.0 0.1403025541
H  H7  1  0.99833000  0.94760000  0.25369000  1.0 0.1323912146
H  H8  1  0.00167000  0.05240000  0.74631000  1.0 0.1323912146
H  H9  1  0.22282000  0.16648000  0.62595000  1.0 0.1323912146
H  H10  1  0.77718000  0.83352000  0.37405000  1.0 0.1323912146
C  C1  1  0.70810000  0.31840000  0.13420000  1.0 0.0010306558
C  C2  1  0.29190000  0.68160000  0.86580000  1.0 0.0010306558
C  C3  1  0.39980000  0.71690000  0.08780000  1.0 0.5730533454
C  C4  1  0.60020000  0.28310000  0.91220000  1.0 0.5730533454
C  C5  1  0.60150000  0.22150000  0.20690000  1.0 -0.195061743
C  C6  1  0.39850000  0.77850000  0.79310000  1.0 -0.195061743
C  C7  1  0.08730000  0.02830000  0.35710000  1.0 -0.0668905561
C  C8  1  0.91270000  0.97170000  0.64290000  1.0 -0.0668905561
C  C9  1  0.47530000  0.54650000  0.13140000  1.0 0.0010306558
C  C10  1  0.52470000  0.45350000  0.86860000  1.0 0.0010306558
C  C11  1  0.06540000  0.03640000  0.46360000  1.0 0.0279294888
C  C12  1  0.93460000  0.96360000  0.53640000  1.0 0.0279294888
C  C13  1  0.22430000  0.10600000  0.28010000  1.0 0.4714865389
C  C14  1  0.77570000  0.89400000  0.71990000  1.0 0.4714865389
C  C15  1  0.43420000  0.28910000  0.24260000  1.0 0.1880483928
C  C16  1  0.56580000  0.71090000  0.75740000  1.0 0.1880483928
C  C17  1  0.64660000  0.48000000  0.09720000  1.0 -0.1281376478
C  C18  1  0.35340000  0.52000000  0.90280000  1.0 -0.1281376478
C  C19  1  0.88980000  0.24020000  0.09290000  1.0 0.5730533454
C  C20  1  0.11020000  0.75980000  0.90710000  1.0 0.5730533454
C  C21  1  0.17400000  0.11120000  0.49920000  1.0 -0.0635663864
C  C22  1  0.82600000  0.88880000  0.50080000  1.0 -0.0635663864
C  C23  1  0.37000000  0.44910000  0.20620000  1.0 -0.1726143357
C  C24  1  0.63000000  0.55090000  0.79380000  1.0 -0.1726143357
C  C25  1  0.98210000  0.95290000  0.32410000  1.0 -0.0635663864
C  C26  1  0.01790000  0.04710000  0.67590000  1.0 -0.0635663864
C  C27  1  0.30960000  0.19090000  0.42250000  1.0 0.4409131112
C  C28  1  0.69040000  0.80910000  0.57750000  1.0 0.4409131112
C  C29  1  0.15060000  0.11660000  0.60320000  1.0 -0.0773557086
C  C30  1  0.84940000  0.88340000  0.39680000  1.0 -0.0773557086
N  N1  1  0.31820000  0.19090000  0.31870000  1.0 -0.2279046473
N  N2  1  0.68180000  0.80910000  0.68130000  1.0 -0.2279046473
O  O1  1  0.49780000  0.81080000  0.02820000  1.0 -0.6825550941
O  O2  1  0.50220000  0.18920000  0.97180000  1.0 -0.6825550941
O  O3  1  0.91610000  0.08660000  0.08605000  1.0 -0.6825550941
O  O4  1  0.08390000  0.91340000  0.91395000  1.0 -0.6825550941
O  O5  1  0.24200000  0.76020000  0.11150000  1.0 -0.5784018037
O  O6  1  0.75800000  0.23980000  0.88850000  1.0 -0.5784018037
O  O7  1  0.25300000  0.10030000  0.18780000  1.0 -0.4526510832
O  O8  1  0.74700000  0.89970000  0.81220000  1.0 -0.4526510832
O  O9  1  0.00550000  0.32550000  0.06610000  1.0 -0.5557560024
O  O10  1  0.99450000  0.67450000  0.93390000  1.0 -0.5545521674
O  O11  1  0.40820000  0.25640000  0.44770000  1.0 -0.4164650735
O  O12  1  0.59180000  0.74360000  0.55230000  1.0 -0.4164650735
