# DDEC6 charges by PACMAN v1.1 (https://github.com/mtap-research/PACMAN-charge/)
data_OFUDUQ_ASR_pacman
_symmetry_space_group_name_H-M   'P 1'
_cell_length_a   5.19530000
_cell_length_b   10.53000000
_cell_length_c   14.26000000
_cell_angle_alpha   105.71000000
_cell_angle_beta   89.02000000
_cell_angle_gamma   97.70000000
_symmetry_Int_Tables_number   1
_chemical_formula_structural   CoPH11C12N3O4
_chemical_formula_sum   'Co2 P2 H22 C24 N6 O8'
_cell_volume   744.05150012
_cell_formula_units_Z   2
loop_
 _symmetry_equiv_pos_site_id
 _symmetry_equiv_pos_as_xyz
  1  'x, y, z'
loop_
 _atom_site_type_symbol
 _atom_site_label
 _atom_site_symmetry_multiplicity
 _atom_site_fract_x
 _atom_site_fract_y
 _atom_site_fract_z
 _atom_site_occupancy
 _atom_site_charge
Co  Co1  1  0.00000000  0.50000000  0.50000000  1.0 0.8646019837
Co  Co2  1  0.50000000  0.00000000  0.50000000  1.0 1.0157083412
P  P1  1  0.91156000  0.80270000  0.47403000  1.0 1.259327068
P  P2  1  0.08844000  0.19730000  0.52597000  1.0 1.259327068
H  H1  1  0.37100000  0.05360000  0.32920000  1.0 0.3654865762
H  H2  1  0.62900000  0.94640000  0.67080000  1.0 0.3654865762
H  H3  1  0.07810000  0.71920000  0.27500000  1.0 0.1207506852
H  H4  1  0.92190000  0.28080000  0.72500000  1.0 0.1207506852
H  H5  1  0.98690000  0.77230000  0.13250000  1.0 0.1079085702
H  H6  1  0.01310000  0.22770000  0.86750000  1.0 0.1079085702
H  H7  1  0.68760000  0.91730000  0.13370000  1.0 0.1407986125
H  H8  1  0.31240000  0.08270000  0.86630000  1.0 0.1407986125
H  H9  1  0.07960000  0.75470000  0.70050000  1.0 0.1285424335
H  H10  1  0.92040000  0.24530000  0.29950000  1.0 0.1285424335
H  H11  1  0.78160000  0.78730000  0.83600000  1.0 0.1285424335
H  H12  1  0.21840000  0.21270000  0.16400000  1.0 0.1285424335
H  H13  1  0.56300000  0.43600000  0.65360000  1.0 0.1285424335
H  H14  1  0.43700000  0.56400000  0.34640000  1.0 0.1285424335
H  H15  1  0.25010000  0.50560000  0.78790000  1.0 0.1285424335
H  H16  1  0.74990000  0.49440000  0.21210000  1.0 0.1285424335
H  H17  1  0.29040000  0.65620000  0.84620000  1.0 0.1207506852
H  H18  1  0.70960000  0.34380000  0.15380000  1.0 0.1207506852
H  H19  1  0.71120000  0.42330000  0.86210000  1.0 0.1207506852
H  H20  1  0.28880000  0.57670000  0.13790000  1.0 0.1207506852
H  H21  1  0.20840000  0.64190000  0.00290000  1.0 0.1207506852
H  H22  1  0.79160000  0.35810000  0.99710000  1.0 0.1207506852
C  C1  1  0.83190000  0.83260000  0.35770000  1.0 3.27376e-05
C  C2  1  0.16810000  0.16740000  0.64230000  1.0 3.27376e-05
C  C3  1  0.95810000  0.77710000  0.27450000  1.0 -0.1706622104
C  C4  1  0.04190000  0.22290000  0.72550000  1.0 -0.1706622104
C  C5  1  0.90340000  0.80890000  0.18980000  1.0 -0.0286131231
C  C6  1  0.09660000  0.19110000  0.81020000  1.0 -0.0286131231
C  C7  1  0.72530000  0.89460000  0.19010000  1.0 -0.2619604925
C  C8  1  0.27470000  0.10540000  0.80990000  1.0 -0.2619604925
C  C9  1  0.60390000  0.94640000  0.27630000  1.0 0.4282044312
C  C10  1  0.39610000  0.05360000  0.72370000  1.0 0.4282044312
C  C11  1  0.93830000  0.69420000  0.70790000  1.0 -0.0286131231
C  C12  1  0.06170000  0.30580000  0.29210000  1.0 -0.0286131231
C  C13  1  0.77470000  0.71260000  0.78280000  1.0 -0.1155921901
C  C14  1  0.22530000  0.28740000  0.21720000  1.0 -0.1155921901
C  C15  1  0.65600000  0.51920000  0.68190000  1.0 0.1079085702
C  C16  1  0.34400000  0.48080000  0.31810000  1.0 0.1079085702
C  C17  1  0.37460000  0.57640000  0.82670000  1.0 -0.1706622104
C  C18  1  0.62540000  0.42360000  0.17330000  1.0 -0.1706622104
C  C19  1  0.44580000  0.53870000  0.91720000  1.0 0.0948708755
C  C20  1  0.55420000  0.46130000  0.08280000  1.0 0.0948708755
C  C21  1  0.62110000  0.45560000  0.91860000  1.0 -0.1754232953
C  C22  1  0.37890000  0.54440000  0.08140000  1.0 -0.1754232953
C  C23  1  0.32860000  0.58290000  0.99970000  1.0 -0.1630999456
C  C24  1  0.67140000  0.41710000  0.00030000  1.0 -0.1630999456
N  N1  1  0.65160000  0.91510000  0.35853000  1.0 -0.3600949506
N  N2  1  0.34840000  0.08490000  0.64147000  1.0 -0.3600949506
N  N3  1  0.86310000  0.57080000  0.64348000  1.0 -0.2940564761
N  N4  1  0.13690000  0.42920000  0.35652000  1.0 -0.2940564761
N  N5  1  0.59600000  0.60050000  0.76630000  1.0 0.0396876065
N  N6  1  0.40400000  0.39950000  0.23370000  1.0 0.0396876065
O  O1  1  0.82850000  0.65555000  0.46493000  1.0 -0.7641631523
O  O2  1  0.17150000  0.34445000  0.53507000  1.0 -0.7641631523
O  O3  1  0.75400000  0.89371000  0.54753000  1.0 -0.7425603131
O  O4  1  0.24600000  0.10629000  0.45247000  1.0 -0.7425603131
O  O5  1  0.20390000  0.83816000  0.48837000  1.0 -0.7660244564
O  O6  1  0.79610000  0.16184000  0.51163000  1.0 -0.7660244564
O  O7  1  0.43640000  0.03170000  0.27549000  1.0 -0.4400267462
O  O8  1  0.56360000  0.96830000  0.72451000  1.0 -0.4400267462
