# DDEC6 charges by PACMAN v1.1 (https://github.com/mtap-research/PACMAN-charge/)
data_OFUFUR_ASR_pacman
_symmetry_space_group_name_H-M   'P 1'
_cell_length_a   14.63550000
_cell_length_b   21.06690000
_cell_length_c   20.30860000
_cell_angle_alpha   90.00000000
_cell_angle_beta   127.19900000
_cell_angle_gamma   90.00000000
_symmetry_Int_Tables_number   1
_chemical_formula_structural   SiNi2H48W18C52N24(O5F)8
_chemical_formula_sum   'Si2 Ni4 H96 W36 C104 N48 O80 F16'
_cell_volume   4987.65068523
_cell_formula_units_Z   2
loop_
 _symmetry_equiv_pos_site_id
 _symmetry_equiv_pos_as_xyz
  1  'x, y, z'
loop_
 _atom_site_type_symbol
 _atom_site_label
 _atom_site_symmetry_multiplicity
 _atom_site_fract_x
 _atom_site_fract_y
 _atom_site_fract_z
 _atom_site_occupancy
 _atom_site_charge
Si  Si1  1  0.00000000  0.00000000  0.00000000  1.0 1.2749256171
Si  Si2  1  0.00000000  0.50000000  0.50000000  1.0 1.282686261
Ni  Ni1  1  0.01770000  0.19079000  0.29959000  1.0 0.3076548554
Ni  Ni2  1  0.98230000  0.69079000  0.20041000  1.0 0.3076548554
Ni  Ni3  1  0.98230000  0.80921000  0.70041000  1.0 0.3076548554
Ni  Ni4  1  0.01770000  0.30921000  0.79959000  1.0 0.3076548554
H  H1  1  0.02390000  0.03940000  0.30750000  1.0 0.071408124
H  H2  1  0.97610000  0.53940000  0.19250000  1.0 0.071408124
H  H3  1  0.97610000  0.96060000  0.69250000  1.0 0.071408124
H  H4  1  0.02390000  0.46060000  0.80750000  1.0 0.071408124
H  H5  1  0.07910000  0.14950000  0.48160000  1.0 0.0990281007
H  H6  1  0.92090000  0.64950000  0.01840000  1.0 0.0990281007
H  H7  1  0.92090000  0.85050000  0.51840000  1.0 0.0990281007
H  H8  1  0.07910000  0.35050000  0.98160000  1.0 0.0990281007
H  H9  1  0.04750000  0.93600000  0.46300000  1.0 0.1104589133
H  H10  1  0.95250000  0.43600000  0.03700000  1.0 0.1104589133
H  H11  1  0.95250000  0.06400000  0.53700000  1.0 0.1104589133
H  H12  1  0.04750000  0.56400000  0.96300000  1.0 0.1104589133
H  H13  1  0.99970000  0.92960000  0.37010000  1.0 0.1104589133
H  H14  1  0.00030000  0.42960000  0.12990000  1.0 0.1104589133
H  H15  1  0.00030000  0.07040000  0.62990000  1.0 0.1104589133
H  H16  1  0.99970000  0.57040000  0.87010000  1.0 0.1104589133
H  H17  1  0.19240000  0.84530000  0.51550000  1.0 0.1174301929
H  H18  1  0.80760000  0.34530000  0.98450000  1.0 0.1174301929
H  H19  1  0.80760000  0.15470000  0.48450000  1.0 0.1174301929
H  H20  1  0.19240000  0.65470000  0.01550000  1.0 0.1174301929
H  H21  1  0.27110000  0.84160000  0.48730000  1.0 0.1104589133
H  H22  1  0.72890000  0.34160000  0.01270000  1.0 0.1104589133
H  H23  1  0.72890000  0.15840000  0.51270000  1.0 0.1104589133
H  H24  1  0.27110000  0.65840000  0.98730000  1.0 0.1104589133
H  H25  1  0.32780000  0.01210000  0.47120000  1.0 0.0883601899
H  H26  1  0.67220000  0.51210000  0.02880000  1.0 0.0883601899
H  H27  1  0.67220000  0.98790000  0.52880000  1.0 0.0883601899
H  H28  1  0.32780000  0.48790000  0.97120000  1.0 0.0883601899
H  H29  1  0.44690000  0.08520000  0.57880000  1.0 0.1104589133
H  H30  1  0.55310000  0.58520000  0.92120000  1.0 0.1104589133
H  H31  1  0.55310000  0.91480000  0.42120000  1.0 0.1104589133
H  H32  1  0.44690000  0.41480000  0.07880000  1.0 0.1104589133
H  H33  1  0.38200000  0.99550000  0.71880000  1.0 0.1480086646
H  H34  1  0.61800000  0.49550000  0.78120000  1.0 0.1480086646
H  H35  1  0.61800000  0.00450000  0.28120000  1.0 0.1480086646
H  H36  1  0.38200000  0.50450000  0.21880000  1.0 0.1480086646
H  H37  1  0.19740000  0.31480000  0.38130000  1.0 0.0883601899
H  H38  1  0.80260000  0.81480000  0.11870000  1.0 0.0883601899
H  H39  1  0.80260000  0.68520000  0.61870000  1.0 0.0883601899
H  H40  1  0.19740000  0.18520000  0.88130000  1.0 0.0883601899
H  H41  1  0.27120000  0.13950000  0.44810000  1.0 0.0883601899
H  H42  1  0.72880000  0.63950000  0.05190000  1.0 0.0883601899
H  H43  1  0.72880000  0.86050000  0.55190000  1.0 0.0883601899
H  H44  1  0.27120000  0.36050000  0.94810000  1.0 0.0883601899
H  H45  1  0.38510000  0.36550000  0.50540000  1.0 0.1174301929
H  H46  1  0.61490000  0.86550000  0.99460000  1.0 0.1174301929
H  H47  1  0.61490000  0.63450000  0.49460000  1.0 0.1174301929
H  H48  1  0.38510000  0.13450000  0.00540000  1.0 0.1174301929
H  H49  1  0.47610000  0.31800000  0.57370000  1.0 0.1174301929
H  H50  1  0.52390000  0.81800000  0.92630000  1.0 0.1174301929
H  H51  1  0.52390000  0.68200000  0.42630000  1.0 0.1174301929
H  H52  1  0.47610000  0.18200000  0.07370000  1.0 0.1174301929
H  H53  1  0.53950000  0.42830000  0.52890000  1.0 0.1104589133
H  H54  1  0.46050000  0.92830000  0.97110000  1.0 0.1104589133
H  H55  1  0.46050000  0.57170000  0.47110000  1.0 0.1104589133
H  H56  1  0.53950000  0.07170000  0.02890000  1.0 0.1104589133
H  H57  1  0.60790000  0.40670000  0.49610000  1.0 0.1104589133
H  H58  1  0.39210000  0.90670000  0.00390000  1.0 0.1104589133
H  H59  1  0.39210000  0.59330000  0.50390000  1.0 0.1104589133
H  H60  1  0.60790000  0.09330000  0.99610000  1.0 0.1104589133
H  H61  1  0.45640000  0.25990000  0.35900000  1.0 0.1104589133
H  H62  1  0.54360000  0.75990000  0.14100000  1.0 0.1104589133
H  H63  1  0.54360000  0.74010000  0.64100000  1.0 0.1104589133
H  H64  1  0.45640000  0.24010000  0.85900000  1.0 0.1104589133
H  H65  1  0.33310000  0.27710000  0.21810000  1.0 0.1299646515
H  H66  1  0.66690000  0.77710000  0.28190000  1.0 0.1174301929
H  H67  1  0.66690000  0.72290000  0.78190000  1.0 0.1299646515
H  H68  1  0.33310000  0.22290000  0.71810000  1.0 0.1299646515
H  H69  1  0.24140000  0.44280000  0.24480000  1.0 0.1480086646
H  H70  1  0.75860000  0.94280000  0.25520000  1.0 0.1480086646
H  H71  1  0.75860000  0.55720000  0.75520000  1.0 0.1480086646
H  H72  1  0.24140000  0.05720000  0.74480000  1.0 0.1480086646
H  H73  1  0.24680000  0.92820000  0.39670000  1.0 0.3037362597
H  H74  1  0.75320000  0.42820000  0.10330000  1.0 0.3037362597
H  H75  1  0.75320000  0.07180000  0.60330000  1.0 0.3037362597
H  H76  1  0.24680000  0.57180000  0.89670000  1.0 0.3037362597
H  H77  1  0.61050000  0.27440000  0.55410000  1.0 0.3076548554
H  H78  1  0.38950000  0.77440000  0.94590000  1.0 0.3076548554
H  H79  1  0.38950000  0.72560000  0.44590000  1.0 0.3076548554
H  H80  1  0.61050000  0.22560000  0.05410000  1.0 0.3076548554
H  H81  1  0.17400000  0.78980000  0.33900000  1.0 0.0990281007
H  H82  1  0.82600000  0.28980000  0.16100000  1.0 0.0990281007
H  H83  1  0.82600000  0.21020000  0.66100000  1.0 0.0990281007
H  H84  1  0.17400000  0.71020000  0.83900000  1.0 0.0990281007
H  H85  1  0.80000000  0.34380000  0.60290000  1.0 0.071408124
H  H86  1  0.20000000  0.84380000  0.89710000  1.0 0.0752679981
H  H87  1  0.20000000  0.65620000  0.39710000  1.0 0.071408124
H  H88  1  0.80000000  0.15620000  0.10290000  1.0 0.071408124
H  H89  1  0.80880000  0.37010000  0.79370000  1.0 0.0883601899
H  H90  1  0.19120000  0.87010000  0.70630000  1.0 0.0883601899
H  H91  1  0.19120000  0.62990000  0.20630000  1.0 0.0883601899
H  H92  1  0.80880000  0.12990000  0.29370000  1.0 0.0883601899
H  H93  1  0.88030000  0.75280000  0.29180000  1.0 0.071408124
H  H94  1  0.11970000  0.25280000  0.20820000  1.0 0.071408124
H  H95  1  0.11970000  0.24720000  0.70820000  1.0 0.071408124
H  H96  1  0.88030000  0.74720000  0.79180000  1.0 0.071408124
W  W1  1  0.06080000  0.08970000  0.16800000  1.0 1.6540834781
W  W2  1  0.93920000  0.58970000  0.33200000  1.0 1.6540834781
W  W3  1  0.93920000  0.91030000  0.83200000  1.0 1.6552120722
W  W4  1  0.06080000  0.41030000  0.66800000  1.0 1.6540834781
W  W5  1  0.21956000  0.95126000  0.20626000  1.0 1.9225470997
W  W6  1  0.78044000  0.45126000  0.29374000  1.0 1.9225470997
W  W7  1  0.78044000  0.04874000  0.79374000  1.0 1.9225470997
W  W8  1  0.21956000  0.54874000  0.70626000  1.0 1.9225470997
W  W9  1  0.92665000  0.94029000  0.12559000  1.0 1.8632055498
W  W10  1  0.07335000  0.44029000  0.37441000  1.0 1.8632055498
W  W11  1  0.07335000  0.05971000  0.87441000  1.0 1.8632055498
W  W12  1  0.92665000  0.55971000  0.62559000  1.0 1.8632055498
W  W13  1  0.29221000  0.00952000  0.07930000  1.0 2.0570489443
W  W14  1  0.70779000  0.50952000  0.42070000  1.0 2.0499955691
W  W15  1  0.70779000  0.99048000  0.92070000  1.0 2.044864086
W  W16  1  0.29221000  0.49048000  0.57930000  1.0 2.0499955691
W  W17  1  0.13648000  0.15061000  0.04511000  1.0 1.9084965266
W  W18  1  0.86352000  0.65061000  0.45489000  1.0 1.9026255883
W  W19  1  0.86352000  0.84939000  0.95489000  1.0 1.9026255883
W  W20  1  0.13648000  0.34939000  0.54511000  1.0 1.9026255883
W  W21  1  0.83196000  0.12982000  0.95840000  1.0 1.1925434149
W  W22  1  0.16804000  0.62982000  0.54160000  1.0 1.1958375252
W  W23  1  0.16804000  0.87018000  0.04160000  1.0 1.1958375252
W  W24  1  0.83196000  0.37018000  0.45840000  1.0 1.1925434149
W  W25  1  0.05530000  0.10520000  0.15950000  1.0 0.6398417331
W  W26  1  0.94470000  0.60520000  0.34050000  1.0 0.6398417331
W  W27  1  0.94470000  0.89480000  0.84050000  1.0 0.6398417331
W  W28  1  0.05530000  0.39480000  0.65950000  1.0 0.6398417331
W  W29  1  0.06260000  0.07570000  0.17640000  1.0 0.8772596098
W  W30  1  0.93740000  0.57570000  0.32360000  1.0 0.8693022407
W  W31  1  0.93740000  0.92430000  0.82360000  1.0 0.8693022407
W  W32  1  0.06260000  0.42430000  0.67640000  1.0 0.8772596098
W  W33  1  0.85236000  0.15080000  0.96574000  1.0 1.0966837681
W  W34  1  0.14764000  0.65080000  0.53426000  1.0 1.0966837681
W  W35  1  0.14764000  0.84920000  0.03426000  1.0 1.0904998458
W  W36  1  0.85236000  0.34920000  0.46574000  1.0 1.0904998458
C  C1  1  0.03740000  0.05420000  0.35580000  1.0 0.0622110251
C  C2  1  0.96260000  0.55420000  0.14420000  1.0 0.0622110251
C  C3  1  0.96260000  0.94580000  0.64420000  1.0 0.0622110251
C  C4  1  0.03740000  0.44580000  0.85580000  1.0 0.0622110251
C  C5  1  0.06800000  0.11320000  0.45150000  1.0 0.0990281007
C  C6  1  0.93200000  0.61320000  0.04850000  1.0 0.0990281007
C  C7  1  0.93200000  0.88680000  0.54850000  1.0 0.0990281007
C  C8  1  0.06800000  0.38680000  0.95150000  1.0 0.0990281007
C  C9  1  0.05880000  0.94920000  0.42260000  1.0 -0.2729920172
C  C10  1  0.94120000  0.44920000  0.07740000  1.0 -0.2729920172
C  C11  1  0.94120000  0.05080000  0.57740000  1.0 -0.2729920172
C  C12  1  0.05880000  0.55080000  0.92260000  1.0 -0.2729920172
C  C13  1  0.17860000  0.92790000  0.45070000  1.0 0.2599283509
C  C14  1  0.82140000  0.42790000  0.04930000  1.0 0.2599283509
C  C15  1  0.82140000  0.07210000  0.54930000  1.0 0.2599283509
C  C16  1  0.17860000  0.57210000  0.95070000  1.0 0.2599283509
C  C17  1  0.19580000  0.85400000  0.47010000  1.0 -0.2776339405
C  C18  1  0.80420000  0.35400000  0.02990000  1.0 -0.2776339405
C  C19  1  0.80420000  0.14600000  0.52990000  1.0 -0.2776339405
C  C20  1  0.19580000  0.64600000  0.97010000  1.0 -0.2776339405
C  C21  1  0.27430000  0.96500000  0.52720000  1.0 -0.1629979037
C  C22  1  0.72570000  0.46500000  0.97280000  1.0 -0.1629979037
C  C23  1  0.72570000  0.03500000  0.47280000  1.0 -0.1629979037
C  C24  1  0.27430000  0.53500000  0.02720000  1.0 -0.1629979037
C  C25  1  0.33500000  0.00970000  0.51990000  1.0 -0.113652619
C  C26  1  0.66500000  0.50970000  0.98010000  1.0 -0.113652619
C  C27  1  0.66500000  0.99030000  0.48010000  1.0 -0.113652619
C  C28  1  0.33500000  0.49030000  0.01990000  1.0 -0.113652619
C  C29  1  0.40950000  0.05320000  0.58570000  1.0 -0.2776339405
C  C30  1  0.59050000  0.55320000  0.91430000  1.0 -0.2861461023
C  C31  1  0.59050000  0.94680000  0.41430000  1.0 -0.2861461023
C  C32  1  0.40950000  0.44680000  0.08570000  1.0 -0.2861461023
C  C33  1  0.42520000  0.04690000  0.65970000  1.0 0.2904149048
C  C34  1  0.57480000  0.54690000  0.84030000  1.0 0.2904149048
C  C35  1  0.57480000  0.95310000  0.34030000  1.0 0.2904149048
C  C36  1  0.42520000  0.45310000  0.15970000  1.0 0.2904149048
C  C37  1  0.36910000  0.00080000  0.66830000  1.0 -0.3686882706
C  C38  1  0.63090000  0.50080000  0.83170000  1.0 -0.3686882706
C  C39  1  0.63090000  0.99920000  0.33170000  1.0 -0.3686882706
C  C40  1  0.36910000  0.49920000  0.16830000  1.0 -0.3686882706
C  C41  1  0.29180000  0.96090000  0.60220000  1.0 0.2599283509
C  C42  1  0.70820000  0.46090000  0.89780000  1.0 0.2599283509
C  C43  1  0.70820000  0.03910000  0.39780000  1.0 0.2599283509
C  C44  1  0.29180000  0.53910000  0.10220000  1.0 0.2599283509
C  C45  1  0.23560000  0.27740000  0.40830000  1.0 0.071408124
C  C46  1  0.76440000  0.77740000  0.09170000  1.0 0.071408124
C  C47  1  0.76440000  0.72260000  0.59170000  1.0 0.071408124
C  C48  1  0.23560000  0.22260000  0.90830000  1.0 0.071408124
C  C49  1  0.27750000  0.18320000  0.44550000  1.0 0.1104589133
C  C50  1  0.72250000  0.68320000  0.05450000  1.0 0.1104589133
C  C51  1  0.72250000  0.81680000  0.55450000  1.0 0.1104589133
C  C52  1  0.27750000  0.31680000  0.94550000  1.0 0.1104589133
C  C53  1  0.42650000  0.32640000  0.51480000  1.0 -0.2984964175
C  C54  1  0.57350000  0.82640000  0.98520000  1.0 -0.2984964175
C  C55  1  0.57350000  0.67360000  0.48520000  1.0 -0.2984964175
C  C56  1  0.42650000  0.17360000  0.01480000  1.0 -0.2984964175
C  C57  1  0.50010000  0.33480000  0.48460000  1.0 0.2659034408
C  C58  1  0.49990000  0.83480000  0.01540000  1.0 0.2659034408
C  C59  1  0.49990000  0.66520000  0.51540000  1.0 0.2659034408
C  C60  1  0.50010000  0.16520000  0.98460000  1.0 0.2659034408
C  C61  1  0.58180000  0.39340000  0.52790000  1.0 -0.2861461023
C  C62  1  0.41820000  0.89340000  0.97210000  1.0 -0.2861461023
C  C63  1  0.41820000  0.60660000  0.47210000  1.0 -0.2861461023
C  C64  1  0.58180000  0.10660000  0.02790000  1.0 -0.2861461023
C  C65  1  0.42460000  0.34370000  0.38950000  1.0 -0.1357738771
C  C66  1  0.57540000  0.84370000  0.11050000  1.0 -0.1357738771
C  C67  1  0.57540000  0.65630000  0.61050000  1.0 -0.1357738771
C  C68  1  0.42460000  0.15630000  0.88950000  1.0 -0.1357738771
C  C69  1  0.41490000  0.29750000  0.33790000  1.0 -0.0887361043
C  C70  1  0.58510000  0.79750000  0.16210000  1.0 -0.0887361043
C  C71  1  0.58510000  0.70250000  0.66210000  1.0 -0.0887361043
C  C72  1  0.41490000  0.20250000  0.83790000  1.0 -0.0887361043
C  C73  1  0.34170000  0.30850000  0.25370000  1.0 -0.2600114033
C  C74  1  0.65830000  0.80850000  0.24630000  1.0 -0.2600114033
C  C75  1  0.65830000  0.69150000  0.74630000  1.0 -0.2600114033
C  C76  1  0.34170000  0.19150000  0.75370000  1.0 -0.2600114033
C  C77  1  0.28280000  0.36260000  0.22160000  1.0 0.2478428609
C  C78  1  0.71720000  0.86260000  0.27840000  1.0 0.2478428609
C  C79  1  0.71720000  0.63740000  0.77840000  1.0 0.2478428609
C  C80  1  0.28280000  0.13740000  0.72160000  1.0 0.2478428609
C  C81  1  0.28560000  0.40630000  0.26780000  1.0 -0.349774195
C  C82  1  0.71440000  0.90630000  0.23220000  1.0 -0.3597483509
C  C83  1  0.71440000  0.59370000  0.73220000  1.0 -0.349774195
C  C84  1  0.28560000  0.09370000  0.76780000  1.0 -0.349774195
C  C85  1  0.35730000  0.39660000  0.35320000  1.0 0.1990800887
C  C86  1  0.64270000  0.89660000  0.14680000  1.0 0.1990800887
C  C87  1  0.64270000  0.60340000  0.64680000  1.0 0.1990800887
C  C88  1  0.35730000  0.10340000  0.85320000  1.0 0.1990800887
C  C89  1  0.11220000  0.78850000  0.34100000  1.0 0.0622110251
C  C90  1  0.88780000  0.28850000  0.15900000  1.0 0.0622110251
C  C91  1  0.88780000  0.21150000  0.65900000  1.0 0.0622110251
C  C92  1  0.11220000  0.71150000  0.84100000  1.0 0.0622110251
C  C93  1  0.78070000  0.35430000  0.63760000  1.0 0.0431793384
C  C94  1  0.21930000  0.85430000  0.86240000  1.0 0.0431793384
C  C95  1  0.21930000  0.64570000  0.36240000  1.0 0.0431793384
C  C96  1  0.78070000  0.14570000  0.13760000  1.0 0.0431793384
C  C97  1  0.78260000  0.36890000  0.73900000  1.0 0.1299646515
C  C98  1  0.21740000  0.86890000  0.76100000  1.0 0.1299646515
C  C99  1  0.21740000  0.63110000  0.26100000  1.0 0.1299646515
C  C100  1  0.78260000  0.13110000  0.23900000  1.0 0.1299646515
C  C101  1  0.95320000  0.76950000  0.31650000  1.0 0.071408124
C  C102  1  0.04680000  0.26950000  0.18350000  1.0 0.071408124
C  C103  1  0.04680000  0.23050000  0.68350000  1.0 0.071408124
C  C104  1  0.95320000  0.73050000  0.81650000  1.0 0.071408124
N  N1  1  0.18820000  0.22120000  0.38810000  1.0 -0.2984964175
N  N2  1  0.81180000  0.72120000  0.11190000  1.0 -0.2984964175
N  N3  1  0.81180000  0.77880000  0.61190000  1.0 -0.2984964175
N  N4  1  0.18820000  0.27880000  0.88810000  1.0 -0.2984964175
N  N5  1  0.37330000  0.21480000  0.49680000  1.0 -0.2600114033
N  N6  1  0.62670000  0.71480000  0.00320000  1.0 -0.2600114033
N  N7  1  0.62670000  0.78520000  0.50320000  1.0 -0.2600114033
N  N8  1  0.37330000  0.28520000  0.99680000  1.0 -0.2600114033
N  N9  1  0.34420000  0.27400000  0.47170000  1.0 0.1693492509
N  N10  1  0.65580000  0.77400000  0.02830000  1.0 0.1693492509
N  N11  1  0.65580000  0.72600000  0.52830000  1.0 0.1693492509
N  N12  1  0.34420000  0.22600000  0.97170000  1.0 0.1693492509
N  N13  1  0.04630000  0.11520000  0.37690000  1.0 -0.3247093283
N  N14  1  0.95370000  0.61520000  0.12310000  1.0 -0.3251973116
N  N15  1  0.95370000  0.88480000  0.62310000  1.0 -0.3247093283
N  N16  1  0.04630000  0.38480000  0.87690000  1.0 -0.3247093283
N  N17  1  0.07230000  0.05410000  0.47860000  1.0 -0.2984964175
N  N18  1  0.92770000  0.55410000  0.02140000  1.0 -0.2984964175
N  N19  1  0.92770000  0.94590000  0.52140000  1.0 -0.2984964175
N  N20  1  0.07230000  0.44590000  0.97860000  1.0 -0.2984964175
N  N21  1  0.05080000  0.01830000  0.41420000  1.0 0.1404611259
N  N22  1  0.94920000  0.51830000  0.08580000  1.0 0.1404611259
N  N23  1  0.94920000  0.98170000  0.58580000  1.0 0.1404611259
N  N24  1  0.05080000  0.48170000  0.91420000  1.0 0.1404611259
N  N25  1  0.10930000  0.81620000  0.39890000  1.0 0.1404611259
N  N26  1  0.89070000  0.31620000  0.10110000  1.0 0.1404611259
N  N27  1  0.89070000  0.18380000  0.60110000  1.0 0.1404611259
N  N28  1  0.10930000  0.68380000  0.89890000  1.0 0.1404611259
N  N29  1  0.68050000  0.37900000  0.61180000  1.0 0.1299646515
N  N30  1  0.31950000  0.87900000  0.88820000  1.0 0.1299646515
N  N31  1  0.31950000  0.62100000  0.38820000  1.0 0.1299646515
N  N32  1  0.68050000  0.12100000  0.11180000  1.0 0.1299646515
N  N33  1  0.68040000  0.38860000  0.67900000  1.0 -0.3096267008
N  N34  1  0.31960000  0.88860000  0.82100000  1.0 -0.3096267008
N  N35  1  0.31960000  0.61140000  0.32100000  1.0 -0.3096267008
N  N36  1  0.68040000  0.11140000  0.17900000  1.0 -0.3096267008
N  N37  1  0.00610000  0.80540000  0.38300000  1.0 -0.2600114033
N  N38  1  0.99390000  0.30540000  0.11700000  1.0 -0.2600114033
N  N39  1  0.99390000  0.19460000  0.61700000  1.0 -0.2600114033
N  N40  1  0.00610000  0.69460000  0.88300000  1.0 -0.2600114033
N  N41  1  0.98640000  0.25880000  0.21320000  1.0 -0.349774195
N  N42  1  0.01360000  0.75880000  0.28680000  1.0 -0.349774195
N  N43  1  0.01360000  0.74120000  0.78680000  1.0 -0.349774195
N  N44  1  0.98640000  0.24120000  0.71320000  1.0 -0.349774195
N  N45  1  0.84980000  0.15350000  0.21880000  1.0 -0.349774195
N  N46  1  0.15020000  0.65350000  0.28120000  1.0 -0.349774195
N  N47  1  0.15020000  0.84650000  0.78120000  1.0 -0.349774195
N  N48  1  0.84980000  0.34650000  0.71880000  1.0 -0.349774195
O  O1  1  0.00860000  0.07840000  0.03150000  1.0 -0.7476815902
O  O2  1  0.99140000  0.57840000  0.46850000  1.0 -0.7476815902
O  O3  1  0.99140000  0.92160000  0.96850000  1.0 -0.7476815902
O  O4  1  0.00860000  0.42160000  0.53150000  1.0 -0.7476815902
O  O5  1  0.12760000  0.97340000  0.05810000  1.0 -0.5088467733
O  O6  1  0.87240000  0.47340000  0.44190000  1.0 -0.5088467733
O  O7  1  0.87240000  0.02660000  0.94190000  1.0 -0.5088467733
O  O8  1  0.12760000  0.52660000  0.55810000  1.0 -0.5088467733
O  O9  1  0.03710000  0.99040000  0.09500000  1.0 -0.6597580138
O  O10  1  0.96290000  0.49040000  0.40500000  1.0 -0.6597580138
O  O11  1  0.96290000  0.00960000  0.90500000  1.0 -0.6597580138
O  O12  1  0.03710000  0.50960000  0.59500000  1.0 -0.6597580138
O  O13  1  0.97930000  0.17400000  0.98550000  1.0 -0.6993491424
O  O14  1  0.02070000  0.67400000  0.51450000  1.0 -0.6993491424
O  O15  1  0.02070000  0.82600000  0.01450000  1.0 -0.6993491424
O  O16  1  0.97930000  0.32600000  0.48550000  1.0 -0.6993491424
O  O17  1  0.26240000  0.09660000  0.09230000  1.0 -0.8690043731
O  O18  1  0.73760000  0.59660000  0.40770000  1.0 -0.8753307187
O  O19  1  0.73760000  0.90340000  0.90770000  1.0 -0.8690043731
O  O20  1  0.26240000  0.40340000  0.59230000  1.0 -0.8690043731
O  O21  1  0.30550000  0.99080000  0.17640000  1.0 -0.8690043731
O  O22  1  0.69450000  0.49080000  0.32360000  1.0 -0.8690043731
O  O23  1  0.69450000  0.00920000  0.82360000  1.0 -0.8690043731
O  O24  1  0.30550000  0.50920000  0.67640000  1.0 -0.8690043731
O  O25  1  0.90140000  0.86680000  0.06130000  1.0 -0.8690043731
O  O26  1  0.09860000  0.36680000  0.43870000  1.0 -0.8690043731
O  O27  1  0.09860000  0.13320000  0.93870000  1.0 -0.8690043731
O  O28  1  0.90140000  0.63320000  0.56130000  1.0 -0.8690043731
O  O29  1  0.78260000  0.97200000  0.03340000  1.0 -0.8690043731
O  O30  1  0.21740000  0.47200000  0.46660000  1.0 -0.8690043731
O  O31  1  0.21740000  0.02800000  0.96660000  1.0 -0.8690043731
O  O32  1  0.78260000  0.52800000  0.53340000  1.0 -0.8690043731
O  O33  1  0.26020000  0.92260000  0.05040000  1.0 -0.7075770222
O  O34  1  0.73980000  0.42260000  0.44960000  1.0 -0.7075770222
O  O35  1  0.73980000  0.07740000  0.94960000  1.0 -0.7075770222
O  O36  1  0.26020000  0.57740000  0.55040000  1.0 -0.7075770222
O  O37  1  0.76720000  0.20570000  0.94620000  1.0 -0.6027066805
O  O38  1  0.23280000  0.70570000  0.55380000  1.0 -0.6027066805
O  O39  1  0.23280000  0.79430000  0.05380000  1.0 -0.6027066805
O  O40  1  0.76720000  0.29430000  0.44620000  1.0 -0.6027066805
O  O41  1  0.96620000  0.02580000  0.16380000  1.0 -0.6993491424
O  O42  1  0.03380000  0.52580000  0.33620000  1.0 -0.6993491424
O  O43  1  0.03380000  0.97420000  0.83620000  1.0 -0.6993491424
O  O44  1  0.96620000  0.47420000  0.66380000  1.0 -0.6993491424
O  O45  1  0.92400000  0.12940000  0.07670000  1.0 -0.6597580138
O  O46  1  0.07600000  0.62940000  0.42330000  1.0 -0.6656580888
O  O47  1  0.07600000  0.87060000  0.92330000  1.0 -0.6656580888
O  O48  1  0.92400000  0.37060000  0.57670000  1.0 -0.6597580138
O  O49  1  0.08640000  0.92030000  0.19300000  1.0 -0.8564929091
O  O50  1  0.91360000  0.42030000  0.30700000  1.0 -0.8564929091
O  O51  1  0.91360000  0.07970000  0.80700000  1.0 -0.8564929091
O  O52  1  0.08640000  0.57970000  0.69300000  1.0 -0.8564929091
O  O53  1  0.20710000  0.87890000  0.14530000  1.0 -0.7604167186
O  O54  1  0.79290000  0.37890000  0.35470000  1.0 -0.7604167186
O  O55  1  0.79290000  0.12110000  0.85470000  1.0 -0.7604167186
O  O56  1  0.20710000  0.62110000  0.64530000  1.0 -0.7604167186
O  O57  1  0.18430000  0.03430000  0.22400000  1.0 -0.6993491424
O  O58  1  0.81570000  0.53430000  0.27600000  1.0 -0.6993491424
O  O59  1  0.81570000  0.96570000  0.77600000  1.0 -0.6993491424
O  O60  1  0.18430000  0.46570000  0.72400000  1.0 -0.6993491424
O  O61  1  0.14050000  0.13720000  0.13910000  1.0 -0.684950503
O  O62  1  0.85950000  0.63720000  0.36090000  1.0 -0.6860466722
O  O63  1  0.85950000  0.86280000  0.86090000  1.0 -0.6860466722
O  O64  1  0.14050000  0.36280000  0.63910000  1.0 -0.6860466722
O  O65  1  0.08060000  0.13330000  0.24750000  1.0 -0.6027066805
O  O66  1  0.91940000  0.63330000  0.25250000  1.0 -0.6027066805
O  O67  1  0.91940000  0.86670000  0.75250000  1.0 -0.6027066805
O  O68  1  0.08060000  0.36670000  0.74750000  1.0 -0.6027066805
O  O69  1  0.18390000  0.93940000  0.38330000  1.0 -0.5396040701
O  O70  1  0.81610000  0.43940000  0.11670000  1.0 -0.5396040701
O  O71  1  0.81610000  0.06060000  0.61670000  1.0 -0.5396040701
O  O72  1  0.18390000  0.56060000  0.88330000  1.0 -0.5396040701
O  O73  1  0.56830000  0.27990000  0.50390000  1.0 -0.5088467733
O  O74  1  0.43170000  0.77990000  0.99610000  1.0 -0.5088467733
O  O75  1  0.43170000  0.72010000  0.49610000  1.0 -0.5088467733
O  O76  1  0.56830000  0.22010000  0.00390000  1.0 -0.5088467733
O  O77  1  0.90790000  0.96720000  0.99780000  1.0 -0.3597483509
O  O78  1  0.09210000  0.46720000  0.50220000  1.0 -0.3686882706
O  O79  1  0.09210000  0.03280000  0.00220000  1.0 -0.3686882706
O  O80  1  0.90790000  0.53280000  0.49780000  1.0 -0.3686882706
F  F1  1  0.23110000  0.91850000  0.61190000  1.0 -0.1705594043
F  F2  1  0.76890000  0.41850000  0.88810000  1.0 -0.1753409528
F  F3  1  0.76890000  0.08150000  0.38810000  1.0 -0.1753409528
F  F4  1  0.23110000  0.58150000  0.11190000  1.0 -0.1705594043
F  F5  1  0.49150000  0.08800000  0.72030000  1.0 -0.1705594043
F  F6  1  0.50850000  0.58800000  0.77970000  1.0 -0.1705594043
F  F7  1  0.50850000  0.91200000  0.27970000  1.0 -0.1705594043
F  F8  1  0.49150000  0.41200000  0.22030000  1.0 -0.1705594043
F  F9  1  0.36140000  0.44480000  0.40140000  1.0 -0.1705594043
F  F10  1  0.63860000  0.94480000  0.09860000  1.0 -0.1705594043
F  F11  1  0.63860000  0.55520000  0.59860000  1.0 -0.1705594043
F  F12  1  0.36140000  0.05520000  0.90140000  1.0 -0.1705594043
F  F13  1  0.21170000  0.36820000  0.13780000  1.0 -0.1705594043
F  F14  1  0.78830000  0.86820000  0.36220000  1.0 -0.1705594043
F  F15  1  0.78830000  0.63180000  0.86220000  1.0 -0.1705594043
F  F16  1  0.21170000  0.13180000  0.63780000  1.0 -0.1705594043
