# DDEC6 charges by PACMAN v1.1 (https://github.com/mtap-research/PACMAN-charge/)
data_OGEBAF01_ASR_pacman
_symmetry_space_group_name_H-M   'P 1'
_cell_length_a   18.80280000
_cell_length_b   18.80280000
_cell_length_c   51.88300000
_cell_angle_alpha   90.00000000
_cell_angle_beta   90.00000000
_cell_angle_gamma   120.00000000
_symmetry_Int_Tables_number   1
_chemical_formula_structural   Cu3H14(C17O6)2
_chemical_formula_sum   'Cu18 H84 C204 O72'
_cell_volume   15885.49546772
_cell_formula_units_Z   6
loop_
 _symmetry_equiv_pos_site_id
 _symmetry_equiv_pos_as_xyz
  1  'x, y, z'
loop_
 _atom_site_type_symbol
 _atom_site_label
 _atom_site_symmetry_multiplicity
 _atom_site_fract_x
 _atom_site_fract_y
 _atom_site_fract_z
 _atom_site_occupancy
 _atom_site_charge
Cu  Cu1  1  0.05991000  0.11982000  0.25000000  1.0 0.7958759078
Cu  Cu2  1  0.88018000  0.94009000  0.25000000  1.0 0.7958759078
Cu  Cu3  1  0.05991000  0.94009000  0.25000000  1.0 0.7958759078
Cu  Cu4  1  0.94009000  0.88018000  0.75000000  1.0 0.7958759078
Cu  Cu5  1  0.11982000  0.05991000  0.75000000  1.0 0.7958759078
Cu  Cu6  1  0.94009000  0.05991000  0.75000000  1.0 0.7958759078
Cu  Cu7  1  0.52293000  0.04586000  0.97880000  1.0 0.8459487765
Cu  Cu8  1  0.95414000  0.47707000  0.97880000  1.0 0.8459487765
Cu  Cu9  1  0.52293000  0.47707000  0.97880000  1.0 0.8459487765
Cu  Cu10  1  0.47707000  0.95414000  0.47880000  1.0 0.8459487765
Cu  Cu11  1  0.04586000  0.52293000  0.47880000  1.0 0.8459487765
Cu  Cu12  1  0.47707000  0.52293000  0.47880000  1.0 0.8459487765
Cu  Cu13  1  0.04586000  0.52293000  0.02120000  1.0 0.8459487765
Cu  Cu14  1  0.47707000  0.95414000  0.02120000  1.0 0.8459487765
Cu  Cu15  1  0.47707000  0.52293000  0.02120000  1.0 0.8459487765
Cu  Cu16  1  0.95414000  0.47707000  0.52120000  1.0 0.8459487765
Cu  Cu17  1  0.52293000  0.04586000  0.52120000  1.0 0.8459487765
Cu  Cu18  1  0.52293000  0.47707000  0.52120000  1.0 0.8459487765
H  H1  1  0.20260000  0.20610000  0.18360000  1.0 0.1315734723
H  H2  1  0.79390000  0.99650000  0.18360000  1.0 0.1315734723
H  H3  1  0.00350000  0.79740000  0.18360000  1.0 0.1315734723
H  H4  1  0.79740000  0.79390000  0.68360000  1.0 0.1315734723
H  H5  1  0.20610000  0.00350000  0.68360000  1.0 0.1315734723
H  H6  1  0.99650000  0.20260000  0.68360000  1.0 0.1315734723
H  H7  1  0.20610000  0.20260000  0.81640000  1.0 0.1315734723
H  H8  1  0.99650000  0.79390000  0.81640000  1.0 0.1315734723
H  H9  1  0.79740000  0.00350000  0.81640000  1.0 0.1315734723
H  H10  1  0.79390000  0.79740000  0.31640000  1.0 0.1315734723
H  H11  1  0.00350000  0.20610000  0.31640000  1.0 0.1315734723
H  H12  1  0.20260000  0.99650000  0.31640000  1.0 0.1315734723
H  H13  1  0.79740000  0.79390000  0.81640000  1.0 0.1315734723
H  H14  1  0.20610000  0.00350000  0.81640000  1.0 0.1315734723
H  H15  1  0.99650000  0.20260000  0.81640000  1.0 0.1315734723
H  H16  1  0.20260000  0.20610000  0.31640000  1.0 0.1315734723
H  H17  1  0.79390000  0.99650000  0.31640000  1.0 0.1315734723
H  H18  1  0.00350000  0.79740000  0.31640000  1.0 0.1315734723
H  H19  1  0.79390000  0.79740000  0.18360000  1.0 0.1315734723
H  H20  1  0.00350000  0.20610000  0.18360000  1.0 0.1315734723
H  H21  1  0.20260000  0.99650000  0.18360000  1.0 0.1315734723
H  H22  1  0.20610000  0.20260000  0.68360000  1.0 0.1315734723
H  H23  1  0.99650000  0.79390000  0.68360000  1.0 0.1315734723
H  H24  1  0.79740000  0.00350000  0.68360000  1.0 0.1315734723
H  H25  1  0.26150000  0.23810000  0.14270000  1.0 0.1199187099
H  H26  1  0.76190000  0.02340000  0.14270000  1.0 0.1199187099
H  H27  1  0.97660000  0.73850000  0.14270000  1.0 0.1199187099
H  H28  1  0.73850000  0.76190000  0.64270000  1.0 0.1199187099
H  H29  1  0.23810000  0.97660000  0.64270000  1.0 0.1199187099
H  H30  1  0.02340000  0.26150000  0.64270000  1.0 0.1199187099
H  H31  1  0.23810000  0.26150000  0.85730000  1.0 0.1199187099
H  H32  1  0.02340000  0.76190000  0.85730000  1.0 0.1199187099
H  H33  1  0.73850000  0.97660000  0.85730000  1.0 0.1199187099
H  H34  1  0.76190000  0.73850000  0.35730000  1.0 0.1199187099
H  H35  1  0.97660000  0.23810000  0.35730000  1.0 0.1199187099
H  H36  1  0.26150000  0.02340000  0.35730000  1.0 0.1199187099
H  H37  1  0.73850000  0.76190000  0.85730000  1.0 0.1199187099
H  H38  1  0.23810000  0.97660000  0.85730000  1.0 0.1199187099
H  H39  1  0.02340000  0.26150000  0.85730000  1.0 0.1199187099
H  H40  1  0.26150000  0.23810000  0.35730000  1.0 0.1199187099
H  H41  1  0.76190000  0.02340000  0.35730000  1.0 0.1199187099
H  H42  1  0.97660000  0.73850000  0.35730000  1.0 0.1199187099
H  H43  1  0.76190000  0.73850000  0.14270000  1.0 0.1199187099
H  H44  1  0.97660000  0.23810000  0.14270000  1.0 0.1199187099
H  H45  1  0.26150000  0.02340000  0.14270000  1.0 0.1199187099
H  H46  1  0.23810000  0.26150000  0.64270000  1.0 0.1199187099
H  H47  1  0.02340000  0.76190000  0.64270000  1.0 0.1199187099
H  H48  1  0.73850000  0.97660000  0.64270000  1.0 0.1199187099
H  H49  1  0.38530000  0.08670000  0.06410000  1.0 0.1374394658
H  H50  1  0.91330000  0.29860000  0.06410000  1.0 0.1374394658
H  H51  1  0.70140000  0.61470000  0.06410000  1.0 0.1374394658
H  H52  1  0.61470000  0.91330000  0.56410000  1.0 0.1374394658
H  H53  1  0.08670000  0.70140000  0.56410000  1.0 0.1374394658
H  H54  1  0.29860000  0.38530000  0.56410000  1.0 0.1374394658
H  H55  1  0.08670000  0.38530000  0.93590000  1.0 0.1374394658
H  H56  1  0.29860000  0.91330000  0.93590000  1.0 0.1374394658
H  H57  1  0.61470000  0.70140000  0.93590000  1.0 0.1374394658
H  H58  1  0.91330000  0.61470000  0.43590000  1.0 0.1374394658
H  H59  1  0.70140000  0.08670000  0.43590000  1.0 0.1374394658
H  H60  1  0.38530000  0.29860000  0.43590000  1.0 0.1374394658
H  H61  1  0.61470000  0.91330000  0.93590000  1.0 0.1374394658
H  H62  1  0.08670000  0.70140000  0.93590000  1.0 0.1374394658
H  H63  1  0.29860000  0.38530000  0.93590000  1.0 0.1374394658
H  H64  1  0.38530000  0.08670000  0.43590000  1.0 0.1374394658
H  H65  1  0.91330000  0.29860000  0.43590000  1.0 0.1374394658
H  H66  1  0.70140000  0.61470000  0.43590000  1.0 0.1374394658
H  H67  1  0.91330000  0.61470000  0.06410000  1.0 0.1374394658
H  H68  1  0.70140000  0.08670000  0.06410000  1.0 0.1374394658
H  H69  1  0.38530000  0.29860000  0.06410000  1.0 0.1374394658
H  H70  1  0.08670000  0.38530000  0.56410000  1.0 0.1374394658
H  H71  1  0.29860000  0.91330000  0.56410000  1.0 0.1374394658
H  H72  1  0.61470000  0.70140000  0.56410000  1.0 0.1374394658
H  H73  1  0.47040000  0.23520000  0.00310000  1.0 0.1374394658
H  H74  1  0.76480000  0.23520000  0.00310000  1.0 0.1374394658
H  H75  1  0.76480000  0.52960000  0.00310000  1.0 0.1374394658
H  H76  1  0.52960000  0.76480000  0.50310000  1.0 0.1374394658
H  H77  1  0.23520000  0.76480000  0.50310000  1.0 0.1374394658
H  H78  1  0.23520000  0.47040000  0.50310000  1.0 0.1374394658
H  H79  1  0.23520000  0.47040000  0.99690000  1.0 0.1374394658
H  H80  1  0.23520000  0.76480000  0.99690000  1.0 0.1374394658
H  H81  1  0.52960000  0.76480000  0.99690000  1.0 0.1374394658
H  H82  1  0.76480000  0.52960000  0.49690000  1.0 0.1374394658
H  H83  1  0.76480000  0.23520000  0.49690000  1.0 0.1374394658
H  H84  1  0.47040000  0.23520000  0.49690000  1.0 0.1374394658
C  C1  1  0.15630000  0.07815000  0.21379000  1.0 0.5942209471
C  C2  1  0.92185000  0.07815000  0.21379000  1.0 0.5942209471
C  C3  1  0.92185000  0.84370000  0.21379000  1.0 0.5942209471
C  C4  1  0.84370000  0.92185000  0.71379000  1.0 0.5942209471
C  C5  1  0.07815000  0.92185000  0.71379000  1.0 0.5942209471
C  C6  1  0.07815000  0.15630000  0.71379000  1.0 0.5942209471
C  C7  1  0.07815000  0.15630000  0.78621000  1.0 0.5942209471
C  C8  1  0.07815000  0.92185000  0.78621000  1.0 0.5942209471
C  C9  1  0.84370000  0.92185000  0.78621000  1.0 0.5942209471
C  C10  1  0.92185000  0.84370000  0.28621000  1.0 0.5942209471
C  C11  1  0.92185000  0.07815000  0.28621000  1.0 0.5942209471
C  C12  1  0.15630000  0.07815000  0.28621000  1.0 0.5942209471
C  C13  1  0.19600000  0.09800000  0.18840000  1.0 -0.0581505095
C  C14  1  0.90200000  0.09800000  0.18840000  1.0 -0.0581505095
C  C15  1  0.90200000  0.80400000  0.18840000  1.0 -0.0581505095
C  C16  1  0.80400000  0.90200000  0.68840000  1.0 -0.0581505095
C  C17  1  0.09800000  0.90200000  0.68840000  1.0 -0.0581505095
C  C18  1  0.09800000  0.19600000  0.68840000  1.0 -0.0581505095
C  C19  1  0.09800000  0.19600000  0.81160000  1.0 -0.0581505095
C  C20  1  0.09800000  0.90200000  0.81160000  1.0 -0.0581505095
C  C21  1  0.80400000  0.90200000  0.81160000  1.0 -0.0581505095
C  C22  1  0.90200000  0.80400000  0.31160000  1.0 -0.0581505095
C  C23  1  0.90200000  0.09800000  0.31160000  1.0 -0.0581505095
C  C24  1  0.19600000  0.09800000  0.31160000  1.0 -0.0581505095
C  C25  1  0.21490000  0.16940000  0.17554000  1.0 -0.082634785
C  C26  1  0.83060000  0.04550000  0.17554000  1.0 -0.082634785
C  C27  1  0.95450000  0.78510000  0.17554000  1.0 -0.082634785
C  C28  1  0.78510000  0.83060000  0.67554000  1.0 -0.082634785
C  C29  1  0.16940000  0.95450000  0.67554000  1.0 -0.082634785
C  C30  1  0.04550000  0.21490000  0.67554000  1.0 -0.082634785
C  C31  1  0.16940000  0.21490000  0.82446000  1.0 -0.082634785
C  C32  1  0.04550000  0.83060000  0.82446000  1.0 -0.082634785
C  C33  1  0.78510000  0.95450000  0.82446000  1.0 -0.082634785
C  C34  1  0.83060000  0.78510000  0.32446000  1.0 -0.082634785
C  C35  1  0.95450000  0.16940000  0.32446000  1.0 -0.082634785
C  C36  1  0.21490000  0.04550000  0.32446000  1.0 -0.082634785
C  C37  1  0.78510000  0.83060000  0.82446000  1.0 -0.082634785
C  C38  1  0.16940000  0.95450000  0.82446000  1.0 -0.082634785
C  C39  1  0.04550000  0.21490000  0.82446000  1.0 -0.082634785
C  C40  1  0.21490000  0.16940000  0.32446000  1.0 -0.082634785
C  C41  1  0.83060000  0.04550000  0.32446000  1.0 -0.082634785
C  C42  1  0.95450000  0.78510000  0.32446000  1.0 -0.082634785
C  C43  1  0.83060000  0.78510000  0.17554000  1.0 -0.082634785
C  C44  1  0.95450000  0.16940000  0.17554000  1.0 -0.082634785
C  C45  1  0.21490000  0.04550000  0.17554000  1.0 -0.082634785
C  C46  1  0.16940000  0.21490000  0.67554000  1.0 -0.082634785
C  C47  1  0.04550000  0.83060000  0.67554000  1.0 -0.082634785
C  C48  1  0.78510000  0.95450000  0.67554000  1.0 -0.082634785
C  C49  1  0.25180000  0.19020000  0.15099000  1.0 -0.1532841186
C  C50  1  0.80980000  0.06160000  0.15099000  1.0 -0.1532841186
C  C51  1  0.93840000  0.74820000  0.15099000  1.0 -0.1532841186
C  C52  1  0.74820000  0.80980000  0.65099000  1.0 -0.1532841186
C  C53  1  0.19020000  0.93840000  0.65099000  1.0 -0.1532841186
C  C54  1  0.06160000  0.25180000  0.65099000  1.0 -0.1532841186
C  C55  1  0.19020000  0.25180000  0.84901000  1.0 -0.1532841186
C  C56  1  0.06160000  0.80980000  0.84901000  1.0 -0.1532841186
C  C57  1  0.74820000  0.93840000  0.84901000  1.0 -0.1532841186
C  C58  1  0.80980000  0.74820000  0.34901000  1.0 -0.1532841186
C  C59  1  0.93840000  0.19020000  0.34901000  1.0 -0.1532841186
C  C60  1  0.25180000  0.06160000  0.34901000  1.0 -0.1532841186
C  C61  1  0.74820000  0.80980000  0.84901000  1.0 -0.1532841186
C  C62  1  0.19020000  0.93840000  0.84901000  1.0 -0.1532841186
C  C63  1  0.06160000  0.25180000  0.84901000  1.0 -0.1532841186
C  C64  1  0.25180000  0.19020000  0.34901000  1.0 -0.1532841186
C  C65  1  0.80980000  0.06160000  0.34901000  1.0 -0.1532841186
C  C66  1  0.93840000  0.74820000  0.34901000  1.0 -0.1532841186
C  C67  1  0.80980000  0.74820000  0.15099000  1.0 -0.1532841186
C  C68  1  0.93840000  0.19020000  0.15099000  1.0 -0.1532841186
C  C69  1  0.25180000  0.06160000  0.15099000  1.0 -0.1532841186
C  C70  1  0.19020000  0.25180000  0.65099000  1.0 -0.1532841186
C  C71  1  0.06160000  0.80980000  0.65099000  1.0 -0.1532841186
C  C72  1  0.74820000  0.93840000  0.65099000  1.0 -0.1532841186
C  C73  1  0.27330000  0.13665000  0.13940000  1.0 0.1374394658
C  C74  1  0.86335000  0.13665000  0.13940000  1.0 0.1374394658
C  C75  1  0.86335000  0.72670000  0.13940000  1.0 0.1315734723
C  C76  1  0.72670000  0.86335000  0.63940000  1.0 0.1315734723
C  C77  1  0.13665000  0.86335000  0.63940000  1.0 0.1315734723
C  C78  1  0.13665000  0.27330000  0.63940000  1.0 0.1374394658
C  C79  1  0.13665000  0.27330000  0.86060000  1.0 0.1374394658
C  C80  1  0.13665000  0.86335000  0.86060000  1.0 0.1315734723
C  C81  1  0.72670000  0.86335000  0.86060000  1.0 0.1315734723
C  C82  1  0.86335000  0.72670000  0.36060000  1.0 0.1315734723
C  C83  1  0.86335000  0.13665000  0.36060000  1.0 0.1315734723
C  C84  1  0.27330000  0.13665000  0.36060000  1.0 0.1374394658
C  C85  1  0.30910000  0.15455000  0.11390000  1.0 -0.0921692654
C  C86  1  0.84545000  0.15455000  0.11390000  1.0 -0.0921692654
C  C87  1  0.84545000  0.69090000  0.11390000  1.0 -0.0921692654
C  C88  1  0.69090000  0.84545000  0.61390000  1.0 -0.0921692654
C  C89  1  0.15455000  0.84545000  0.61390000  1.0 -0.0921692654
C  C90  1  0.15455000  0.30910000  0.61390000  1.0 -0.0921692654
C  C91  1  0.15455000  0.30910000  0.88610000  1.0 -0.0921692654
C  C92  1  0.15455000  0.84545000  0.88610000  1.0 -0.0921692654
C  C93  1  0.69090000  0.84545000  0.88610000  1.0 -0.0921692654
C  C94  1  0.84545000  0.69090000  0.38610000  1.0 -0.0921692654
C  C95  1  0.84545000  0.15455000  0.38610000  1.0 -0.0921692654
C  C96  1  0.30910000  0.15455000  0.38610000  1.0 -0.0921692654
C  C97  1  0.34010000  0.17005000  0.09390000  1.0 -0.082634785
C  C98  1  0.82995000  0.17005000  0.09390000  1.0 -0.082634785
C  C99  1  0.82995000  0.65990000  0.09390000  1.0 -0.082634785
C  C100  1  0.65990000  0.82995000  0.59390000  1.0 -0.082634785
C  C101  1  0.17005000  0.82995000  0.59390000  1.0 -0.082634785
C  C102  1  0.17005000  0.34010000  0.59390000  1.0 -0.082634785
C  C103  1  0.17005000  0.34010000  0.90610000  1.0 -0.082634785
C  C104  1  0.17005000  0.82995000  0.90610000  1.0 -0.082634785
C  C105  1  0.65990000  0.82995000  0.90610000  1.0 -0.082634785
C  C106  1  0.82995000  0.65990000  0.40610000  1.0 -0.082634785
C  C107  1  0.82995000  0.17005000  0.40610000  1.0 -0.082634785
C  C108  1  0.34010000  0.17005000  0.40610000  1.0 -0.082634785
C  C109  1  0.37770000  0.18885000  0.06831000  1.0 0.1121609449
C  C110  1  0.81115000  0.18885000  0.06831000  1.0 0.1121609449
C  C111  1  0.81115000  0.62230000  0.06831000  1.0 0.1121609449
C  C112  1  0.62230000  0.81115000  0.56831000  1.0 0.1121609449
C  C113  1  0.18885000  0.81115000  0.56831000  1.0 0.1121609449
C  C114  1  0.18885000  0.37770000  0.56831000  1.0 0.1121609449
C  C115  1  0.18885000  0.37770000  0.93169000  1.0 0.1121609449
C  C116  1  0.18885000  0.81115000  0.93169000  1.0 0.1121609449
C  C117  1  0.62230000  0.81115000  0.93169000  1.0 0.1121609449
C  C118  1  0.81115000  0.62230000  0.43169000  1.0 0.1121609449
C  C119  1  0.81115000  0.18885000  0.43169000  1.0 0.1121609449
C  C120  1  0.37770000  0.18885000  0.43169000  1.0 0.1121609449
C  C121  1  0.39650000  0.13530000  0.05595000  1.0 -0.1302606294
C  C122  1  0.86470000  0.26120000  0.05595000  1.0 -0.1302606294
C  C123  1  0.73880000  0.60350000  0.05595000  1.0 -0.1302606294
C  C124  1  0.60350000  0.86470000  0.55595000  1.0 -0.1302606294
C  C125  1  0.13530000  0.73880000  0.55595000  1.0 -0.1302606294
C  C126  1  0.26120000  0.39650000  0.55595000  1.0 -0.1302606294
C  C127  1  0.13530000  0.39650000  0.94405000  1.0 -0.1302606294
C  C128  1  0.26120000  0.86470000  0.94405000  1.0 -0.1302606294
C  C129  1  0.60350000  0.73880000  0.94405000  1.0 -0.1302606294
C  C130  1  0.86470000  0.60350000  0.44405000  1.0 -0.1302606294
C  C131  1  0.73880000  0.13530000  0.44405000  1.0 -0.1302606294
C  C132  1  0.39650000  0.26120000  0.44405000  1.0 -0.1302606294
C  C133  1  0.60350000  0.86470000  0.94405000  1.0 -0.1302606294
C  C134  1  0.13530000  0.73880000  0.94405000  1.0 -0.1302606294
C  C135  1  0.26120000  0.39650000  0.94405000  1.0 -0.1302606294
C  C136  1  0.39650000  0.13530000  0.44405000  1.0 -0.1302606294
C  C137  1  0.86470000  0.26120000  0.44405000  1.0 -0.1302606294
C  C138  1  0.73880000  0.60350000  0.44405000  1.0 -0.1302606294
C  C139  1  0.86470000  0.60350000  0.05595000  1.0 -0.1302606294
C  C140  1  0.73880000  0.13530000  0.05595000  1.0 -0.1302606294
C  C141  1  0.39650000  0.26120000  0.05595000  1.0 -0.1302606294
C  C142  1  0.13530000  0.39650000  0.55595000  1.0 -0.1302606294
C  C143  1  0.26120000  0.86470000  0.55595000  1.0 -0.1302606294
C  C144  1  0.60350000  0.73880000  0.55595000  1.0 -0.1302606294
C  C145  1  0.43180000  0.15200000  0.03168000  1.0 -0.0147990428
C  C146  1  0.84800000  0.27980000  0.03168000  1.0 -0.0147990428
C  C147  1  0.72020000  0.56820000  0.03168000  1.0 -0.0147990428
C  C148  1  0.56820000  0.84800000  0.53168000  1.0 -0.0147990428
C  C149  1  0.15200000  0.72020000  0.53168000  1.0 -0.0147990428
C  C150  1  0.27980000  0.43180000  0.53168000  1.0 -0.0147990428
C  C151  1  0.15200000  0.43180000  0.96832000  1.0 -0.0147990428
C  C152  1  0.27980000  0.84800000  0.96832000  1.0 -0.0147990428
C  C153  1  0.56820000  0.72020000  0.96832000  1.0 -0.0147990428
C  C154  1  0.84800000  0.56820000  0.46832000  1.0 -0.0147990428
C  C155  1  0.72020000  0.15200000  0.46832000  1.0 -0.0147990428
C  C156  1  0.43180000  0.27980000  0.46832000  1.0 -0.0147990428
C  C157  1  0.56820000  0.84800000  0.96832000  1.0 -0.0147990428
C  C158  1  0.15200000  0.72020000  0.96832000  1.0 -0.0147990428
C  C159  1  0.27980000  0.43180000  0.96832000  1.0 -0.0147990428
C  C160  1  0.43180000  0.15200000  0.46832000  1.0 -0.0147990428
C  C161  1  0.84800000  0.27980000  0.46832000  1.0 -0.0147990428
C  C162  1  0.72020000  0.56820000  0.46832000  1.0 -0.0147990428
C  C163  1  0.84800000  0.56820000  0.03168000  1.0 -0.0147990428
C  C164  1  0.72020000  0.15200000  0.03168000  1.0 -0.0147990428
C  C165  1  0.43180000  0.27980000  0.03168000  1.0 -0.0154997471
C  C166  1  0.15200000  0.43180000  0.53168000  1.0 -0.0147990428
C  C167  1  0.27980000  0.84800000  0.53168000  1.0 -0.0147990428
C  C168  1  0.56820000  0.72020000  0.53168000  1.0 -0.0147990428
C  C169  1  0.44810000  0.22405000  0.01956000  1.0 -0.082634785
C  C170  1  0.77595000  0.22405000  0.01956000  1.0 -0.082634785
C  C171  1  0.77595000  0.55190000  0.01956000  1.0 -0.082634785
C  C172  1  0.55190000  0.77595000  0.51956000  1.0 -0.082634785
C  C173  1  0.22405000  0.77595000  0.51956000  1.0 -0.082634785
C  C174  1  0.22405000  0.44810000  0.51956000  1.0 -0.082634785
C  C175  1  0.22405000  0.44810000  0.98044000  1.0 -0.082634785
C  C176  1  0.22405000  0.77595000  0.98044000  1.0 -0.082634785
C  C177  1  0.55190000  0.77595000  0.98044000  1.0 -0.082634785
C  C178  1  0.77595000  0.55190000  0.48044000  1.0 -0.082634785
C  C179  1  0.77595000  0.22405000  0.48044000  1.0 -0.082634785
C  C180  1  0.44810000  0.22405000  0.48044000  1.0 -0.082634785
C  C181  1  0.45440000  0.09310000  0.01864000  1.0 0.579549979
C  C182  1  0.90690000  0.36130000  0.01864000  1.0 0.579549979
C  C183  1  0.63870000  0.54560000  0.01864000  1.0 0.579549979
C  C184  1  0.54560000  0.90690000  0.51864000  1.0 0.579549979
C  C185  1  0.09310000  0.63870000  0.51864000  1.0 0.579549979
C  C186  1  0.36130000  0.45440000  0.51864000  1.0 0.579549979
C  C187  1  0.09310000  0.45440000  0.98136000  1.0 0.579549979
C  C188  1  0.36130000  0.90690000  0.98136000  1.0 0.579549979
C  C189  1  0.54560000  0.63870000  0.98136000  1.0 0.579549979
C  C190  1  0.90690000  0.54560000  0.48136000  1.0 0.579549979
C  C191  1  0.63870000  0.09310000  0.48136000  1.0 0.579549979
C  C192  1  0.45440000  0.36130000  0.48136000  1.0 0.579549979
C  C193  1  0.54560000  0.90690000  0.98136000  1.0 0.579549979
C  C194  1  0.09310000  0.63870000  0.98136000  1.0 0.579549979
C  C195  1  0.36130000  0.45440000  0.98136000  1.0 0.579549979
C  C196  1  0.45440000  0.09310000  0.48136000  1.0 0.579549979
C  C197  1  0.90690000  0.36130000  0.48136000  1.0 0.579549979
C  C198  1  0.63870000  0.54560000  0.48136000  1.0 0.579549979
C  C199  1  0.90690000  0.54560000  0.01864000  1.0 0.579549979
C  C200  1  0.63870000  0.09310000  0.01864000  1.0 0.579549979
C  C201  1  0.45440000  0.36130000  0.01864000  1.0 0.579549979
C  C202  1  0.09310000  0.45440000  0.51864000  1.0 0.579549979
C  C203  1  0.36130000  0.90690000  0.51864000  1.0 0.579549979
C  C204  1  0.54560000  0.63870000  0.51864000  1.0 0.579549979
O  O1  1  0.13770000  0.12700000  0.22288000  1.0 -0.5124745162
O  O2  1  0.87300000  0.01070000  0.22288000  1.0 -0.5124745162
O  O3  1  0.98930000  0.86230000  0.22288000  1.0 -0.5124745162
O  O4  1  0.86230000  0.87300000  0.72288000  1.0 -0.5124745162
O  O5  1  0.12700000  0.98930000  0.72288000  1.0 -0.5124745162
O  O6  1  0.01070000  0.13770000  0.72288000  1.0 -0.5124745162
O  O7  1  0.12700000  0.13770000  0.77712000  1.0 -0.5124745162
O  O8  1  0.01070000  0.87300000  0.77712000  1.0 -0.5124745162
O  O9  1  0.86230000  0.98930000  0.77712000  1.0 -0.5124745162
O  O10  1  0.87300000  0.86230000  0.27712000  1.0 -0.5124745162
O  O11  1  0.98930000  0.12700000  0.27712000  1.0 -0.5124745162
O  O12  1  0.13770000  0.01070000  0.27712000  1.0 -0.5124745162
O  O13  1  0.86230000  0.87300000  0.77712000  1.0 -0.5124745162
O  O14  1  0.12700000  0.98930000  0.77712000  1.0 -0.5124745162
O  O15  1  0.01070000  0.13770000  0.77712000  1.0 -0.5124745162
O  O16  1  0.13770000  0.12700000  0.27712000  1.0 -0.5124745162
O  O17  1  0.87300000  0.01070000  0.27712000  1.0 -0.5124745162
O  O18  1  0.98930000  0.86230000  0.27712000  1.0 -0.5124745162
O  O19  1  0.87300000  0.86230000  0.22288000  1.0 -0.5124745162
O  O20  1  0.98930000  0.12700000  0.22288000  1.0 -0.5124745162
O  O21  1  0.13770000  0.01070000  0.22288000  1.0 -0.5124745162
O  O22  1  0.12700000  0.13770000  0.72288000  1.0 -0.5124745162
O  O23  1  0.01070000  0.87300000  0.72288000  1.0 -0.5124745162
O  O24  1  0.86230000  0.98930000  0.72288000  1.0 -0.5124745162
O  O25  1  0.48320000  0.11140000  0.99668000  1.0 -0.4971245134
O  O26  1  0.88860000  0.37180000  0.99668000  1.0 -0.4971245134
O  O27  1  0.62820000  0.51680000  0.99668000  1.0 -0.4971245134
O  O28  1  0.51680000  0.88860000  0.49668000  1.0 -0.4971245134
O  O29  1  0.11140000  0.62820000  0.49668000  1.0 -0.4971245134
O  O30  1  0.37180000  0.48320000  0.49668000  1.0 -0.4971245134
O  O31  1  0.11140000  0.48320000  0.00332000  1.0 -0.4971245134
O  O32  1  0.37180000  0.88860000  0.00332000  1.0 -0.4971245134
O  O33  1  0.51680000  0.62820000  0.00332000  1.0 -0.4971245134
O  O34  1  0.88860000  0.51680000  0.50332000  1.0 -0.4971245134
O  O35  1  0.62820000  0.11140000  0.50332000  1.0 -0.4971245134
O  O36  1  0.48320000  0.37180000  0.50332000  1.0 -0.4971245134
O  O37  1  0.51680000  0.88860000  0.00332000  1.0 -0.4971245134
O  O38  1  0.11140000  0.62820000  0.00332000  1.0 -0.4971245134
O  O39  1  0.37180000  0.48320000  0.00332000  1.0 -0.4971245134
O  O40  1  0.48320000  0.11140000  0.50332000  1.0 -0.4971245134
O  O41  1  0.88860000  0.37180000  0.50332000  1.0 -0.4971245134
O  O42  1  0.62820000  0.51680000  0.50332000  1.0 -0.4971245134
O  O43  1  0.88860000  0.51680000  0.99668000  1.0 -0.4971245134
O  O44  1  0.62820000  0.11140000  0.99668000  1.0 -0.4971245134
O  O45  1  0.48320000  0.37180000  0.99668000  1.0 -0.4971245134
O  O46  1  0.11140000  0.48320000  0.49668000  1.0 -0.4971245134
O  O47  1  0.37180000  0.88860000  0.49668000  1.0 -0.4971245134
O  O48  1  0.51680000  0.62820000  0.49668000  1.0 -0.4971245134
O  O49  1  0.44290000  0.03250000  0.03258000  1.0 -0.5309430154
O  O50  1  0.96750000  0.41040000  0.03258000  1.0 -0.5309430154
O  O51  1  0.58960000  0.55710000  0.03258000  1.0 -0.5309430154
O  O52  1  0.55710000  0.96750000  0.53258000  1.0 -0.5309430154
O  O53  1  0.03250000  0.58960000  0.53258000  1.0 -0.5309430154
O  O54  1  0.41040000  0.44290000  0.53258000  1.0 -0.5309430154
O  O55  1  0.03250000  0.44290000  0.96742000  1.0 -0.5309430154
O  O56  1  0.41040000  0.96750000  0.96742000  1.0 -0.5309430154
O  O57  1  0.55710000  0.58960000  0.96742000  1.0 -0.5309430154
O  O58  1  0.96750000  0.55710000  0.46742000  1.0 -0.5309430154
O  O59  1  0.58960000  0.03250000  0.46742000  1.0 -0.5309430154
O  O60  1  0.44290000  0.41040000  0.46742000  1.0 -0.5309430154
O  O61  1  0.55710000  0.96750000  0.96742000  1.0 -0.5309430154
O  O62  1  0.03250000  0.58960000  0.96742000  1.0 -0.5309430154
O  O63  1  0.41040000  0.44290000  0.96742000  1.0 -0.5309430154
O  O64  1  0.44290000  0.03250000  0.46742000  1.0 -0.5309430154
O  O65  1  0.96750000  0.41040000  0.46742000  1.0 -0.5309430154
O  O66  1  0.58960000  0.55710000  0.46742000  1.0 -0.5309430154
O  O67  1  0.96750000  0.55710000  0.03258000  1.0 -0.5309430154
O  O68  1  0.58960000  0.03250000  0.03258000  1.0 -0.5309430154
O  O69  1  0.44290000  0.41040000  0.03258000  1.0 -0.5309430154
O  O70  1  0.03250000  0.44290000  0.53258000  1.0 -0.5309430154
O  O71  1  0.41040000  0.96750000  0.53258000  1.0 -0.5309430154
O  O72  1  0.55710000  0.58960000  0.53258000  1.0 -0.5309430154
