# DDEC6 charges by PACMAN v1.1 (https://github.com/mtap-research/PACMAN-charge/)
data_OGEBAF_FSR_pacman
_symmetry_space_group_name_H-M   'P 1'
_cell_length_a   18.96100000
_cell_length_b   18.96100000
_cell_length_c   50.90100000
_cell_angle_alpha   90.00000000
_cell_angle_beta   90.00000000
_cell_angle_gamma   120.00000000
_symmetry_Int_Tables_number   1
_chemical_formula_structural   Cu3H14(C17O7)2
_chemical_formula_sum   'Cu18 H84 C204 O84'
_cell_volume   15848.18100467
_cell_formula_units_Z   6
loop_
 _symmetry_equiv_pos_site_id
 _symmetry_equiv_pos_as_xyz
  1  'x, y, z'
loop_
 _atom_site_type_symbol
 _atom_site_label
 _atom_site_symmetry_multiplicity
 _atom_site_fract_x
 _atom_site_fract_y
 _atom_site_fract_z
 _atom_site_occupancy
 _atom_site_charge
Cu  Cu1  1  0.06030000  0.12060000  0.25000000  1.0 0.5899600436
Cu  Cu2  1  0.93970000  0.06030000  0.75000000  1.0 0.5899600436
Cu  Cu3  1  0.87940000  0.93970000  0.25000000  1.0 0.5899600436
Cu  Cu4  1  0.93970000  0.87940000  0.75000000  1.0 0.5899600436
Cu  Cu5  1  0.06030000  0.93970000  0.25000000  1.0 0.5899600436
Cu  Cu6  1  0.12060000  0.06030000  0.75000000  1.0 0.5899600436
Cu  Cu7  1  0.52214000  0.04429000  0.97810000  1.0 0.9277040412
Cu  Cu8  1  0.47785000  0.52214000  0.47810000  1.0 0.9277040412
Cu  Cu9  1  0.95571000  0.47785000  0.97810000  1.0 0.9277040412
Cu  Cu10  1  0.47785000  0.95571000  0.47810000  1.0 0.9277040412
Cu  Cu11  1  0.52214000  0.47785000  0.97810000  1.0 0.9277040412
Cu  Cu12  1  0.04429000  0.52214000  0.47810000  1.0 0.9277040412
Cu  Cu13  1  0.95571000  0.47785000  0.52190000  1.0 0.9277040412
Cu  Cu14  1  0.47785000  0.95571000  0.02190000  1.0 0.9277040412
Cu  Cu15  1  0.52214000  0.47785000  0.52190000  1.0 0.9277040412
Cu  Cu16  1  0.04429000  0.52214000  0.02190000  1.0 0.9277040412
Cu  Cu17  1  0.52214000  0.04429000  0.52190000  1.0 0.9277040412
Cu  Cu18  1  0.47785000  0.52214000  0.02190000  1.0 0.9277040412
H  H1  1  0.19770000  0.99590000  0.18380000  1.0 0.1416435173
H  H2  1  0.20180000  0.19770000  0.68380000  1.0 0.1416435173
H  H3  1  0.00410000  0.20180000  0.18380000  1.0 0.1416435173
H  H4  1  0.80230000  0.00410000  0.68380000  1.0 0.1416435173
H  H5  1  0.79820000  0.80230000  0.18380000  1.0 0.1416435173
H  H6  1  0.99590000  0.79820000  0.68380000  1.0 0.1416435173
H  H7  1  0.00410000  0.80230000  0.31620000  1.0 0.1416435173
H  H8  1  0.20180000  0.00410000  0.81620000  1.0 0.1416435173
H  H9  1  0.19770000  0.20180000  0.31620000  1.0 0.1416435173
H  H10  1  0.99590000  0.19770000  0.81620000  1.0 0.1416435173
H  H11  1  0.79820000  0.99590000  0.31620000  1.0 0.1416435173
H  H12  1  0.80230000  0.79820000  0.81620000  1.0 0.1416435173
H  H13  1  0.80230000  0.00410000  0.81620000  1.0 0.1416435173
H  H14  1  0.79820000  0.80230000  0.31620000  1.0 0.1416435173
H  H15  1  0.99590000  0.79820000  0.81620000  1.0 0.1416435173
H  H16  1  0.19770000  0.99590000  0.31620000  1.0 0.1416435173
H  H17  1  0.20180000  0.19770000  0.81620000  1.0 0.1416435173
H  H18  1  0.00410000  0.20180000  0.31620000  1.0 0.1416435173
H  H19  1  0.99590000  0.19770000  0.68380000  1.0 0.1416435173
H  H20  1  0.79820000  0.99590000  0.18380000  1.0 0.1416435173
H  H21  1  0.80230000  0.79820000  0.68380000  1.0 0.1416435173
H  H22  1  0.00410000  0.80230000  0.18380000  1.0 0.1416435173
H  H23  1  0.20180000  0.00410000  0.68380000  1.0 0.1416435173
H  H24  1  0.19770000  0.20180000  0.18380000  1.0 0.1416435173
H  H25  1  0.26120000  0.02520000  0.14370000  1.0 0.1320188033
H  H26  1  0.23600000  0.26120000  0.64370000  1.0 0.1320188033
H  H27  1  0.97480000  0.23600000  0.14370000  1.0 0.1320188033
H  H28  1  0.73880000  0.97480000  0.64370000  1.0 0.1320188033
H  H29  1  0.76400000  0.73880000  0.14370000  1.0 0.1320188033
H  H30  1  0.02520000  0.76400000  0.64370000  1.0 0.1320188033
H  H31  1  0.97480000  0.73880000  0.35630000  1.0 0.1320188033
H  H32  1  0.23600000  0.97480000  0.85630000  1.0 0.1320188033
H  H33  1  0.26120000  0.23600000  0.35630000  1.0 0.1320188033
H  H34  1  0.02520000  0.26120000  0.85630000  1.0 0.1320188033
H  H35  1  0.76400000  0.02520000  0.35630000  1.0 0.1320188033
H  H36  1  0.73880000  0.76400000  0.85630000  1.0 0.1320188033
H  H37  1  0.73880000  0.97480000  0.85630000  1.0 0.1320188033
H  H38  1  0.76400000  0.73880000  0.35630000  1.0 0.1320188033
H  H39  1  0.02520000  0.76400000  0.85630000  1.0 0.1320188033
H  H40  1  0.26120000  0.02520000  0.35630000  1.0 0.1320188033
H  H41  1  0.23600000  0.26120000  0.85630000  1.0 0.1320188033
H  H42  1  0.97480000  0.23600000  0.35630000  1.0 0.1320188033
H  H43  1  0.02520000  0.26120000  0.64370000  1.0 0.1320188033
H  H44  1  0.76400000  0.02520000  0.14370000  1.0 0.1320188033
H  H45  1  0.73880000  0.76400000  0.64370000  1.0 0.1320188033
H  H46  1  0.97480000  0.73880000  0.14370000  1.0 0.1320188033
H  H47  1  0.23600000  0.97480000  0.64370000  1.0 0.1320188033
H  H48  1  0.26120000  0.23600000  0.14370000  1.0 0.1320188033
H  H49  1  0.38570000  0.08650000  0.06410000  1.0 0.1416435173
H  H50  1  0.29920000  0.38570000  0.56410000  1.0 0.1416435173
H  H51  1  0.91350000  0.29920000  0.06410000  1.0 0.1416435173
H  H52  1  0.61430000  0.91350000  0.56410000  1.0 0.1416435173
H  H53  1  0.70080000  0.61430000  0.06410000  1.0 0.1416435173
H  H54  1  0.08650000  0.70080000  0.56410000  1.0 0.1416435173
H  H55  1  0.91350000  0.61430000  0.43590000  1.0 0.1416435173
H  H56  1  0.29920000  0.91350000  0.93590000  1.0 0.1416435173
H  H57  1  0.38570000  0.29920000  0.43590000  1.0 0.1416435173
H  H58  1  0.08650000  0.38570000  0.93590000  1.0 0.1416435173
H  H59  1  0.70080000  0.08650000  0.43590000  1.0 0.1416435173
H  H60  1  0.61430000  0.70080000  0.93590000  1.0 0.1416435173
H  H61  1  0.61430000  0.91350000  0.93590000  1.0 0.1416435173
H  H62  1  0.70080000  0.61430000  0.43590000  1.0 0.1416435173
H  H63  1  0.08650000  0.70080000  0.93590000  1.0 0.1416435173
H  H64  1  0.38570000  0.08650000  0.43590000  1.0 0.1416435173
H  H65  1  0.29920000  0.38570000  0.93590000  1.0 0.1416435173
H  H66  1  0.91350000  0.29920000  0.43590000  1.0 0.1416435173
H  H67  1  0.08650000  0.38570000  0.56410000  1.0 0.1416435173
H  H68  1  0.70080000  0.08650000  0.06410000  1.0 0.1416435173
H  H69  1  0.61430000  0.70080000  0.56410000  1.0 0.1416435173
H  H70  1  0.91350000  0.61430000  0.06410000  1.0 0.1416435173
H  H71  1  0.29920000  0.91350000  0.56410000  1.0 0.1416435173
H  H72  1  0.38570000  0.29920000  0.06410000  1.0 0.1416435173
H  H73  1  0.47200000  0.23600000  0.00160000  1.0 0.1459226074
H  H74  1  0.23600000  0.47200000  0.50160000  1.0 0.1459226074
H  H75  1  0.76400000  0.23600000  0.00160000  1.0 0.1459226074
H  H76  1  0.52800000  0.76400000  0.50160000  1.0 0.1459226074
H  H77  1  0.76400000  0.52800000  0.00160000  1.0 0.1459226074
H  H78  1  0.23600000  0.76400000  0.50160000  1.0 0.1459226074
H  H79  1  0.76400000  0.52800000  0.49840000  1.0 0.1459226074
H  H80  1  0.23600000  0.76400000  0.99840000  1.0 0.1459226074
H  H81  1  0.47200000  0.23600000  0.49840000  1.0 0.1459226074
H  H82  1  0.23600000  0.47200000  0.99840000  1.0 0.1459226074
H  H83  1  0.76400000  0.23600000  0.49840000  1.0 0.1459226074
H  H84  1  0.52800000  0.76400000  0.99840000  1.0 0.1459226074
C  C1  1  0.13020000  0.06510000  0.21470000  1.0 0.5009447137
C  C2  1  0.06510000  0.13020000  0.71470000  1.0 0.5009447137
C  C3  1  0.93490000  0.06510000  0.21470000  1.0 0.5009447137
C  C4  1  0.86980000  0.93490000  0.71470000  1.0 0.5009447137
C  C5  1  0.93490000  0.86980000  0.21470000  1.0 0.5009447137
C  C6  1  0.06510000  0.93490000  0.71470000  1.0 0.5009447137
C  C7  1  0.93490000  0.86980000  0.28530000  1.0 0.5009447137
C  C8  1  0.06510000  0.93490000  0.78530000  1.0 0.5009447137
C  C9  1  0.13020000  0.06510000  0.28530000  1.0 0.5009447137
C  C10  1  0.06510000  0.13020000  0.78530000  1.0 0.5009447137
C  C11  1  0.93490000  0.06510000  0.28530000  1.0 0.5009447137
C  C12  1  0.86980000  0.93490000  0.78530000  1.0 0.5009447137
C  C13  1  0.19260000  0.09630000  0.18790000  1.0 -0.0368262566
C  C14  1  0.09630000  0.19260000  0.68790000  1.0 -0.0368262566
C  C15  1  0.90370000  0.09630000  0.18790000  1.0 -0.0368262566
C  C16  1  0.80740000  0.90370000  0.68790000  1.0 -0.0368262566
C  C17  1  0.90370000  0.80740000  0.18790000  1.0 -0.0368262566
C  C18  1  0.09630000  0.90370000  0.68790000  1.0 -0.0368262566
C  C19  1  0.90370000  0.80740000  0.31210000  1.0 -0.0368262566
C  C20  1  0.09630000  0.90370000  0.81210000  1.0 -0.0368262566
C  C21  1  0.19260000  0.09630000  0.31210000  1.0 -0.0368262566
C  C22  1  0.09630000  0.19260000  0.81210000  1.0 -0.0368262566
C  C23  1  0.90370000  0.09630000  0.31210000  1.0 -0.0368262566
C  C24  1  0.80740000  0.90370000  0.81210000  1.0 -0.0368262566
C  C25  1  0.21130000  0.04510000  0.17570000  1.0 -0.0915126125
C  C26  1  0.16620000  0.21130000  0.67570000  1.0 -0.0915126125
C  C27  1  0.95490000  0.16620000  0.17570000  1.0 -0.0915126125
C  C28  1  0.78870000  0.95490000  0.67570000  1.0 -0.0915126125
C  C29  1  0.83380000  0.78870000  0.17570000  1.0 -0.0915126125
C  C30  1  0.04510000  0.83380000  0.67570000  1.0 -0.0915126125
C  C31  1  0.95490000  0.78870000  0.32430000  1.0 -0.0915126125
C  C32  1  0.16620000  0.95490000  0.82430000  1.0 -0.0915126125
C  C33  1  0.21130000  0.16620000  0.32430000  1.0 -0.0915126125
C  C34  1  0.04510000  0.21130000  0.82430000  1.0 -0.0915126125
C  C35  1  0.83380000  0.04510000  0.32430000  1.0 -0.0915126125
C  C36  1  0.78870000  0.83380000  0.82430000  1.0 -0.0915126125
C  C37  1  0.78870000  0.95490000  0.82430000  1.0 -0.0915126125
C  C38  1  0.83380000  0.78870000  0.32430000  1.0 -0.0915126125
C  C39  1  0.04510000  0.83380000  0.82430000  1.0 -0.0915126125
C  C40  1  0.21130000  0.04510000  0.32430000  1.0 -0.0915126125
C  C41  1  0.16620000  0.21130000  0.82430000  1.0 -0.0915126125
C  C42  1  0.95490000  0.16620000  0.32430000  1.0 -0.0915126125
C  C43  1  0.04510000  0.21130000  0.67570000  1.0 -0.0915126125
C  C44  1  0.83380000  0.04510000  0.17570000  1.0 -0.0915126125
C  C45  1  0.78870000  0.83380000  0.67570000  1.0 -0.0915126125
C  C46  1  0.95490000  0.78870000  0.17570000  1.0 -0.0915126125
C  C47  1  0.16620000  0.95490000  0.67570000  1.0 -0.0915126125
C  C48  1  0.21130000  0.16620000  0.17570000  1.0 -0.0915126125
C  C49  1  0.24960000  0.06220000  0.15180000  1.0 -0.1438142707
C  C50  1  0.18740000  0.24960000  0.65180000  1.0 -0.1438142707
C  C51  1  0.93780000  0.18740000  0.15180000  1.0 -0.1438142707
C  C52  1  0.75040000  0.93780000  0.65180000  1.0 -0.1438142707
C  C53  1  0.81260000  0.75040000  0.15180000  1.0 -0.1438142707
C  C54  1  0.06220000  0.81260000  0.65180000  1.0 -0.1438142707
C  C55  1  0.93780000  0.75040000  0.34820000  1.0 -0.1438142707
C  C56  1  0.18740000  0.93780000  0.84820000  1.0 -0.1438142707
C  C57  1  0.24960000  0.18740000  0.34820000  1.0 -0.1438142707
C  C58  1  0.06220000  0.24960000  0.84820000  1.0 -0.1438142707
C  C59  1  0.81260000  0.06220000  0.34820000  1.0 -0.1438142707
C  C60  1  0.75040000  0.81260000  0.84820000  1.0 -0.1438142707
C  C61  1  0.75040000  0.93780000  0.84820000  1.0 -0.1438142707
C  C62  1  0.81260000  0.75040000  0.34820000  1.0 -0.1438142707
C  C63  1  0.06220000  0.81260000  0.84820000  1.0 -0.1438142707
C  C64  1  0.24960000  0.06220000  0.34820000  1.0 -0.1438142707
C  C65  1  0.18740000  0.24960000  0.84820000  1.0 -0.1438142707
C  C66  1  0.93780000  0.18740000  0.34820000  1.0 -0.1438142707
C  C67  1  0.06220000  0.24960000  0.65180000  1.0 -0.1438142707
C  C68  1  0.81260000  0.06220000  0.15180000  1.0 -0.1438142707
C  C69  1  0.75040000  0.81260000  0.65180000  1.0 -0.1438142707
C  C70  1  0.93780000  0.75040000  0.15180000  1.0 -0.1438142707
C  C71  1  0.18740000  0.93780000  0.65180000  1.0 -0.1438142707
C  C72  1  0.24960000  0.18740000  0.15180000  1.0 -0.1438142707
C  C73  1  0.27030000  0.13515000  0.14010000  1.0 0.1320188033
C  C74  1  0.13515000  0.27030000  0.64010000  1.0 0.1320188033
C  C75  1  0.86485000  0.13515000  0.14010000  1.0 0.1320188033
C  C76  1  0.72970000  0.86485000  0.64010000  1.0 0.1320188033
C  C77  1  0.86485000  0.72970000  0.14010000  1.0 0.1320188033
C  C78  1  0.13515000  0.86485000  0.64010000  1.0 0.1320188033
C  C79  1  0.86485000  0.72970000  0.35990000  1.0 0.1320188033
C  C80  1  0.13515000  0.86485000  0.85990000  1.0 0.1320188033
C  C81  1  0.27030000  0.13515000  0.35990000  1.0 0.1320188033
C  C82  1  0.13515000  0.27030000  0.85990000  1.0 0.1320188033
C  C83  1  0.86485000  0.13515000  0.35990000  1.0 0.1320188033
C  C84  1  0.72970000  0.86485000  0.85990000  1.0 0.1320188033
C  C85  1  0.31090000  0.15545000  0.11400000  1.0 -0.0915126125
C  C86  1  0.15545000  0.31090000  0.61400000  1.0 -0.0915126125
C  C87  1  0.84455000  0.15545000  0.11400000  1.0 -0.0915126125
C  C88  1  0.68910000  0.84455000  0.61400000  1.0 -0.0953607386
C  C89  1  0.84455000  0.68910000  0.11400000  1.0 -0.0915126125
C  C90  1  0.15545000  0.84455000  0.61400000  1.0 -0.0915126125
C  C91  1  0.84455000  0.68910000  0.38600000  1.0 -0.0915126125
C  C92  1  0.15545000  0.84455000  0.88600000  1.0 -0.0915126125
C  C93  1  0.31090000  0.15545000  0.38600000  1.0 -0.0915126125
C  C94  1  0.15545000  0.31090000  0.88600000  1.0 -0.0915126125
C  C95  1  0.84455000  0.15545000  0.38600000  1.0 -0.0915126125
C  C96  1  0.68910000  0.84455000  0.88600000  1.0 -0.0953607386
C  C97  1  0.34150000  0.17075000  0.09370000  1.0 -0.0915126125
C  C98  1  0.17075000  0.34150000  0.59370000  1.0 -0.0915126125
C  C99  1  0.82925000  0.17075000  0.09370000  1.0 -0.0915126125
C  C100  1  0.65850000  0.82925000  0.59370000  1.0 -0.0915126125
C  C101  1  0.82925000  0.65850000  0.09370000  1.0 -0.0915126125
C  C102  1  0.17075000  0.82925000  0.59370000  1.0 -0.0915126125
C  C103  1  0.82925000  0.65850000  0.40630000  1.0 -0.0915126125
C  C104  1  0.17075000  0.82925000  0.90630000  1.0 -0.0915126125
C  C105  1  0.34150000  0.17075000  0.40630000  1.0 -0.0953607386
C  C106  1  0.17075000  0.34150000  0.90630000  1.0 -0.0915126125
C  C107  1  0.82925000  0.17075000  0.40630000  1.0 -0.0915126125
C  C108  1  0.65850000  0.82925000  0.90630000  1.0 -0.0915126125
C  C109  1  0.37680000  0.18840000  0.06780000  1.0 0.1102127408
C  C110  1  0.18840000  0.37680000  0.56780000  1.0 0.1102127408
C  C111  1  0.81160000  0.18840000  0.06780000  1.0 0.1102127408
C  C112  1  0.62320000  0.81160000  0.56780000  1.0 0.1102127408
C  C113  1  0.81160000  0.62320000  0.06780000  1.0 0.1102127408
C  C114  1  0.18840000  0.81160000  0.56780000  1.0 0.1102127408
C  C115  1  0.81160000  0.62320000  0.43220000  1.0 0.1102127408
C  C116  1  0.18840000  0.81160000  0.93220000  1.0 0.1102127408
C  C117  1  0.37680000  0.18840000  0.43220000  1.0 0.1102127408
C  C118  1  0.18840000  0.37680000  0.93220000  1.0 0.1102127408
C  C119  1  0.81160000  0.18840000  0.43220000  1.0 0.1102127408
C  C120  1  0.62320000  0.81160000  0.93220000  1.0 0.1102127408
C  C121  1  0.39620000  0.13420000  0.05557000  1.0 -0.1165034395
C  C122  1  0.26200000  0.39620000  0.55557000  1.0 -0.1143811987
C  C123  1  0.86580000  0.26200000  0.05557000  1.0 -0.1165034395
C  C124  1  0.60380000  0.86580000  0.55557000  1.0 -0.1143811987
C  C125  1  0.73800000  0.60380000  0.05557000  1.0 -0.1165034395
C  C126  1  0.13420000  0.73800000  0.55557000  1.0 -0.1143811987
C  C127  1  0.86580000  0.60380000  0.44443000  1.0 -0.1143811987
C  C128  1  0.26200000  0.86580000  0.94443000  1.0 -0.1143811987
C  C129  1  0.39620000  0.26200000  0.44443000  1.0 -0.1143811987
C  C130  1  0.13420000  0.39620000  0.94443000  1.0 -0.1143811987
C  C131  1  0.73800000  0.13420000  0.44443000  1.0 -0.1143811987
C  C132  1  0.60380000  0.73800000  0.94443000  1.0 -0.1143811987
C  C133  1  0.60380000  0.86580000  0.94443000  1.0 -0.1143811987
C  C134  1  0.73800000  0.60380000  0.44443000  1.0 -0.1143811987
C  C135  1  0.13420000  0.73800000  0.94443000  1.0 -0.1143811987
C  C136  1  0.39620000  0.13420000  0.44443000  1.0 -0.1143811987
C  C137  1  0.26200000  0.39620000  0.94443000  1.0 -0.1143811987
C  C138  1  0.86580000  0.26200000  0.44443000  1.0 -0.1143811987
C  C139  1  0.13420000  0.39620000  0.55557000  1.0 -0.1143811987
C  C140  1  0.73800000  0.13420000  0.05557000  1.0 -0.1165034395
C  C141  1  0.60380000  0.73800000  0.55557000  1.0 -0.1165034395
C  C142  1  0.86580000  0.60380000  0.05557000  1.0 -0.1165034395
C  C143  1  0.26200000  0.86580000  0.55557000  1.0 -0.1143811987
C  C144  1  0.39620000  0.26200000  0.05557000  1.0 -0.1165034395
C  C145  1  0.43160000  0.15200000  0.03032000  1.0 -0.0368262566
C  C146  1  0.27960000  0.43160000  0.53032000  1.0 -0.0368262566
C  C147  1  0.84800000  0.27960000  0.03032000  1.0 -0.0368262566
C  C148  1  0.56840000  0.84800000  0.53032000  1.0 -0.0340290567
C  C149  1  0.72040000  0.56840000  0.03032000  1.0 -0.0340290567
C  C150  1  0.15200000  0.72040000  0.53032000  1.0 -0.0368262566
C  C151  1  0.84800000  0.56840000  0.46968000  1.0 -0.0340290567
C  C152  1  0.27960000  0.84800000  0.96968000  1.0 -0.0368262566
C  C153  1  0.43160000  0.27960000  0.46968000  1.0 -0.0340290567
C  C154  1  0.15200000  0.43160000  0.96968000  1.0 -0.0368262566
C  C155  1  0.72040000  0.15200000  0.46968000  1.0 -0.0368262566
C  C156  1  0.56840000  0.72040000  0.96968000  1.0 -0.0340290567
C  C157  1  0.56840000  0.84800000  0.96968000  1.0 -0.0368262566
C  C158  1  0.72040000  0.56840000  0.46968000  1.0 -0.0340290567
C  C159  1  0.15200000  0.72040000  0.96968000  1.0 -0.0368262566
C  C160  1  0.43160000  0.15200000  0.46968000  1.0 -0.0368262566
C  C161  1  0.27960000  0.43160000  0.96968000  1.0 -0.0368262566
C  C162  1  0.84800000  0.27960000  0.46968000  1.0 -0.0368262566
C  C163  1  0.15200000  0.43160000  0.53032000  1.0 -0.0368262566
C  C164  1  0.72040000  0.15200000  0.03032000  1.0 -0.0368262566
C  C165  1  0.56840000  0.72040000  0.53032000  1.0 -0.0368262566
C  C166  1  0.84800000  0.56840000  0.03032000  1.0 -0.0340290567
C  C167  1  0.27960000  0.84800000  0.53032000  1.0 -0.0368262566
C  C168  1  0.43160000  0.27960000  0.03032000  1.0 -0.0340290567
C  C169  1  0.44860000  0.22430000  0.01830000  1.0 -0.0665578351
C  C170  1  0.22430000  0.44860000  0.51830000  1.0 -0.0665578351
C  C171  1  0.77570000  0.22430000  0.01830000  1.0 -0.0649479603
C  C172  1  0.55140000  0.77570000  0.51830000  1.0 -0.0665578351
C  C173  1  0.77570000  0.55140000  0.01830000  1.0 -0.0665578351
C  C174  1  0.22430000  0.77570000  0.51830000  1.0 -0.0665578351
C  C175  1  0.77570000  0.55140000  0.48170000  1.0 -0.0665578351
C  C176  1  0.22430000  0.77570000  0.98170000  1.0 -0.0665578351
C  C177  1  0.44860000  0.22430000  0.48170000  1.0 -0.0665578351
C  C178  1  0.22430000  0.44860000  0.98170000  1.0 -0.0665578351
C  C179  1  0.77570000  0.22430000  0.48170000  1.0 -0.0665578351
C  C180  1  0.55140000  0.77570000  0.98170000  1.0 -0.0665578351
C  C181  1  0.45470000  0.09460000  0.01860000  1.0 0.5739973192
C  C182  1  0.36010000  0.45470000  0.51860000  1.0 0.5739973192
C  C183  1  0.90540000  0.36010000  0.01860000  1.0 0.5739973192
C  C184  1  0.54530000  0.90540000  0.51860000  1.0 0.5739973192
C  C185  1  0.63990000  0.54530000  0.01860000  1.0 0.5739973192
C  C186  1  0.09460000  0.63990000  0.51860000  1.0 0.5756354878
C  C187  1  0.90540000  0.54530000  0.48140000  1.0 0.5739973192
C  C188  1  0.36010000  0.90540000  0.98140000  1.0 0.5739973192
C  C189  1  0.45470000  0.36010000  0.48140000  1.0 0.5739973192
C  C190  1  0.09460000  0.45470000  0.98140000  1.0 0.5739973192
C  C191  1  0.63990000  0.09460000  0.48140000  1.0 0.5739973192
C  C192  1  0.54530000  0.63990000  0.98140000  1.0 0.5739973192
C  C193  1  0.54530000  0.90540000  0.98140000  1.0 0.5739973192
C  C194  1  0.63990000  0.54530000  0.48140000  1.0 0.5739973192
C  C195  1  0.09460000  0.63990000  0.98140000  1.0 0.5739973192
C  C196  1  0.45470000  0.09460000  0.48140000  1.0 0.5756354878
C  C197  1  0.36010000  0.45470000  0.98140000  1.0 0.5739973192
C  C198  1  0.90540000  0.36010000  0.48140000  1.0 0.5739973192
C  C199  1  0.09460000  0.45470000  0.51860000  1.0 0.5739973192
C  C200  1  0.63990000  0.09460000  0.01860000  1.0 0.5739973192
C  C201  1  0.54530000  0.63990000  0.51860000  1.0 0.5739973192
C  C202  1  0.90540000  0.54530000  0.01860000  1.0 0.5739973192
C  C203  1  0.36010000  0.90540000  0.51860000  1.0 0.5739973192
C  C204  1  0.45470000  0.36010000  0.01860000  1.0 0.5739973192
O  O1  1  0.13230000  0.12000000  0.22300000  1.0 -0.3422082287
O  O2  1  0.01230000  0.13230000  0.72300000  1.0 -0.3462981158
O  O3  1  0.88000000  0.01230000  0.22300000  1.0 -0.3422082287
O  O4  1  0.86770000  0.88000000  0.72300000  1.0 -0.3462981158
O  O5  1  0.98770000  0.86770000  0.22300000  1.0 -0.3462981158
O  O6  1  0.12000000  0.98770000  0.72300000  1.0 -0.3462981158
O  O7  1  0.88000000  0.86770000  0.27700000  1.0 -0.3462981158
O  O8  1  0.01230000  0.88000000  0.77700000  1.0 -0.3422082287
O  O9  1  0.13230000  0.01230000  0.27700000  1.0 -0.3462981158
O  O10  1  0.12000000  0.13230000  0.77700000  1.0 -0.3422082287
O  O11  1  0.98770000  0.12000000  0.27700000  1.0 -0.3462981158
O  O12  1  0.86770000  0.98770000  0.77700000  1.0 -0.3462981158
O  O13  1  0.86770000  0.88000000  0.77700000  1.0 -0.3422082287
O  O14  1  0.98770000  0.86770000  0.27700000  1.0 -0.3462981158
O  O15  1  0.12000000  0.98770000  0.77700000  1.0 -0.3462981158
O  O16  1  0.13230000  0.12000000  0.27700000  1.0 -0.3462981158
O  O17  1  0.01230000  0.13230000  0.77700000  1.0 -0.3422082287
O  O18  1  0.88000000  0.01230000  0.27700000  1.0 -0.3462981158
O  O19  1  0.12000000  0.13230000  0.72300000  1.0 -0.3462981158
O  O20  1  0.98770000  0.12000000  0.22300000  1.0 -0.3462981158
O  O21  1  0.86770000  0.98770000  0.72300000  1.0 -0.3462981158
O  O22  1  0.88000000  0.86770000  0.22300000  1.0 -0.3462981158
O  O23  1  0.01230000  0.88000000  0.72300000  1.0 -0.3462981158
O  O24  1  0.13230000  0.01230000  0.22300000  1.0 -0.3422082287
O  O25  1  0.48350000  0.11130000  0.99531000  1.0 -0.5112424146
O  O26  1  0.37220000  0.48350000  0.49531000  1.0 -0.5112424146
O  O27  1  0.88870000  0.37220000  0.99531000  1.0 -0.5112424146
O  O28  1  0.51650000  0.88870000  0.49531000  1.0 -0.5112424146
O  O29  1  0.62780000  0.51650000  0.99531000  1.0 -0.5112424146
O  O30  1  0.11130000  0.62780000  0.49531000  1.0 -0.5112424146
O  O31  1  0.88870000  0.51650000  0.50469000  1.0 -0.5112424146
O  O32  1  0.37220000  0.88870000  0.00469000  1.0 -0.5112424146
O  O33  1  0.48350000  0.37220000  0.50469000  1.0 -0.5112424146
O  O34  1  0.11130000  0.48350000  0.00469000  1.0 -0.5112424146
O  O35  1  0.62780000  0.11130000  0.50469000  1.0 -0.5112424146
O  O36  1  0.51650000  0.62780000  0.00469000  1.0 -0.5112424146
O  O37  1  0.51650000  0.88870000  0.00469000  1.0 -0.5112424146
O  O38  1  0.62780000  0.51650000  0.50469000  1.0 -0.5112424146
O  O39  1  0.11130000  0.62780000  0.00469000  1.0 -0.5112424146
O  O40  1  0.48350000  0.11130000  0.50469000  1.0 -0.5112424146
O  O41  1  0.37220000  0.48350000  0.00469000  1.0 -0.5112424146
O  O42  1  0.88870000  0.37220000  0.50469000  1.0 -0.5112424146
O  O43  1  0.11130000  0.48350000  0.49531000  1.0 -0.5112424146
O  O44  1  0.62780000  0.11130000  0.99531000  1.0 -0.5112424146
O  O45  1  0.51650000  0.62780000  0.49531000  1.0 -0.5112424146
O  O46  1  0.88870000  0.51650000  0.99531000  1.0 -0.5112424146
O  O47  1  0.37220000  0.88870000  0.49531000  1.0 -0.5112424146
O  O48  1  0.48350000  0.37220000  0.99531000  1.0 -0.5112424146
O  O49  1  0.44470000  0.03530000  0.03185000  1.0 -0.4991685127
O  O50  1  0.40940000  0.44470000  0.53185000  1.0 -0.4991685127
O  O51  1  0.96470000  0.40940000  0.03185000  1.0 -0.4991685127
O  O52  1  0.55530000  0.96470000  0.53185000  1.0 -0.4991685127
O  O53  1  0.59060000  0.55530000  0.03185000  1.0 -0.4991685127
O  O54  1  0.03530000  0.59060000  0.53185000  1.0 -0.4991685127
O  O55  1  0.96470000  0.55530000  0.46815000  1.0 -0.4991685127
O  O56  1  0.40940000  0.96470000  0.96815000  1.0 -0.4991685127
O  O57  1  0.44470000  0.40940000  0.46815000  1.0 -0.4991685127
O  O58  1  0.03530000  0.44470000  0.96815000  1.0 -0.4991685127
O  O59  1  0.59060000  0.03530000  0.46815000  1.0 -0.4991685127
O  O60  1  0.55530000  0.59060000  0.96815000  1.0 -0.4991685127
O  O61  1  0.55530000  0.96470000  0.96815000  1.0 -0.4991685127
O  O62  1  0.59060000  0.55530000  0.46815000  1.0 -0.4991685127
O  O63  1  0.03530000  0.59060000  0.96815000  1.0 -0.4991685127
O  O64  1  0.44470000  0.03530000  0.46815000  1.0 -0.4991685127
O  O65  1  0.40940000  0.44470000  0.96815000  1.0 -0.4991685127
O  O66  1  0.96470000  0.40940000  0.46815000  1.0 -0.4991685127
O  O67  1  0.03530000  0.44470000  0.53185000  1.0 -0.4991685127
O  O68  1  0.59060000  0.03530000  0.03185000  1.0 -0.4991685127
O  O69  1  0.55530000  0.59060000  0.53185000  1.0 -0.4991685127
O  O70  1  0.96470000  0.55530000  0.03185000  1.0 -0.4991685127
O  O71  1  0.40940000  0.96470000  0.53185000  1.0 -0.4991685127
O  O72  1  0.44470000  0.40940000  0.03185000  1.0 -0.4991685127
O  O73  1  0.55155000  0.10310000  0.94043000  1.0 -0.3279418459
O  O74  1  0.44845000  0.55155000  0.44043000  1.0 -0.3163719227
O  O75  1  0.89690000  0.44845000  0.94043000  1.0 -0.3279418459
O  O76  1  0.44845000  0.89690000  0.44043000  1.0 -0.3138882915
O  O77  1  0.55155000  0.44845000  0.94043000  1.0 -0.3279418459
O  O78  1  0.10310000  0.55155000  0.44043000  1.0 -0.3279418459
O  O79  1  0.89690000  0.44845000  0.55957000  1.0 -0.3138882915
O  O80  1  0.44845000  0.89690000  0.05957000  1.0 -0.3138882915
O  O81  1  0.55155000  0.44845000  0.55957000  1.0 -0.3138882915
O  O82  1  0.10310000  0.55155000  0.05957000  1.0 -0.3279418459
O  O83  1  0.55155000  0.10310000  0.55957000  1.0 -0.3138882915
O  O84  1  0.44845000  0.55155000  0.05957000  1.0 -0.3138882915
