# DDEC6 charges by PACMAN v1.1 (https://github.com/mtap-research/PACMAN-charge/)
data_OGECOU_ASR_pacman
_symmetry_space_group_name_H-M   'P 1'
_cell_length_a   17.12380000
_cell_length_b   17.12380000
_cell_length_c   17.12380000
_cell_angle_alpha   117.43800000
_cell_angle_beta   117.43800000
_cell_angle_gamma   117.43800000
_symmetry_Int_Tables_number   1
_chemical_formula_structural   Ni2H22C19(NO4)2
_chemical_formula_sum   'Ni6 H66 C57 N6 O24'
_cell_volume   2054.04276512
_cell_formula_units_Z   3
loop_
 _symmetry_equiv_pos_site_id
 _symmetry_equiv_pos_as_xyz
  1  'x, y, z'
loop_
 _atom_site_type_symbol
 _atom_site_label
 _atom_site_symmetry_multiplicity
 _atom_site_fract_x
 _atom_site_fract_y
 _atom_site_fract_z
 _atom_site_occupancy
 _atom_site_charge
Ni  Ni1  1  0.02564000  0.96248000  0.80830000  1.0 0.8141284604
Ni  Ni2  1  0.96248000  0.80830000  0.02564000  1.0 0.8141284604
Ni  Ni3  1  0.80830000  0.02564000  0.96248000  1.0 0.8141284604
Ni  Ni4  1  0.33943000  0.40238000  0.55768000  1.0 0.8277464726
Ni  Ni5  1  0.40238000  0.55768000  0.33943000  1.0 0.8277464726
Ni  Ni6  1  0.55768000  0.33943000  0.40238000  1.0 0.8277464726
H  H1  1  0.29360000  0.27740000  0.96060000  1.0 0.1476496526
H  H2  1  0.27740000  0.96060000  0.29360000  1.0 0.1476496526
H  H3  1  0.96060000  0.29360000  0.27740000  1.0 0.1476496526
H  H4  1  0.18620000  0.26760000  0.88040000  1.0 0.1404714397
H  H5  1  0.26760000  0.88040000  0.18620000  1.0 0.1404714397
H  H6  1  0.88040000  0.18620000  0.26760000  1.0 0.1404714397
H  H7  1  0.92220000  0.05330000  0.69060000  1.0 0.1476496526
H  H8  1  0.05330000  0.69060000  0.92220000  1.0 0.1476496526
H  H9  1  0.69060000  0.92220000  0.05330000  1.0 0.1476496526
H  H10  1  0.83830000  0.91290000  0.53150000  1.0 0.1404714397
H  H11  1  0.91290000  0.53150000  0.83830000  1.0 0.1404714397
H  H12  1  0.53150000  0.83830000  0.91290000  1.0 0.1404714397
H  H13  1  0.17030000  0.05600000  0.74550000  1.0 0.120154935
H  H14  1  0.05600000  0.74550000  0.17030000  1.0 0.120154935
H  H15  1  0.74550000  0.17030000  0.05600000  1.0 0.120154935
H  H16  1  0.97910000  0.86860000  0.58290000  1.0 0.120154935
H  H17  1  0.86860000  0.58290000  0.97910000  1.0 0.120154935
H  H18  1  0.58290000  0.97910000  0.86860000  1.0 0.120154935
H  H19  1  0.71180000  0.72650000  0.17600000  1.0 0.1340021179
H  H20  1  0.72650000  0.17600000  0.71180000  1.0 0.1340021179
H  H21  1  0.17600000  0.71180000  0.72650000  1.0 0.1340021179
H  H22  1  0.34780000  0.25470000  0.84360000  1.0 0.1340021179
H  H23  1  0.25470000  0.84360000  0.34780000  1.0 0.1340021179
H  H24  1  0.84360000  0.34780000  0.25470000  1.0 0.1340021179
H  H25  1  0.39790000  0.35050000  0.83570000  1.0 0.120154935
H  H26  1  0.35050000  0.83570000  0.39790000  1.0 0.120154935
H  H27  1  0.83570000  0.39790000  0.35050000  1.0 0.120154935
H  H28  1  0.34440000  0.35500000  0.88920000  1.0 0.1340021179
H  H29  1  0.35500000  0.88920000  0.34440000  1.0 0.1340021179
H  H30  1  0.88920000  0.34440000  0.35500000  1.0 0.1340021179
H  H31  1  0.76130000  0.65380000  0.33600000  1.0 0.1340021179
H  H32  1  0.65380000  0.33600000  0.76130000  1.0 0.1340021179
H  H33  1  0.33600000  0.76130000  0.65380000  1.0 0.1340021179
H  H34  1  0.64840000  0.64220000  0.27720000  1.0 0.1404714397
H  H35  1  0.64220000  0.27720000  0.64840000  1.0 0.1404714397
H  H36  1  0.27720000  0.64840000  0.64220000  1.0 0.1404714397
H  H37  1  0.63720000  0.56430000  0.16770000  1.0 0.1404714397
H  H38  1  0.56430000  0.16770000  0.63720000  1.0 0.1404714397
H  H39  1  0.16770000  0.63720000  0.56430000  1.0 0.1404714397
H  H40  1  0.78640000  0.85000000  0.14260000  1.0 0.1404714397
H  H41  1  0.85000000  0.14260000  0.78640000  1.0 0.1404714397
H  H42  1  0.14260000  0.78640000  0.85000000  1.0 0.1404714397
H  H43  1  0.84320000  0.99330000  0.25960000  1.0 0.1404714397
H  H44  1  0.99330000  0.25960000  0.84320000  1.0 0.1404714397
H  H45  1  0.25960000  0.84320000  0.99330000  1.0 0.1404714397
H  H46  1  0.97310000  0.04040000  0.30130000  1.0 0.1340021179
H  H47  1  0.04040000  0.30130000  0.97310000  1.0 0.1340021179
H  H48  1  0.30130000  0.97310000  0.04040000  1.0 0.1340021179
H  H49  1  0.16700000  0.28150000  0.56770000  1.0 0.120154935
H  H50  1  0.28150000  0.56770000  0.16700000  1.0 0.120154935
H  H51  1  0.56770000  0.16700000  0.28150000  1.0 0.120154935
H  H52  1  0.30370000  0.37850000  0.73870000  1.0 0.120154935
H  H53  1  0.37850000  0.73870000  0.30370000  1.0 0.120154935
H  H54  1  0.73870000  0.30370000  0.37850000  1.0 0.120154935
H  H55  1  0.20620000  0.11050000  0.49970000  1.0 0.1476496526
H  H56  1  0.11050000  0.49970000  0.20620000  1.0 0.1476496526
H  H57  1  0.49970000  0.20620000  0.11050000  1.0 0.1476496526
H  H58  1  0.37650000  0.23810000  0.59270000  1.0 0.1476496526
H  H59  1  0.23810000  0.59270000  0.37650000  1.0 0.1476496526
H  H60  1  0.59270000  0.37650000  0.23810000  1.0 0.1476496526
H  H61  1  0.55200000  0.56970000  0.88540000  1.0 0.1476496526
H  H62  1  0.56970000  0.88540000  0.55200000  1.0 0.1476496526
H  H63  1  0.88540000  0.55200000  0.56970000  1.0 0.1476496526
H  H64  1  0.53530000  0.45470000  0.84490000  1.0 0.1404714397
H  H65  1  0.45470000  0.84490000  0.53530000  1.0 0.1404714397
H  H66  1  0.84490000  0.53530000  0.45470000  1.0 0.1404714397
C  C1  1  0.20300000  0.27310000  0.01470000  1.0 0.5840255836
C  C2  1  0.27310000  0.01470000  0.20300000  1.0 0.5840255836
C  C3  1  0.01470000  0.20300000  0.27310000  1.0 0.5840255836
C  C4  1  0.19260000  0.22520000  0.90110000  1.0 -0.2735931954
C  C5  1  0.22520000  0.90110000  0.19260000  1.0 -0.2735931954
C  C6  1  0.90110000  0.19260000  0.22520000  1.0 -0.2735931954
C  C7  1  0.88810000  0.96290000  0.62880000  1.0 -0.2893964977
C  C8  1  0.96290000  0.62880000  0.88810000  1.0 -0.2893964977
C  C9  1  0.62880000  0.88810000  0.96290000  1.0 -0.2893964977
C  C10  1  0.75010000  0.82830000  0.56360000  1.0 0.6118923842
C  C11  1  0.82830000  0.56360000  0.75010000  1.0 0.6118923842
C  C12  1  0.56360000  0.75010000  0.82830000  1.0 0.6118923842
C  C13  1  0.05610000  0.98200000  0.65770000  1.0 -0.1611628613
C  C14  1  0.98200000  0.65770000  0.05610000  1.0 -0.1611628613
C  C15  1  0.65770000  0.05610000  0.98200000  1.0 -0.1611628613
C  C16  1  0.01740000  0.98050000  0.55690000  1.0 -0.047952131
C  C17  1  0.98050000  0.55690000  0.01740000  1.0 -0.047952131
C  C18  1  0.55690000  0.01740000  0.98050000  1.0 -0.047952131
C  C19  1  0.85460000  0.82800000  0.38170000  1.0 0.1340021179
C  C20  1  0.82800000  0.38170000  0.85460000  1.0 0.1340021179
C  C21  1  0.38170000  0.85460000  0.82800000  1.0 0.1340021179
C  C22  1  0.81860000  0.82910000  0.29300000  1.0 -0.2639189443
C  C23  1  0.82910000  0.29300000  0.81860000  1.0 -0.2639189443
C  C24  1  0.29300000  0.81860000  0.82910000  1.0 -0.2639189443
C  C25  1  0.93040000  0.97260000  0.36590000  1.0 0.1476496526
C  C26  1  0.97260000  0.36590000  0.93040000  1.0 0.1476496526
C  C27  1  0.36590000  0.93040000  0.97260000  1.0 0.1476496526
C  C28  1  0.09880000  0.12660000  0.53790000  1.0 -0.0376442801
C  C29  1  0.12660000  0.53790000  0.09880000  1.0 -0.0376442801
C  C30  1  0.53790000  0.09880000  0.12660000  1.0 -0.0376442801
C  C31  1  0.13980000  0.12740000  0.63170000  1.0 0.0863377222
C  C32  1  0.12740000  0.63170000  0.13980000  1.0 0.0863377222
C  C33  1  0.63170000  0.13980000  0.12740000  1.0 0.0863377222
C  C34  1  0.32480000  0.28680000  0.81740000  1.0 -0.4685966304
C  C35  1  0.28680000  0.81740000  0.32480000  1.0 -0.4685966304
C  C36  1  0.81740000  0.32480000  0.28680000  1.0 -0.4685966304
C  C37  1  0.71160000  0.65540000  0.28090000  1.0 -0.463382133
C  C38  1  0.65540000  0.28090000  0.71160000  1.0 -0.463382133
C  C39  1  0.28090000  0.71160000  0.65540000  1.0 -0.463382133
C  C40  1  0.87840000  0.96320000  0.25720000  1.0 -0.4685966304
C  C41  1  0.96320000  0.25720000  0.87840000  1.0 -0.4685966304
C  C42  1  0.25720000  0.87840000  0.96320000  1.0 -0.4685966304
C  C43  1  0.22630000  0.28490000  0.62320000  1.0 -0.1669543317
C  C44  1  0.28490000  0.62320000  0.22630000  1.0 -0.1669543317
C  C45  1  0.62320000  0.22630000  0.28490000  1.0 -0.1669543317
C  C46  1  0.27760000  0.19140000  0.52740000  1.0 -0.3243715546
C  C47  1  0.19140000  0.52740000  0.27760000  1.0 -0.3243715546
C  C48  1  0.52740000  0.27760000  0.19140000  1.0 -0.3243715546
C  C49  1  0.18520000  0.10340000  0.37150000  1.0 0.6118923842
C  C50  1  0.10340000  0.37150000  0.18520000  1.0 0.6118923842
C  C51  1  0.37150000  0.18520000  0.10340000  1.0 0.6118923842
C  C52  1  0.61560000  0.54400000  0.80940000  1.0 0.6118923842
C  C53  1  0.54400000  0.80940000  0.61560000  1.0 0.6118923842
C  C54  1  0.80940000  0.61560000  0.54400000  1.0 0.6118923842
C  C55  1  0.51610000  0.48210000  0.80850000  1.0 -0.2893964977
C  C56  1  0.48210000  0.80850000  0.51610000  1.0 -0.2893964977
C  C57  1  0.80850000  0.51610000  0.48210000  1.0 -0.2893964977
N  N1  1  0.04130000  0.03950000  0.73860000  1.0 -0.0267066217
N  N2  1  0.03950000  0.73860000  0.04130000  1.0 -0.0267066217
N  N3  1  0.73860000  0.04130000  0.03950000  1.0 -0.0267066217
N  N4  1  0.33220000  0.32790000  0.63150000  1.0 -0.023232781
N  N5  1  0.32790000  0.63150000  0.33220000  1.0 -0.023232781
N  N6  1  0.63150000  0.33220000  0.32790000  1.0 -0.023232781
O  O1  1  0.13820000  0.17780000  0.98940000  1.0 -0.4090046566
O  O2  1  0.17780000  0.98940000  0.13820000  1.0 -0.4090046566
O  O3  1  0.98940000  0.13820000  0.17780000  1.0 -0.4090046566
O  O4  1  0.29300000  0.41670000  0.12370000  1.0 -0.5306404611
O  O5  1  0.41670000  0.12370000  0.29300000  1.0 -0.5306404611
O  O6  1  0.12370000  0.29300000  0.41670000  1.0 -0.5306404611
O  O7  1  0.79150000  0.81810000  0.63500000  1.0 -0.4995220235
O  O8  1  0.81810000  0.63500000  0.79150000  1.0 -0.4995220235
O  O9  1  0.63500000  0.79150000  0.81810000  1.0 -0.4995220235
O  O10  1  0.61610000  0.75600000  0.46150000  1.0 -0.5306404611
O  O11  1  0.75600000  0.46150000  0.61610000  1.0 -0.5306404611
O  O12  1  0.46150000  0.61610000  0.75600000  1.0 -0.5306404611
O  O13  1  0.10790000  0.96410000  0.25930000  1.0 -0.5492220171
O  O14  1  0.96410000  0.25930000  0.10790000  1.0 -0.5492220171
O  O15  1  0.25930000  0.10790000  0.96410000  1.0 -0.5492220171
O  O16  1  0.20840000  0.18210000  0.36200000  1.0 -0.5492220171
O  O17  1  0.18210000  0.36200000  0.20840000  1.0 -0.5492220171
O  O18  1  0.36200000  0.20840000  0.18210000  1.0 -0.5492220171
O  O19  1  0.76000000  0.63420000  0.93000000  1.0 -0.5492220171
O  O20  1  0.63420000  0.93000000  0.76000000  1.0 -0.5492220171
O  O21  1  0.93000000  0.76000000  0.63420000  1.0 -0.5492220171
O  O22  1  0.56130000  0.52440000  0.71050000  1.0 -0.4995220235
O  O23  1  0.52440000  0.71050000  0.56130000  1.0 -0.4995220235
O  O24  1  0.71050000  0.56130000  0.52440000  1.0 -0.4995220235
