# DDEC6 charges by PACMAN v1.1 (https://github.com/mtap-research/PACMAN-charge/)
data_OGEFUF_ASR_pacman
_symmetry_space_group_name_H-M   'P 1'
_cell_length_a   13.10850000
_cell_length_b   13.10850000
_cell_length_c   13.47400000
_cell_angle_alpha   68.12810000
_cell_angle_beta   111.87200000
_cell_angle_gamma   125.15600000
_symmetry_Int_Tables_number   1
_chemical_formula_structural   CoH18C28(NO3)4
_chemical_formula_sum   'Co2 H36 C56 N8 O24'
_cell_volume   1718.15905999
_cell_formula_units_Z   2
loop_
 _symmetry_equiv_pos_site_id
 _symmetry_equiv_pos_as_xyz
  1  'x, y, z'
loop_
 _atom_site_type_symbol
 _atom_site_label
 _atom_site_symmetry_multiplicity
 _atom_site_fract_x
 _atom_site_fract_y
 _atom_site_fract_z
 _atom_site_occupancy
 _atom_site_charge
Co  Co1  1  0.50000000  0.00000000  0.50000000  1.0 0.8489931014
Co  Co2  1  0.00000000  0.50000000  0.00000000  1.0 0.8489931014
H  H1  1  0.36536000  0.81712000  0.69536000  1.0 0.111157416
H  H2  1  0.81712000  0.36536000  0.80464000  1.0 0.111157416
H  H3  1  0.63464000  0.18288000  0.30464000  1.0 0.111157416
H  H4  1  0.18288000  0.63464000  0.19536000  1.0 0.111157416
H  H5  1  0.56561000  0.20341000  0.79099000  1.0 0.1413498011
H  H6  1  0.20341000  0.56561000  0.70901000  1.0 0.1413498011
H  H7  1  0.43439000  0.79659000  0.20901000  1.0 0.1413498011
H  H8  1  0.79659000  0.43439000  0.29099000  1.0 0.1413498011
H  H9  1  0.57655000  0.19005000  0.62896000  1.0 0.111157416
H  H10  1  0.19005000  0.57655000  0.87104000  1.0 0.111157416
H  H11  1  0.42345000  0.80995000  0.37104000  1.0 0.111157416
H  H12  1  0.80995000  0.42345000  0.12896000  1.0 0.111157416
H  H13  1  0.34578000  0.81930000  0.85863000  1.0 0.1464773205
H  H14  1  0.81930000  0.34578000  0.64137000  1.0 0.1464773205
H  H15  1  0.65422000  0.18070000  0.14137000  1.0 0.1464773205
H  H16  1  0.18070000  0.65422000  0.35863000  1.0 0.1464773205
H  H17  1  0.47525000  0.10399000  0.95188000  1.0 0.1169542727
H  H18  1  0.10399000  0.47525000  0.54812000  1.0 0.1169542727
H  H19  1  0.52475000  0.89601000  0.04812000  1.0 0.1169542727
H  H20  1  0.89601000  0.52475000  0.45188000  1.0 0.1169542727
H  H21  1  0.36554000  0.95658000  0.96791000  1.0 0.1169542727
H  H22  1  0.95658000  0.36554000  0.53209000  1.0 0.1169542727
H  H23  1  0.63446000  0.04342000  0.03209000  1.0 0.1169542727
H  H24  1  0.04342000  0.63446000  0.46791000  1.0 0.1169542727
H  H25  1  0.70859000  0.80423000  0.67085000  1.0 0.111157416
H  H26  1  0.80423000  0.70859000  0.82915000  1.0 0.111157416
H  H27  1  0.29141000  0.19577000  0.32915000  1.0 0.111157416
H  H28  1  0.19577000  0.29141000  0.17085000  1.0 0.111157416
H  H29  1  0.37309000  0.49783000  0.73321000  1.0 0.1169542727
H  H30  1  0.49783000  0.37309000  0.76679000  1.0 0.1169542727
H  H31  1  0.62691000  0.50217000  0.26679000  1.0 0.111157416
H  H32  1  0.50217000  0.62691000  0.23321000  1.0 0.111157416
H  H33  1  0.81237000  0.69569000  0.78765000  1.0 0.111157416
H  H34  1  0.69569000  0.81237000  0.71235000  1.0 0.111157416
H  H35  1  0.18763000  0.30431000  0.21235000  1.0 0.111157416
H  H36  1  0.30431000  0.18763000  0.28765000  1.0 0.111157416
C  C1  1  0.46000000  0.73420000  0.60100000  1.0 0.5442865577
C  C2  1  0.73420000  0.46000000  0.89900000  1.0 0.5442865577
C  C3  1  0.54000000  0.26580000  0.39900000  1.0 0.5442865577
C  C4  1  0.26580000  0.54000000  0.10100000  1.0 0.5442865577
C  C5  1  0.40708000  0.89672000  0.71530000  1.0 0.0970790204
C  C6  1  0.89672000  0.40708000  0.78470000  1.0 0.0970790204
C  C7  1  0.59292000  0.10328000  0.28470000  1.0 0.0970790204
C  C8  1  0.10328000  0.59292000  0.21530000  1.0 0.0970790204
C  C9  1  0.52373000  0.12227000  0.77380000  1.0 -0.1878611508
C  C10  1  0.12227000  0.52373000  0.72620000  1.0 -0.1878611508
C  C11  1  0.47627000  0.87773000  0.22620000  1.0 -0.1878611508
C  C12  1  0.87773000  0.47627000  0.27380000  1.0 -0.1878611508
C  C13  1  0.45618000  0.01242000  0.84520000  1.0 0.1752540556
C  C14  1  0.01242000  0.45618000  0.65480000  1.0 0.1752540556
C  C15  1  0.54382000  0.98758000  0.15480000  1.0 0.1752540556
C  C16  1  0.98758000  0.54382000  0.34520000  1.0 0.1752540556
C  C17  1  0.53015000  0.11345000  0.67690000  1.0 0.0945008111
C  C18  1  0.11345000  0.53015000  0.82310000  1.0 0.0945008111
C  C19  1  0.46985000  0.88655000  0.32310000  1.0 0.0945008111
C  C20  1  0.88655000  0.46985000  0.17690000  1.0 0.0970790204
C  C21  1  0.53050000  0.66390000  0.69020000  1.0 -0.0216186687
C  C22  1  0.66390000  0.53050000  0.80980000  1.0 -0.0216186687
C  C23  1  0.46950000  0.33610000  0.30980000  1.0 -0.0216186687
C  C24  1  0.33610000  0.46950000  0.19020000  1.0 -0.0216186687
C  C25  1  0.39520000  0.89720000  0.81340000  1.0 -0.1761390183
C  C26  1  0.89720000  0.39520000  0.68660000  1.0 -0.1761390183
C  C27  1  0.60480000  0.10280000  0.18660000  1.0 -0.1761390183
C  C28  1  0.10280000  0.60480000  0.31340000  1.0 -0.1761390183
C  C29  1  0.45283000  0.01717000  0.95380000  1.0 -0.1986681509
C  C30  1  0.01717000  0.45283000  0.54620000  1.0 -0.1986681509
C  C31  1  0.54717000  0.98283000  0.04620000  1.0 -0.1986681509
C  C32  1  0.98283000  0.54717000  0.45380000  1.0 -0.1986681509
C  C33  1  0.66030000  0.71910000  0.70790000  1.0 -0.0902143659
C  C34  1  0.71910000  0.66030000  0.79210000  1.0 -0.0902143659
C  C35  1  0.33970000  0.28090000  0.29210000  1.0 -0.0902143659
C  C36  1  0.28090000  0.33970000  0.20790000  1.0 -0.0902143659
C  C37  1  0.46320000  0.54000000  0.74440000  1.0 -0.0349291998
C  C38  1  0.54000000  0.46320000  0.75560000  1.0 -0.0349291998
C  C39  1  0.53680000  0.46000000  0.25560000  1.0 -0.0349291998
C  C40  1  0.46000000  0.53680000  0.24440000  1.0 -0.0349291998
C  C41  1  0.52840000  0.47640000  0.81600000  1.0 0.0418566859
C  C42  1  0.47640000  0.52840000  0.68400000  1.0 0.0418566859
C  C43  1  0.47160000  0.52360000  0.18400000  1.0 0.0418566859
C  C44  1  0.52360000  0.47160000  0.31600000  1.0 0.0418566859
C  C45  1  0.73420000  0.46820000  0.88700000  1.0 0.533784115
C  C46  1  0.46820000  0.73420000  0.61300000  1.0 0.533784115
C  C47  1  0.26580000  0.53180000  0.11300000  1.0 0.533784115
C  C48  1  0.53180000  0.26580000  0.38700000  1.0 0.533784115
C  C49  1  0.65930000  0.53410000  0.83330000  1.0 -0.0088929774
C  C50  1  0.53410000  0.65930000  0.66666667  1.0 -0.0088929774
C  C51  1  0.34070000  0.46590000  0.16670000  1.0 -0.0088929774
C  C52  1  0.46590000  0.34070000  0.33333333  1.0 -0.0088929774
C  C53  1  0.72240000  0.65420000  0.77810000  1.0 -0.0902143659
C  C54  1  0.65420000  0.72240000  0.72190000  1.0 -0.0902143659
C  C55  1  0.27760000  0.34580000  0.22190000  1.0 -0.0902143659
C  C56  1  0.34580000  0.27760000  0.27810000  1.0 -0.0902143659
N  N1  1  0.47440000  0.00288000  0.64769000  1.0 -0.232483289
N  N2  1  0.00288000  0.47440000  0.85231000  1.0 -0.232483289
N  N3  1  0.52560000  0.99712000  0.35231000  1.0 -0.232483289
N  N4  1  0.99712000  0.52560000  0.14769000  1.0 -0.232483289
N  N5  1  0.44710000  0.34430000  0.87350000  1.0 0.399872036
N  N6  1  0.34430000  0.44710000  0.62650000  1.0 0.399872036
N  N7  1  0.55290000  0.65570000  0.12650000  1.0 0.399872036
N  N8  1  0.65570000  0.55290000  0.37350000  1.0 0.399872036
O  O1  1  0.54470000  0.85130000  0.58000000  1.0 -0.4782059479
O  O2  1  0.85130000  0.54470000  0.92000000  1.0 -0.4782059479
O  O3  1  0.45530000  0.14870000  0.42000000  1.0 -0.4782059479
O  O4  1  0.14870000  0.45530000  0.08000000  1.0 -0.4782059479
O  O5  1  0.34100000  0.67500000  0.57300000  1.0 -0.4985645253
O  O6  1  0.67500000  0.34100000  0.92700000  1.0 -0.4985645253
O  O7  1  0.65900000  0.32500000  0.42700000  1.0 -0.4985645253
O  O8  1  0.32500000  0.65900000  0.07300000  1.0 -0.4985645253
O  O9  1  0.85460000  0.52940000  0.92100000  1.0 -0.4782059479
O  O10  1  0.52940000  0.85460000  0.57900000  1.0 -0.4782059479
O  O11  1  0.14540000  0.47060000  0.07900000  1.0 -0.4782059479
O  O12  1  0.47060000  0.14540000  0.42100000  1.0 -0.4782059479
O  O13  1  0.67190000  0.34810000  0.91200000  1.0 -0.4568556759
O  O14  1  0.34810000  0.67190000  0.58800000  1.0 -0.4568556759
O  O15  1  0.32810000  0.65190000  0.08800000  1.0 -0.4568556759
O  O16  1  0.65190000  0.32810000  0.41200000  1.0 -0.4568556759
O  O17  1  0.46130000  0.32770000  0.97490000  1.0 -0.1328786414
O  O18  1  0.32770000  0.46130000  0.52510000  1.0 -0.1328786414
O  O19  1  0.53870000  0.67230000  0.02510000  1.0 -0.1328786414
O  O20  1  0.67230000  0.53870000  0.47490000  1.0 -0.1328786414
O  O21  1  0.36360000  0.26200000  0.81310000  1.0 -0.3064636353
O  O22  1  0.26200000  0.36360000  0.68690000  1.0 -0.3064636353
O  O23  1  0.63640000  0.73800000  0.18690000  1.0 -0.3064636353
O  O24  1  0.73800000  0.63640000  0.31310000  1.0 -0.3064636353
