# DDEC6 charges by PACMAN v1.1 (https://github.com/mtap-research/PACMAN-charge/)
data_OGEFOZ_ASR_pacman
_symmetry_space_group_name_H-M   'P 1'
_cell_length_a   13.13860000
_cell_length_b   13.13860000
_cell_length_c   13.37810000
_cell_angle_alpha   67.88750000
_cell_angle_beta   112.11200000
_cell_angle_gamma   125.39700000
_symmetry_Int_Tables_number   1
_chemical_formula_structural   NiH18C28(NO3)4
_chemical_formula_sum   'Ni2 H36 C56 N8 O24'
_cell_volume   1705.25033071
_cell_formula_units_Z   2
loop_
 _symmetry_equiv_pos_site_id
 _symmetry_equiv_pos_as_xyz
  1  'x, y, z'
loop_
 _atom_site_type_symbol
 _atom_site_label
 _atom_site_symmetry_multiplicity
 _atom_site_fract_x
 _atom_site_fract_y
 _atom_site_fract_z
 _atom_site_occupancy
 _atom_site_charge
Ni  Ni1  1  0.50000000  0.00000000  0.50000000  1.0 0.748590192
Ni  Ni2  1  0.00000000  0.50000000  0.00000000  1.0 0.748590192
H  H1  1  0.68383000  0.12927000  0.69600000  1.0 0.109175126
H  H2  1  0.12927000  0.68383000  0.80400000  1.0 0.109175126
H  H3  1  0.31617000  0.87073000  0.30400000  1.0 0.109175126
H  H4  1  0.87073000  0.31617000  0.19600000  1.0 0.109175126
H  H5  1  0.29661000  0.93617000  0.78794000  1.0 0.1396811439
H  H6  1  0.93617000  0.29661000  0.71206000  1.0 0.1396811439
H  H7  1  0.70339000  0.06383000  0.21206000  1.0 0.1396811439
H  H8  1  0.06383000  0.70339000  0.28794000  1.0 0.1396811439
H  H9  1  0.30897000  0.92409000  0.62535000  1.0 0.109175126
H  H10  1  0.92409000  0.30897000  0.87465000  1.0 0.109175126
H  H11  1  0.69103000  0.07591000  0.37465000  1.0 0.109175126
H  H12  1  0.07591000  0.69103000  0.12535000  1.0 0.109175126
H  H13  1  0.68101000  0.15127000  0.85897000  1.0 0.1485671608
H  H14  1  0.15127000  0.68101000  0.64103000  1.0 0.1485671608
H  H15  1  0.31899000  0.84873000  0.14103000  1.0 0.1485671608
H  H16  1  0.84873000  0.31899000  0.35897000  1.0 0.1485671608
H  H17  1  0.54455000  0.13483000  0.96691000  1.0 0.117266143
H  H18  1  0.13483000  0.54455000  0.53309000  1.0 0.117266143
H  H19  1  0.45545000  0.86517000  0.03309000  1.0 0.117266143
H  H20  1  0.86517000  0.45545000  0.46691000  1.0 0.117266143
H  H21  1  0.39664000  0.02562000  0.95050000  1.0 0.117266143
H  H22  1  0.02562000  0.39664000  0.54950000  1.0 0.117266143
H  H23  1  0.60336000  0.97438000  0.04950000  1.0 0.117266143
H  H24  1  0.97438000  0.60336000  0.45050000  1.0 0.117266143
H  H25  1  0.68600000  0.80384000  0.72153000  1.0 0.117266143
H  H26  1  0.80384000  0.68600000  0.77847000  1.0 0.117266143
H  H27  1  0.31400000  0.19616000  0.27847000  1.0 0.117266143
H  H28  1  0.19616000  0.31400000  0.22153000  1.0 0.117266143
H  H29  1  0.12235000  0.99887000  0.76316000  1.0 0.109175126
H  H30  1  0.99887000  0.12235000  0.73684000  1.0 0.109175126
H  H31  1  0.87765000  0.00113000  0.23684000  1.0 0.109175126
H  H32  1  0.00113000  0.87765000  0.26316000  1.0 0.109175126
H  H33  1  0.78656000  0.68996000  0.83396000  1.0 0.117266143
H  H34  1  0.68996000  0.78656000  0.66604000  1.0 0.117266143
H  H35  1  0.21344000  0.31004000  0.16604000  1.0 0.117266143
H  H36  1  0.31004000  0.21344000  0.33396000  1.0 0.117266143
C  C1  1  0.75990000  0.03030000  0.60500000  1.0 0.5258851854
C  C2  1  0.03030000  0.75990000  0.89500000  1.0 0.5258851854
C  C3  1  0.24010000  0.96970000  0.39500000  1.0 0.5258851854
C  C4  1  0.96970000  0.24010000  0.10500000  1.0 0.5258851854
C  C5  1  0.60400000  0.08960000  0.71490000  1.0 0.1019092074
C  C6  1  0.08960000  0.60400000  0.78510000  1.0 0.1019092074
C  C7  1  0.39600000  0.91040000  0.28510000  1.0 0.1019092074
C  C8  1  0.91040000  0.39600000  0.21490000  1.0 0.1019092074
C  C9  1  0.37769000  0.97671000  0.77120000  1.0 -0.1982336795
C  C10  1  0.97671000  0.37769000  0.72880000  1.0 -0.1982336795
C  C11  1  0.62231000  0.02329000  0.22880000  1.0 -0.1982336795
C  C12  1  0.02329000  0.62231000  0.27120000  1.0 -0.194880286
C  C13  1  0.38587000  0.96953000  0.67420000  1.0 0.0933118074
C  C14  1  0.96953000  0.38587000  0.82580000  1.0 0.0933118074
C  C15  1  0.61413000  0.03047000  0.32580000  1.0 0.0933118074
C  C16  1  0.03047000  0.61413000  0.17420000  1.0 0.0933118074
C  C17  1  0.48790000  0.04310000  0.84380000  1.0 0.1769771485
C  C18  1  0.04310000  0.48790000  0.65620000  1.0 0.1769771485
C  C19  1  0.51210000  0.95690000  0.15620000  1.0 0.1769771485
C  C20  1  0.95690000  0.51210000  0.34380000  1.0 0.1769771485
C  C21  1  0.60300000  0.10220000  0.81300000  1.0 -0.1840126829
C  C22  1  0.10220000  0.60300000  0.68700000  1.0 -0.1840126829
C  C23  1  0.39700000  0.89780000  0.18700000  1.0 -0.1840126829
C  C24  1  0.89780000  0.39700000  0.31300000  1.0 -0.1840126829
C  C25  1  0.96440000  0.83160000  0.80870000  1.0 -0.0148441855
C  C26  1  0.83160000  0.96440000  0.69130000  1.0 -0.0148441855
C  C27  1  0.03560000  0.16840000  0.19130000  1.0 -0.0148441855
C  C28  1  0.16840000  0.03560000  0.30870000  1.0 -0.016063531
C  C29  1  0.48330000  0.04730000  0.95300000  1.0 -0.1982336795
C  C30  1  0.04730000  0.48330000  0.54700000  1.0 -0.1982336795
C  C31  1  0.51670000  0.95270000  0.04700000  1.0 -0.1982336795
C  C32  1  0.95270000  0.51670000  0.45300000  1.0 -0.1982336795
C  C33  1  0.77500000  0.84300000  0.72700000  1.0 -0.0615256855
C  C34  1  0.84300000  0.77500000  0.77300000  1.0 -0.0615256855
C  C35  1  0.22500000  0.15700000  0.27300000  1.0 -0.0615256855
C  C36  1  0.15700000  0.22500000  0.22700000  1.0 -0.0615256855
C  C37  1  0.96630000  0.01890000  0.68050000  1.0 0.0421840793
C  C38  1  0.01890000  0.96630000  0.81950000  1.0 0.0421840793
C  C39  1  0.03370000  0.98110000  0.31950000  1.0 0.0421840793
C  C40  1  0.98110000  0.03370000  0.18050000  1.0 0.0421840793
C  C41  1  0.03220000  0.95640000  0.75260000  1.0 -0.0615256855
C  C42  1  0.95640000  0.03220000  0.74740000  1.0 -0.0615256855
C  C43  1  0.96780000  0.04360000  0.24740000  1.0 -0.0615256855
C  C44  1  0.04360000  0.96780000  0.25260000  1.0 -0.0615256855
C  C45  1  0.83460000  0.77500000  0.79600000  1.0 -0.0501526443
C  C46  1  0.77500000  0.83460000  0.70400000  1.0 -0.0501526443
C  C47  1  0.16540000  0.22500000  0.20400000  1.0 -0.0501526443
C  C48  1  0.22500000  0.16540000  0.29600000  1.0 -0.0501526443
C  C49  1  0.83870000  0.96530000  0.66710000  1.0 -0.0148441855
C  C50  1  0.96530000  0.83870000  0.83290000  1.0 -0.016063531
C  C51  1  0.16130000  0.03470000  0.33290000  1.0 -0.016063531
C  C52  1  0.03470000  0.16130000  0.16710000  1.0 -0.016063531
C  C53  1  0.03580000  0.76420000  0.88900000  1.0 0.5209684132
C  C54  1  0.76420000  0.03580000  0.61100000  1.0 0.5209684132
C  C55  1  0.96420000  0.23580000  0.11100000  1.0 0.5209684132
C  C56  1  0.23580000  0.96420000  0.38900000  1.0 0.5209684132
N  N1  1  0.49716000  0.02364000  0.64590000  1.0 -0.2222592326
N  N2  1  0.02364000  0.49716000  0.85410000  1.0 -0.2222592326
N  N3  1  0.50284000  0.97636000  0.35410000  1.0 -0.2222592326
N  N4  1  0.97636000  0.50284000  0.14590000  1.0 -0.2222592326
N  N5  1  0.04610000  0.15010000  0.61960000  1.0 0.3197422086
N  N6  1  0.15010000  0.04610000  0.88040000  1.0 0.3197422086
N  N7  1  0.95390000  0.84990000  0.38040000  1.0 0.3197422086
N  N8  1  0.84990000  0.95390000  0.11960000  1.0 0.3197422086
O  O1  1  0.64030000  0.95530000  0.58710000  1.0 -0.4925990494
O  O2  1  0.95530000  0.64030000  0.91290000  1.0 -0.4925990494
O  O3  1  0.35970000  0.04470000  0.41290000  1.0 -0.4925990494
O  O4  1  0.04470000  0.35970000  0.08710000  1.0 -0.4925990494
O  O5  1  0.82260000  0.15080000  0.59370000  1.0 -0.4251311214
O  O6  1  0.15080000  0.82260000  0.90630000  1.0 -0.4251311214
O  O7  1  0.17740000  0.84920000  0.40630000  1.0 -0.4239692779
O  O8  1  0.84920000  0.17740000  0.09370000  1.0 -0.4239692779
O  O9  1  0.03060000  0.16840000  0.52070000  1.0 -0.1394267918
O  O10  1  0.16840000  0.03060000  0.97930000  1.0 -0.1394267918
O  O11  1  0.96940000  0.83160000  0.47930000  1.0 -0.1394267918
O  O12  1  0.83160000  0.96940000  0.02070000  1.0 -0.1394267918
O  O13  1  0.13240000  0.23060000  0.67490000  1.0 -0.2656125517
O  O14  1  0.23060000  0.13240000  0.82510000  1.0 -0.264237115
O  O15  1  0.86760000  0.76940000  0.32510000  1.0 -0.264237115
O  O16  1  0.76940000  0.86760000  0.17490000  1.0 -0.2656125517
O  O17  1  0.96550000  0.64590000  0.92300000  1.0 -0.4638490768
O  O18  1  0.64590000  0.96550000  0.57700000  1.0 -0.4638490768
O  O19  1  0.03450000  0.35410000  0.07700000  1.0 -0.4638490768
O  O20  1  0.35410000  0.03450000  0.42300000  1.0 -0.4638490768
O  O21  1  0.15380000  0.82420000  0.92910000  1.0 -0.4487487914
O  O22  1  0.82420000  0.15380000  0.57090000  1.0 -0.4487487914
O  O23  1  0.84620000  0.17580000  0.07090000  1.0 -0.4487487914
O  O24  1  0.17580000  0.84620000  0.42910000  1.0 -0.4487487914
