# DDEC6 charges by PACMAN v1.1 (https://github.com/mtap-research/PACMAN-charge/)
data_OGEGEQ_ASR_pacman
_symmetry_space_group_name_H-M   'P 1'
_cell_length_a   13.69490000
_cell_length_b   13.69490000
_cell_length_c   13.44860000
_cell_angle_alpha   62.94070000
_cell_angle_beta   117.05900000
_cell_angle_gamma   129.64300000
_symmetry_Int_Tables_number   1
_chemical_formula_structural   NiH18C28Br2(NO4)2
_chemical_formula_sum   'Ni2 H36 C56 Br4 N4 O16'
_cell_volume   1679.03240728
_cell_formula_units_Z   2
loop_
 _symmetry_equiv_pos_site_id
 _symmetry_equiv_pos_as_xyz
  1  'x, y, z'
loop_
 _atom_site_type_symbol
 _atom_site_label
 _atom_site_symmetry_multiplicity
 _atom_site_fract_x
 _atom_site_fract_y
 _atom_site_fract_z
 _atom_site_occupancy
 _atom_site_charge
Ni  Ni1  1  0.00000000  0.50000000  0.50000000  1.0 0.7500832075
Ni  Ni2  1  0.50000000  0.00000000  0.00000000  1.0 0.7500832075
H  H1  1  0.97111000  0.60010000  0.93491000  1.0 0.1109784401
H  H2  1  0.60011000  0.97111000  0.56509000  1.0 0.1109784401
H  H3  1  0.02888000  0.39990000  0.06509000  1.0 0.1109784401
H  H4  1  0.39990000  0.02888000  0.43491000  1.0 0.1109784401
H  H5  1  0.86143000  0.44681000  0.95699000  1.0 0.1156089113
H  H6  1  0.44681000  0.86143000  0.54301000  1.0 0.1156089113
H  H7  1  0.13857000  0.55319000  0.04301000  1.0 0.1156089113
H  H8  1  0.55319000  0.13857000  0.45699000  1.0 0.1156089113
H  H9  1  0.06141000  0.70443000  0.77225000  1.0 0.1439493889
H  H10  1  0.70443000  0.06141000  0.72775000  1.0 0.1439493889
H  H11  1  0.93859000  0.29557000  0.22775000  1.0 0.1439493889
H  H12  1  0.29557000  0.93859000  0.27225000  1.0 0.1439493889
H  H13  1  0.85966000  0.31026000  0.87065000  1.0 0.1439493889
H  H14  1  0.31026000  0.85966000  0.62935000  1.0 0.1451171779
H  H15  1  0.14034000  0.68974000  0.12935000  1.0 0.1451171779
H  H16  1  0.68974000  0.14034000  0.37065000  1.0 0.1451171779
H  H17  1  0.07841000  0.69173000  0.61502000  1.0 0.1109784401
H  H18  1  0.69173000  0.07841000  0.88498000  1.0 0.1109784401
H  H19  1  0.92159000  0.30827000  0.38498000  1.0 0.1109784401
H  H20  1  0.30827000  0.92159000  0.11502000  1.0 0.1109784401
H  H21  1  0.88140000  0.30988000  0.71009000  1.0 0.1109784401
H  H22  1  0.30988000  0.88140000  0.78991000  1.0 0.1109784401
H  H23  1  0.11860000  0.69012000  0.28991000  1.0 0.1109784401
H  H24  1  0.69012000  0.11860000  0.21009000  1.0 0.1109784401
H  H25  1  0.99068000  0.86858000  0.77773000  1.0 0.0918413686
H  H26  1  0.86858000  0.99068000  0.72227000  1.0 0.0918413686
H  H27  1  0.00932000  0.13142000  0.22227000  1.0 0.0918413686
H  H28  1  0.13142000  0.00932000  0.27773000  1.0 0.0918413686
H  H29  1  0.32438000  0.22104000  0.81627000  1.0 0.1109784401
H  H30  1  0.22104000  0.32438000  0.68373000  1.0 0.1156089113
H  H31  1  0.67562000  0.77896000  0.18373000  1.0 0.1156089113
H  H32  1  0.77896000  0.67562000  0.31627000  1.0 0.1109784401
H  H33  1  0.20652000  0.32120000  0.70864000  1.0 0.1109784401
H  H34  1  0.32120000  0.20652000  0.79136000  1.0 0.1109784401
H  H35  1  0.79348000  0.67880000  0.29136000  1.0 0.1109784401
H  H36  1  0.67880000  0.79348000  0.20864000  1.0 0.1109784401
C  C1  1  0.95130000  0.51310000  0.94590000  1.0 -0.2015005952
C  C2  1  0.51310000  0.95130000  0.55410000  1.0 -0.2015005952
C  C3  1  0.04870000  0.48690000  0.05410000  1.0 -0.2015005952
C  C4  1  0.48690000  0.04870000  0.44590000  1.0 -0.2015005952
C  C5  1  0.02370000  0.62150000  0.76200000  1.0 -0.1707686391
C  C6  1  0.62150000  0.02370000  0.73800000  1.0 -0.1707686391
C  C7  1  0.97630000  0.37850000  0.23800000  1.0 -0.1707686391
C  C8  1  0.37850000  0.97630000  0.26200000  1.0 -0.1707686391
C  C9  1  0.90530000  0.39070000  0.81940000  1.0 -0.16497019
C  C10  1  0.39070000  0.90530000  0.68060000  1.0 -0.1707686391
C  C11  1  0.09470000  0.60930000  0.18060000  1.0 -0.1707686391
C  C12  1  0.60930000  0.09470000  0.31940000  1.0 -0.16497019
C  C13  1  0.03280000  0.61300000  0.66770000  1.0 0.0918413686
C  C14  1  0.61300000  0.03280000  0.83230000  1.0 0.0918413686
C  C15  1  0.96720000  0.38700000  0.33230000  1.0 0.0918413686
C  C16  1  0.38700000  0.96720000  0.16770000  1.0 0.0918413686
C  C17  1  0.95920000  0.50820000  0.84110000  1.0 0.1712288142
C  C18  1  0.50820000  0.95920000  0.65890000  1.0 0.1712288142
C  C19  1  0.04080000  0.49180000  0.15890000  1.0 0.1712288142
C  C20  1  0.49180000  0.04080000  0.34110000  1.0 0.1712288142
C  C21  1  0.91860000  0.39120000  0.72300000  1.0 0.0918413686
C  C22  1  0.39120000  0.91860000  0.77700000  1.0 0.0918413686
C  C23  1  0.08140000  0.60880000  0.27700000  1.0 0.0918413686
C  C24  1  0.60880000  0.08140000  0.22300000  1.0 0.0918413686
C  C25  1  0.24270000  0.96750000  0.88700000  1.0 0.5291970962
C  C26  1  0.96750000  0.24270000  0.61300000  1.0 0.5291970962
C  C27  1  0.75730000  0.03250000  0.11300000  1.0 0.5291970962
C  C28  1  0.03250000  0.75730000  0.38700000  1.0 0.5291970962
C  C29  1  0.02860000  0.15440000  0.67920000  1.0 -0.0060457086
C  C30  1  0.15440000  0.02860000  0.82080000  1.0 -0.0060457086
C  C31  1  0.97140000  0.84560000  0.32080000  1.0 -0.0060457086
C  C32  1  0.84560000  0.97140000  0.17920000  1.0 -0.0060457086
C  C33  1  0.96450000  0.01990000  0.69980000  1.0 0.0099827641
C  C34  1  0.01990000  0.96450000  0.80020000  1.0 0.0099827641
C  C35  1  0.03550000  0.98010000  0.30020000  1.0 0.0099827641
C  C36  1  0.98010000  0.03550000  0.19980000  1.0 0.0099827641
C  C37  1  0.03450000  0.96050000  0.76370000  1.0 -0.0267894246
C  C38  1  0.96050000  0.03450000  0.73630000  1.0 -0.0267894246
C  C39  1  0.96550000  0.03950000  0.23630000  1.0 -0.0267894246
C  C40  1  0.03950000  0.96550000  0.26370000  1.0 -0.0267894246
C  C41  1  0.16860000  0.03540000  0.80710000  1.0 -0.0194420064
C  C42  1  0.03540000  0.16860000  0.69290000  1.0 -0.0194420064
C  C43  1  0.83140000  0.96460000  0.19290000  1.0 -0.0194420064
C  C44  1  0.96460000  0.83140000  0.30710000  1.0 -0.0194420064
C  C45  1  0.23270000  0.16990000  0.78700000  1.0 -0.0766932487
C  C46  1  0.16990000  0.23270000  0.71300000  1.0 -0.0766932487
C  C47  1  0.76730000  0.83010000  0.21300000  1.0 -0.0766932487
C  C48  1  0.83010000  0.76730000  0.28700000  1.0 -0.0766932487
C  C49  1  0.16270000  0.22930000  0.72300000  1.0 -0.0957460949
C  C50  1  0.22930000  0.16270000  0.77700000  1.0 -0.0957460949
C  C51  1  0.83730000  0.77070000  0.27700000  1.0 -0.0957460949
C  C52  1  0.77070000  0.83730000  0.22300000  1.0 -0.0957460949
C  C53  1  0.96110000  0.23050000  0.61960000  1.0 0.5178261989
C  C54  1  0.23050000  0.96110000  0.88040000  1.0 0.5178261989
C  C55  1  0.03890000  0.76950000  0.38040000  1.0 0.5178261989
C  C56  1  0.76950000  0.03890000  0.11960000  1.0 0.5178261989
Br  Br1  1  0.78240000  0.90294000  0.64433000  1.0 -0.0608117205
Br  Br2  1  0.90294000  0.78240000  0.85567000  1.0 -0.0608117205
Br  Br3  1  0.21760000  0.09706000  0.35567000  1.0 -0.0608117205
Br  Br4  1  0.09706000  0.21760000  0.14433000  1.0 -0.0608117205
N  N1  1  0.98064000  0.50016000  0.64760000  1.0 -0.2135890505
N  N2  1  0.50016000  0.98064000  0.85240000  1.0 -0.2135890505
N  N3  1  0.01936000  0.49984000  0.35240000  1.0 -0.2135890505
N  N4  1  0.49984000  0.01936000  0.14760000  1.0 -0.2135890505
O  O1  1  0.36560000  0.04240000  0.91000000  1.0 -0.4671695366
O  O2  1  0.04240000  0.36560000  0.59000000  1.0 -0.4671695366
O  O3  1  0.63440000  0.95760000  0.09000000  1.0 -0.4671695366
O  O4  1  0.95760000  0.63440000  0.41000000  1.0 -0.4644013053
O  O5  1  0.84010000  0.16990000  0.58100000  1.0 -0.4671695366
O  O6  1  0.16990000  0.84010000  0.91900000  1.0 -0.4671695366
O  O7  1  0.15990000  0.83010000  0.41900000  1.0 -0.4671695366
O  O8  1  0.83010000  0.15990000  0.08100000  1.0 -0.4671695366
O  O9  1  0.17720000  0.84480000  0.90400000  1.0 -0.4419205791
O  O10  1  0.84480000  0.17720000  0.59600000  1.0 -0.4419205791
O  O11  1  0.82280000  0.15520000  0.09600000  1.0 -0.4419205791
O  O12  1  0.15520000  0.82280000  0.40400000  1.0 -0.4419205791
O  O13  1  0.03970000  0.35230000  0.59700000  1.0 -0.424718917
O  O14  1  0.35230000  0.03970000  0.90300000  1.0 -0.4258510974
O  O15  1  0.96030000  0.64770000  0.40300000  1.0 -0.4258510974
O  O16  1  0.64770000  0.96030000  0.09700000  1.0 -0.4258510974
