# DDEC6 charges by PACMAN v1.1 (https://github.com/mtap-research/PACMAN-charge/)
data_OGEGAM_ASR_pacman
_symmetry_space_group_name_H-M   'P 1'
_cell_length_a   13.50510000
_cell_length_b   13.50510000
_cell_length_c   13.50150000
_cell_angle_alpha   66.01410000
_cell_angle_beta   113.98600000
_cell_angle_gamma   125.36000000
_symmetry_Int_Tables_number   1
_chemical_formula_structural   CoH18C20(NO)4
_chemical_formula_sum   'Co2 H36 C40 N8 O8'
_cell_volume   1785.70819364
_cell_formula_units_Z   2
loop_
 _symmetry_equiv_pos_site_id
 _symmetry_equiv_pos_as_xyz
  1  'x, y, z'
loop_
 _atom_site_type_symbol
 _atom_site_label
 _atom_site_symmetry_multiplicity
 _atom_site_fract_x
 _atom_site_fract_y
 _atom_site_fract_z
 _atom_site_occupancy
 _atom_site_charge
Co  Co1  1  0.50000000  0.00000000  0.50000000  1.0 0.7812697328
Co  Co2  1  0.00000000  0.50000000  0.00000000  1.0 0.7812697328
H  H1  1  0.67502000  0.14240000  0.69119000  1.0 0.0994030069
H  H2  1  0.14240000  0.67502000  0.80881000  1.0 0.0994030069
H  H3  1  0.32498000  0.85760000  0.30881000  1.0 0.0994030069
H  H4  1  0.85760000  0.32498000  0.19119000  1.0 0.0994030069
H  H5  1  0.68062000  0.78878000  0.69693000  1.0 0.1218894068
H  H6  1  0.78878000  0.68062000  0.80307000  1.0 0.1218894068
H  H7  1  0.31938000  0.21122000  0.30307000  1.0 0.1218894068
H  H8  1  0.21122000  0.31938000  0.19693000  1.0 0.1218894068
H  H9  1  0.31446000  0.90810000  0.63429000  1.0 0.0994030069
H  H10  1  0.90810000  0.31446000  0.86571000  1.0 0.0994030069
H  H11  1  0.68554000  0.09190000  0.36571000  1.0 0.0994030069
H  H12  1  0.09190000  0.68554000  0.13429000  1.0 0.0994030069
H  H13  1  0.30106000  0.91876000  0.79510000  1.0 0.1395577937
H  H14  1  0.91876000  0.30106000  0.70490000  1.0 0.1395577937
H  H15  1  0.69894000  0.08124000  0.20490000  1.0 0.1395577937
H  H16  1  0.08124000  0.69894000  0.29510000  1.0 0.1395577937
H  H17  1  0.67173000  0.16415000  0.85118000  1.0 0.1395577937
H  H18  1  0.16415000  0.67173000  0.64882000  1.0 0.1395577937
H  H19  1  0.32827000  0.83585000  0.14882000  1.0 0.1395577937
H  H20  1  0.83585000  0.32827000  0.35118000  1.0 0.1395577937
H  H21  1  0.54107000  0.13201000  0.96351000  1.0 0.1218894068
H  H22  1  0.13201000  0.54107000  0.53649000  1.0 0.1218894068
H  H23  1  0.45893000  0.86799000  0.03649000  1.0 0.1218894068
H  H24  1  0.86799000  0.45893000  0.46351000  1.0 0.1218894068
H  H25  1  0.39723000  0.02505000  0.94736000  1.0 0.1126012392
H  H26  1  0.02505000  0.39723000  0.55264000  1.0 0.1126012392
H  H27  1  0.60277000  0.97495000  0.05264000  1.0 0.1126012392
H  H28  1  0.97495000  0.60277000  0.44736000  1.0 0.1126012392
H  H29  1  0.00331000  0.20415000  0.66078000  1.0 0.2959638275
H  H30  1  0.20415000  0.00331000  0.83922000  1.0 0.2959638275
H  H31  1  0.99669000  0.79585000  0.33922000  1.0 0.2959638275
H  H32  1  0.79585000  0.99669000  0.16078000  1.0 0.2959638275
H  H33  1  0.11901000  0.19001000  0.72022000  1.0 0.2774377055
H  H34  1  0.19001000  0.11901000  0.77978000  1.0 0.2774377055
H  H35  1  0.88099000  0.80999000  0.27978000  1.0 0.2774377055
H  H36  1  0.80999000  0.88099000  0.22022000  1.0 0.2774377055
C  C1  1  0.83317000  0.96409000  0.68638000  1.0 -0.1276144199
C  C2  1  0.96409000  0.83317000  0.81362000  1.0 -0.1276144199
C  C3  1  0.16683000  0.03591000  0.31362000  1.0 -0.1276144199
C  C4  1  0.03591000  0.16683000  0.18638000  1.0 -0.1276144199
C  C5  1  0.59789000  0.09663000  0.71238000  1.0 0.0874674171
C  C6  1  0.09663000  0.59789000  0.78762000  1.0 0.0874674171
C  C7  1  0.40211000  0.90337000  0.28762000  1.0 0.0874674171
C  C8  1  0.90337000  0.40211000  0.21238000  1.0 0.0874674171
C  C9  1  0.75925000  0.03015000  0.61707000  1.0 0.5653452016
C  C10  1  0.03015000  0.75925000  0.88293000  1.0 0.5653452016
C  C11  1  0.24075000  0.96985000  0.38293000  1.0 0.5653452016
C  C12  1  0.96985000  0.24075000  0.11707000  1.0 0.5643232204
C  C13  1  0.76912000  0.83342000  0.71858000  1.0 -0.1125650164
C  C14  1  0.83342000  0.76912000  0.78142000  1.0 -0.1125650164
C  C15  1  0.23088000  0.16658000  0.28142000  1.0 -0.1125650164
C  C16  1  0.16658000  0.23088000  0.21858000  1.0 -0.1125650164
C  C17  1  0.96356000  0.02938000  0.71818000  1.0 0.162653137
C  C18  1  0.02938000  0.96356000  0.78182000  1.0 0.162653137
C  C19  1  0.03644000  0.97062000  0.28182000  1.0 0.162653137
C  C20  1  0.97062000  0.03644000  0.21818000  1.0 0.162653137
C  C21  1  0.38831000  0.95983000  0.67965000  1.0 0.0874674171
C  C22  1  0.95983000  0.38831000  0.82035000  1.0 0.0874674171
C  C23  1  0.61169000  0.04017000  0.32035000  1.0 0.0874674171
C  C24  1  0.04017000  0.61169000  0.17965000  1.0 0.0874674171
C  C25  1  0.37934000  0.96596000  0.77566000  1.0 -0.2118790187
C  C26  1  0.96596000  0.37934000  0.72434000  1.0 -0.2118790187
C  C27  1  0.62066000  0.03404000  0.22434000  1.0 -0.2118790187
C  C28  1  0.03404000  0.62066000  0.27566000  1.0 -0.2118790187
C  C29  1  0.59699000  0.10947000  0.80883000  1.0 -0.2118790187
C  C30  1  0.10947000  0.59699000  0.69117000  1.0 -0.2118790187
C  C31  1  0.40301000  0.89053000  0.19117000  1.0 -0.2118790187
C  C32  1  0.89053000  0.40301000  0.30883000  1.0 -0.2118790187
C  C33  1  0.48568000  0.04160000  0.84310000  1.0 0.1727327294
C  C34  1  0.04160000  0.48568000  0.65690000  1.0 0.1727327294
C  C35  1  0.51432000  0.95840000  0.15690000  1.0 0.1727327294
C  C36  1  0.95840000  0.51432000  0.34310000  1.0 0.1727327294
C  C37  1  0.48208000  0.04648000  0.95117000  1.0 -0.2384412885
C  C38  1  0.04648000  0.48208000  0.54883000  1.0 -0.2384412885
C  C39  1  0.51792000  0.95352000  0.04883000  1.0 -0.2384412885
C  C40  1  0.95352000  0.51792000  0.45117000  1.0 -0.2384412885
N  N1  1  0.49583000  0.02317000  0.64763000  1.0 -0.2547462843
N  N2  1  0.02317000  0.49583000  0.85237000  1.0 -0.2547462843
N  N3  1  0.50417000  0.97683000  0.35237000  1.0 -0.2547462843
N  N4  1  0.97683000  0.50417000  0.14763000  1.0 -0.2547462843
N  N5  1  0.03737000  0.15623000  0.69720000  1.0 -0.5497771465
N  N6  1  0.15623000  0.03737000  0.80280000  1.0 -0.5497771465
N  N7  1  0.96263000  0.84377000  0.30280000  1.0 -0.5497771465
N  N8  1  0.84377000  0.96263000  0.19720000  1.0 -0.5497771465
O  O1  1  0.64252000  0.96100000  0.58814000  1.0 -0.5740669631
O  O2  1  0.96100000  0.64252000  0.91186000  1.0 -0.5740669631
O  O3  1  0.35748000  0.03900000  0.41186000  1.0 -0.5740669631
O  O4  1  0.03900000  0.35748000  0.08814000  1.0 -0.5740669631
O  O5  1  0.81550000  0.14776000  0.59087000  1.0 -0.5927793048
O  O6  1  0.14776000  0.81550000  0.90913000  1.0 -0.5927793048
O  O7  1  0.18450000  0.85224000  0.40913000  1.0 -0.5927793048
O  O8  1  0.85224000  0.18450000  0.09087000  1.0 -0.5927793048
