# DDEC6 charges by PACMAN v1.1 (https://github.com/mtap-research/PACMAN-charge/)
data_OGIJIY_FSR_pacman
_symmetry_space_group_name_H-M   'P 1'
_cell_length_a   10.20010000
_cell_length_b   10.41460000
_cell_length_c   10.75310000
_cell_angle_alpha   111.73600000
_cell_angle_beta   117.78000000
_cell_angle_gamma   92.02700000
_symmetry_Int_Tables_number   1
_chemical_formula_structural   SmH20(C5O3)3
_chemical_formula_sum   'Sm2 H40 C30 O18'
_cell_volume   908.23064961
_cell_formula_units_Z   2
loop_
 _symmetry_equiv_pos_site_id
 _symmetry_equiv_pos_as_xyz
  1  'x, y, z'
loop_
 _atom_site_type_symbol
 _atom_site_label
 _atom_site_symmetry_multiplicity
 _atom_site_fract_x
 _atom_site_fract_y
 _atom_site_fract_z
 _atom_site_occupancy
 _atom_site_charge
Sm  Sm1  1  0.18481000  0.00801000  0.46526000  1.0 1.9042334906
Sm  Sm2  1  0.81519000  0.99199000  0.53474000  1.0 1.9042334906
H  H1  1  0.60320000  0.19330000  0.98230000  1.0 0.100482932
H  H2  1  0.39680000  0.80670000  0.01770000  1.0 0.100482932
H  H3  1  0.55390000  0.18720000  0.16790000  1.0 0.090241
H  H4  1  0.44610000  0.81280000  0.83210000  1.0 0.090241
H  H5  1  0.40550000  0.20660000  0.04310000  1.0 0.100482932
H  H6  1  0.59450000  0.79340000  0.95690000  1.0 0.100482932
H  H7  1  0.71580000  0.03640000  0.07030000  1.0 0.1077634185
H  H8  1  0.28420000  0.96360000  0.92970000  1.0 0.1077634185
H  H9  1  0.65880000  0.97100000  0.89140000  1.0 0.100482932
H  H10  1  0.34120000  0.02900000  0.10860000  1.0 0.100482932
H  H11  1  0.87390000  0.62120000  0.43640000  1.0 0.100482932
H  H12  1  0.12610000  0.37880000  0.56360000  1.0 0.100482932
H  H13  1  0.91430000  0.46810000  0.24180000  1.0 0.1077634185
H  H14  1  0.08570000  0.53190000  0.75820000  1.0 0.1077634185
H  H15  1  0.08370000  0.48450000  0.36650000  1.0 0.100482932
H  H16  1  0.91630000  0.51550000  0.63350000  1.0 0.100482932
H  H17  1  0.06420000  0.73200000  0.69970000  1.0 0.1152089439
H  H18  1  0.93580000  0.26800000  0.30030000  1.0 0.1152089439
H  H19  1  0.18070000  0.65570000  0.66370000  1.0 0.100482932
H  H20  1  0.81930000  0.34430000  0.33630000  1.0 0.100482932
H  H21  1  0.28910000  0.39270000  0.36200000  1.0 0.090241
H  H22  1  0.71090000  0.60730000  0.63800000  1.0 0.090241
H  H23  1  0.50930000  0.51840000  0.68840000  1.0 0.0796679191
H  H24  1  0.49070000  0.48160000  0.31160000  1.0 0.0796679191
H  H25  1  0.34750000  0.55000000  0.61500000  1.0 0.090241
H  H26  1  0.65250000  0.45000000  0.38500000  1.0 0.090241
H  H27  1  0.46340000  0.26310000  0.32750000  1.0 0.0796679191
H  H28  1  0.53660000  0.73690000  0.67250000  1.0 0.0796679191
H  H29  1  0.58350000  0.33870000  0.50770000  1.0 0.090241
H  H30  1  0.41650000  0.66130000  0.49230000  1.0 0.090241
H  H31  1  0.53440000  0.31160000  0.48140000  1.0 0.100482932
H  H32  1  0.46560000  0.68840000  0.51860000  1.0 0.100482932
H  H33  1  0.43020000  0.52130000  0.64940000  1.0 0.0796679191
H  H34  1  0.56980000  0.47870000  0.35060000  1.0 0.0796679191
H  H35  1  0.57170000  0.46200000  0.72500000  1.0 0.090241
H  H36  1  0.42830000  0.53800000  0.27500000  1.0 0.090241
H  H37  1  0.28710000  0.41810000  0.33290000  1.0 0.0796679191
H  H38  1  0.71290000  0.58190000  0.66710000  1.0 0.0796679191
H  H39  1  0.35350000  0.30590000  0.25050000  1.0 0.0796679191
H  H40  1  0.64650000  0.69410000  0.74950000  1.0 0.0796679191
C  C1  1  0.40960000  0.06160000  0.78040000  1.0 0.5410608999
C  C2  1  0.59040000  0.93840000  0.21960000  1.0 0.5410608999
C  C3  1  0.53220000  0.10520000  0.94880000  1.0 -0.0928491277
C  C4  1  0.46780000  0.89480000  0.05120000  1.0 -0.0928491277
C  C5  1  0.46920000  0.14080000  0.06050000  1.0 -0.1794229694
C  C6  1  0.53080000  0.85920000  0.93950000  1.0 -0.1794229694
C  C7  1  0.62540000  0.99540000  0.96630000  1.0 -0.1661755491
C  C8  1  0.37460000  0.00460000  0.03370000  1.0 -0.1661755491
C  C9  1  0.32680000  0.24950000  0.46610000  1.0 0.3959652833
C  C10  1  0.67320000  0.75050000  0.53390000  1.0 0.3959652833
C  C11  1  0.04030000  0.75090000  0.45150000  1.0 0.5924574486
C  C12  1  0.95970000  0.24910000  0.54850000  1.0 0.5924574486
C  C13  1  0.98010000  0.62370000  0.46290000  1.0 -0.0928491277
C  C14  1  0.01990000  0.37630000  0.53710000  1.0 -0.0928491277
C  C15  1  0.98090000  0.48130000  0.34820000  1.0 -0.1628222563
C  C16  1  0.01910000  0.51870000  0.65180000  1.0 -0.1661755491
C  C17  1  0.07350000  0.64500000  0.63210000  1.0 -0.1857557245
C  C18  1  0.92650000  0.35500000  0.36790000  1.0 -0.1857557245
C  C19  1  0.37400000  0.38700000  0.45300000  1.0 7.52099e-05
C  C20  1  0.62600000  0.61300000  0.54700000  1.0 7.52099e-05
C  C21  1  0.43100000  0.52700000  0.59800000  1.0 -0.0928491277
C  C22  1  0.56900000  0.47300000  0.40200000  1.0 -0.0928491277
C  C23  1  0.50300000  0.35200000  0.42200000  1.0 -0.101631815
C  C24  1  0.49700000  0.64800000  0.57800000  1.0 -0.101631815
C  C25  1  0.45100000  0.35600000  0.48100000  1.0 -0.0159958661
C  C26  1  0.54900000  0.64400000  0.51900000  1.0 -0.0159958661
C  C27  1  0.51500000  0.48900000  0.64100000  1.0 -0.1094269254
C  C28  1  0.48500000  0.51100000  0.35900000  1.0 -0.1094269254
C  C29  1  0.38100000  0.39100000  0.34500000  1.0 -0.1094269254
C  C30  1  0.61900000  0.60900000  0.65500000  1.0 -0.1094269254
O  O1  1  0.43200000  0.99500000  0.67110000  1.0 -0.5467975684
O  O2  1  0.56800000  0.00500000  0.32890000  1.0 -0.5467975684
O  O3  1  0.28670000  0.10180000  0.74790000  1.0 -0.5467975684
O  O4  1  0.71330000  0.89820000  0.25210000  1.0 -0.5467975684
O  O5  1  0.35850000  0.24660000  0.58990000  1.0 -0.1628222563
O  O6  1  0.64150000  0.75340000  0.41010000  1.0 -0.1628222563
O  O7  1  0.20490000  0.17250000  0.34950000  1.0 -0.4581163921
O  O8  1  0.79510000  0.82750000  0.65050000  1.0 -0.4581163921
O  O9  1  0.13730000  0.75230000  0.41400000  1.0 -0.5440814742
O  O10  1  0.86270000  0.24770000  0.58600000  1.0 -0.5440814742
O  O11  1  0.99380000  0.86380000  0.49050000  1.0 -0.6869808384
O  O12  1  0.00620000  0.13620000  0.50950000  1.0 -0.6869808384
O  O13  1  0.29900000  0.89680000  0.30940000  1.0 -0.3934190073
O  O14  1  0.70100000  0.10320000  0.69060000  1.0 -0.3934190073
O  O15  1  0.95540000  0.89910000  0.20630000  1.0 -0.4520456144
O  O16  1  0.04460000  0.10090000  0.79370000  1.0 -0.4520456144
O  O17  1  0.41600000  0.18000000  0.56000000  1.0 -0.2155104526
O  O18  1  0.58400000  0.82000000  0.44000000  1.0 -0.2155104526
