# DDEC6 charges by PACMAN v1.1 (https://github.com/mtap-research/PACMAN-charge/)
data_OGOJAX_ASR_pacman
_symmetry_space_group_name_H-M   'P 1'
_cell_length_a   24.29150000
_cell_length_b   24.29150000
_cell_length_c   24.29150000
_cell_angle_alpha   99.56680000
_cell_angle_beta   99.56680000
_cell_angle_gamma   131.88200000
_symmetry_Int_Tables_number   1
_chemical_formula_structural   Cu3H22(C25O7)2
_chemical_formula_sum   'Cu12 H88 C200 O56'
_cell_volume   9744.79291313
_cell_formula_units_Z   4
loop_
 _symmetry_equiv_pos_site_id
 _symmetry_equiv_pos_as_xyz
  1  'x, y, z'
loop_
 _atom_site_type_symbol
 _atom_site_label
 _atom_site_symmetry_multiplicity
 _atom_site_fract_x
 _atom_site_fract_y
 _atom_site_fract_z
 _atom_site_occupancy
 _atom_site_charge
Cu  Cu1  1  0.11944000  0.68258000  0.80202000  1.0 0.8028556762
Cu  Cu2  1  0.88056000  0.31742000  0.19798000  1.0 0.8028556762
Cu  Cu3  1  0.31742000  0.11944000  0.43686000  1.0 0.8028556762
Cu  Cu4  1  0.68258000  0.88056000  0.56314000  1.0 0.8028556762
Cu  Cu5  1  0.13452000  0.76616000  0.90068000  1.0 0.8568479774
Cu  Cu6  1  0.86548000  0.23384000  0.09932000  1.0 0.8568479774
Cu  Cu7  1  0.23384000  0.13452000  0.36836000  1.0 0.8568479774
Cu  Cu8  1  0.76616000  0.86548000  0.63164000  1.0 0.8568479774
Cu  Cu9  1  0.68294000  0.18294000  0.50000000  1.0 0.8764061687
Cu  Cu10  1  0.18294000  0.68294000  0.50000000  1.0 0.8764061687
Cu  Cu11  1  0.31706000  0.81706000  0.50000000  1.0 0.8764061687
Cu  Cu12  1  0.81706000  0.31706000  0.50000000  1.0 0.8764061687
H  H1  1  0.36940000  0.88810000  0.01370000  1.0 0.1297562521
H  H2  1  0.87440000  0.35570000  0.98630000  1.0 0.1297562521
H  H3  1  0.35570000  0.36940000  0.48130000  1.0 0.1297562521
H  H4  1  0.88810000  0.87440000  0.51870000  1.0 0.1297562521
H  H5  1  0.63060000  0.11190000  0.98630000  1.0 0.1297562521
H  H6  1  0.12560000  0.64430000  0.01370000  1.0 0.1297562521
H  H7  1  0.64430000  0.63060000  0.51870000  1.0 0.1297562521
H  H8  1  0.11190000  0.12560000  0.48130000  1.0 0.1297562521
H  H9  1  0.56180000  0.93780000  0.99760000  1.0 0.1391342438
H  H10  1  0.94020000  0.56420000  0.00240000  1.0 0.1391342438
H  H11  1  0.56420000  0.56180000  0.62400000  1.0 0.1391342438
H  H12  1  0.93780000  0.94020000  0.37600000  1.0 0.1391342438
H  H13  1  0.43820000  0.06220000  0.00240000  1.0 0.1391342438
H  H14  1  0.05980000  0.43580000  0.99760000  1.0 0.1391342438
H  H15  1  0.43580000  0.43820000  0.37600000  1.0 0.1391342438
H  H16  1  0.06220000  0.05980000  0.62400000  1.0 0.1391342438
H  H17  1  0.36290000  0.80360000  0.85350000  1.0 0.1297562521
H  H18  1  0.95010000  0.50940000  0.14650000  1.0 0.1297562521
H  H19  1  0.50940000  0.36290000  0.55930000  1.0 0.1297562521
H  H20  1  0.80360000  0.95010000  0.44070000  1.0 0.1297562521
H  H21  1  0.63710000  0.19640000  0.14650000  1.0 0.1297562521
H  H22  1  0.04990000  0.49060000  0.85350000  1.0 0.1297562521
H  H23  1  0.49060000  0.63710000  0.44070000  1.0 0.1297562521
H  H24  1  0.19640000  0.04990000  0.55930000  1.0 0.1297562521
H  H25  1  0.69700000  0.14090000  0.20150000  1.0 0.1297562521
H  H26  1  0.93940000  0.49550000  0.79850000  1.0 0.1297562521
H  H27  1  0.49550000  0.69700000  0.55610000  1.0 0.1297562521
H  H28  1  0.14090000  0.93940000  0.44390000  1.0 0.1297562521
H  H29  1  0.30300000  0.85910000  0.79850000  1.0 0.1297562521
H  H30  1  0.06060000  0.50450000  0.20150000  1.0 0.1297562521
H  H31  1  0.50450000  0.30300000  0.44390000  1.0 0.1297562521
H  H32  1  0.85910000  0.06060000  0.55610000  1.0 0.1297562521
H  H33  1  0.75470000  0.21030000  0.30160000  1.0 0.1297562521
H  H34  1  0.90870000  0.45310000  0.69840000  1.0 0.1297562521
H  H35  1  0.45310000  0.75470000  0.54440000  1.0 0.1297562521
H  H36  1  0.21030000  0.90870000  0.45560000  1.0 0.1297562521
H  H37  1  0.24530000  0.78970000  0.69840000  1.0 0.1297562521
H  H38  1  0.09130000  0.54690000  0.30160000  1.0 0.1297562521
H  H39  1  0.54690000  0.24530000  0.45560000  1.0 0.1297562521
H  H40  1  0.78970000  0.09130000  0.54440000  1.0 0.1297562521
H  H41  1  0.54040000  0.04450000  0.31350000  1.0 0.1297562521
H  H42  1  0.73100000  0.22690000  0.68650000  1.0 0.1297562521
H  H43  1  0.22690000  0.54040000  0.49590000  1.0 0.1297562521
H  H44  1  0.04450000  0.73100000  0.50410000  1.0 0.1297562521
H  H45  1  0.45960000  0.95550000  0.68650000  1.0 0.1297562521
H  H46  1  0.26900000  0.77310000  0.31350000  1.0 0.1297562521
H  H47  1  0.77310000  0.45960000  0.50410000  1.0 0.1297562521
H  H48  1  0.95550000  0.26900000  0.49590000  1.0 0.1297562521
H  H49  1  0.48290000  0.97360000  0.21510000  1.0 0.1297562521
H  H50  1  0.75850000  0.26780000  0.78490000  1.0 0.1297562521
H  H51  1  0.26780000  0.48290000  0.50930000  1.0 0.1297562521
H  H52  1  0.97360000  0.75850000  0.49070000  1.0 0.1297562521
H  H53  1  0.51710000  0.02640000  0.78490000  1.0 0.1297562521
H  H54  1  0.24150000  0.73220000  0.21510000  1.0 0.1297562521
H  H55  1  0.73220000  0.51710000  0.49070000  1.0 0.1297562521
H  H56  1  0.02640000  0.24150000  0.50930000  1.0 0.1297562521
H  H57  1  0.49620000  0.85740000  0.74320000  1.0 0.1297562521
H  H58  1  0.11420000  0.75300000  0.25680000  1.0 0.1297562521
H  H59  1  0.75300000  0.49620000  0.63880000  1.0 0.1297562521
H  H60  1  0.85740000  0.11420000  0.36120000  1.0 0.1297562521
H  H61  1  0.50380000  0.14260000  0.25680000  1.0 0.1297562521
H  H62  1  0.88580000  0.24700000  0.74320000  1.0 0.1297562521
H  H63  1  0.24700000  0.50380000  0.36120000  1.0 0.1297562521
H  H64  1  0.14260000  0.88580000  0.63880000  1.0 0.1297562521
H  H65  1  0.54360000  0.85760000  0.66880000  1.0 0.1297562521
H  H66  1  0.18880000  0.87480000  0.33120000  1.0 0.1297562521
H  H67  1  0.87480000  0.54360000  0.68600000  1.0 0.1297562521
H  H68  1  0.85760000  0.18880000  0.31400000  1.0 0.1297562521
H  H69  1  0.45640000  0.14240000  0.33120000  1.0 0.1297562521
H  H70  1  0.81120000  0.12520000  0.66880000  1.0 0.1297562521
H  H71  1  0.12520000  0.45640000  0.31400000  1.0 0.1297562521
H  H72  1  0.14240000  0.81120000  0.68600000  1.0 0.1297562521
H  H73  1  0.67710000  0.84370000  0.77300000  1.0 0.1391342438
H  H74  1  0.07070000  0.90410000  0.22700000  1.0 0.1391342438
H  H75  1  0.90410000  0.67710000  0.83340000  1.0 0.1391342438
H  H76  1  0.84370000  0.07070000  0.16660000  1.0 0.1391342438
H  H77  1  0.32290000  0.15630000  0.22700000  1.0 0.1391342438
H  H78  1  0.92930000  0.09590000  0.77300000  1.0 0.1391342438
H  H79  1  0.09590000  0.32290000  0.16660000  1.0 0.1391342438
H  H80  1  0.15630000  0.92930000  0.83340000  1.0 0.1391342438
H  H81  1  0.63790000  0.86010000  0.84900000  1.0 0.1297562521
H  H82  1  0.01110000  0.78890000  0.15100000  1.0 0.1297562521
H  H83  1  0.78890000  0.63790000  0.77780000  1.0 0.1297562521
H  H84  1  0.86010000  0.01110000  0.22220000  1.0 0.1297562521
H  H85  1  0.36210000  0.13990000  0.15100000  1.0 0.1297562521
H  H86  1  0.98890000  0.21110000  0.84900000  1.0 0.1297562521
H  H87  1  0.21110000  0.36210000  0.22220000  1.0 0.1297562521
H  H88  1  0.13990000  0.98890000  0.77780000  1.0 0.1297562521
C  C1  1  0.27150000  0.80090000  0.90060000  1.0 0.572173929
C  C2  1  0.90030000  0.37090000  0.09940000  1.0 0.572173929
C  C3  1  0.37090000  0.27150000  0.47060000  1.0 0.572173929
C  C4  1  0.80090000  0.90030000  0.52940000  1.0 0.572173929
C  C5  1  0.72850000  0.19910000  0.09940000  1.0 0.572173929
C  C6  1  0.09970000  0.62910000  0.90060000  1.0 0.572173929
C  C7  1  0.62910000  0.72850000  0.52940000  1.0 0.572173929
C  C8  1  0.19910000  0.09970000  0.47060000  1.0 0.572173929
C  C9  1  0.35380000  0.84090000  0.92930000  1.0 -0.0329052399
C  C10  1  0.91160000  0.42450000  0.07070000  1.0 -0.0329052399
C  C11  1  0.42450000  0.35380000  0.51290000  1.0 -0.0329052399
C  C12  1  0.84090000  0.91160000  0.48710000  1.0 -0.0329052399
C  C13  1  0.64620000  0.15910000  0.07070000  1.0 -0.0329052399
C  C14  1  0.08840000  0.57550000  0.92930000  1.0 -0.0329052399
C  C15  1  0.57550000  0.64620000  0.48710000  1.0 -0.0329052399
C  C16  1  0.15910000  0.08840000  0.51290000  1.0 -0.0329052399
C  C17  1  0.39430000  0.88350000  0.98980000  1.0 -0.1338407936
C  C18  1  0.89370000  0.40450000  0.01020000  1.0 -0.1338407936
C  C19  1  0.40450000  0.39430000  0.51080000  1.0 -0.1338407936
C  C20  1  0.88350000  0.89370000  0.48920000  1.0 -0.1338407936
C  C21  1  0.60570000  0.11650000  0.01020000  1.0 -0.1338407936
C  C22  1  0.10630000  0.59550000  0.98980000  1.0 -0.1338407936
C  C23  1  0.59550000  0.60570000  0.48920000  1.0 -0.1338407936
C  C24  1  0.11650000  0.10630000  0.51080000  1.0 -0.1338407936
C  C25  1  0.47510000  0.92190000  0.01800000  1.0 0.1484637019
C  C26  1  0.90390000  0.45710000  0.98200000  1.0 0.1484637019
C  C27  1  0.45710000  0.47510000  0.55320000  1.0 0.1484637019
C  C28  1  0.92190000  0.90390000  0.44680000  1.0 0.1484637019
C  C29  1  0.52490000  0.07810000  0.98200000  1.0 0.1484637019
C  C30  1  0.09610000  0.54290000  0.01800000  1.0 0.1484637019
C  C31  1  0.54290000  0.52490000  0.44680000  1.0 0.1484637019
C  C32  1  0.07810000  0.09610000  0.55320000  1.0 0.1484637019
C  C33  1  0.50890000  0.91350000  0.98040000  1.0 -0.1700417995
C  C34  1  0.93310000  0.52850000  0.01960000  1.0 -0.1700417995
C  C35  1  0.52850000  0.50890000  0.59540000  1.0 -0.1700417995
C  C36  1  0.91350000  0.93310000  0.40460000  1.0 -0.1700417995
C  C37  1  0.49110000  0.08650000  0.01960000  1.0 -0.1700417995
C  C38  1  0.06690000  0.47150000  0.98040000  1.0 -0.1700417995
C  C39  1  0.47150000  0.49110000  0.40460000  1.0 -0.1700417995
C  C40  1  0.08650000  0.06690000  0.59540000  1.0 -0.1700417995
C  C41  1  0.46840000  0.87180000  0.92020000  1.0 0.1297562521
C  C42  1  0.95160000  0.54820000  0.07980000  1.0 0.1297562521
C  C43  1  0.54820000  0.46840000  0.59660000  1.0 0.1297562521
C  C44  1  0.87180000  0.95160000  0.40340000  1.0 0.1297562521
C  C45  1  0.53160000  0.12820000  0.07980000  1.0 0.1297562521
C  C46  1  0.04840000  0.45180000  0.92020000  1.0 0.1297562521
C  C47  1  0.45180000  0.53160000  0.40340000  1.0 0.1297562521
C  C48  1  0.12820000  0.04840000  0.59660000  1.0 0.1297562521
C  C49  1  0.39170000  0.83480000  0.89550000  1.0 -0.1501792911
C  C50  1  0.93930000  0.49620000  0.10450000  1.0 -0.1501792911
C  C51  1  0.49620000  0.39170000  0.55690000  1.0 -0.1501792911
C  C52  1  0.83480000  0.93930000  0.44310000  1.0 -0.1501792911
C  C53  1  0.60830000  0.16520000  0.10450000  1.0 -0.1501792911
C  C54  1  0.06070000  0.50380000  0.89550000  1.0 -0.1501792911
C  C55  1  0.50380000  0.60830000  0.44310000  1.0 -0.1501792911
C  C56  1  0.16520000  0.06070000  0.55690000  1.0 -0.1501792911
C  C57  1  0.51550000  0.96440000  0.08050000  1.0 -0.098395351
C  C58  1  0.88390000  0.43500000  0.91950000  1.0 -0.098395351
C  C59  1  0.43500000  0.51550000  0.55110000  1.0 -0.098395351
C  C60  1  0.96440000  0.88390000  0.44890000  1.0 -0.098395351
C  C61  1  0.48450000  0.03560000  0.91950000  1.0 -0.098395351
C  C62  1  0.11610000  0.56500000  0.08050000  1.0 -0.098395351
C  C63  1  0.56500000  0.48450000  0.44890000  1.0 -0.098395351
C  C64  1  0.03560000  0.11610000  0.55110000  1.0 -0.098395351
C  C65  1  0.54940000  0.00320000  0.13520000  1.0 -0.1090552028
C  C66  1  0.86800000  0.41420000  0.86480000  1.0 -0.098395351
C  C67  1  0.41420000  0.54940000  0.54620000  1.0 -0.1090552028
C  C68  1  0.00320000  0.86800000  0.45380000  1.0 -0.1090552028
C  C69  1  0.45060000  0.99680000  0.86480000  1.0 -0.098395351
C  C70  1  0.13200000  0.58580000  0.13520000  1.0 -0.1090552028
C  C71  1  0.58580000  0.45060000  0.45380000  1.0 -0.1090552028
C  C72  1  0.99680000  0.13200000  0.54620000  1.0 -0.098395351
C  C73  1  0.58640000  0.04870000  0.19730000  1.0 0.1391342438
C  C74  1  0.85140000  0.38910000  0.80270000  1.0 0.1391342438
C  C75  1  0.38910000  0.58640000  0.53770000  1.0 0.1391342438
C  C76  1  0.04870000  0.85140000  0.46230000  1.0 0.1391342438
C  C77  1  0.41360000  0.95130000  0.80270000  1.0 0.1391342438
C  C78  1  0.14860000  0.61090000  0.19730000  1.0 0.1391342438
C  C79  1  0.61090000  0.41360000  0.46230000  1.0 0.1391342438
C  C80  1  0.95130000  0.14860000  0.53770000  1.0 0.1391342438
C  C81  1  0.66540000  0.12040000  0.22520000  1.0 -0.122939621
C  C82  1  0.89520000  0.44020000  0.77480000  1.0 -0.122939621
C  C83  1  0.44020000  0.66540000  0.54500000  1.0 -0.122939621
C  C84  1  0.12040000  0.89520000  0.45500000  1.0 -0.122939621
C  C85  1  0.33460000  0.87960000  0.77480000  1.0 -0.122939621
C  C86  1  0.10480000  0.55980000  0.22520000  1.0 -0.122939621
C  C87  1  0.55980000  0.33460000  0.45500000  1.0 -0.122939621
C  C88  1  0.87960000  0.10480000  0.54500000  1.0 -0.122939621
C  C89  1  0.69940000  0.16210000  0.28410000  1.0 -0.0885075035
C  C90  1  0.87800000  0.41530000  0.71590000  1.0 -0.0885075035
C  C91  1  0.41530000  0.69940000  0.53730000  1.0 -0.0885075035
C  C92  1  0.16210000  0.87800000  0.46270000  1.0 -0.0885075035
C  C93  1  0.30060000  0.83790000  0.71590000  1.0 -0.0885075035
C  C94  1  0.12200000  0.58470000  0.28410000  1.0 -0.0885075035
C  C95  1  0.58470000  0.30060000  0.46270000  1.0 -0.0885075035
C  C96  1  0.83790000  0.12200000  0.53730000  1.0 -0.0885075035
C  C97  1  0.65510000  0.13640000  0.32030000  1.0 -0.0329052399
C  C98  1  0.81610000  0.33480000  0.67970000  1.0 -0.0329052399
C  C99  1  0.33480000  0.65510000  0.51870000  1.0 -0.0329052399
C  C100  1  0.13640000  0.81610000  0.48130000  1.0 -0.0329052399
C  C101  1  0.34490000  0.86360000  0.67970000  1.0 -0.0329052399
C  C102  1  0.18390000  0.66520000  0.32030000  1.0 -0.0329052399
C  C103  1  0.66520000  0.34490000  0.48130000  1.0 -0.0329052399
C  C104  1  0.86360000  0.18390000  0.51870000  1.0 -0.0329052399
C  C105  1  0.69200000  0.18010000  0.38570000  1.0 0.572173929
C  C106  1  0.79440000  0.30630000  0.61430000  1.0 0.572173929
C  C107  1  0.30630000  0.69200000  0.51190000  1.0 0.572173929
C  C108  1  0.18010000  0.79440000  0.48810000  1.0 0.572173929
C  C109  1  0.30800000  0.81990000  0.61430000  1.0 0.572173929
C  C110  1  0.20560000  0.69370000  0.38570000  1.0 0.572173929
C  C111  1  0.69370000  0.30800000  0.48810000  1.0 0.572173929
C  C112  1  0.81990000  0.20560000  0.51190000  1.0 0.572173929
C  C113  1  0.57260000  0.06350000  0.29010000  1.0 -0.0885075035
C  C114  1  0.77340000  0.28250000  0.70990000  1.0 -0.0885075035
C  C115  1  0.28250000  0.57260000  0.50910000  1.0 -0.0885075035
C  C116  1  0.06350000  0.77340000  0.49090000  1.0 -0.0885075035
C  C117  1  0.42740000  0.93650000  0.70990000  1.0 -0.0885075035
C  C118  1  0.22660000  0.71750000  0.29010000  1.0 -0.0885075035
C  C119  1  0.71750000  0.42740000  0.49090000  1.0 -0.0885075035
C  C120  1  0.93650000  0.22660000  0.50910000  1.0 -0.0885075035
C  C121  1  0.53830000  0.02130000  0.23280000  1.0 -0.122939621
C  C122  1  0.78850000  0.30550000  0.76720000  1.0 -0.122939621
C  C123  1  0.30550000  0.53830000  0.51700000  1.0 -0.122939621
C  C124  1  0.02130000  0.78850000  0.48300000  1.0 -0.122939621
C  C125  1  0.46170000  0.97870000  0.76720000  1.0 -0.122939621
C  C126  1  0.21150000  0.69450000  0.23280000  1.0 -0.122939621
C  C127  1  0.69450000  0.46170000  0.48300000  1.0 -0.122939621
C  C128  1  0.97870000  0.21150000  0.51700000  1.0 -0.122939621
C  C129  1  0.50680000  0.86840000  0.88080000  1.0 -0.0771963473
C  C130  1  0.98760000  0.62600000  0.11920000  1.0 -0.0771963473
C  C131  1  0.62600000  0.50680000  0.63840000  1.0 -0.0771963473
C  C132  1  0.86840000  0.98760000  0.36160000  1.0 -0.0771963473
C  C133  1  0.49320000  0.13160000  0.11920000  1.0 -0.0771963473
C  C134  1  0.01240000  0.37400000  0.88080000  1.0 -0.0771963473
C  C135  1  0.37400000  0.49320000  0.36160000  1.0 -0.0771963473
C  C136  1  0.13160000  0.01240000  0.63840000  1.0 -0.0771963473
C  C137  1  0.52890000  0.85820000  0.84430000  1.0 -0.1090552028
C  C138  1  0.01390000  0.68460000  0.15570000  1.0 -0.1090552028
C  C139  1  0.68460000  0.52890000  0.67070000  1.0 -0.1090552028
C  C140  1  0.85820000  0.01390000  0.32930000  1.0 -0.1090552028
C  C141  1  0.47110000  0.14180000  0.15570000  1.0 -0.1090552028
C  C142  1  0.98610000  0.31540000  0.84430000  1.0 -0.1090552028
C  C143  1  0.31540000  0.47110000  0.32930000  1.0 -0.1090552028
C  C144  1  0.14180000  0.98610000  0.67070000  1.0 -0.1090552028
C  C145  1  0.55920000  0.85340000  0.80140000  1.0 0.1297562521
C  C146  1  0.05200000  0.75780000  0.19860000  1.0 0.1297562521
C  C147  1  0.75780000  0.55920000  0.70580000  1.0 0.1297562521
C  C148  1  0.85340000  0.05200000  0.29420000  1.0 0.1297562521
C  C149  1  0.44080000  0.14660000  0.19860000  1.0 0.1297562521
C  C150  1  0.94800000  0.24220000  0.80140000  1.0 0.1297562521
C  C151  1  0.24220000  0.44080000  0.29420000  1.0 0.1297562521
C  C152  1  0.14660000  0.94800000  0.70580000  1.0 0.1297562521
C  C153  1  0.53410000  0.85500000  0.74930000  1.0 -0.1700417995
C  C154  1  0.10570000  0.78480000  0.25070000  1.0 -0.1700417995
C  C155  1  0.78480000  0.53410000  0.67910000  1.0 -0.1700417995
C  C156  1  0.85500000  0.10570000  0.32090000  1.0 -0.1700417995
C  C157  1  0.46590000  0.14500000  0.25070000  1.0 -0.1700417995
C  C158  1  0.89430000  0.21520000  0.74930000  1.0 -0.1700417995
C  C159  1  0.21520000  0.46590000  0.32090000  1.0 -0.1700417995
C  C160  1  0.14500000  0.89430000  0.67910000  1.0 -0.1700417995
C  C161  1  0.56080000  0.85370000  0.70470000  1.0 -0.098395351
C  C162  1  0.14900000  0.85610000  0.29530000  1.0 -0.098395351
C  C163  1  0.85610000  0.56080000  0.70710000  1.0 -0.098395351
C  C164  1  0.85370000  0.14900000  0.29290000  1.0 -0.098395351
C  C165  1  0.43920000  0.14630000  0.29530000  1.0 -0.098395351
C  C166  1  0.85100000  0.14390000  0.70470000  1.0 -0.0885075035
C  C167  1  0.14390000  0.43920000  0.29290000  1.0 -0.098395351
C  C168  1  0.14630000  0.85100000  0.70710000  1.0 -0.098395351
C  C169  1  0.61580000  0.84650000  0.71250000  1.0 -0.0160471726
C  C170  1  0.13400000  0.90330000  0.28750000  1.0 -0.0160471726
C  C171  1  0.90330000  0.61580000  0.76930000  1.0 -0.0160471726
C  C172  1  0.84650000  0.13400000  0.23070000  1.0 -0.0160471726
C  C173  1  0.38420000  0.15350000  0.28750000  1.0 -0.0160471726
C  C174  1  0.86600000  0.09670000  0.71250000  1.0 -0.0160471726
C  C175  1  0.09670000  0.38420000  0.23070000  1.0 -0.0160471726
C  C176  1  0.15350000  0.86600000  0.76930000  1.0 -0.0160471726
C  C177  1  0.64810000  0.84830000  0.66420000  1.0 0.5798157511
C  C178  1  0.18410000  0.98390000  0.33580000  1.0 0.5798157511
C  C179  1  0.98390000  0.64810000  0.79980000  1.0 0.5798157511
C  C180  1  0.84830000  0.18410000  0.20020000  1.0 0.5798157511
C  C181  1  0.35190000  0.15170000  0.33580000  1.0 0.5798157511
C  C182  1  0.81590000  0.01610000  0.66420000  1.0 0.5798157511
C  C183  1  0.01610000  0.35190000  0.20020000  1.0 0.5798157511
C  C184  1  0.15170000  0.81590000  0.79980000  1.0 0.5798157511
C  C185  1  0.64040000  0.84760000  0.76520000  1.0 -0.0885075035
C  C186  1  0.08240000  0.87520000  0.23480000  1.0 -0.0885075035
C  C187  1  0.87520000  0.64040000  0.79280000  1.0 -0.0885075035
C  C188  1  0.84760000  0.08240000  0.20720000  1.0 -0.0885075035
C  C189  1  0.35960000  0.15240000  0.23480000  1.0 -0.0885075035
C  C190  1  0.91760000  0.12480000  0.76520000  1.0 -0.0771963473
C  C191  1  0.12480000  0.35960000  0.20720000  1.0 -0.0885075035
C  C192  1  0.15240000  0.91760000  0.79280000  1.0 -0.0885075035
C  C193  1  0.61450000  0.85450000  0.81020000  1.0 -0.1362400408
C  C194  1  0.04430000  0.80430000  0.18980000  1.0 -0.1362400408
C  C195  1  0.80430000  0.61450000  0.76000000  1.0 -0.1362400408
C  C196  1  0.85450000  0.04430000  0.24000000  1.0 -0.1362400408
C  C197  1  0.38550000  0.14550000  0.18980000  1.0 -0.1362400408
C  C198  1  0.95570000  0.19570000  0.81020000  1.0 -0.1362400408
C  C199  1  0.19570000  0.38550000  0.24000000  1.0 -0.1362400408
C  C200  1  0.14550000  0.95570000  0.76000000  1.0 -0.1362400408
O  O1  1  0.24651000  0.82123000  0.93194000  1.0 -0.5095041729
O  O2  1  0.88929000  0.31457000  0.06806000  1.0 -0.5095041729
O  O3  1  0.31457000  0.24651000  0.42528000  1.0 -0.5095041729
O  O4  1  0.82123000  0.88929000  0.57472000  1.0 -0.5095041729
O  O5  1  0.75349000  0.17877000  0.06806000  1.0 -0.5095041729
O  O6  1  0.11071000  0.68543000  0.93194000  1.0 -0.5095041729
O  O7  1  0.68543000  0.75349000  0.57472000  1.0 -0.5095041729
O  O8  1  0.17877000  0.11071000  0.42528000  1.0 -0.5095041729
O  O9  1  0.23214000  0.75238000  0.84672000  1.0 -0.5095041729
O  O10  1  0.90566000  0.38542000  0.15328000  1.0 -0.5095041729
O  O11  1  0.38542000  0.23214000  0.47976000  1.0 -0.5095041729
O  O12  1  0.75238000  0.90566000  0.52024000  1.0 -0.5095041729
O  O13  1  0.76786000  0.24762000  0.15328000  1.0 -0.5095041729
O  O14  1  0.09434000  0.61458000  0.84672000  1.0 -0.5095041729
O  O15  1  0.61458000  0.76786000  0.52024000  1.0 -0.5095041729
O  O16  1  0.24762000  0.09434000  0.47976000  1.0 -0.5095041729
O  O17  1  0.64760000  0.13940000  0.41460000  1.0 -0.5315194669
O  O18  1  0.72480000  0.23300000  0.58540000  1.0 -0.5315194669
O  O19  1  0.23300000  0.64760000  0.50820000  1.0 -0.5315194669
O  O20  1  0.13940000  0.72480000  0.49180000  1.0 -0.5315194669
O  O21  1  0.35240000  0.86060000  0.58540000  1.0 -0.5315194669
O  O22  1  0.27520000  0.76700000  0.41460000  1.0 -0.5315194669
O  O23  1  0.76700000  0.35240000  0.49180000  1.0 -0.5315194669
O  O24  1  0.86060000  0.27520000  0.50820000  1.0 -0.5315194669
O  O25  1  0.76040000  0.24910000  0.41010000  1.0 -0.5048939231
O  O26  1  0.83900000  0.35030000  0.58990000  1.0 -0.5048939231
O  O27  1  0.35030000  0.76040000  0.51130000  1.0 -0.5095041729
O  O28  1  0.24910000  0.83900000  0.48870000  1.0 -0.5095041729
O  O29  1  0.23960000  0.75090000  0.58990000  1.0 -0.5095041729
O  O30  1  0.16100000  0.64970000  0.41010000  1.0 -0.5048939231
O  O31  1  0.64970000  0.23960000  0.48870000  1.0 -0.5048939231
O  O32  1  0.75090000  0.16100000  0.51130000  1.0 -0.5048939231
O  O33  1  0.62676000  0.85627000  0.61843000  1.0 -0.4924732278
O  O34  1  0.23784000  0.00833000  0.38157000  1.0 -0.4924732278
O  O35  1  0.00833000  0.62676000  0.77049000  1.0 -0.4924732278
O  O36  1  0.85627000  0.23784000  0.22951000  1.0 -0.4924732278
O  O37  1  0.37324000  0.14373000  0.38157000  1.0 -0.4924732278
O  O38  1  0.76216000  0.99167000  0.61843000  1.0 -0.4924732278
O  O39  1  0.99167000  0.37324000  0.22951000  1.0 -0.4924732278
O  O40  1  0.14373000  0.76216000  0.77049000  1.0 -0.4924732278
O  O41  1  0.69590000  0.84050000  0.67580000  1.0 -0.5315194669
O  O42  1  0.16470000  0.02010000  0.32420000  1.0 -0.5315194669
O  O43  1  0.02010000  0.69590000  0.85540000  1.0 -0.5315194669
O  O44  1  0.84050000  0.16470000  0.14460000  1.0 -0.5315194669
O  O45  1  0.30410000  0.15950000  0.32420000  1.0 -0.5315194669
O  O46  1  0.83530000  0.97990000  0.67580000  1.0 -0.5315194669
O  O47  1  0.97990000  0.30410000  0.14460000  1.0 -0.5315194669
O  O48  1  0.15950000  0.83530000  0.85540000  1.0 -0.5315194669
O  O49  1  0.12450000  0.62210000  0.72660000  1.0 -0.0647437553
O  O50  1  0.89550000  0.39790000  0.27340000  1.0 -0.0647437553
O  O51  1  0.39790000  0.12450000  0.50240000  1.0 -0.0665974858
O  O52  1  0.62210000  0.89550000  0.49760000  1.0 -0.0647437553
O  O53  1  0.87550000  0.37790000  0.27340000  1.0 -0.0647437553
O  O54  1  0.10450000  0.60210000  0.72660000  1.0 -0.0647437553
O  O55  1  0.60210000  0.87550000  0.49760000  1.0 -0.0647437553
O  O56  1  0.37790000  0.10450000  0.50240000  1.0 -0.0665974858
