# DDEC6 charges by PACMAN v1.1 (https://github.com/mtap-research/PACMAN-charge/)
data_OGUJIL_ion_pacman
_symmetry_space_group_name_H-M   'P 1'
_cell_length_a   8.27230000
_cell_length_b   20.34500000
_cell_length_c   11.70900000
_cell_angle_alpha   90.00000000
_cell_angle_beta   132.54200000
_cell_angle_gamma   90.00000000
_symmetry_Int_Tables_number   1
_chemical_formula_structural   CuB2H12C12(N3F)8
_chemical_formula_sum   'Cu2 B4 H24 C24 N48 F16'
_cell_volume   1451.92013363
_cell_formula_units_Z   2
loop_
 _symmetry_equiv_pos_site_id
 _symmetry_equiv_pos_as_xyz
  1  'x, y, z'
loop_
 _atom_site_type_symbol
 _atom_site_label
 _atom_site_symmetry_multiplicity
 _atom_site_fract_x
 _atom_site_fract_y
 _atom_site_fract_z
 _atom_site_occupancy
 _atom_site_charge
Cu  Cu1  1  0.00000000  0.00000000  0.00000000  1.0 0.5986393601
Cu  Cu2  1  0.00000000  0.50000000  0.50000000  1.0 0.5986393601
B  B1  1  0.10000000  0.18412000  0.39890000  1.0 1.0480822534
B  B2  1  0.90000000  0.68412000  0.10110000  1.0 1.0480822534
B  B3  1  0.90000000  0.81588000  0.60110000  1.0 1.0480822534
B  B4  1  0.10000000  0.31588000  0.89890000  1.0 1.0480822534
H  H1  1  0.91070000  0.14340000  0.85210000  1.0 0.1393863339
H  H2  1  0.08930000  0.64340000  0.64790000  1.0 0.1393863339
H  H3  1  0.08930000  0.85660000  0.14790000  1.0 0.1393863339
H  H4  1  0.91070000  0.35660000  0.35210000  1.0 0.1393863339
H  H5  1  0.41560000  0.15510000  0.83810000  1.0 0.1393863339
H  H6  1  0.58440000  0.65510000  0.66190000  1.0 0.1393863339
H  H7  1  0.58440000  0.84490000  0.16190000  1.0 0.1393863339
H  H8  1  0.41560000  0.34490000  0.33810000  1.0 0.1393863339
H  H9  1  0.61320000  0.33980000  0.62990000  1.0 0.132066539
H  H10  1  0.38680000  0.83980000  0.87010000  1.0 0.132066539
H  H11  1  0.38680000  0.66020000  0.37010000  1.0 0.132066539
H  H12  1  0.61320000  0.16020000  0.12990000  1.0 0.132066539
H  H13  1  0.26210000  0.36840000  0.74570000  1.0 0.1393863339
H  H14  1  0.73790000  0.86840000  0.75430000  1.0 0.1393863339
H  H15  1  0.73790000  0.63160000  0.25430000  1.0 0.1393863339
H  H16  1  0.26210000  0.13160000  0.24570000  1.0 0.1393863339
H  H17  1  0.25160000  0.99770000  0.86760000  1.0 0.1393863339
H  H18  1  0.74840000  0.49770000  0.63240000  1.0 0.1393863339
H  H19  1  0.74840000  0.00230000  0.13240000  1.0 0.1393863339
H  H20  1  0.25160000  0.50230000  0.36760000  1.0 0.1393863339
H  H21  1  0.63840000  0.00420000  0.45220000  1.0 0.132066539
H  H22  1  0.36160000  0.50420000  0.04780000  1.0 0.132066539
H  H23  1  0.36160000  0.99580000  0.54780000  1.0 0.132066539
H  H24  1  0.63840000  0.49580000  0.95220000  1.0 0.132066539
C  C1  1  0.80870000  0.13332000  0.86210000  1.0 0.1014766567
C  C2  1  0.19130000  0.63332000  0.63790000  1.0 0.1014766567
C  C3  1  0.19130000  0.86668000  0.13790000  1.0 0.1014766567
C  C4  1  0.80870000  0.36668000  0.36210000  1.0 0.1014766567
C  C5  1  0.53790000  0.13911000  0.85460000  1.0 0.0681418986
C  C6  1  0.46210000  0.63911000  0.64540000  1.0 0.0681418986
C  C7  1  0.46210000  0.86089000  0.14540000  1.0 0.0681418986
C  C8  1  0.53790000  0.36089000  0.35460000  1.0 0.0681418986
C  C9  1  0.52050000  0.35924000  0.64140000  1.0 0.0800589259
C  C10  1  0.47950000  0.85924000  0.85860000  1.0 0.0800589259
C  C11  1  0.47950000  0.64076000  0.35860000  1.0 0.0800589259
C  C12  1  0.52050000  0.14076000  0.14140000  1.0 0.0800589259
C  C13  1  0.32840000  0.37465000  0.70480000  1.0 0.0800589259
C  C14  1  0.67160000  0.87465000  0.79520000  1.0 0.0800589259
C  C15  1  0.67160000  0.62535000  0.29520000  1.0 0.0800589259
C  C16  1  0.32840000  0.12535000  0.20480000  1.0 0.0800589259
C  C17  1  0.09600000  0.99929000  0.78830000  1.0 0.1014766567
C  C18  1  0.90400000  0.49929000  0.71170000  1.0 0.1014766567
C  C19  1  0.90400000  0.00071000  0.21170000  1.0 0.1014766567
C  C20  1  0.09600000  0.50071000  0.28830000  1.0 0.1014766567
C  C21  1  0.75930000  0.00305000  0.56110000  1.0 0.0800589259
C  C22  1  0.24070000  0.50305000  0.93890000  1.0 0.0800589259
C  C23  1  0.24070000  0.99695000  0.43890000  1.0 0.0800589259
C  C24  1  0.75930000  0.49695000  0.06110000  1.0 0.0800589259
N  N1  1  0.64943000  0.17370000  0.82503000  1.0 0.1014766567
N  N2  1  0.35057000  0.67370000  0.67497000  1.0 0.1014766567
N  N3  1  0.35057000  0.82630000  0.17497000  1.0 0.1014766567
N  N4  1  0.64943000  0.32630000  0.32503000  1.0 0.1014766567
N  N5  1  0.79877000  0.07828000  0.91364000  1.0 -0.163185162
N  N6  1  0.20123000  0.57828000  0.58636000  1.0 -0.163185162
N  N7  1  0.20123000  0.92172000  0.08636000  1.0 -0.163185162
N  N8  1  0.79877000  0.42172000  0.41364000  1.0 -0.163185162
N  N9  1  0.62534000  0.08132000  0.90841000  1.0 -0.1866618185
N  N10  1  0.37466000  0.58132000  0.59159000  1.0 -0.1866618185
N  N11  1  0.37466000  0.91868000  0.09159000  1.0 -0.1866618185
N  N12  1  0.62534000  0.41868000  0.40841000  1.0 -0.1866618185
N  N13  1  0.61930000  0.23687000  0.76800000  1.0 0.0023723427
N  N14  1  0.38070000  0.73687000  0.73200000  1.0 0.0023723427
N  N15  1  0.38070000  0.76313000  0.23200000  1.0 0.0023723427
N  N16  1  0.61930000  0.26313000  0.26800000  1.0 0.0023723427
N  N17  1  0.50170000  0.26875000  0.77840000  1.0 -0.0107184651
N  N18  1  0.49830000  0.76875000  0.72160000  1.0 -0.0107184651
N  N19  1  0.49830000  0.73125000  0.22160000  1.0 -0.0107184651
N  N20  1  0.50170000  0.23125000  0.27840000  1.0 -0.0107184651
N  N21  1  0.46354000  0.33094000  0.71674000  1.0 0.1154381227
N  N22  1  0.53646000  0.83094000  0.78326000  1.0 0.1154381227
N  N23  1  0.53646000  0.66906000  0.28326000  1.0 0.1154381227
N  N24  1  0.46354000  0.16906000  0.21674000  1.0 0.1154381227
N  N25  1  0.42850000  0.41647000  0.58850000  1.0 -0.2100473694
N  N26  1  0.57150000  0.91647000  0.91150000  1.0 -0.2100473694
N  N27  1  0.57150000  0.58353000  0.41150000  1.0 -0.2100473694
N  N28  1  0.42850000  0.08353000  0.08850000  1.0 -0.2100473694
N  N29  1  0.30358000  0.42627000  0.62882000  1.0 -0.2100473694
N  N30  1  0.69642000  0.92627000  0.87118000  1.0 -0.2100473694
N  N31  1  0.69642000  0.57373000  0.37118000  1.0 -0.2100473694
N  N32  1  0.30358000  0.07373000  0.12882000  1.0 -0.2100473694
N  N33  1  0.97689000  0.00047000  0.63341000  1.0 0.1075463355
N  N34  1  0.02311000  0.50047000  0.86659000  1.0 0.1075463355
N  N35  1  0.02311000  0.99953000  0.36659000  1.0 0.1075463355
N  N36  1  0.97689000  0.49953000  0.13341000  1.0 0.1075463355
N  N37  1  0.96032000  0.00079000  0.80962000  1.0 -0.163185162
N  N38  1  0.03968000  0.50079000  0.69038000  1.0 -0.163185162
N  N39  1  0.03968000  0.99921000  0.19038000  1.0 -0.163185162
N  N40  1  0.96032000  0.49921000  0.30962000  1.0 -0.163185162
N  N41  1  0.74504000  0.00360000  0.66464000  1.0 -0.1866618185
N  N42  1  0.25496000  0.50360000  0.83536000  1.0 -0.1866618185
N  N43  1  0.25496000  0.99640000  0.33536000  1.0 -0.1866618185
N  N44  1  0.74504000  0.49640000  0.16464000  1.0 -0.1866618185
N  N45  1  0.07260000  0.99940000  0.57210000  1.0 -0.0107184651
N  N46  1  0.92740000  0.49940000  0.92790000  1.0 -0.0107184651
N  N47  1  0.92740000  0.00060000  0.42790000  1.0 -0.0107184651
N  N48  1  0.07260000  0.50060000  0.07210000  1.0 -0.0107184651
F  F1  1  0.97682000  0.18357000  0.23922000  1.0 -0.4663958191
F  F2  1  0.12964000  0.24871000  0.44810000  1.0 -0.4572494492
F  F3  1  0.30073000  0.15435000  0.47532000  1.0 -0.4663958191
F  F4  1  0.98608000  0.14996000  0.42936000  1.0 -0.4759190768
F  F5  1  0.02318000  0.68357000  0.26078000  1.0 -0.4663958191
F  F6  1  0.87036000  0.74871000  0.05190000  1.0 -0.4572494492
F  F7  1  0.69927000  0.65435000  0.02468000  1.0 -0.4663958191
F  F8  1  0.01392000  0.64996000  0.07064000  1.0 -0.4759190768
F  F9  1  0.02318000  0.81643000  0.76078000  1.0 -0.4663958191
F  F10  1  0.87036000  0.75129000  0.55190000  1.0 -0.4572494492
F  F11  1  0.69927000  0.84565000  0.52468000  1.0 -0.4663958191
F  F12  1  0.01392000  0.85004000  0.57064000  1.0 -0.4759190768
F  F13  1  0.97682000  0.31643000  0.73922000  1.0 -0.4663958191
F  F14  1  0.12964000  0.25129000  0.94810000  1.0 -0.4572494492
F  F15  1  0.30073000  0.34565000  0.97532000  1.0 -0.4663958191
F  F16  1  0.98608000  0.35004000  0.92936000  1.0 -0.4759190768
