# DDEC6 charges by PACMAN v1.1 (https://github.com/mtap-research/PACMAN-charge/)
data_OHATAT_ASR_pacman
_symmetry_space_group_name_H-M   'P 1'
_cell_length_a   9.97250000
_cell_length_b   10.53690000
_cell_length_c   14.11840000
_cell_angle_alpha   90.47700000
_cell_angle_beta   109.92400000
_cell_angle_gamma   98.59600000
_symmetry_Int_Tables_number   1
_chemical_formula_structural   Co3P2H18C22(NO6)2
_chemical_formula_sum   'Co6 P4 H36 C44 N4 O24'
_cell_volume   1376.28089014
_cell_formula_units_Z   2
loop_
 _symmetry_equiv_pos_site_id
 _symmetry_equiv_pos_as_xyz
  1  'x, y, z'
loop_
 _atom_site_type_symbol
 _atom_site_label
 _atom_site_symmetry_multiplicity
 _atom_site_fract_x
 _atom_site_fract_y
 _atom_site_fract_z
 _atom_site_occupancy
 _atom_site_charge
Co  Co1  1  0.58392000  0.27034000  0.00512000  1.0 1.0985115827
Co  Co2  1  0.41608000  0.72966000  0.99488000  1.0 1.0985115827
Co  Co3  1  0.04168000  0.17515000  0.89916000  1.0 0.9371767999
Co  Co4  1  0.95832000  0.82485000  0.10084000  1.0 0.9371767999
Co  Co5  1  0.13496000  0.31672000  0.12657000  1.0 0.8961206437
Co  Co6  1  0.86504000  0.68328000  0.87343000  1.0 0.8961206437
P  P1  1  0.83849000  0.09710000  0.03292000  1.0 1.257072276
P  P2  1  0.16151000  0.90290000  0.96708000  1.0 1.257072276
P  P3  1  0.31476000  0.41666000  0.98450000  1.0 1.2723490656
P  P4  1  0.68524000  0.58334000  0.01550000  1.0 1.2723490656
H  H1  1  0.65680000  0.04300000  0.87120000  1.0 0.1566807688
H  H2  1  0.34320000  0.95700000  0.12880000  1.0 0.1566807688
H  H3  1  0.50340000  0.47430000  0.14290000  1.0 0.1680669845
H  H4  1  0.49660000  0.52570000  0.85710000  1.0 0.1680669845
H  H5  1  0.10840000  0.03060000  0.73610000  1.0 0.1186711282
H  H6  1  0.89160000  0.96940000  0.26390000  1.0 0.1186711282
H  H7  1  0.11880000  0.04990000  0.57880000  1.0 0.1040790141
H  H8  1  0.88120000  0.95010000  0.42120000  1.0 0.1040790141
H  H9  1  0.04870000  0.40730000  0.59100000  1.0 0.1069071633
H  H10  1  0.95130000  0.59270000  0.40900000  1.0 0.1069071633
H  H11  1  0.03050000  0.37590000  0.74630000  1.0 0.1277981394
H  H12  1  0.96950000  0.62410000  0.25370000  1.0 0.1277981394
H  H13  1  0.92980000  0.35310000  0.24500000  1.0 0.1427980982
H  H14  1  0.07020000  0.64690000  0.75500000  1.0 0.1427980982
H  H15  1  0.91330000  0.32720000  0.40230000  1.0 0.1186711282
H  H16  1  0.08670000  0.67280000  0.59770000  1.0 0.1186711282
H  H17  1  0.23880000  0.13100000  0.46920000  1.0 0.1069071633
H  H18  1  0.76120000  0.86900000  0.53080000  1.0 0.1069071633
H  H19  1  0.24950000  0.16550000  0.31120000  1.0 0.1427980982
H  H20  1  0.75050000  0.83450000  0.68880000  1.0 0.1427980982
H  H21  1  0.99740000  0.89080000  0.75480000  1.0 0.1277981394
H  H22  1  0.00260000  0.10920000  0.24520000  1.0 0.1277981394
H  H23  1  0.98680000  0.08170000  0.39930000  1.0 0.0890030735
H  H24  1  0.01320000  0.91830000  0.60070000  1.0 0.0890030735
H  H25  1  0.78600000  0.56920000  0.50830000  1.0 0.1069071633
H  H26  1  0.21400000  0.43080000  0.49170000  1.0 0.1069071633
H  H27  1  0.79310000  0.54300000  0.67300000  1.0 0.1277981394
H  H28  1  0.20690000  0.45700000  0.32700000  1.0 0.1277981394
H  H29  1  0.27260000  0.20070000  0.79270000  1.0 0.1680669845
H  H30  1  0.72740000  0.79930000  0.20730000  1.0 0.1680669845
H  H31  1  0.28090000  0.20460000  0.63220000  1.0 0.1277981394
H  H32  1  0.71910000  0.79540000  0.36780000  1.0 0.1277981394
H  H33  1  0.86280000  0.19830000  0.52330000  1.0 0.1069071633
H  H34  1  0.13720000  0.80170000  0.47670000  1.0 0.1069071633
H  H35  1  0.85260000  0.17520000  0.68130000  1.0 0.1186711282
H  H36  1  0.14740000  0.82480000  0.31870000  1.0 0.1277981394
C  C1  1  0.75550000  0.09090000  0.89460000  1.0 -0.2525104373
C  C2  1  0.24450000  0.90910000  0.10540000  1.0 -0.2525104373
C  C3  1  0.75850000  0.23110000  0.86830000  1.0 0.5985933901
C  C4  1  0.24150000  0.76890000  0.13170000  1.0 0.5985933901
C  C5  1  0.40710000  0.42180000  0.12180000  1.0 -0.2600663542
C  C6  1  0.59290000  0.57820000  0.87820000  1.0 -0.2600663542
C  C7  1  0.41450000  0.28160000  0.14440000  1.0 0.5985933901
C  C8  1  0.58550000  0.71840000  0.85560000  1.0 0.5985933901
C  C9  1  0.09270000  0.10780000  0.70600000  1.0 -0.0046060248
C  C10  1  0.90730000  0.89220000  0.29400000  1.0 -0.0046060248
C  C11  1  0.09990000  0.11920000  0.61070000  1.0 -0.0826961487
C  C12  1  0.90010000  0.88080000  0.38930000  1.0 -0.0826961487
C  C13  1  0.08050000  0.22670000  0.56340000  1.0 0.0400172347
C  C14  1  0.91950000  0.77330000  0.43660000  1.0 0.0400172347
C  C15  1  0.05780000  0.32760000  0.61810000  1.0 -0.1500585912
C  C16  1  0.94220000  0.67240000  0.38190000  1.0 -0.1500585912
C  C17  1  0.04890000  0.30850000  0.71200000  1.0 0.0137233208
C  C18  1  0.95110000  0.69150000  0.28800000  1.0 0.0137233208
C  C19  1  0.99960000  0.31560000  0.29300000  1.0 0.0137233208
C  C20  1  0.00040000  0.68440000  0.70700000  1.0 0.0137233208
C  C21  1  0.98890000  0.29940000  0.38800000  1.0 -0.1041905968
C  C22  1  0.01110000  0.70060000  0.61200000  1.0 -0.1041905968
C  C23  1  0.08910000  0.24260000  0.46130000  1.0 0.0477851392
C  C24  1  0.91090000  0.75740000  0.53870000  1.0 0.0477851392
C  C25  1  0.18070000  0.18430000  0.42790000  1.0 -0.1203384507
C  C26  1  0.81930000  0.81570000  0.57210000  1.0 -0.1203384507
C  C27  1  0.18610000  0.20560000  0.33160000  1.0 -0.0046060248
C  C28  1  0.81390000  0.79440000  0.66840000  1.0 -0.0053499788
C  C29  1  0.95500000  0.82310000  0.70610000  1.0 0.0400172347
C  C30  1  0.04500000  0.17690000  0.29390000  1.0 0.0400172347
C  C31  1  0.96400000  0.84040000  0.61120000  1.0 -0.0696903854
C  C32  1  0.03600000  0.15960000  0.38880000  1.0 -0.0696903854
C  C33  1  0.83300000  0.63400000  0.55880000  1.0 -0.1629909515
C  C34  1  0.16700000  0.36600000  0.44120000  1.0 -0.1629909515
C  C35  1  0.83400000  0.62100000  0.65670000  1.0 -0.0311006992
C  C36  1  0.16600000  0.37900000  0.34330000  1.0 -0.0311006992
C  C37  1  0.18780000  0.20300000  0.73860000  1.0 0.0137233208
C  C38  1  0.81220000  0.79700000  0.26140000  1.0 0.0137233208
C  C39  1  0.19430000  0.21100000  0.64190000  1.0 -0.063794741
C  C40  1  0.80570000  0.78900000  0.35810000  1.0 -0.063794741
C  C41  1  0.94810000  0.20400000  0.57840000  1.0 -0.1203384507
C  C42  1  0.05190000  0.79600000  0.42160000  1.0 -0.1203384507
C  C43  1  0.94200000  0.19000000  0.67300000  1.0 -0.0214725505
C  C44  1  0.05800000  0.81000000  0.32700000  1.0 -0.0214725505
N  N1  1  0.06540000  0.19790000  0.75630000  1.0 -0.0214725505
N  N2  1  0.93460000  0.80210000  0.24370000  1.0 -0.0214725505
N  N3  1  0.10730000  0.27880000  0.26820000  1.0 -0.0214725505
N  N4  1  0.89270000  0.72120000  0.73180000  1.0 -0.0214725505
O  O1  1  0.99650000  0.15510000  0.04830000  1.0 -0.7495296835
O  O2  1  0.00350000  0.84490000  0.95170000  1.0 -0.7495296835
O  O3  1  0.82810000  0.96010000  0.06640000  1.0 -0.7333832919
O  O4  1  0.17190000  0.03990000  0.93360000  1.0 -0.7333832919
O  O5  1  0.76040000  0.18070000  0.07430000  1.0 -0.7695082366
O  O6  1  0.23960000  0.81930000  0.92570000  1.0 -0.7695082366
O  O7  1  0.84520000  0.03740000  0.84930000  1.0 -0.4581278055
O  O8  1  0.15480000  0.96260000  0.15070000  1.0 -0.4581278055
O  O9  1  0.86830000  0.28430000  0.85100000  1.0 -0.5433856785
O  O10  1  0.13170000  0.71570000  0.14900000  1.0 -0.5433856785
O  O11  1  0.65580000  0.28690000  0.86980000  1.0 -0.5472853123
O  O12  1  0.34420000  0.71310000  0.13020000  1.0 -0.5472853123
O  O13  1  0.16920000  0.33540000  0.97730000  1.0 -0.7695082366
O  O14  1  0.83080000  0.66460000  0.02270000  1.0 -0.7695082366
O  O15  1  0.40080000  0.35180000  0.93520000  1.0 -0.7892545997
O  O16  1  0.59920000  0.64820000  0.06480000  1.0 -0.7892545997
O  O17  1  0.29030000  0.55040000  0.95000000  1.0 -0.7495296835
O  O18  1  0.70970000  0.44960000  0.05000000  1.0 -0.7495296835
O  O19  1  0.31640000  0.46860000  0.17000000  1.0 -0.4125486552
O  O20  1  0.68360000  0.53140000  0.83000000  1.0 -0.4125486552
O  O21  1  0.31440000  0.22210000  0.17000000  1.0 -0.516434425
O  O22  1  0.68560000  0.77790000  0.83000000  1.0 -0.516434425
O  O23  1  0.51480000  0.23340000  0.13180000  1.0 -0.5680247484
O  O24  1  0.48520000  0.76660000  0.86820000  1.0 -0.5680247484
