# DDEC6 charges by PACMAN v1.1 (https://github.com/mtap-research/PACMAN-charge/)
data_OHOMIH_FSR_pacman
_symmetry_space_group_name_H-M   'P 1'
_cell_length_a   3.49260000
_cell_length_b   9.82800000
_cell_length_c   17.31080000
_cell_angle_alpha   90.00000000
_cell_angle_beta   97.86150000
_cell_angle_gamma   90.00000000
_symmetry_Int_Tables_number   1
_chemical_formula_structural   Cu2H3C9O8
_chemical_formula_sum   'Cu4 H6 C18 O16'
_cell_volume   588.61341999
_cell_formula_units_Z   2
loop_
 _symmetry_equiv_pos_site_id
 _symmetry_equiv_pos_as_xyz
  1  'x, y, z'
loop_
 _atom_site_type_symbol
 _atom_site_label
 _atom_site_symmetry_multiplicity
 _atom_site_fract_x
 _atom_site_fract_y
 _atom_site_fract_z
 _atom_site_occupancy
 _atom_site_charge
Cu  Cu1  1  0.85310000  0.75905000  0.27198000  1.0 1.0422116529
Cu  Cu2  1  0.85310000  0.24095000  0.77198000  1.0 1.0422116529
Cu  Cu3  1  0.52266000  0.54465000  0.39336000  1.0 1.1176247608
Cu  Cu4  1  0.52266000  0.45535000  0.89336000  1.0 1.1176247608
H  H1  1  0.89510000  0.21700000  0.28420000  1.0 0.1407400753
H  H2  1  0.89510000  0.78300000  0.78420000  1.0 0.1407400753
H  H3  1  0.04910000  0.45750000  0.10300000  1.0 0.1463814389
H  H4  1  0.04910000  0.54250000  0.60300000  1.0 0.1463814389
H  H5  1  0.17520000  0.04980000  0.08720000  1.0 0.1407400753
H  H6  1  0.17520000  0.95020000  0.58720000  1.0 0.1407400753
C  C1  1  0.03060000  0.11290000  0.19110000  1.0 -0.0090398617
C  C2  1  0.03060000  0.88710000  0.69110000  1.0 -0.0090398617
C  C3  1  0.95040000  0.22650000  0.23340000  1.0 -0.1014964271
C  C4  1  0.95040000  0.77350000  0.73340000  1.0 -0.1014964271
C  C5  1  0.95160000  0.35450000  0.19960000  1.0 -0.0090398617
C  C6  1  0.95160000  0.64550000  0.69960000  1.0 -0.0090398617
C  C7  1  0.04360000  0.37100000  0.12460000  1.0 -0.1014964271
C  C8  1  0.04360000  0.62900000  0.62460000  1.0 -0.1014964271
C  C9  1  0.12880000  0.25680000  0.08180000  1.0 0.0011097488
C  C10  1  0.12880000  0.74320000  0.58180000  1.0 0.0011097488
C  C11  1  0.12060000  0.12640000  0.11530000  1.0 -0.0916204404
C  C12  1  0.12060000  0.87360000  0.61530000  1.0 -0.0916204404
C  C13  1  0.99450000  0.97480000  0.22450000  1.0 0.5199218404
C  C14  1  0.99450000  0.02520000  0.72450000  1.0 0.5199218404
C  C15  1  0.85540000  0.47460000  0.24740000  1.0 0.5719901335
C  C16  1  0.85540000  0.52540000  0.74740000  1.0 0.5719901335
C  C17  1  0.24030000  0.26900000  0.00130000  1.0 0.5550718319
C  C18  1  0.24030000  0.73100000  0.50130000  1.0 0.5550718319
O  O1  1  0.87070000  0.95980000  0.28960000  1.0 -0.4260694969
O  O2  1  0.87070000  0.04020000  0.78960000  1.0 -0.4260694969
O  O3  1  0.07440000  0.86830000  0.18780000  1.0 -0.4943465579
O  O4  1  0.07440000  0.13170000  0.68780000  1.0 -0.4943465579
O  O5  1  0.84460000  0.59100000  0.21440000  1.0 -0.4694010306
O  O6  1  0.84460000  0.40900000  0.71440000  1.0 -0.4694010306
O  O7  1  0.47510000  0.71220000  0.33690000  1.0 -0.8010442544
O  O8  1  0.47510000  0.28780000  0.83690000  1.0 -0.8010442544
O  O9  1  0.80990000  0.45390000  0.31670000  1.0 -0.5234325815
O  O10  1  0.80990000  0.54610000  0.81670000  1.0 -0.5234325815
O  O11  1  0.53870000  0.36950000  0.44370000  1.0 -0.3482788194
O  O12  1  0.53870000  0.63050000  0.94370000  1.0 -0.3392391491
O  O13  1  0.22190000  0.39080000  0.97300000  1.0 -0.5258064855
O  O14  1  0.22190000  0.60920000  0.47300000  1.0 -0.5258064855
O  O15  1  0.34460000  0.16820000  0.96810000  1.0 -0.3392391491
O  O16  1  0.34460000  0.83180000  0.46810000  1.0 -0.3392391491
