# DDEC6 charges by PACMAN v1.1 (https://github.com/mtap-research/PACMAN-charge/)
data_OHUHEH_FSR_pacman
_symmetry_space_group_name_H-M   'P 1'
_cell_length_a   13.50600000
_cell_length_b   5.85060000
_cell_length_c   26.95000000
_cell_angle_alpha   90.00000000
_cell_angle_beta   114.60200000
_cell_angle_gamma   90.00000000
_symmetry_Int_Tables_number   1
_chemical_formula_structural   SrH12C14SO8
_chemical_formula_sum   'Sr4 H48 C56 S4 O32'
_cell_volume   1936.22425199
_cell_formula_units_Z   4
loop_
 _symmetry_equiv_pos_site_id
 _symmetry_equiv_pos_as_xyz
  1  'x, y, z'
loop_
 _atom_site_type_symbol
 _atom_site_label
 _atom_site_symmetry_multiplicity
 _atom_site_fract_x
 _atom_site_fract_y
 _atom_site_fract_z
 _atom_site_occupancy
 _atom_site_charge
Sr  Sr1  1  0.68402000  0.24316000  0.80063000  1.0 1.4799381838
Sr  Sr2  1  0.31598000  0.74316000  0.69937000  1.0 1.4799381838
Sr  Sr3  1  0.31598000  0.75684000  0.19937000  1.0 1.4799381838
Sr  Sr4  1  0.68402000  0.25684000  0.30063000  1.0 1.4799381838
H  H1  1  0.15040000  0.99530000  0.04140000  1.0 0.1190600953
H  H2  1  0.13880000  0.71660000  0.96870000  1.0 0.1190600953
H  H3  1  0.02670000  0.07220000  0.95330000  1.0 0.1290922683
H  H4  1  0.26140000  0.63870000  0.05770000  1.0 0.1290922683
H  H5  1  0.08540000  0.98280000  0.77550000  1.0 0.112060015
H  H6  1  0.12370000  0.69630000  0.85560000  1.0 0.1190600953
H  H7  1  0.21690000  0.61000000  0.80280000  1.0 0.1190600953
H  H8  1  0.98860000  0.06880000  0.82640000  1.0 0.1290922683
H  H9  1  0.42690000  0.24700000  0.76590000  1.0 0.2919711516
H  H10  1  0.47830000  0.07500000  0.79230000  1.0 0.2779014752
H  H11  1  0.50050000  0.19500000  0.68350000  1.0 0.3025962458
H  H12  1  0.57500000  0.24300000  0.67600000  1.0 0.2571271406
H  H13  1  0.84960000  0.49530000  0.45860000  1.0 0.1190600953
H  H14  1  0.86120000  0.21660000  0.53130000  1.0 0.1190600953
H  H15  1  0.97330000  0.57220000  0.54670000  1.0 0.1290922683
H  H16  1  0.73860000  0.13870000  0.44230000  1.0 0.1290922683
H  H17  1  0.91460000  0.48280000  0.72450000  1.0 0.112060015
H  H18  1  0.87630000  0.19630000  0.64440000  1.0 0.1190600953
H  H19  1  0.78310000  0.11000000  0.69720000  1.0 0.1190600953
H  H20  1  0.01140000  0.56880000  0.67360000  1.0 0.1290922683
H  H21  1  0.57310000  0.74700000  0.73410000  1.0 0.2919711516
H  H22  1  0.52170000  0.57500000  0.70770000  1.0 0.2779014752
H  H23  1  0.49950000  0.69500000  0.81650000  1.0 0.3025962458
H  H24  1  0.42500000  0.74300000  0.82400000  1.0 0.2571271406
H  H25  1  0.84960000  0.00470000  0.95860000  1.0 0.1190600953
H  H26  1  0.86120000  0.28340000  0.03130000  1.0 0.1190600953
H  H27  1  0.97330000  0.92780000  0.04670000  1.0 0.1290922683
H  H28  1  0.73860000  0.36130000  0.94230000  1.0 0.1290922683
H  H29  1  0.91460000  0.01720000  0.22450000  1.0 0.112060015
H  H30  1  0.87630000  0.30370000  0.14440000  1.0 0.1190600953
H  H31  1  0.78310000  0.39000000  0.19720000  1.0 0.1190600953
H  H32  1  0.01140000  0.93120000  0.17360000  1.0 0.1290922683
H  H33  1  0.57310000  0.75300000  0.23410000  1.0 0.2919711516
H  H34  1  0.52170000  0.92500000  0.20770000  1.0 0.2779014752
H  H35  1  0.49950000  0.80500000  0.31650000  1.0 0.3025962458
H  H36  1  0.42500000  0.75700000  0.32400000  1.0 0.2571271406
H  H37  1  0.15040000  0.50470000  0.54140000  1.0 0.1190600953
H  H38  1  0.13880000  0.78340000  0.46870000  1.0 0.1190600953
H  H39  1  0.02670000  0.42780000  0.45330000  1.0 0.1290922683
H  H40  1  0.26140000  0.86130000  0.55770000  1.0 0.1290922683
H  H41  1  0.08540000  0.51720000  0.27550000  1.0 0.112060015
H  H42  1  0.12370000  0.80370000  0.35560000  1.0 0.1190600953
H  H43  1  0.21690000  0.89000000  0.30280000  1.0 0.1190600953
H  H44  1  0.98860000  0.43120000  0.32640000  1.0 0.1290922683
H  H45  1  0.42690000  0.25300000  0.26590000  1.0 0.2919711516
H  H46  1  0.47830000  0.42500000  0.29230000  1.0 0.2779014752
H  H47  1  0.50050000  0.30500000  0.18350000  1.0 0.3025962458
H  H48  1  0.57500000  0.25700000  0.17600000  1.0 0.2571271406
C  C1  1  0.16128000  0.28660000  0.78408000  1.0 -0.0162146399
C  C2  1  0.14751000  0.14070000  0.02691000  1.0 -0.0913645455
C  C3  1  0.14074000  0.57240000  0.98354000  1.0 -0.107297997
C  C4  1  0.07052000  0.40310000  0.95297000  1.0 -0.0832428364
C  C5  1  0.21783000  0.30970000  0.05863000  1.0 -0.0112043293
C  C6  1  0.07374000  0.18570000  0.97424000  1.0 -0.1013305508
C  C7  1  0.21439000  0.52520000  0.03679000  1.0 -0.0913645455
C  C8  1  0.04655000  0.39220000  0.84537000  1.0 -0.0832428364
C  C9  1  0.09252000  0.12650000  0.79142000  1.0 -0.0913645455
C  C10  1  0.11545000  0.55380000  0.83905000  1.0 -0.107297997
C  C11  1  0.17179000  0.50120000  0.80789000  1.0 -0.1013305508
C  C12  1  0.03469000  0.17680000  0.82179000  1.0 -0.1013305508
C  C13  1  0.29721000  0.25550000  0.11671000  1.0 0.6093085156
C  C14  1  0.22667000  0.22690000  0.75187000  1.0 0.6093085156
C  C15  1  0.83872000  0.78660000  0.71592000  1.0 -0.0162146399
C  C16  1  0.85249000  0.64070000  0.47309000  1.0 -0.0913645455
C  C17  1  0.85926000  0.07240000  0.51646000  1.0 -0.107297997
C  C18  1  0.92948000  0.90310000  0.54703000  1.0 -0.0832428364
C  C19  1  0.78217000  0.80970000  0.44137000  1.0 -0.0112043293
C  C20  1  0.92626000  0.68570000  0.52576000  1.0 -0.1013305508
C  C21  1  0.78561000  0.02520000  0.46321000  1.0 -0.0913645455
C  C22  1  0.95345000  0.89220000  0.65463000  1.0 -0.0832428364
C  C23  1  0.90748000  0.62650000  0.70858000  1.0 -0.0913645455
C  C24  1  0.88455000  0.05380000  0.66095000  1.0 -0.107297997
C  C25  1  0.82821000  0.00120000  0.69211000  1.0 -0.1013305508
C  C26  1  0.96531000  0.67680000  0.67821000  1.0 -0.1013305508
C  C27  1  0.70279000  0.75550000  0.38329000  1.0 0.6093085156
C  C28  1  0.77333000  0.72690000  0.74813000  1.0 0.6093085156
C  C29  1  0.83872000  0.71340000  0.21592000  1.0 -0.0162146399
C  C30  1  0.85249000  0.85930000  0.97309000  1.0 -0.0913645455
C  C31  1  0.85926000  0.42760000  0.01646000  1.0 -0.107297997
C  C32  1  0.92948000  0.59690000  0.04703000  1.0 -0.0832428364
C  C33  1  0.78217000  0.69030000  0.94137000  1.0 -0.0112043293
C  C34  1  0.92626000  0.81430000  0.02576000  1.0 -0.1013305508
C  C35  1  0.78561000  0.47480000  0.96321000  1.0 -0.0913645455
C  C36  1  0.95345000  0.60780000  0.15463000  1.0 -0.0832428364
C  C37  1  0.90748000  0.87350000  0.20858000  1.0 -0.0913645455
C  C38  1  0.88455000  0.44620000  0.16095000  1.0 -0.107297997
C  C39  1  0.82821000  0.49880000  0.19211000  1.0 -0.1013305508
C  C40  1  0.96531000  0.82320000  0.17821000  1.0 -0.1013305508
C  C41  1  0.70279000  0.74450000  0.88329000  1.0 0.6093085156
C  C42  1  0.77333000  0.77310000  0.24813000  1.0 0.6093085156
C  C43  1  0.16128000  0.21340000  0.28408000  1.0 -0.0162146399
C  C44  1  0.14751000  0.35930000  0.52691000  1.0 -0.0913645455
C  C45  1  0.14074000  0.92760000  0.48354000  1.0 -0.107297997
C  C46  1  0.07052000  0.09690000  0.45297000  1.0 -0.0832428364
C  C47  1  0.21783000  0.19030000  0.55863000  1.0 -0.0112043293
C  C48  1  0.07374000  0.31430000  0.47424000  1.0 -0.1013305508
C  C49  1  0.21439000  0.97480000  0.53679000  1.0 -0.0913645455
C  C50  1  0.04655000  0.10780000  0.34537000  1.0 -0.0832428364
C  C51  1  0.09252000  0.37350000  0.29142000  1.0 -0.0913645455
C  C52  1  0.11545000  0.94620000  0.33905000  1.0 -0.107297997
C  C53  1  0.17179000  0.99880000  0.30789000  1.0 -0.1013305508
C  C54  1  0.03469000  0.32320000  0.32179000  1.0 -0.1013305508
C  C55  1  0.29721000  0.24450000  0.61671000  1.0 0.6093085156
C  C56  1  0.22667000  0.27310000  0.25187000  1.0 0.6093085156
S  S1  1  0.97628000  0.46421000  0.88560000  1.0 0.9936665641
S  S2  1  0.02372000  0.96421000  0.61440000  1.0 0.9936665641
S  S3  1  0.02372000  0.53579000  0.11440000  1.0 0.9936665641
S  S4  1  0.97628000  0.03579000  0.38560000  1.0 0.9936665641
O  O1  1  0.95672000  0.70660000  0.88135000  1.0 -0.5085333242
O  O2  1  0.31108000  0.04970000  0.13003000  1.0 -0.6186272754
O  O3  1  0.27158000  0.38820000  0.73847000  1.0 -0.6301196991
O  O4  1  0.34522000  0.42200000  0.14678000  1.0 -0.6425840957
O  O5  1  0.23328000  0.01990000  0.74234000  1.0 -0.6301196991
O  O6  1  0.55812000  0.24290000  0.69492000  1.0 -0.5495935334
O  O7  1  0.48659000  0.18510000  0.78317000  1.0 -0.6646008148
O  O8  1  0.88654000  0.30630000  0.87264000  1.0 -0.5666306271
O  O9  1  0.04328000  0.20660000  0.61865000  1.0 -0.5085333242
O  O10  1  0.68892000  0.54970000  0.36997000  1.0 -0.6186272754
O  O11  1  0.72842000  0.88820000  0.76153000  1.0 -0.6301196991
O  O12  1  0.65478000  0.92200000  0.35322000  1.0 -0.6425840957
O  O13  1  0.76672000  0.51990000  0.75766000  1.0 -0.6301196991
O  O14  1  0.44188000  0.74290000  0.80508000  1.0 -0.5495935334
O  O15  1  0.51341000  0.68510000  0.71683000  1.0 -0.6646008148
O  O16  1  0.11346000  0.80630000  0.62736000  1.0 -0.5666306271
O  O17  1  0.04328000  0.29340000  0.11865000  1.0 -0.5085333242
O  O18  1  0.68892000  0.95030000  0.86997000  1.0 -0.6186272754
O  O19  1  0.72842000  0.61180000  0.26153000  1.0 -0.6301196991
O  O20  1  0.65478000  0.57800000  0.85322000  1.0 -0.6425840957
O  O21  1  0.76672000  0.98010000  0.25766000  1.0 -0.6301196991
O  O22  1  0.44188000  0.75710000  0.30508000  1.0 -0.5495935334
O  O23  1  0.51341000  0.81490000  0.21683000  1.0 -0.6646008148
O  O24  1  0.11346000  0.69370000  0.12736000  1.0 -0.5666306271
O  O25  1  0.95672000  0.79340000  0.38135000  1.0 -0.5085333242
O  O26  1  0.31108000  0.45030000  0.63003000  1.0 -0.6186272754
O  O27  1  0.27158000  0.11180000  0.23847000  1.0 -0.6301196991
O  O28  1  0.34522000  0.07800000  0.64678000  1.0 -0.6425840957
O  O29  1  0.23328000  0.48010000  0.24234000  1.0 -0.6301196991
O  O30  1  0.55812000  0.25710000  0.19492000  1.0 -0.5495935334
O  O31  1  0.48659000  0.31490000  0.28317000  1.0 -0.6646008148
O  O32  1  0.88654000  0.19370000  0.37264000  1.0 -0.5666306271
