# DDEC6 charges by PACMAN v1.1 (https://github.com/mtap-research/PACMAN-charge/)
data_OHUMIP_FSR_pacman
_symmetry_space_group_name_H-M   'P 1'
_cell_length_a   19.90610000
_cell_length_b   19.90610000
_cell_length_c   26.78890000
_cell_angle_alpha   79.27780000
_cell_angle_beta   100.72200000
_cell_angle_gamma   93.01270000
_symmetry_Int_Tables_number   1
_chemical_formula_structural   Zn4Mo12PH7C15O46
_chemical_formula_sum   'Zn16 Mo48 P4 H28 C60 O184'
_cell_volume   10245.98381981
_cell_formula_units_Z   4
loop_
 _symmetry_equiv_pos_site_id
 _symmetry_equiv_pos_as_xyz
  1  'x, y, z'
loop_
 _atom_site_type_symbol
 _atom_site_label
 _atom_site_symmetry_multiplicity
 _atom_site_fract_x
 _atom_site_fract_y
 _atom_site_fract_z
 _atom_site_occupancy
 _atom_site_charge
Zn  Zn1  1  0.40972000  0.88744000  0.75067000  1.0 1.078971804
Zn  Zn2  1  0.88744000  0.40972000  0.74933000  1.0 1.078971804
Zn  Zn3  1  0.59028000  0.11256000  0.24933000  1.0 1.078971804
Zn  Zn4  1  0.11256000  0.59028000  0.25067000  1.0 1.078971804
Zn  Zn5  1  0.33630000  0.73388000  0.95513000  1.0 1.078971804
Zn  Zn6  1  0.73388000  0.33630000  0.54487000  1.0 1.078971804
Zn  Zn7  1  0.66370000  0.26612000  0.04487000  1.0 1.0863469053
Zn  Zn8  1  0.26612000  0.66370000  0.45513000  1.0 1.0863469053
Zn  Zn9  1  0.62164000  0.75380000  0.93298000  1.0 1.0863469053
Zn  Zn10  1  0.75380000  0.62164000  0.56702000  1.0 1.0863469053
Zn  Zn11  1  0.37836000  0.24620000  0.06702000  1.0 1.0863469053
Zn  Zn12  1  0.24620000  0.37836000  0.43298000  1.0 1.0863469053
Zn  Zn13  1  0.52647000  0.97915000  0.07036000  1.0 1.1012677956
Zn  Zn14  1  0.97915000  0.52647000  0.42964000  1.0 1.1012677956
Zn  Zn15  1  0.47353000  0.02085000  0.92964000  1.0 1.1012677956
Zn  Zn16  1  0.02085000  0.47353000  0.57036000  1.0 1.1012677956
Mo  Mo1  1  0.28139000  0.83883000  0.82712000  1.0 1.9957934229
Mo  Mo2  1  0.83883000  0.28139000  0.67288000  1.0 1.9957934229
Mo  Mo3  1  0.71861000  0.16117000  0.17288000  1.0 1.9790457496
Mo  Mo4  1  0.16117000  0.71861000  0.32712000  1.0 1.9957934229
Mo  Mo5  1  0.34425000  0.72933000  0.82246000  1.0 1.9537184644
Mo  Mo6  1  0.72933000  0.34425000  0.67754000  1.0 1.9607446599
Mo  Mo7  1  0.65575000  0.27067000  0.17754000  1.0 1.9720210004
Mo  Mo8  1  0.27067000  0.65575000  0.32246000  1.0 1.9607446599
Mo  Mo9  1  0.52098000  0.74094000  0.80939000  1.0 1.9607446599
Mo  Mo10  1  0.74094000  0.52098000  0.69061000  1.0 1.9720210004
Mo  Mo11  1  0.47902000  0.25906000  0.19061000  1.0 1.9720210004
Mo  Mo12  1  0.25906000  0.47902000  0.30939000  1.0 1.9720210004
Mo  Mo13  1  0.58393000  0.85975000  0.80374000  1.0 1.9720210004
Mo  Mo14  1  0.85975000  0.58393000  0.69626000  1.0 1.9720210004
Mo  Mo15  1  0.41607000  0.14025000  0.19626000  1.0 1.9790457496
Mo  Mo16  1  0.14025000  0.41607000  0.30374000  1.0 1.9790457496
Mo  Mo17  1  0.50946000  0.01062000  0.80785000  1.0 2.0120613981
Mo  Mo18  1  0.01062000  0.50946000  0.69215000  1.0 2.0209350515
Mo  Mo19  1  0.49054000  0.98938000  0.19215000  1.0 2.0120613981
Mo  Mo20  1  0.98938000  0.49054000  0.30785000  1.0 2.0209350515
Mo  Mo21  1  0.35275000  0.99999000  0.81965000  1.0 2.0253763605
Mo  Mo22  1  0.99999000  0.35275000  0.68035000  1.0 2.0120613981
Mo  Mo23  1  0.64725000  0.00001000  0.18035000  1.0 2.0209350515
Mo  Mo24  1  0.00001000  0.64725000  0.31965000  1.0 2.0120613981
Mo  Mo25  1  0.32040000  0.92038000  0.93848000  1.0 1.9917166937
Mo  Mo26  1  0.92038000  0.32040000  0.56152000  1.0 1.9917166937
Mo  Mo27  1  0.67960000  0.07962000  0.06152000  1.0 1.9917166937
Mo  Mo28  1  0.07962000  0.67960000  0.43848000  1.0 1.9917166937
Mo  Mo29  1  0.62455000  0.94181000  0.91489000  1.0 1.9917166937
Mo  Mo30  1  0.94181000  0.62455000  0.58511000  1.0 1.9917166937
Mo  Mo31  1  0.37545000  0.05819000  0.08511000  1.0 1.9917166937
Mo  Mo32  1  0.05819000  0.37545000  0.41489000  1.0 1.9917166937
Mo  Mo33  1  0.46937000  0.65477000  0.91939000  1.0 2.0209350515
Mo  Mo34  1  0.65477000  0.46937000  0.58061000  1.0 2.0209350515
Mo  Mo35  1  0.53063000  0.34523000  0.08061000  1.0 2.0120613981
Mo  Mo36  1  0.34523000  0.53063000  0.41939000  1.0 2.0120613981
Mo  Mo37  1  0.50626000  0.72656000  0.01807000  1.0 2.0401671339
Mo  Mo38  1  0.72656000  0.50626000  0.48193000  1.0 2.0401671339
Mo  Mo39  1  0.49374000  0.27344000  0.98193000  1.0 2.0401671339
Mo  Mo40  1  0.27344000  0.49374000  0.51807000  1.0 2.0401671339
Mo  Mo41  1  0.58839000  0.88217000  0.00154000  1.0 1.9607446599
Mo  Mo42  1  0.88217000  0.58839000  0.49846000  1.0 1.9607446599
Mo  Mo43  1  0.41161000  0.11783000  0.99846000  1.0 1.9607446599
Mo  Mo44  1  0.11783000  0.41161000  0.50154000  1.0 1.9607446599
Mo  Mo45  1  0.41593000  0.87005000  0.01563000  1.0 1.9720210004
Mo  Mo46  1  0.87005000  0.41593000  0.48437000  1.0 1.9720210004
Mo  Mo47  1  0.58407000  0.12995000  0.98437000  1.0 1.9720210004
Mo  Mo48  1  0.12995000  0.58407000  0.51563000  1.0 1.9720210004
P  P1  1  0.45942000  0.84682000  0.89043000  1.0 1.4509100426
P  P2  1  0.84682000  0.45942000  0.60957000  1.0 1.4509100426
P  P3  1  0.54058000  0.15318000  0.10957000  1.0 1.4509100426
P  P4  1  0.15318000  0.54058000  0.39043000  1.0 1.4509100426
H  H1  1  0.34980000  0.97420000  0.59430000  1.0 0.1397478003
H  H2  1  0.97420000  0.34980000  0.90570000  1.0 0.1397478003
H  H3  1  0.65020000  0.02580000  0.40570000  1.0 0.1397478003
H  H4  1  0.02580000  0.65020000  0.09430000  1.0 0.1397478003
H  H5  1  0.27590000  0.91850000  0.45900000  1.0 0.1325707962
H  H6  1  0.91850000  0.27590000  0.04100000  1.0 0.1325707962
H  H7  1  0.72410000  0.08150000  0.54100000  1.0 0.1325707962
H  H8  1  0.08150000  0.72410000  0.95900000  1.0 0.1325707962
H  H9  1  0.34430000  0.77590000  0.58170000  1.0 0.1397478003
H  H10  1  0.77590000  0.34430000  0.91830000  1.0 0.1397478003
H  H11  1  0.65570000  0.22410000  0.41830000  1.0 0.1397478003
H  H12  1  0.22410000  0.65570000  0.08170000  1.0 0.1397478003
H  H13  1  0.21150000  0.01370000  0.44910000  1.0 0.1325707962
H  H14  1  0.01370000  0.21150000  0.05090000  1.0 0.1325707962
H  H15  1  0.78850000  0.98630000  0.55090000  1.0 0.1325707962
H  H16  1  0.98630000  0.78850000  0.94910000  1.0 0.1325707962
H  H17  1  0.18660000  0.12460000  0.41350000  1.0 0.1397478003
H  H18  1  0.12460000  0.18660000  0.08650000  1.0 0.1325707962
H  H19  1  0.81340000  0.87540000  0.58650000  1.0 0.1397478003
H  H20  1  0.87540000  0.81340000  0.91350000  1.0 0.1325707962
H  H21  1  0.34930000  0.18770000  0.50500000  1.0 0.1325707962
H  H22  1  0.18770000  0.34930000  0.99500000  1.0 0.1325707962
H  H23  1  0.65070000  0.81230000  0.49500000  1.0 0.1325707962
H  H24  1  0.81230000  0.65070000  0.00500000  1.0 0.1325707962
H  H25  1  0.37650000  0.07530000  0.54020000  1.0 0.1325707962
H  H26  1  0.07530000  0.37650000  0.95980000  1.0 0.1325707962
H  H27  1  0.62350000  0.92470000  0.45980000  1.0 0.1325707962
H  H28  1  0.92470000  0.62350000  0.04020000  1.0 0.1325707962
C  C1  1  0.37690000  0.85450000  0.65430000  1.0 0.5513211522
C  C2  1  0.85450000  0.37690000  0.84570000  1.0 0.5513211522
C  C3  1  0.62310000  0.14550000  0.34570000  1.0 0.5513211522
C  C4  1  0.14550000  0.62310000  0.15430000  1.0 0.5513211522
C  C5  1  0.35150000  0.87310000  0.59690000  1.0 -0.0081152239
C  C6  1  0.87310000  0.35150000  0.90310000  1.0 -0.0081152239
C  C7  1  0.64850000  0.12690000  0.40310000  1.0 -0.0081152239
C  C8  1  0.12690000  0.64850000  0.09690000  1.0 -0.0081152239
C  C9  1  0.33930000  0.94030000  0.57430000  1.0 -0.1209774756
C  C10  1  0.94030000  0.33930000  0.92570000  1.0 -0.1209774756
C  C11  1  0.66070000  0.05970000  0.42570000  1.0 -0.1209774756
C  C12  1  0.05970000  0.66070000  0.07430000  1.0 -0.1256180984
C  C13  1  0.31160000  0.95880000  0.52220000  1.0 0.0821527708
C  C14  1  0.95880000  0.31160000  0.97780000  1.0 0.0821527708
C  C15  1  0.68840000  0.04120000  0.47780000  1.0 0.0821527708
C  C16  1  0.04120000  0.68840000  0.02220000  1.0 0.0821527708
C  C17  1  0.29550000  0.90710000  0.49370000  1.0 -0.1256180984
C  C18  1  0.90710000  0.29550000  0.00630000  1.0 -0.1256180984
C  C19  1  0.70450000  0.09290000  0.50630000  1.0 -0.1256180984
C  C20  1  0.09290000  0.70450000  0.99370000  1.0 -0.1256180984
C  C21  1  0.30710000  0.83970000  0.51480000  1.0 -0.0005960849
C  C22  1  0.83970000  0.30710000  0.98520000  1.0 -0.0005960849
C  C23  1  0.69290000  0.16030000  0.48520000  1.0 0.0003044559
C  C24  1  0.16030000  0.69290000  0.01480000  1.0 -0.0005960849
C  C25  1  0.33580000  0.82140000  0.56700000  1.0 -0.0800513539
C  C26  1  0.82140000  0.33580000  0.93300000  1.0 -0.0800513539
C  C27  1  0.66420000  0.17860000  0.43300000  1.0 -0.0800513539
C  C28  1  0.17860000  0.66420000  0.06700000  1.0 -0.0851161
C  C29  1  0.28520000  0.78660000  0.48120000  1.0 0.5513211522
C  C30  1  0.78660000  0.28520000  0.01880000  1.0 0.5513211522
C  C31  1  0.71480000  0.21340000  0.51880000  1.0 0.5513211522
C  C32  1  0.21340000  0.71480000  0.98120000  1.0 0.5513211522
C  C33  1  0.29620000  0.03160000  0.49880000  1.0 0.0821527708
C  C34  1  0.03160000  0.29620000  0.00120000  1.0 0.0878396167
C  C35  1  0.70380000  0.96840000  0.50120000  1.0 0.0878396167
C  C36  1  0.96840000  0.70380000  0.99880000  1.0 0.0878396167
C  C37  1  0.23980000  0.04840000  0.46070000  1.0 -0.1209774756
C  C38  1  0.04840000  0.23980000  0.03930000  1.0 -0.1209774756
C  C39  1  0.76020000  0.95160000  0.53930000  1.0 -0.1209774756
C  C40  1  0.95160000  0.76020000  0.96070000  1.0 -0.1209774756
C  C41  1  0.22440000  0.11500000  0.43970000  1.0 -0.072804388
C  C42  1  0.11500000  0.22440000  0.06030000  1.0 -0.072804388
C  C43  1  0.77560000  0.88500000  0.56030000  1.0 -0.072804388
C  C44  1  0.88500000  0.77560000  0.93970000  1.0 -0.072804388
C  C45  1  0.26410000  0.16890000  0.45680000  1.0 -0.0183948152
C  C46  1  0.16890000  0.26410000  0.04320000  1.0 -0.0183948152
C  C47  1  0.73590000  0.83110000  0.54320000  1.0 -0.0183948152
C  C48  1  0.83110000  0.73590000  0.95680000  1.0 -0.0183948152
C  C49  1  0.32110000  0.15270000  0.49380000  1.0 -0.0800513539
C  C50  1  0.15270000  0.32110000  0.00620000  1.0 -0.0800513539
C  C51  1  0.67890000  0.84730000  0.50620000  1.0 -0.0800513539
C  C52  1  0.84730000  0.67890000  0.99380000  1.0 -0.0800513539
C  C53  1  0.33760000  0.08500000  0.51510000  1.0 -0.1209774756
C  C54  1  0.08500000  0.33760000  0.98490000  1.0 -0.1209774756
C  C55  1  0.66240000  0.91500000  0.48490000  1.0 -0.1209774756
C  C56  1  0.91500000  0.66240000  0.01510000  1.0 -0.1209774756
C  C57  1  0.24260000  0.24040000  0.43550000  1.0 0.5382853854
C  C58  1  0.24040000  0.24260000  0.06450000  1.0 0.5382853854
C  C59  1  0.75740000  0.75960000  0.56450000  1.0 0.5382853854
C  C60  1  0.75960000  0.75740000  0.93550000  1.0 0.5382853854
O  O1  1  0.38300000  0.90620000  0.67750000  1.0 -0.5155250322
O  O2  1  0.90620000  0.38300000  0.82250000  1.0 -0.5155250322
O  O3  1  0.61700000  0.09380000  0.32250000  1.0 -0.5155250322
O  O4  1  0.09380000  0.61700000  0.17750000  1.0 -0.5155250322
O  O5  1  0.38780000  0.79440000  0.67570000  1.0 -0.4223268656
O  O6  1  0.79440000  0.38780000  0.82430000  1.0 -0.4223268656
O  O7  1  0.61220000  0.20560000  0.32430000  1.0 -0.4223268656
O  O8  1  0.20560000  0.61220000  0.17570000  1.0 -0.4223268656
O  O9  1  0.31232000  0.72764000  0.49690000  1.0 -0.5155250322
O  O10  1  0.72764000  0.31232000  0.00310000  1.0 -0.5155250322
O  O11  1  0.68768000  0.27236000  0.50310000  1.0 -0.5155250322
O  O12  1  0.27236000  0.68768000  0.99690000  1.0 -0.5155250322
O  O13  1  0.24120000  0.80200000  0.44190000  1.0 -0.4223268656
O  O14  1  0.80200000  0.24120000  0.05810000  1.0 -0.4223268656
O  O15  1  0.75880000  0.19800000  0.55810000  1.0 -0.4253772985
O  O16  1  0.19800000  0.75880000  0.94190000  1.0 -0.4223268656
O  O17  1  0.28230000  0.28730000  0.45310000  1.0 -0.526359592
O  O18  1  0.28730000  0.28230000  0.04690000  1.0 -0.526359592
O  O19  1  0.71770000  0.71270000  0.54690000  1.0 -0.526359592
O  O20  1  0.71270000  0.71770000  0.95310000  1.0 -0.526359592
O  O21  1  0.18890000  0.25050000  0.40380000  1.0 -0.4223268656
O  O22  1  0.25050000  0.18890000  0.09620000  1.0 -0.4223268656
O  O23  1  0.81110000  0.74950000  0.59620000  1.0 -0.4223268656
O  O24  1  0.74950000  0.81110000  0.90380000  1.0 -0.4223268656
O  O25  1  0.32550000  0.07490000  0.78200000  1.0 -0.4914998789
O  O26  1  0.07490000  0.32550000  0.71800000  1.0 -0.4914998789
O  O27  1  0.67450000  0.92510000  0.21800000  1.0 -0.4959329319
O  O28  1  0.92510000  0.67450000  0.28200000  1.0 -0.4914998789
O  O29  1  0.50950000  0.08730000  0.76860000  1.0 -0.4800471556
O  O30  1  0.08730000  0.50950000  0.73140000  1.0 -0.4800471556
O  O31  1  0.49050000  0.91270000  0.23140000  1.0 -0.4800471556
O  O32  1  0.91270000  0.49050000  0.26860000  1.0 -0.4914998789
O  O33  1  0.29105000  0.93695000  0.79470000  1.0 -0.7797702687
O  O34  1  0.93695000  0.29105000  0.70530000  1.0 -0.7797702687
O  O35  1  0.70895000  0.06305000  0.20530000  1.0 -0.7797702687
O  O36  1  0.06305000  0.70895000  0.29470000  1.0 -0.7797702687
O  O37  1  0.41865000  0.97055000  0.78016000  1.0 -0.9070423982
O  O38  1  0.97055000  0.41865000  0.71984000  1.0 -0.9070423982
O  O39  1  0.58135000  0.02945000  0.21984000  1.0 -0.9070423982
O  O40  1  0.02945000  0.58135000  0.28016000  1.0 -0.9070423982
O  O41  1  0.20360000  0.82180000  0.79550000  1.0 -0.4604511805
O  O42  1  0.82180000  0.20360000  0.70450000  1.0 -0.4604511805
O  O43  1  0.79640000  0.17820000  0.20450000  1.0 -0.4604511805
O  O44  1  0.17820000  0.79640000  0.29550000  1.0 -0.4604511805
O  O45  1  0.55020000  0.95420000  0.77560000  1.0 -0.7797702687
O  O46  1  0.95420000  0.55020000  0.72440000  1.0 -0.7797702687
O  O47  1  0.44980000  0.04580000  0.22440000  1.0 -0.7797702687
O  O48  1  0.04580000  0.44980000  0.27560000  1.0 -0.7797702687
O  O49  1  0.34486000  0.82258000  0.78290000  1.0 -0.8293381268
O  O50  1  0.82258000  0.34486000  0.71710000  1.0 -0.8293381268
O  O51  1  0.65514000  0.17742000  0.21710000  1.0 -0.8293381268
O  O52  1  0.17742000  0.65514000  0.28290000  1.0 -0.8293381268
O  O53  1  0.49306000  0.83194000  0.77200000  1.0 -0.8244367432
O  O54  1  0.83194000  0.49306000  0.72800000  1.0 -0.8293381268
O  O55  1  0.50694000  0.16806000  0.22800000  1.0 -0.8293381268
O  O56  1  0.16806000  0.50694000  0.27200000  1.0 -0.8244367432
O  O57  1  0.63520000  0.85240000  0.76250000  1.0 -0.4604511805
O  O58  1  0.85240000  0.63520000  0.73750000  1.0 -0.4604511805
O  O59  1  0.36480000  0.14760000  0.23750000  1.0 -0.4604511805
O  O60  1  0.14760000  0.36480000  0.26250000  1.0 -0.4604511805
O  O61  1  0.28010000  0.68810000  0.79090000  1.0 -0.4604511805
O  O62  1  0.68810000  0.28010000  0.70910000  1.0 -0.4604511805
O  O63  1  0.71990000  0.31190000  0.20910000  1.0 -0.4604511805
O  O64  1  0.31190000  0.71990000  0.29090000  1.0 -0.4604511805
O  O65  1  0.41980000  0.71580000  0.78150000  1.0 -0.8244367432
O  O66  1  0.71580000  0.41980000  0.71850000  1.0 -0.8293381268
O  O67  1  0.58020000  0.28420000  0.21850000  1.0 -0.8293381268
O  O68  1  0.28420000  0.58020000  0.28150000  1.0 -0.8293381268
O  O69  1  0.55730000  0.70430000  0.77020000  1.0 -0.4508757856
O  O70  1  0.70430000  0.55730000  0.72980000  1.0 -0.4508757856
O  O71  1  0.44270000  0.29570000  0.22980000  1.0 -0.4508757856
O  O72  1  0.29570000  0.44270000  0.27020000  1.0 -0.4508757856
O  O73  1  0.32154000  0.99866000  0.87920000  1.0 -0.7673921559
O  O74  1  0.99866000  0.32154000  0.62080000  1.0 -0.7596844401
O  O75  1  0.67846000  0.00134000  0.12080000  1.0 -0.7673921559
O  O76  1  0.00134000  0.67846000  0.37920000  1.0 -0.7596844401
O  O77  1  0.44611000  0.02563000  0.85500000  1.0 -0.9174897265
O  O78  1  0.02563000  0.44611000  0.64500000  1.0 -0.9174897265
O  O79  1  0.55389000  0.97437000  0.14500000  1.0 -0.9174897265
O  O80  1  0.97437000  0.55389000  0.35500000  1.0 -0.9174897265
O  O81  1  0.25118000  0.87234000  0.88760000  1.0 -0.8389693126
O  O82  1  0.87234000  0.25118000  0.61240000  1.0 -0.8389693126
O  O83  1  0.74882000  0.12766000  0.11240000  1.0 -0.851330955
O  O84  1  0.12766000  0.74882000  0.38760000  1.0 -0.8389693126
O  O85  1  0.58153000  0.01625000  0.85934000  1.0 -0.753524084
O  O86  1  0.01625000  0.58153000  0.64066000  1.0 -0.7596844401
O  O87  1  0.41847000  0.98375000  0.14066000  1.0 -0.753524084
O  O88  1  0.98375000  0.41847000  0.35934000  1.0 -0.7596844401
O  O89  1  0.38876000  0.88218000  0.87511000  1.0 -0.8293381268
O  O90  1  0.88218000  0.38876000  0.62489000  1.0 -0.8293381268
O  O91  1  0.61124000  0.11782000  0.12489000  1.0 -0.8293381268
O  O92  1  0.11782000  0.61124000  0.37511000  1.0 -0.8293381268
O  O93  1  0.51491000  0.89177000  0.86542000  1.0 -0.8293381268
O  O94  1  0.89177000  0.51491000  0.63458000  1.0 -0.8293381268
O  O95  1  0.48509000  0.10823000  0.13458000  1.0 -0.8293381268
O  O96  1  0.10823000  0.48509000  0.36542000  1.0 -0.8293381268
O  O97  1  0.30838000  0.75610000  0.87870000  1.0 -0.8389693126
O  O98  1  0.75610000  0.30838000  0.62130000  1.0 -0.8389693126
O  O99  1  0.69162000  0.24390000  0.12130000  1.0 -0.8389693126
O  O100  1  0.24390000  0.69162000  0.37870000  1.0 -0.8389693126
O  O101  1  0.65410000  0.90248000  0.85580000  1.0 -0.8389693126
O  O102  1  0.90248000  0.65410000  0.64420000  1.0 -0.8389693126
O  O103  1  0.34590000  0.09752000  0.14420000  1.0 -0.8389693126
O  O104  1  0.09752000  0.34590000  0.35580000  1.0 -0.8389693126
O  O105  1  0.45174000  0.77774000  0.87000000  1.0 -0.8244367432
O  O106  1  0.77774000  0.45174000  0.63000000  1.0 -0.8293381268
O  O107  1  0.54826000  0.22226000  0.13000000  1.0 -0.8244367432
O  O108  1  0.22226000  0.54826000  0.37000000  1.0 -0.8293381268
O  O109  1  0.38632000  0.65380000  0.87730000  1.0 -0.7596844401
O  O110  1  0.65380000  0.38632000  0.62270000  1.0 -0.7596844401
O  O111  1  0.61368000  0.34620000  0.12270000  1.0 -0.7596844401
O  O112  1  0.34620000  0.61368000  0.37730000  1.0 -0.7596844401
O  O113  1  0.59514000  0.77686000  0.85640000  1.0 -0.8293381268
O  O114  1  0.77686000  0.59514000  0.64360000  1.0 -0.8293381268
O  O115  1  0.40486000  0.22314000  0.14360000  1.0 -0.8293381268
O  O116  1  0.22314000  0.40486000  0.35640000  1.0 -0.8293381268
O  O117  1  0.52028000  0.66250000  0.86830000  1.0 -0.7673921559
O  O118  1  0.66250000  0.52028000  0.63170000  1.0 -0.7797702687
O  O119  1  0.47972000  0.33750000  0.13170000  1.0 -0.7797702687
O  O120  1  0.33750000  0.47972000  0.36830000  1.0 -0.7797702687
O  O121  1  0.26560000  0.94760000  0.96960000  1.0 -0.4716512652
O  O122  1  0.94760000  0.26560000  0.53040000  1.0 -0.4716512652
O  O123  1  0.73440000  0.05240000  0.03040000  1.0 -0.4716512652
O  O124  1  0.05240000  0.73440000  0.46960000  1.0 -0.4716512652
O  O125  1  0.41129000  0.95491000  0.96481000  1.0 -0.851330955
O  O126  1  0.95491000  0.41129000  0.53519000  1.0 -0.851330955
O  O127  1  0.58871000  0.04509000  0.03519000  1.0 -0.851330955
O  O128  1  0.04509000  0.58871000  0.46481000  1.0 -0.851330955
O  O129  1  0.34268000  0.82638000  0.97249000  1.0 -0.8293381268
O  O130  1  0.82638000  0.34268000  0.52751000  1.0 -0.8389693126
O  O131  1  0.65732000  0.17362000  0.02751000  1.0 -0.8389693126
O  O132  1  0.17362000  0.65732000  0.47249000  1.0 -0.8389693126
O  O133  1  0.55678000  0.96538000  0.95285000  1.0 -0.855578218
O  O134  1  0.96538000  0.55678000  0.54715000  1.0 -0.855578218
O  O135  1  0.44322000  0.03462000  0.04715000  1.0 -0.855578218
O  O136  1  0.03462000  0.44322000  0.45285000  1.0 -0.855578218
O  O137  1  0.69861000  0.97781000  0.93710000  1.0 -0.4800471556
O  O138  1  0.97781000  0.69861000  0.56290000  1.0 -0.4800471556
O  O139  1  0.30139000  0.02219000  0.06290000  1.0 -0.4800471556
O  O140  1  0.02219000  0.30139000  0.43710000  1.0 -0.4716512652
O  O141  1  0.48106000  0.83532000  0.94993000  1.0 -0.8293381268
O  O142  1  0.83532000  0.48106000  0.55007000  1.0 -0.8293381268
O  O143  1  0.51894000  0.16468000  0.05007000  1.0 -0.8293381268
O  O144  1  0.16468000  0.51894000  0.44993000  1.0 -0.8293381268
O  O145  1  0.62772000  0.84620000  0.95037000  1.0 -0.8389693126
O  O146  1  0.84620000  0.62772000  0.54963000  1.0 -0.8389693126
O  O147  1  0.37228000  0.15380000  0.04963000  1.0 -0.8389693126
O  O148  1  0.15380000  0.37228000  0.45037000  1.0 -0.8389693126
O  O149  1  0.42644000  0.69312000  0.96902000  1.0 -0.9070423982
O  O150  1  0.69312000  0.42644000  0.53098000  1.0 -0.9070423982
O  O151  1  0.57356000  0.30688000  0.03098000  1.0 -0.9070423982
O  O152  1  0.30688000  0.57356000  0.46902000  1.0 -0.9070423982
O  O153  1  0.54549000  0.70271000  0.95950000  1.0 -0.9070423982
O  O154  1  0.70271000  0.54549000  0.54050000  1.0 -0.9070423982
O  O155  1  0.45451000  0.29729000  0.04050000  1.0 -0.9070423982
O  O156  1  0.29729000  0.45451000  0.45950000  1.0 -0.9070423982
O  O157  1  0.48010000  0.57310000  0.94930000  1.0 -0.4604511805
O  O158  1  0.57310000  0.48010000  0.55070000  1.0 -0.4604511805
O  O159  1  0.51990000  0.42690000  0.05070000  1.0 -0.4604511805
O  O160  1  0.42690000  0.51990000  0.44930000  1.0 -0.4604511805
O  O161  1  0.38242000  0.88498000  0.06510000  1.0 -0.4914998789
O  O162  1  0.88498000  0.38242000  0.43490000  1.0 -0.4914998789
O  O163  1  0.61758000  0.11502000  0.93490000  1.0 -0.4914998789
O  O164  1  0.11502000  0.61758000  0.56510000  1.0 -0.4959329319
O  O165  1  0.51341000  0.89729000  0.03889000  1.0 -0.8874510568
O  O166  1  0.89729000  0.51341000  0.46111000  1.0 -0.8874510568
O  O167  1  0.48659000  0.10271000  0.96111000  1.0 -0.8874510568
O  O168  1  0.10271000  0.48659000  0.53889000  1.0 -0.8874510568
O  O169  1  0.65581000  0.90497000  0.04300000  1.0 -0.4959329319
O  O170  1  0.90497000  0.65581000  0.45700000  1.0 -0.4959329319
O  O171  1  0.34419000  0.09503000  0.95700000  1.0 -0.4914998789
O  O172  1  0.09503000  0.34419000  0.54300000  1.0 -0.4959329319
O  O173  1  0.44635000  0.77269000  0.04190000  1.0 -0.7673921559
O  O174  1  0.77269000  0.44635000  0.45810000  1.0 -0.7673921559
O  O175  1  0.55365000  0.22731000  0.95810000  1.0 -0.7673921559
O  O176  1  0.22731000  0.55365000  0.54190000  1.0 -0.7673921559
O  O177  1  0.58019000  0.78153000  0.03139000  1.0 -0.7673921559
O  O178  1  0.78153000  0.58019000  0.46861000  1.0 -0.7673921559
O  O179  1  0.41981000  0.21847000  0.96861000  1.0 -0.7673921559
O  O180  1  0.21847000  0.41981000  0.53139000  1.0 -0.7673921559
O  O181  1  0.52280000  0.65580000  0.06320000  1.0 -0.4716512652
O  O182  1  0.65580000  0.52280000  0.43680000  1.0 -0.4716512652
O  O183  1  0.47720000  0.34420000  0.93680000  1.0 -0.4716512652
O  O184  1  0.34420000  0.47720000  0.56320000  1.0 -0.4716512652
