# DDEC6 charges by PACMAN v1.1 (https://github.com/mtap-research/PACMAN-charge/)
data_OJICUG_ASR_pacman
_symmetry_space_group_name_H-M   'P 1'
_cell_length_a   14.05600000
_cell_length_b   14.05600000
_cell_length_c   18.09900000
_cell_angle_alpha   90.00000000
_cell_angle_beta   90.00000000
_cell_angle_gamma   120.00000000
_symmetry_Int_Tables_number   1
_chemical_formula_structural   Sc3H12C24O13
_chemical_formula_sum   'Sc6 H24 C48 O26'
_cell_volume   3096.76827161
_cell_formula_units_Z   2
loop_
 _symmetry_equiv_pos_site_id
 _symmetry_equiv_pos_as_xyz
  1  'x, y, z'
loop_
 _atom_site_type_symbol
 _atom_site_label
 _atom_site_symmetry_multiplicity
 _atom_site_fract_x
 _atom_site_fract_y
 _atom_site_fract_z
 _atom_site_occupancy
 _atom_site_charge
Sc  Sc1  1  0.25014000  0.74986000  0.25000000  1.0 1.794145592
Sc  Sc2  1  0.50028000  0.25014000  0.75000000  1.0 1.7963494936
Sc  Sc3  1  0.25014000  0.50028000  0.25000000  1.0 1.794145592
Sc  Sc4  1  0.74986000  0.25014000  0.75000000  1.0 1.7963494936
Sc  Sc5  1  0.49972000  0.74986000  0.25000000  1.0 1.794145592
Sc  Sc6  1  0.74986000  0.49972000  0.75000000  1.0 1.7963494936
H  H1  1  0.62090000  0.95380000  0.05670000  1.0 0.116080305
H  H2  1  0.66710000  0.62090000  0.55670000  1.0 0.116080305
H  H3  1  0.04620000  0.66710000  0.05670000  1.0 0.116080305
H  H4  1  0.37910000  0.04620000  0.55670000  1.0 0.116080305
H  H5  1  0.33290000  0.37910000  0.05670000  1.0 0.116080305
H  H6  1  0.95380000  0.33290000  0.55670000  1.0 0.116080305
H  H7  1  0.04620000  0.37910000  0.44330000  1.0 0.116080305
H  H8  1  0.66710000  0.04620000  0.94330000  1.0 0.116080305
H  H9  1  0.62090000  0.66710000  0.44330000  1.0 0.116080305
H  H10  1  0.95380000  0.62090000  0.94330000  1.0 0.116080305
H  H11  1  0.33290000  0.95380000  0.44330000  1.0 0.116080305
H  H12  1  0.37910000  0.33290000  0.94330000  1.0 0.116080305
H  H13  1  0.37910000  0.04620000  0.94330000  1.0 0.116080305
H  H14  1  0.33290000  0.37910000  0.44330000  1.0 0.116080305
H  H15  1  0.95380000  0.33290000  0.94330000  1.0 0.116080305
H  H16  1  0.62090000  0.95380000  0.44330000  1.0 0.116080305
H  H17  1  0.66710000  0.62090000  0.94330000  1.0 0.116080305
H  H18  1  0.04620000  0.66710000  0.44330000  1.0 0.116080305
H  H19  1  0.95380000  0.62090000  0.55670000  1.0 0.116080305
H  H20  1  0.33290000  0.95380000  0.05670000  1.0 0.116080305
H  H21  1  0.37910000  0.33290000  0.55670000  1.0 0.116080305
H  H22  1  0.04620000  0.37910000  0.05670000  1.0 0.116080305
H  H23  1  0.66710000  0.04620000  0.55670000  1.0 0.116080305
H  H24  1  0.62090000  0.66710000  0.05670000  1.0 0.116080305
C  C1  1  0.44180000  0.88360000  0.13882000  1.0 0.628779459
C  C2  1  0.55820000  0.44180000  0.63882000  1.0 0.628779459
C  C3  1  0.11640000  0.55820000  0.13882000  1.0 0.628779459
C  C4  1  0.55820000  0.11640000  0.63882000  1.0 0.628779459
C  C5  1  0.44180000  0.55820000  0.13882000  1.0 0.628779459
C  C6  1  0.88360000  0.44180000  0.63882000  1.0 0.628779459
C  C7  1  0.11640000  0.55820000  0.36118000  1.0 0.628779459
C  C8  1  0.55820000  0.11640000  0.86118000  1.0 0.628779459
C  C9  1  0.44180000  0.55820000  0.36118000  1.0 0.628779459
C  C10  1  0.88360000  0.44180000  0.86118000  1.0 0.628779459
C  C11  1  0.44180000  0.88360000  0.36118000  1.0 0.628779459
C  C12  1  0.55820000  0.44180000  0.86118000  1.0 0.628779459
C  C13  1  0.57170000  0.97240000  0.03362000  1.0 -0.1111040738
C  C14  1  0.59930000  0.57170000  0.53362000  1.0 -0.1111040738
C  C15  1  0.02760000  0.59930000  0.03362000  1.0 -0.1111040738
C  C16  1  0.42830000  0.02760000  0.53362000  1.0 -0.1111040738
C  C17  1  0.40070000  0.42830000  0.03362000  1.0 -0.1111040738
C  C18  1  0.97240000  0.40070000  0.53362000  1.0 -0.1111040738
C  C19  1  0.02760000  0.42830000  0.46638000  1.0 -0.1111040738
C  C20  1  0.59930000  0.02760000  0.96638000  1.0 -0.1111040738
C  C21  1  0.57170000  0.59930000  0.46638000  1.0 -0.1111040738
C  C22  1  0.97240000  0.57170000  0.96638000  1.0 -0.1111040738
C  C23  1  0.40070000  0.97240000  0.46638000  1.0 -0.1111040738
C  C24  1  0.42830000  0.40070000  0.96638000  1.0 -0.1111040738
C  C25  1  0.42830000  0.02760000  0.96638000  1.0 -0.1111040738
C  C26  1  0.40070000  0.42830000  0.46638000  1.0 -0.1111040738
C  C27  1  0.97240000  0.40070000  0.96638000  1.0 -0.1111040738
C  C28  1  0.57170000  0.97240000  0.46638000  1.0 -0.1111040738
C  C29  1  0.59930000  0.57170000  0.96638000  1.0 -0.1111040738
C  C30  1  0.02760000  0.59930000  0.46638000  1.0 -0.1111040738
C  C31  1  0.97240000  0.57170000  0.53362000  1.0 -0.1111040738
C  C32  1  0.40070000  0.97240000  0.03362000  1.0 -0.1111040738
C  C33  1  0.42830000  0.40070000  0.53362000  1.0 -0.1111040738
C  C34  1  0.02760000  0.42830000  0.03362000  1.0 -0.1111040738
C  C35  1  0.59930000  0.02760000  0.53362000  1.0 -0.1111040738
C  C36  1  0.57170000  0.59930000  0.03362000  1.0 -0.1111040738
C  C37  1  0.47230000  0.94460000  0.06706000  1.0 -0.0361264319
C  C38  1  0.52770000  0.47230000  0.56706000  1.0 -0.0361264319
C  C39  1  0.05540000  0.52770000  0.06706000  1.0 -0.0361264319
C  C40  1  0.52770000  0.05540000  0.56706000  1.0 -0.0348004986
C  C41  1  0.47230000  0.52770000  0.06706000  1.0 -0.0361264319
C  C42  1  0.94460000  0.47230000  0.56706000  1.0 -0.0361264319
C  C43  1  0.05540000  0.52770000  0.43294000  1.0 -0.0361264319
C  C44  1  0.52770000  0.05540000  0.93294000  1.0 -0.0348004986
C  C45  1  0.47230000  0.52770000  0.43294000  1.0 -0.0361264319
C  C46  1  0.94460000  0.47230000  0.93294000  1.0 -0.0361264319
C  C47  1  0.47230000  0.94460000  0.43294000  1.0 -0.0361264319
C  C48  1  0.52770000  0.47230000  0.93294000  1.0 -0.0361264319
O  O1  1  0.33333333  0.66666667  0.25000000  1.0 -1.2681321621
O  O2  1  0.66666667  0.33333333  0.75000000  1.0 -1.2681321621
O  O3  1  0.34937000  0.85867000  0.16659000  1.0 -0.6441978535
O  O4  1  0.49070000  0.34937000  0.66659000  1.0 -0.6441978535
O  O5  1  0.14133000  0.49070000  0.16659000  1.0 -0.6441978535
O  O6  1  0.65063000  0.14133000  0.66659000  1.0 -0.6455962182
O  O7  1  0.50930000  0.65063000  0.16659000  1.0 -0.6455962182
O  O8  1  0.85867000  0.50930000  0.66659000  1.0 -0.6441978535
O  O9  1  0.14133000  0.65063000  0.33341000  1.0 -0.6455962182
O  O10  1  0.49070000  0.14133000  0.83341000  1.0 -0.6441978535
O  O11  1  0.34937000  0.49070000  0.33341000  1.0 -0.6441978535
O  O12  1  0.85867000  0.34937000  0.83341000  1.0 -0.6441978535
O  O13  1  0.50930000  0.85867000  0.33341000  1.0 -0.6441978535
O  O14  1  0.65063000  0.50930000  0.83341000  1.0 -0.6441978535
O  O15  1  0.65063000  0.14133000  0.83341000  1.0 -0.6455962182
O  O16  1  0.50930000  0.65063000  0.33341000  1.0 -0.6455962182
O  O17  1  0.85867000  0.50930000  0.83341000  1.0 -0.6441978535
O  O18  1  0.34937000  0.85867000  0.33341000  1.0 -0.6441978535
O  O19  1  0.49070000  0.34937000  0.83341000  1.0 -0.6441978535
O  O20  1  0.14133000  0.49070000  0.33341000  1.0 -0.6441978535
O  O21  1  0.85867000  0.34937000  0.66659000  1.0 -0.6441978535
O  O22  1  0.50930000  0.85867000  0.16659000  1.0 -0.6441978535
O  O23  1  0.65063000  0.50930000  0.66659000  1.0 -0.6441978535
O  O24  1  0.14133000  0.65063000  0.16659000  1.0 -0.6455962182
O  O25  1  0.49070000  0.14133000  0.66659000  1.0 -0.6441978535
O  O26  1  0.34937000  0.49070000  0.16659000  1.0 -0.6441978535
