# DDEC6 charges by PACMAN v1.1 (https://github.com/mtap-research/PACMAN-charge/)
data_OJICEQ_ASR_pacman
_symmetry_space_group_name_H-M   'P 1'
_cell_length_a   21.75440000
_cell_length_b   21.75440000
_cell_length_c   21.95600000
_cell_angle_alpha   90.00000000
_cell_angle_beta   90.00000000
_cell_angle_gamma   111.11700000
_symmetry_Int_Tables_number   1
_chemical_formula_structural   Zn3H40C46S2(N3O4)2
_chemical_formula_sum   'Zn6 H80 C92 S4 N12 O16'
_cell_volume   9692.98882289
_cell_formula_units_Z   2
loop_
 _symmetry_equiv_pos_site_id
 _symmetry_equiv_pos_as_xyz
  1  'x, y, z'
loop_
 _atom_site_type_symbol
 _atom_site_label
 _atom_site_symmetry_multiplicity
 _atom_site_fract_x
 _atom_site_fract_y
 _atom_site_fract_z
 _atom_site_occupancy
 _atom_site_charge
Zn  Zn1  1  0.02140000  0.02140000  0.74310000  1.0 0.7535573194
Zn  Zn2  1  0.97860000  0.97860000  0.24310000  1.0 0.7535573194
Zn  Zn3  1  0.92722000  0.07380000  0.99500000  1.0 1.0164029549
Zn  Zn4  1  0.07278000  0.92620000  0.49500000  1.0 1.0122394115
Zn  Zn5  1  0.92620000  0.07278000  0.49500000  1.0 1.0122394115
Zn  Zn6  1  0.07380000  0.92722000  0.99500000  1.0 1.0122394115
H  H1  1  0.05220000  0.14200000  0.83280000  1.0 0.1111564354
H  H2  1  0.94780000  0.85800000  0.33280000  1.0 0.1111564354
H  H3  1  0.85800000  0.94780000  0.33280000  1.0 0.1111564354
H  H4  1  0.14200000  0.05220000  0.83280000  1.0 0.1111564354
H  H5  1  0.06220000  0.24780000  0.83410000  1.0 0.1199395809
H  H6  1  0.93780000  0.75220000  0.33410000  1.0 0.1254352877
H  H7  1  0.75220000  0.93780000  0.33410000  1.0 0.1199395809
H  H8  1  0.24780000  0.06220000  0.83410000  1.0 0.1254352877
H  H9  1  0.03700000  0.24500000  0.65170000  1.0 0.1199395809
H  H10  1  0.96300000  0.75500000  0.15170000  1.0 0.1199395809
H  H11  1  0.75500000  0.96300000  0.15170000  1.0 0.1199395809
H  H12  1  0.24500000  0.03700000  0.65170000  1.0 0.1199395809
H  H13  1  0.02120000  0.13320000  0.65370000  1.0 0.1111564354
H  H14  1  0.97880000  0.86680000  0.15370000  1.0 0.1111564354
H  H15  1  0.86680000  0.97880000  0.15370000  1.0 0.1111564354
H  H16  1  0.13320000  0.02120000  0.65370000  1.0 0.1111564354
H  H17  1  0.05470000  0.34430000  0.83830000  1.0 0.1199395809
H  H18  1  0.94530000  0.65570000  0.33830000  1.0 0.1199395809
H  H19  1  0.65570000  0.94530000  0.33830000  1.0 0.1199395809
H  H20  1  0.34430000  0.05470000  0.83830000  1.0 0.1199395809
H  H21  1  0.04540000  0.44700000  0.83300000  1.0 0.0907833045
H  H22  1  0.95460000  0.55300000  0.33300000  1.0 0.0907833045
H  H23  1  0.55300000  0.95460000  0.33300000  1.0 0.0907833045
H  H24  1  0.44700000  0.04540000  0.83300000  1.0 0.0907833045
H  H25  1  0.03610000  0.43330000  0.65000000  1.0 0.0999497537
H  H26  1  0.96390000  0.56670000  0.15000000  1.0 0.0999497537
H  H27  1  0.56670000  0.96390000  0.15000000  1.0 0.0999497537
H  H28  1  0.43330000  0.03610000  0.65000000  1.0 0.0999497537
H  H29  1  0.04430000  0.33150000  0.65590000  1.0 0.1111564354
H  H30  1  0.95570000  0.66850000  0.15590000  1.0 0.1111564354
H  H31  1  0.66850000  0.95570000  0.15590000  1.0 0.1111564354
H  H32  1  0.33150000  0.04430000  0.65590000  1.0 0.1111564354
H  H33  1  0.05610000  0.54210000  0.77570000  1.0 0.0813941341
H  H34  1  0.94390000  0.45790000  0.27570000  1.0 0.0813941341
H  H35  1  0.45790000  0.94390000  0.27570000  1.0 0.0813941341
H  H36  1  0.54210000  0.05610000  0.77570000  1.0 0.0813941341
H  H37  1  0.05860000  0.53680000  0.70300000  1.0 0.0907833045
H  H38  1  0.94140000  0.46320000  0.20300000  1.0 0.0907833045
H  H39  1  0.46320000  0.94140000  0.20300000  1.0 0.0907833045
H  H40  1  0.53680000  0.05860000  0.70300000  1.0 0.0907833045
H  H41  1  0.93470000  0.48270000  0.77040000  1.0 0.0999497537
H  H42  1  0.06530000  0.51730000  0.27040000  1.0 0.0999497537
H  H43  1  0.51730000  0.06530000  0.27040000  1.0 0.0999497537
H  H44  1  0.48270000  0.93470000  0.77040000  1.0 0.0999497537
H  H45  1  0.94020000  0.48780000  0.69740000  1.0 0.0999497537
H  H46  1  0.05980000  0.51220000  0.19740000  1.0 0.0999497537
H  H47  1  0.51220000  0.05980000  0.19740000  1.0 0.0999497537
H  H48  1  0.48780000  0.94020000  0.69740000  1.0 0.0999497537
H  H49  1  0.94620000  0.58960000  0.83560000  1.0 0.1111564354
H  H50  1  0.05380000  0.41040000  0.33560000  1.0 0.1111564354
H  H51  1  0.41040000  0.05380000  0.33560000  1.0 0.1111564354
H  H52  1  0.58960000  0.94620000  0.83560000  1.0 0.1111564354
H  H53  1  0.94940000  0.69280000  0.83150000  1.0 0.1111564354
H  H54  1  0.05060000  0.30720000  0.33150000  1.0 0.1111564354
H  H55  1  0.30720000  0.05060000  0.33150000  1.0 0.1111564354
H  H56  1  0.69280000  0.94940000  0.83150000  1.0 0.1111564354
H  H57  1  0.97470000  0.70150000  0.65280000  1.0 0.0999497537
H  H58  1  0.02530000  0.29850000  0.15280000  1.0 0.0999497537
H  H59  1  0.29850000  0.02530000  0.15280000  1.0 0.0999497537
H  H60  1  0.70150000  0.97470000  0.65280000  1.0 0.0999497537
H  H61  1  0.96740000  0.59220000  0.65260000  1.0 0.0999497537
H  H62  1  0.03260000  0.40780000  0.15260000  1.0 0.0999497537
H  H63  1  0.40780000  0.03260000  0.15260000  1.0 0.0999497537
H  H64  1  0.59220000  0.96740000  0.65260000  1.0 0.0999497537
H  H65  1  0.92670000  0.78170000  0.81530000  1.0 0.1199395809
H  H66  1  0.07330000  0.21830000  0.31530000  1.0 0.1199395809
H  H67  1  0.21830000  0.07330000  0.31530000  1.0 0.1199395809
H  H68  1  0.78170000  0.92670000  0.81530000  1.0 0.1199395809
H  H69  1  0.95490000  0.89530000  0.82000000  1.0 0.0999497537
H  H70  1  0.04510000  0.10470000  0.32000000  1.0 0.0999497537
H  H71  1  0.10470000  0.04510000  0.32000000  1.0 0.0999497537
H  H72  1  0.89530000  0.95490000  0.82000000  1.0 0.0999497537
H  H73  1  0.04610000  0.91310000  0.66420000  1.0 0.0907833045
H  H74  1  0.95390000  0.08690000  0.16420000  1.0 0.0999497537
H  H75  1  0.08690000  0.95390000  0.16420000  1.0 0.0907833045
H  H76  1  0.91310000  0.04610000  0.66420000  1.0 0.0907833045
H  H77  1  0.02000000  0.80160000  0.66390000  1.0 0.1111564354
H  H78  1  0.98000000  0.19840000  0.16390000  1.0 0.1111564354
H  H79  1  0.19840000  0.98000000  0.16390000  1.0 0.1111564354
H  H80  1  0.80160000  0.02000000  0.66390000  1.0 0.1111564354
C  C1  1  0.04840000  0.16160000  0.79500000  1.0 0.1111564354
C  C2  1  0.95160000  0.83840000  0.29500000  1.0 0.1111564354
C  C3  1  0.83840000  0.95160000  0.29500000  1.0 0.1111564354
C  C4  1  0.16160000  0.04840000  0.79500000  1.0 0.1111564354
C  C5  1  0.05300000  0.22440000  0.79660000  1.0 -0.2281327223
C  C6  1  0.94700000  0.77560000  0.29660000  1.0 -0.2281327223
C  C7  1  0.77560000  0.94700000  0.29660000  1.0 -0.2281327223
C  C8  1  0.22440000  0.05300000  0.79660000  1.0 -0.2281327223
C  C9  1  0.04410000  0.25670000  0.74350000  1.0 0.1111564354
C  C10  1  0.95590000  0.74330000  0.24350000  1.0 0.1111564354
C  C11  1  0.74330000  0.95590000  0.24350000  1.0 0.1111564354
C  C12  1  0.25670000  0.04410000  0.74350000  1.0 0.1111564354
C  C13  1  0.03740000  0.22340000  0.68930000  1.0 -0.2026481827
C  C14  1  0.96260000  0.77660000  0.18930000  1.0 -0.2026481827
C  C15  1  0.77660000  0.96260000  0.18930000  1.0 -0.2026481827
C  C16  1  0.22340000  0.03740000  0.68930000  1.0 -0.2026481827
C  C17  1  0.03110000  0.15790000  0.69040000  1.0 0.0437136328
C  C18  1  0.96890000  0.84210000  0.19040000  1.0 0.0481211721
C  C19  1  0.84210000  0.96890000  0.19040000  1.0 0.0481211721
C  C20  1  0.15790000  0.03110000  0.69040000  1.0 0.0437136328
C  C21  1  0.04280000  0.32560000  0.74010000  1.0 0.0481211721
C  C22  1  0.95720000  0.67440000  0.24010000  1.0 0.0481211721
C  C23  1  0.67440000  0.95720000  0.24010000  1.0 0.0481211721
C  C24  1  0.32560000  0.04280000  0.74010000  1.0 0.0481211721
C  C25  1  0.04870000  0.36270000  0.80040000  1.0 -0.2587171594
C  C26  1  0.95130000  0.63730000  0.30040000  1.0 -0.2657185545
C  C27  1  0.63730000  0.95130000  0.30040000  1.0 -0.2587171594
C  C28  1  0.36270000  0.04870000  0.80040000  1.0 -0.2587171594
C  C29  1  0.04480000  0.42360000  0.79640000  1.0 0.0083692844
C  C30  1  0.95520000  0.57640000  0.29640000  1.0 0.0200636524
C  C31  1  0.57640000  0.95520000  0.29640000  1.0 0.0200636524
C  C32  1  0.42360000  0.04480000  0.79640000  1.0 0.0200636524
C  C33  1  0.03900000  0.41460000  0.68850000  1.0 -0.0987289263
C  C34  1  0.96100000  0.58540000  0.18850000  1.0 -0.0987289263
C  C35  1  0.58540000  0.96100000  0.18850000  1.0 -0.0944425364
C  C36  1  0.41460000  0.03900000  0.68850000  1.0 -0.0944425364
C  C37  1  0.04230000  0.35370000  0.69280000  1.0 -0.1568872326
C  C38  1  0.95770000  0.64630000  0.19280000  1.0 -0.1568872326
C  C39  1  0.64630000  0.95770000  0.19280000  1.0 -0.1568872326
C  C40  1  0.35370000  0.04230000  0.69280000  1.0 -0.1568872326
C  C41  1  0.03490000  0.51470000  0.74010000  1.0 -0.1490523542
C  C42  1  0.96510000  0.48530000  0.24010000  1.0 -0.1397978068
C  C43  1  0.48530000  0.96510000  0.24010000  1.0 -0.1490523542
C  C44  1  0.51470000  0.03490000  0.74010000  1.0 -0.1397978068
C  C45  1  0.96030000  0.50910000  0.73610000  1.0 -0.2523852301
C  C46  1  0.03970000  0.49090000  0.23610000  1.0 -0.2523852301
C  C47  1  0.49090000  0.03970000  0.23610000  1.0 -0.2523852301
C  C48  1  0.50910000  0.96030000  0.73610000  1.0 -0.2523852301
C  C49  1  0.96090000  0.58090000  0.73900000  1.0 0.0907833045
C  C50  1  0.03910000  0.41910000  0.23900000  1.0 0.0907833045
C  C51  1  0.41910000  0.03910000  0.23900000  1.0 0.0907833045
C  C52  1  0.58090000  0.96090000  0.73900000  1.0 0.0907833045
C  C53  1  0.95320000  0.61280000  0.79800000  1.0 -0.1568872326
C  C54  1  0.04680000  0.38720000  0.29800000  1.0 -0.1568872326
C  C55  1  0.38720000  0.04680000  0.29800000  1.0 -0.1568872326
C  C56  1  0.61280000  0.95320000  0.79800000  1.0 -0.1568872326
C  C57  1  0.95670000  0.67350000  0.79470000  1.0 -0.1397978068
C  C58  1  0.04330000  0.32650000  0.29470000  1.0 -0.1397978068
C  C59  1  0.32650000  0.04330000  0.29470000  1.0 -0.1397978068
C  C60  1  0.67350000  0.95670000  0.79470000  1.0 -0.1397978068
C  C61  1  0.96950000  0.71170000  0.74560000  1.0 0.0481211721
C  C62  1  0.03050000  0.28830000  0.24560000  1.0 0.0437136328
C  C63  1  0.28830000  0.03050000  0.24560000  1.0 0.0481211721
C  C64  1  0.71170000  0.96950000  0.74560000  1.0 0.0481211721
C  C65  1  0.97070000  0.67870000  0.69030000  1.0 -0.1814954181
C  C66  1  0.02930000  0.32130000  0.19030000  1.0 -0.1814954181
C  C67  1  0.32130000  0.02930000  0.19030000  1.0 -0.1814954181
C  C68  1  0.67870000  0.97070000  0.69030000  1.0 -0.1814954181
C  C69  1  0.96640000  0.61320000  0.69040000  1.0 -0.1490523542
C  C70  1  0.03360000  0.38680000  0.19040000  1.0 -0.1490523542
C  C71  1  0.38680000  0.03360000  0.19040000  1.0 -0.1490523542
C  C72  1  0.61320000  0.96640000  0.69040000  1.0 -0.1490523542
C  C73  1  0.98290000  0.78450000  0.74730000  1.0 0.0813941341
C  C74  1  0.01710000  0.21550000  0.24730000  1.0 0.0813941341
C  C75  1  0.21550000  0.01710000  0.24730000  1.0 0.0813941341
C  C76  1  0.78450000  0.98290000  0.74730000  1.0 0.0813941341
C  C77  1  0.95610000  0.80910000  0.78610000  1.0 -0.1915481438
C  C78  1  0.04390000  0.19090000  0.28610000  1.0 -0.1915481438
C  C79  1  0.19090000  0.04390000  0.28610000  1.0 -0.1915481438
C  C80  1  0.80910000  0.95610000  0.78610000  1.0 -0.1915481438
C  C81  1  0.96990000  0.87750000  0.78610000  1.0 0.0813941341
C  C82  1  0.03010000  0.12250000  0.28610000  1.0 0.0813941341
C  C83  1  0.12250000  0.03010000  0.28610000  1.0 0.0813941341
C  C84  1  0.87750000  0.96990000  0.78610000  1.0 0.0813941341
C  C85  1  0.02220000  0.88780000  0.69760000  1.0 0.0437136328
C  C86  1  0.97780000  0.11220000  0.19760000  1.0 0.0437136328
C  C87  1  0.11220000  0.97780000  0.19760000  1.0 0.0437136328
C  C88  1  0.88780000  0.02220000  0.69760000  1.0 0.0437136328
C  C89  1  0.00960000  0.82180000  0.69880000  1.0 -0.2059311693
C  C90  1  0.99040000  0.17820000  0.19880000  1.0 -0.2059311693
C  C91  1  0.17820000  0.99040000  0.19880000  1.0 -0.2059311693
C  C92  1  0.82180000  0.00960000  0.69880000  1.0 -0.2059311693
S  S1  1  0.00540000  0.00540000  0.90630000  1.0 1.4477037142
S  S2  1  0.99460000  0.99460000  0.40630000  1.0 1.4439170311
S  S3  1  0.00840000  0.00840000  0.58460000  1.0 1.3722287367
S  S4  1  0.99160000  0.99160000  0.08460000  1.0 1.3722287367
N  N1  1  0.03930000  0.12510000  0.74770000  1.0 -0.2360658547
N  N2  1  0.96070000  0.87490000  0.24770000  1.0 -0.2360658547
N  N3  1  0.87490000  0.96070000  0.24770000  1.0 -0.2360658547
N  N4  1  0.12510000  0.03930000  0.74770000  1.0 -0.2360658547
N  N5  1  0.04030000  0.45110000  0.74580000  1.0 0.0083692844
N  N6  1  0.95970000  0.54890000  0.24580000  1.0 0.0083692844
N  N7  1  0.54890000  0.95970000  0.24580000  1.0 0.0083692844
N  N8  1  0.45110000  0.04030000  0.74580000  1.0 0.0022313554
N  N9  1  0.00191000  0.91849000  0.74280000  1.0 -0.2189535772
N  N10  1  0.99809000  0.08151000  0.24280000  1.0 -0.2189535772
N  N11  1  0.08151000  0.99809000  0.24280000  1.0 -0.2189535772
N  N12  1  0.91849000  0.00191000  0.74280000  1.0 -0.2189535772
O  O1  1  0.02310000  0.02310000  0.83930000  1.0 -0.7187585285
O  O2  1  0.97690000  0.97690000  0.33930000  1.0 -0.7187585285
O  O3  1  0.99520000  0.06780000  0.93470000  1.0 -0.7627561589
O  O4  1  0.00480000  0.93220000  0.43470000  1.0 -0.7627561589
O  O5  1  0.93220000  0.00480000  0.43470000  1.0 -0.7627561589
O  O6  1  0.06780000  0.99520000  0.93470000  1.0 -0.7627561589
O  O7  1  0.94670000  0.94670000  0.90980000  1.0 -0.6707630803
O  O8  1  0.05330000  0.05330000  0.40980000  1.0 -0.6707630803
O  O9  1  0.06140000  0.99820000  0.55500000  1.0 -0.6838151266
O  O10  1  0.93860000  0.00180000  0.05500000  1.0 -0.6876734545
O  O11  1  0.00180000  0.93860000  0.05500000  1.0 -0.6838151266
O  O12  1  0.99820000  0.06140000  0.55500000  1.0 -0.6838151266
O  O13  1  0.95260000  0.95260000  0.57830000  1.0 -0.6085058799
O  O14  1  0.04740000  0.04740000  0.07830000  1.0 -0.6085058799
O  O15  1  0.02670000  0.02670000  0.64520000  1.0 -0.6421508541
O  O16  1  0.97330000  0.97330000  0.14520000  1.0 -0.6421508541
