# DDEC6 charges by PACMAN v1.1 (https://github.com/mtap-research/PACMAN-charge/)
data_OJIFUL_ASR_pacman
_symmetry_space_group_name_H-M   'P 1'
_cell_length_a   17.35040000
_cell_length_b   17.35040000
_cell_length_c   17.35040000
_cell_angle_alpha   33.42950000
_cell_angle_beta   33.42950000
_cell_angle_gamma   33.42950000
_symmetry_Int_Tables_number   1
_chemical_formula_structural   Ag5H12C6(I3N2)2
_chemical_formula_sum   'Ag10 H24 C12 I12 N8'
_cell_volume   1411.69993553
_cell_formula_units_Z   2
loop_
 _symmetry_equiv_pos_site_id
 _symmetry_equiv_pos_as_xyz
  1  'x, y, z'
loop_
 _atom_site_type_symbol
 _atom_site_label
 _atom_site_symmetry_multiplicity
 _atom_site_fract_x
 _atom_site_fract_y
 _atom_site_fract_z
 _atom_site_occupancy
 _atom_site_charge
Ag  Ag1  1  0.02691000  0.66982000  0.02691000  1.0 0.1671474423
Ag  Ag2  1  0.02691000  0.02691000  0.66982000  1.0 0.1671474423
Ag  Ag3  1  0.66982000  0.02691000  0.02691000  1.0 0.1647319641
Ag  Ag4  1  0.33018000  0.97309000  0.97309000  1.0 0.1671474423
Ag  Ag5  1  0.97309000  0.97309000  0.33018000  1.0 0.1671474423
Ag  Ag6  1  0.97309000  0.33018000  0.97309000  1.0 0.1647319641
Ag  Ag7  1  0.86562000  0.86562000  0.86562000  1.0 0.1671474423
Ag  Ag8  1  0.95832000  0.95832000  0.95832000  1.0 0.1541780379
Ag  Ag9  1  0.13438000  0.13438000  0.13438000  1.0 0.1671474423
Ag  Ag10  1  0.04168000  0.04168000  0.04168000  1.0 0.1541780379
H  H1  1  0.99960000  0.40210000  0.15700000  1.0 0.1092077099
H  H2  1  0.15700000  0.99960000  0.40210000  1.0 0.1092077099
H  H3  1  0.40210000  0.15700000  0.99960000  1.0 0.1092077099
H  H4  1  0.59790000  0.00040000  0.84300000  1.0 0.1092077099
H  H5  1  0.00040000  0.84300000  0.59790000  1.0 0.1092077099
H  H6  1  0.84300000  0.59790000  0.00040000  1.0 0.1092077099
H  H7  1  0.00040000  0.59790000  0.84300000  1.0 0.1092077099
H  H8  1  0.84300000  0.00040000  0.59790000  1.0 0.1092077099
H  H9  1  0.59790000  0.84300000  0.00040000  1.0 0.1092077099
H  H10  1  0.40210000  0.99960000  0.15700000  1.0 0.1092077099
H  H11  1  0.99960000  0.15700000  0.40210000  1.0 0.1092077099
H  H12  1  0.15700000  0.40210000  0.99960000  1.0 0.1092077099
H  H13  1  0.08870000  0.33385000  0.33385000  1.0 0.1032425645
H  H14  1  0.95930000  0.35895000  0.35895000  1.0 0.1032425645
H  H15  1  0.33385000  0.08870000  0.33385000  1.0 0.1032425645
H  H16  1  0.35895000  0.95930000  0.35895000  1.0 0.1032425645
H  H17  1  0.33385000  0.33385000  0.08870000  1.0 0.1032425645
H  H18  1  0.35895000  0.35895000  0.95930000  1.0 0.1032425645
H  H19  1  0.66615000  0.91130000  0.66615000  1.0 0.1032425645
H  H20  1  0.64105000  0.04070000  0.64105000  1.0 0.1032425645
H  H21  1  0.91130000  0.66615000  0.66615000  1.0 0.1032425645
H  H22  1  0.04070000  0.64105000  0.64105000  1.0 0.1032425645
H  H23  1  0.66615000  0.66615000  0.91130000  1.0 0.1032425645
H  H24  1  0.64105000  0.64105000  0.04070000  1.0 0.1032425645
C  C1  1  0.11195000  0.35430000  0.11195000  1.0 -0.0276501244
C  C2  1  0.11195000  0.11195000  0.35430000  1.0 -0.0276501244
C  C3  1  0.35430000  0.11195000  0.11195000  1.0 -0.0276501244
C  C4  1  0.64570000  0.88805000  0.88805000  1.0 -0.0276501244
C  C5  1  0.88805000  0.88805000  0.64570000  1.0 -0.0276501244
C  C6  1  0.88805000  0.64570000  0.88805000  1.0 -0.0276501244
C  C7  1  0.07160000  0.31270000  0.31270000  1.0 -0.0236507854
C  C8  1  0.31270000  0.07160000  0.31270000  1.0 -0.0236507854
C  C9  1  0.31270000  0.31270000  0.07160000  1.0 -0.0236507854
C  C10  1  0.68730000  0.92840000  0.68730000  1.0 -0.0236507854
C  C11  1  0.92840000  0.68730000  0.68730000  1.0 -0.0236507854
C  C12  1  0.68730000  0.68730000  0.92840000  1.0 -0.0236507854
I  I1  1  0.11941000  0.64661000  0.11941000  1.0 -0.1790129919
I  I2  1  0.11941000  0.11941000  0.64661000  1.0 -0.1790129919
I  I3  1  0.64661000  0.11941000  0.11941000  1.0 -0.1790129919
I  I4  1  0.35339000  0.88059000  0.88059000  1.0 -0.1790129919
I  I5  1  0.88059000  0.88059000  0.35339000  1.0 -0.1790129919
I  I6  1  0.88059000  0.35339000  0.88059000  1.0 -0.1790129919
I  I7  1  0.19967000  0.71760000  0.71760000  1.0 -0.3112827791
I  I8  1  0.71760000  0.19967000  0.71760000  1.0 -0.3112827791
I  I9  1  0.71760000  0.71760000  0.19967000  1.0 -0.3112827791
I  I10  1  0.28240000  0.80033000  0.28240000  1.0 -0.3112827791
I  I11  1  0.80033000  0.28240000  0.28240000  1.0 -0.3112827791
I  I12  1  0.28240000  0.28240000  0.80033000  1.0 -0.3112827791
N  N1  1  0.14195000  0.38400000  0.14195000  1.0 -0.1204340313
N  N2  1  0.14195000  0.14195000  0.38400000  1.0 -0.1204340313
N  N3  1  0.38400000  0.14195000  0.14195000  1.0 -0.1204340313
N  N4  1  0.61600000  0.85805000  0.85805000  1.0 -0.1204340313
N  N5  1  0.85805000  0.85805000  0.61600000  1.0 -0.1204340313
N  N6  1  0.85805000  0.61600000  0.85805000  1.0 -0.1204340313
N  N7  1  0.18193000  0.18193000  0.18193000  1.0 -0.1089618396
N  N8  1  0.81807000  0.81807000  0.81807000  1.0 -0.1089618396
