# DDEC6 charges by PACMAN v1.1 (https://github.com/mtap-research/PACMAN-charge/)
data_OJIFAP_ASR_pacman
_symmetry_space_group_name_H-M   'P 1'
_cell_length_a   23.67670000
_cell_length_b   21.18950000
_cell_length_c   11.71570000
_cell_angle_alpha   87.03690000
_cell_angle_beta   63.34890000
_cell_angle_gamma   29.61430000
_symmetry_Int_Tables_number   1
_chemical_formula_structural   NaH8C14N5O
_chemical_formula_sum   'Na4 H32 C56 N20 O4'
_cell_volume   1669.05460534
_cell_formula_units_Z   4
loop_
 _symmetry_equiv_pos_site_id
 _symmetry_equiv_pos_as_xyz
  1  'x, y, z'
loop_
 _atom_site_type_symbol
 _atom_site_label
 _atom_site_symmetry_multiplicity
 _atom_site_fract_x
 _atom_site_fract_y
 _atom_site_fract_z
 _atom_site_occupancy
 _atom_site_charge
Na  Na1  1  0.11113000  0.03169000  0.97911000  1.0 0.8036667653
Na  Na2  1  0.87807000  0.97911000  0.03169000  1.0 0.8036667653
Na  Na3  1  0.21831000  0.13887000  0.37193000  1.0 0.8036667653
Na  Na4  1  0.27089000  0.37193000  0.13887000  1.0 0.8036667653
H  H1  1  0.78830000  0.17010000  0.33370000  1.0 0.0685071462
H  H2  1  0.70790000  0.33370000  0.17010000  1.0 0.0685071462
H  H3  1  0.07990000  0.46170000  0.54210000  1.0 0.0685071462
H  H4  1  0.91630000  0.54210000  0.46170000  1.0 0.0685071462
H  H5  1  0.74500000  0.27920000  0.41820000  1.0 0.090618932
H  H6  1  0.55760000  0.41820000  0.27920000  1.0 0.090618932
H  H7  1  0.97080000  0.50500000  0.69240000  1.0 0.090618932
H  H8  1  0.83180000  0.69240000  0.50500000  1.0 0.090618932
H  H9  1  0.48530000  0.46270000  0.52930000  1.0 0.090618932
H  H10  1  0.52270000  0.52930000  0.46270000  1.0 0.090618932
H  H11  1  0.78730000  0.76470000  0.72730000  1.0 0.090618932
H  H12  1  0.72070000  0.72730000  0.76470000  1.0 0.090618932
H  H13  1  0.47860000  0.54440000  0.53940000  1.0 0.090618932
H  H14  1  0.43760000  0.53940000  0.54440000  1.0 0.090618932
H  H15  1  0.70560000  0.77140000  0.81240000  1.0 0.090618932
H  H16  1  0.71060000  0.81240000  0.77140000  1.0 0.090618932
H  H17  1  0.62330000  0.34670000  0.53070000  1.0 0.090618932
H  H18  1  0.49930000  0.53070000  0.34670000  1.0 0.090618932
H  H19  1  0.90330000  0.62670000  0.75070000  1.0 0.090618932
H  H20  1  0.71930000  0.75070000  0.62670000  1.0 0.090618932
H  H21  1  0.72730000  0.31610000  0.42370000  1.0 0.090618932
H  H22  1  0.53290000  0.42370000  0.31610000  1.0 0.090618932
H  H23  1  0.93390000  0.52270000  0.71710000  1.0 0.090618932
H  H24  1  0.82630000  0.71710000  0.52270000  1.0 0.090618932
H  H25  1  0.98120000  0.03320000  0.12600000  1.0 0.1626710394
H  H26  1  0.85960000  0.12600000  0.03320000  1.0 0.1626710394
H  H27  1  0.21680000  0.26880000  0.39040000  1.0 0.1626710394
H  H28  1  0.12400000  0.39040000  0.26880000  1.0 0.1626710394
H  H29  1  0.82020000  0.23760000  0.04320000  1.0 0.0641419794
H  H30  1  0.89900000  0.04320000  0.23760000  1.0 0.0641419794
H  H31  1  0.01240000  0.42980000  0.35100000  1.0 0.0641419794
H  H32  1  0.20680000  0.35100000  0.42980000  1.0 0.0641419794
C  C1  1  0.42554000  0.55742000  0.91798000  1.0 -0.0468776799
C  C2  1  0.09906000  0.91798000  0.55742000  1.0 -0.0468776799
C  C3  1  0.69258000  0.82446000  0.15094000  1.0 -0.0468776799
C  C4  1  0.33202000  0.15094000  0.82446000  1.0 -0.0468776799
C  C5  1  0.36957000  0.55005000  0.93095000  1.0 -0.0243716328
C  C6  1  0.14943000  0.93095000  0.55005000  1.0 -0.0259829698
C  C7  1  0.69995000  0.88043000  0.10057000  1.0 -0.0259829698
C  C8  1  0.31905000  0.10057000  0.88043000  1.0 -0.0243716328
C  C9  1  0.42076000  0.45776000  0.97784000  1.0 -0.0380189073
C  C10  1  0.14364000  0.97784000  0.45776000  1.0 -0.0380189073
C  C11  1  0.79224000  0.82924000  0.10636000  1.0 -0.0380189073
C  C12  1  0.27216000  0.10636000  0.82924000  1.0 -0.0380189073
C  C13  1  0.50579000  0.41015000  0.99685000  1.0 -0.0380189073
C  C14  1  0.08721000  0.99685000  0.41015000  1.0 -0.0380189073
C  C15  1  0.83985000  0.74421000  0.16279000  1.0 -0.0380189073
C  C16  1  0.25315000  0.16279000  0.74421000  1.0 -0.0380189073
C  C17  1  0.50981000  0.47101000  0.95919000  1.0 -0.0380189073
C  C18  1  0.05999000  0.95919000  0.47101000  1.0 -0.0380189073
C  C19  1  0.77899000  0.74019000  0.19001000  1.0 -0.0380189073
C  C20  1  0.29081000  0.19001000  0.74019000  1.0 -0.0380189073
C  C21  1  0.40049000  0.63877000  0.87163000  1.0 0.0797107243
C  C22  1  0.08911000  0.87163000  0.63877000  1.0 0.0797107243
C  C23  1  0.61123000  0.84951000  0.16089000  1.0 0.0797107243
C  C24  1  0.37837000  0.16089000  0.84951000  1.0 0.0797107243
C  C25  1  0.26104000  0.63818000  0.92002000  1.0 0.0641419794
C  C26  1  0.18076000  0.92002000  0.63818000  1.0 0.0641419794
C  C27  1  0.61182000  0.98896000  0.06924000  1.0 0.0685071462
C  C28  1  0.32998000  0.06924000  0.98896000  1.0 0.0641419794
C  C29  1  0.39479000  0.41557000  0.99723000  1.0 0.3216275894
C  C30  1  0.19241000  0.99723000  0.41557000  1.0 0.3216275894
C  C31  1  0.83443000  0.85521000  0.05759000  1.0 0.3216275894
C  C32  1  0.25277000  0.05759000  0.85521000  1.0 0.3216275894
C  C33  1  0.57381000  0.31767000  0.04753000  1.0 0.2853178977
C  C34  1  0.06099000  0.04753000  0.31767000  1.0 0.2844055095
C  C35  1  0.93233000  0.67619000  0.18901000  1.0 0.2853178977
C  C36  1  0.20247000  0.18901000  0.67619000  1.0 0.2853178977
C  C37  1  0.58108000  0.45372000  0.96548000  1.0 0.2308218391
C  C38  1  0.99972000  0.96548000  0.45372000  1.0 0.2308218391
C  C39  1  0.79628000  0.66892000  0.25028000  1.0 0.2308218391
C  C40  1  0.28452000  0.25028000  0.66892000  1.0 0.2308218391
C  C41  1  0.74900000  0.25140000  0.34460000  1.0 -0.0098567302
C  C42  1  0.65500000  0.34460000  0.25140000  1.0 -0.0098567302
C  C43  1  0.99860000  0.50100000  0.59500000  1.0 -0.0098567302
C  C44  1  0.90540000  0.59500000  0.50100000  1.0 -0.0098567302
C  C45  1  0.55720000  0.43400000  0.44880000  1.0 -0.100406134
C  C46  1  0.56000000  0.44880000  0.43400000  1.0 -0.100406134
C  C47  1  0.81600000  0.69280000  0.69000000  1.0 -0.100406134
C  C48  1  0.80120000  0.69000000  0.69280000  1.0 -0.100406134
C  C49  1  0.68660000  0.31540000  0.42060000  1.0 -0.100406134
C  C50  1  0.57740000  0.42060000  0.31540000  1.0 -0.100406134
C  C51  1  0.93460000  0.56340000  0.67260000  1.0 -0.100406134
C  C52  1  0.82940000  0.67260000  0.56340000  1.0 -0.100406134
C  C53  1  0.79960000  0.22060000  0.11500000  1.0 0.0043343264
C  C54  1  0.86480000  0.11500000  0.22060000  1.0 0.0043343264
C  C55  1  0.02940000  0.45040000  0.38520000  1.0 0.0043343264
C  C56  1  0.13500000  0.38520000  0.45040000  1.0 0.0043343264
N  N1  1  0.37827000  0.70579000  0.83541000  1.0 -0.3630316979
N  N2  1  0.08053000  0.83541000  0.70579000  1.0 -0.3630316979
N  N3  1  0.54421000  0.87173000  0.16947000  1.0 -0.3630316979
N  N4  1  0.41459000  0.16947000  0.87173000  1.0 -0.3630316979
N  N5  1  0.16926000  0.71230000  0.91770000  1.0 -0.3802471957
N  N6  1  0.20074000  0.91770000  0.71230000  1.0 -0.3802471957
N  N7  1  0.53770000  0.08074000  0.04926000  1.0 -0.3802471957
N  N8  1  0.33230000  0.04926000  0.08074000  1.0 -0.3802471957
N  N9  1  0.37614000  0.38002000  0.00958000  1.0 -0.4417726672
N  N10  1  0.23426000  0.00958000  0.38002000  1.0 -0.4417726672
N  N11  1  0.86998000  0.87386000  0.01574000  1.0 -0.4417726672
N  N12  1  0.24042000  0.01574000  0.87386000  1.0 -0.4417726672
N  N13  1  0.62580000  0.24580000  0.09040000  1.0 -0.4278264246
N  N14  1  0.03800000  0.09040000  0.24580000  1.0 -0.4278264246
N  N15  1  0.00420000  0.62420000  0.21200000  1.0 -0.4278264246
N  N16  1  0.15960000  0.21200000  0.62420000  1.0 -0.4278264246
N  N17  1  0.63744000  0.44076000  0.97224000  1.0 -0.3542536697
N  N18  1  0.94956000  0.97224000  0.44076000  1.0 -0.3542536697
N  N19  1  0.80924000  0.61256000  0.30044000  1.0 -0.3542536697
N  N20  1  0.27776000  0.30044000  0.61256000  1.0 -0.3542536697
O  O1  1  0.89390000  0.14310000  0.14430000  1.0 -0.1749867848
O  O2  1  0.81870000  0.14430000  0.14310000  1.0 -0.1749867848
O  O3  1  0.10690000  0.35610000  0.43130000  1.0 -0.1749867848
O  O4  1  0.10570000  0.43130000  0.35610000  1.0 -0.1749867848
