# DDEC6 charges by PACMAN v1.1 (https://github.com/mtap-research/PACMAN-charge/)
data_OJIWEK_ASR_pacman
_symmetry_space_group_name_H-M   'P 1'
_cell_length_a   10.91160000
_cell_length_b   10.96350000
_cell_length_c   22.34520000
_cell_angle_alpha   90.00000000
_cell_angle_beta   90.00000000
_cell_angle_gamma   90.00000000
_symmetry_Int_Tables_number   1
_chemical_formula_structural   ZnH10C20(NO3)2
_chemical_formula_sum   'Zn4 H40 C80 N8 O24'
_cell_volume   2673.14122874
_cell_formula_units_Z   4
loop_
 _symmetry_equiv_pos_site_id
 _symmetry_equiv_pos_as_xyz
  1  'x, y, z'
loop_
 _atom_site_type_symbol
 _atom_site_label
 _atom_site_symmetry_multiplicity
 _atom_site_fract_x
 _atom_site_fract_y
 _atom_site_fract_z
 _atom_site_occupancy
 _atom_site_charge
Zn  Zn1  1  0.84685000  0.25000000  0.68028000  1.0 0.8843211613
Zn  Zn2  1  0.15315000  0.75000000  0.31972000  1.0 0.8843211613
Zn  Zn3  1  0.84685000  0.25000000  0.81972000  1.0 0.8843211613
Zn  Zn4  1  0.15315000  0.75000000  0.18028000  1.0 0.8843211613
H  H1  1  0.81509000  0.66712000  0.60422000  1.0 0.1415197323
H  H2  1  0.18491000  0.33288000  0.39578000  1.0 0.1415197323
H  H3  1  0.81509000  0.83288000  0.89578000  1.0 0.1415197323
H  H4  1  0.18491000  0.16712000  0.10422000  1.0 0.1415197323
H  H5  1  0.18491000  0.33288000  0.10422000  1.0 0.1415197323
H  H6  1  0.81509000  0.66712000  0.89578000  1.0 0.1415197323
H  H7  1  0.18491000  0.16712000  0.39578000  1.0 0.1415197323
H  H8  1  0.81509000  0.83288000  0.60422000  1.0 0.1415197323
H  H9  1  0.05738000  0.25000000  0.60312000  1.0 0.1220422692
H  H10  1  0.94262000  0.75000000  0.39688000  1.0 0.1220422692
H  H11  1  0.05738000  0.25000000  0.89688000  1.0 0.1220422692
H  H12  1  0.94262000  0.75000000  0.10312000  1.0 0.1220422692
H  H13  1  0.57502000  0.25000000  0.56599000  1.0 0.0695077645
H  H14  1  0.42498000  0.75000000  0.43401000  1.0 0.0695077645
H  H15  1  0.57502000  0.25000000  0.93401000  1.0 0.0695077645
H  H16  1  0.42498000  0.75000000  0.06599000  1.0 0.0695077645
H  H17  1  0.82128000  0.83454000  0.36330000  1.0 0.1122300843
H  H18  1  0.17872000  0.16546000  0.63670000  1.0 0.1122300843
H  H19  1  0.82128000  0.66546000  0.13670000  1.0 0.1122300843
H  H20  1  0.17872000  0.33454000  0.86330000  1.0 0.1122300843
H  H21  1  0.17872000  0.16546000  0.86330000  1.0 0.1122300843
H  H22  1  0.82128000  0.83454000  0.13670000  1.0 0.1122300843
H  H23  1  0.17872000  0.33454000  0.63670000  1.0 0.1122300843
H  H24  1  0.82128000  0.66546000  0.36330000  1.0 0.1122300843
H  H25  1  0.49932000  0.25000000  0.65325000  1.0 0.1415197323
H  H26  1  0.50068000  0.75000000  0.34675000  1.0 0.1415197323
H  H27  1  0.49932000  0.25000000  0.84675000  1.0 0.1415197323
H  H28  1  0.50068000  0.75000000  0.15325000  1.0 0.1415197323
H  H29  1  0.57550000  0.25000000  0.39228000  1.0 0.2971269496
H  H30  1  0.42450000  0.75000000  0.60772000  1.0 0.2971269496
H  H31  1  0.57550000  0.25000000  0.10772000  1.0 0.2971269496
H  H32  1  0.42450000  0.75000000  0.89228000  1.0 0.2971269496
H  H33  1  0.33357000  0.25000000  0.68231000  1.0 0.1703106507
H  H34  1  0.66643000  0.75000000  0.31769000  1.0 0.1703106507
H  H35  1  0.33357000  0.25000000  0.81769000  1.0 0.1703106507
H  H36  1  0.66643000  0.75000000  0.18231000  1.0 0.1703106507
H  H37  1  0.32889000  0.25000000  0.38196000  1.0 0.1275682159
H  H38  1  0.67111000  0.75000000  0.61804000  1.0 0.1275682159
H  H39  1  0.32889000  0.25000000  0.11804000  1.0 0.1275682159
H  H40  1  0.67111000  0.75000000  0.88196000  1.0 0.1275682159
C  C1  1  0.84291000  0.47857000  0.75000000  1.0 0.6199526273
C  C2  1  0.15709000  0.52143000  0.25000000  1.0 0.6199526273
C  C3  1  0.84291000  0.02143000  0.75000000  1.0 0.6199526273
C  C4  1  0.15709000  0.97857000  0.25000000  1.0 0.6199526273
C  C5  1  0.80615000  0.60968000  0.75000000  1.0 -0.0860467323
C  C6  1  0.19385000  0.39032000  0.25000000  1.0 -0.0860467323
C  C7  1  0.80615000  0.89032000  0.75000000  1.0 -0.0860467323
C  C8  1  0.19385000  0.10968000  0.25000000  1.0 -0.0860467323
C  C9  1  0.79893000  0.68888000  0.79929000  1.0 0.0297410166
C  C10  1  0.20107000  0.31112000  0.20071000  1.0 0.0297410166
C  C11  1  0.79893000  0.81112000  0.70071000  1.0 0.0297410166
C  C12  1  0.20107000  0.18888000  0.29929000  1.0 0.0297410166
C  C13  1  0.20107000  0.31112000  0.29929000  1.0 0.0297410166
C  C14  1  0.79893000  0.68888000  0.70071000  1.0 0.0297410166
C  C15  1  0.20107000  0.18888000  0.20071000  1.0 0.0297410166
C  C16  1  0.79893000  0.81112000  0.79929000  1.0 0.0297410166
C  C17  1  0.11137000  0.25000000  0.75000000  1.0 0.4834074906
C  C18  1  0.88863000  0.75000000  0.25000000  1.0 0.4834074906
C  C19  1  0.23389000  0.25000000  0.75000000  1.0 -0.565987996
C  C20  1  0.76611000  0.75000000  0.25000000  1.0 -0.5636434473
C  C21  1  0.43305000  0.25000000  0.80851000  1.0 -0.2510521927
C  C22  1  0.56695000  0.75000000  0.19149000  1.0 -0.2510521927
C  C23  1  0.43305000  0.25000000  0.69149000  1.0 -0.2510521927
C  C24  1  0.56695000  0.75000000  0.30851000  1.0 -0.2510521927
C  C25  1  0.12349000  0.25000000  0.64030000  1.0 -0.1632297106
C  C26  1  0.87651000  0.75000000  0.35970000  1.0 -0.1632297106
C  C27  1  0.12349000  0.25000000  0.85970000  1.0 -0.1632297106
C  C28  1  0.87651000  0.75000000  0.14030000  1.0 -0.1632297106
C  C29  1  0.48417000  0.25000000  0.75000000  1.0 0.061746449
C  C30  1  0.51583000  0.75000000  0.25000000  1.0 0.061746449
C  C31  1  0.62171000  0.25000000  0.75000000  1.0 0.5983429335
C  C32  1  0.37829000  0.75000000  0.25000000  1.0 0.5983429335
C  C33  1  0.74715000  0.25000000  0.43500000  1.0 0.1122300843
C  C34  1  0.25285000  0.75000000  0.56500000  1.0 0.1122300843
C  C35  1  0.74715000  0.25000000  0.06500000  1.0 0.1122300843
C  C36  1  0.25285000  0.75000000  0.93500000  1.0 0.1122300843
C  C37  1  0.67688000  0.25000000  0.55579000  1.0 0.1495150856
C  C38  1  0.32312000  0.75000000  0.44421000  1.0 0.1495150856
C  C39  1  0.67688000  0.25000000  0.94421000  1.0 0.1495150856
C  C40  1  0.32312000  0.75000000  0.05579000  1.0 0.1495150856
C  C41  1  0.22864000  0.25000000  0.37732000  1.0 -0.3600765459
C  C42  1  0.77136000  0.75000000  0.62268000  1.0 -0.3600765459
C  C43  1  0.22864000  0.25000000  0.12268000  1.0 -0.3600765459
C  C44  1  0.77136000  0.75000000  0.87732000  1.0 -0.3600765459
C  C45  1  0.74354000  0.25000000  0.50399000  1.0 0.0695077645
C  C46  1  0.25646000  0.75000000  0.49601000  1.0 0.0695077645
C  C47  1  0.74354000  0.25000000  0.99601000  1.0 0.0695077645
C  C48  1  0.25646000  0.75000000  0.00399000  1.0 0.0695077645
C  C49  1  0.99356000  0.25000000  0.35303000  1.0 -0.0485804633
C  C50  1  0.00644000  0.75000000  0.64697000  1.0 -0.0485804633
C  C51  1  0.99356000  0.25000000  0.14697000  1.0 -0.0485804633
C  C52  1  0.00644000  0.75000000  0.85303000  1.0 -0.0485804633
C  C53  1  0.78610000  0.12311000  0.40559000  1.0 0.3528790965
C  C54  1  0.21390000  0.87689000  0.59441000  1.0 0.3528790965
C  C55  1  0.78610000  0.37689000  0.09441000  1.0 0.3528790965
C  C56  1  0.21390000  0.62311000  0.90559000  1.0 0.3528790965
C  C57  1  0.21390000  0.87689000  0.90559000  1.0 0.3528790965
C  C58  1  0.78610000  0.12311000  0.09441000  1.0 0.3528790965
C  C59  1  0.21390000  0.62311000  0.59441000  1.0 0.3528790965
C  C60  1  0.78610000  0.37689000  0.40559000  1.0 0.3528790965
C  C61  1  0.80947000  0.13543000  0.33650000  1.0 0.0134195849
C  C62  1  0.19053000  0.86457000  0.66350000  1.0 0.0134195849
C  C63  1  0.80947000  0.36457000  0.16350000  1.0 0.0134195849
C  C64  1  0.19053000  0.63543000  0.83650000  1.0 0.0134195849
C  C65  1  0.19053000  0.86457000  0.83650000  1.0 0.0134195849
C  C66  1  0.80947000  0.13543000  0.16350000  1.0 0.0134195849
C  C67  1  0.19053000  0.63543000  0.66350000  1.0 0.0134195849
C  C68  1  0.80947000  0.36457000  0.33650000  1.0 0.0134195849
C  C69  1  0.80119000  0.09795000  0.22097000  1.0 -0.0553618513
C  C70  1  0.19881000  0.90205000  0.77903000  1.0 -0.0553618513
C  C71  1  0.80119000  0.40205000  0.27903000  1.0 -0.0553618513
C  C72  1  0.19881000  0.59795000  0.72097000  1.0 -0.0553618513
C  C73  1  0.19881000  0.90205000  0.72097000  1.0 -0.0553618513
C  C74  1  0.80119000  0.09795000  0.27903000  1.0 -0.0553618513
C  C75  1  0.19881000  0.59795000  0.77903000  1.0 -0.0553618513
C  C76  1  0.80119000  0.40205000  0.22097000  1.0 -0.0553618513
C  C77  1  0.88083000  0.25000000  0.33359000  1.0 0.0297410166
C  C78  1  0.11917000  0.75000000  0.66641000  1.0 0.0297410166
C  C79  1  0.88083000  0.25000000  0.16641000  1.0 0.0297410166
C  C80  1  0.11917000  0.75000000  0.83359000  1.0 0.0297410166
N  N1  1  0.78163000  0.25000000  0.58511000  1.0 -0.2891788103
N  N2  1  0.21837000  0.75000000  0.41489000  1.0 -0.2891788103
N  N3  1  0.78163000  0.25000000  0.91489000  1.0 -0.2891788103
N  N4  1  0.21837000  0.75000000  0.08511000  1.0 -0.2891788103
N  N5  1  0.61282000  0.25000000  0.43588000  1.0 -0.5260325827
N  N6  1  0.38718000  0.75000000  0.56412000  1.0 -0.5237790662
N  N7  1  0.61282000  0.25000000  0.06412000  1.0 -0.5237790662
N  N8  1  0.38718000  0.75000000  0.93588000  1.0 -0.5237790662
O  O1  1  0.86077000  0.42963000  0.69845000  1.0 -0.5370337136
O  O2  1  0.13923000  0.57037000  0.30155000  1.0 -0.5370337136
O  O3  1  0.86077000  0.07037000  0.80155000  1.0 -0.5370337136
O  O4  1  0.13923000  0.92963000  0.19845000  1.0 -0.5370337136
O  O5  1  0.13923000  0.57037000  0.19845000  1.0 -0.5370337136
O  O6  1  0.86077000  0.42963000  0.80155000  1.0 -0.5370337136
O  O7  1  0.13923000  0.92963000  0.30155000  1.0 -0.5370337136
O  O8  1  0.86077000  0.07037000  0.69845000  1.0 -0.5370337136
O  O9  1  0.04776000  0.25000000  0.69711000  1.0 -0.2125600681
O  O10  1  0.95224000  0.75000000  0.30289000  1.0 -0.2125600681
O  O11  1  0.04776000  0.25000000  0.80289000  1.0 -0.2125600681
O  O12  1  0.95224000  0.75000000  0.19711000  1.0 -0.2125600681
O  O13  1  0.67640000  0.25000000  0.69924000  1.0 -0.5260325827
O  O14  1  0.32360000  0.75000000  0.30076000  1.0 -0.5260325827
O  O15  1  0.67640000  0.25000000  0.80076000  1.0 -0.5260325827
O  O16  1  0.32360000  0.75000000  0.19924000  1.0 -0.5260325827
O  O17  1  0.79072000  0.03067000  0.43496000  1.0 -0.368186123
O  O18  1  0.20928000  0.96933000  0.56504000  1.0 -0.368186123
O  O19  1  0.79072000  0.46933000  0.06504000  1.0 -0.368186123
O  O20  1  0.20928000  0.53067000  0.93496000  1.0 -0.368186123
O  O21  1  0.20928000  0.96933000  0.93496000  1.0 -0.368186123
O  O22  1  0.79072000  0.03067000  0.06504000  1.0 -0.368186123
O  O23  1  0.20928000  0.53067000  0.56504000  1.0 -0.368186123
O  O24  1  0.79072000  0.46933000  0.43496000  1.0 -0.368186123
