# DDEC6 charges by PACMAN v1.1 (https://github.com/mtap-research/PACMAN-charge/)
data_OJORUC_ASR_pacman
_symmetry_space_group_name_H-M   'P 1'
_cell_length_a   15.95400000
_cell_length_b   19.22600000
_cell_length_c   16.73400000
_cell_angle_alpha   90.00000000
_cell_angle_beta   96.82800000
_cell_angle_gamma   90.00000000
_symmetry_Int_Tables_number   1
_chemical_formula_structural   Zn2H21C30N3O7
_chemical_formula_sum   'Zn8 H84 C120 N12 O28'
_cell_volume   5096.44208212
_cell_formula_units_Z   4
loop_
 _symmetry_equiv_pos_site_id
 _symmetry_equiv_pos_as_xyz
  1  'x, y, z'
loop_
 _atom_site_type_symbol
 _atom_site_label
 _atom_site_symmetry_multiplicity
 _atom_site_fract_x
 _atom_site_fract_y
 _atom_site_fract_z
 _atom_site_occupancy
 _atom_site_charge
Zn  Zn1  1  0.46551000  0.57268000  0.46670000  1.0 1.0604843409
Zn  Zn2  1  0.53449000  0.07268000  0.03330000  1.0 1.0604843409
Zn  Zn3  1  0.53449000  0.42732000  0.53330000  1.0 1.0604843409
Zn  Zn4  1  0.46551000  0.92732000  0.96670000  1.0 1.0604843409
Zn  Zn5  1  0.66628000  0.56898000  0.49816000  1.0 0.9988391162
Zn  Zn6  1  0.33372000  0.06898000  0.00184000  1.0 0.9988391162
Zn  Zn7  1  0.33372000  0.43102000  0.50184000  1.0 0.9988391162
Zn  Zn8  1  0.66628000  0.93102000  0.99816000  1.0 0.9988391162
H  H1  1  0.42280000  0.84200000  0.14700000  1.0 0.2977549717
H  H2  1  0.57720000  0.34200000  0.35300000  1.0 0.2977549717
H  H3  1  0.57720000  0.15800000  0.85300000  1.0 0.2977549717
H  H4  1  0.42280000  0.65800000  0.64700000  1.0 0.2977549717
H  H5  1  0.73790000  0.66190000  0.32900000  1.0 0.2923937649
H  H6  1  0.26210000  0.16190000  0.17100000  1.0 0.2923937649
H  H7  1  0.26210000  0.33810000  0.67100000  1.0 0.2923937649
H  H8  1  0.73790000  0.83810000  0.82900000  1.0 0.2923937649
H  H9  1  0.13180000  0.55210000  0.65310000  1.0 0.2716668159
H  H10  1  0.86820000  0.05210000  0.84690000  1.0 0.2716668159
H  H11  1  0.86820000  0.44790000  0.34690000  1.0 0.2716668159
H  H12  1  0.13180000  0.94790000  0.15310000  1.0 0.2716668159
H  H13  1  0.28080000  0.86190000  0.14810000  1.0 0.138948505
H  H14  1  0.71920000  0.36190000  0.35190000  1.0 0.138948505
H  H15  1  0.71920000  0.13810000  0.85190000  1.0 0.138948505
H  H16  1  0.28080000  0.63810000  0.64810000  1.0 0.138948505
H  H17  1  0.14610000  0.81830000  0.14540000  1.0 0.119055086
H  H18  1  0.85390000  0.31830000  0.35460000  1.0 0.119055086
H  H19  1  0.85390000  0.18170000  0.85460000  1.0 0.119055086
H  H20  1  0.14610000  0.68170000  0.64540000  1.0 0.119055086
H  H21  1  0.12830000  0.70050000  0.16320000  1.0 0.111989254
H  H22  1  0.87170000  0.20050000  0.33680000  1.0 0.111989254
H  H23  1  0.87170000  0.29950000  0.83680000  1.0 0.111989254
H  H24  1  0.12830000  0.79950000  0.66320000  1.0 0.111989254
H  H25  1  0.24470000  0.62870000  0.19090000  1.0 0.119055086
H  H26  1  0.75530000  0.12870000  0.30910000  1.0 0.119055086
H  H27  1  0.75530000  0.37130000  0.80910000  1.0 0.119055086
H  H28  1  0.24470000  0.87130000  0.69090000  1.0 0.119055086
H  H29  1  0.38080000  0.67110000  0.19140000  1.0 0.1298735403
H  H30  1  0.61920000  0.17110000  0.30860000  1.0 0.1298735403
H  H31  1  0.61920000  0.32890000  0.80860000  1.0 0.1298735403
H  H32  1  0.38080000  0.82890000  0.69140000  1.0 0.1298735403
H  H33  1  0.70370000  0.78830000  0.18880000  1.0 0.1298735403
H  H34  1  0.29630000  0.28830000  0.31120000  1.0 0.1298735403
H  H35  1  0.29630000  0.21170000  0.81120000  1.0 0.1298735403
H  H36  1  0.70370000  0.71170000  0.68880000  1.0 0.1298735403
H  H37  1  0.46080000  0.71750000  0.28680000  1.0 0.119055086
H  H38  1  0.53920000  0.21750000  0.21320000  1.0 0.119055086
H  H39  1  0.53920000  0.28250000  0.71320000  1.0 0.119055086
H  H40  1  0.46080000  0.78250000  0.78680000  1.0 0.119055086
H  H41  1  0.87290000  0.62950000  0.27890000  1.0 0.138948505
H  H42  1  0.12710000  0.12950000  0.22110000  1.0 0.138948505
H  H43  1  0.12710000  0.37050000  0.72110000  1.0 0.138948505
H  H44  1  0.87290000  0.87050000  0.77890000  1.0 0.138948505
H  H45  1  0.00700000  0.66910000  0.26590000  1.0 0.119055086
H  H46  1  0.99300000  0.16910000  0.23410000  1.0 0.111989254
H  H47  1  0.99300000  0.33090000  0.73410000  1.0 0.111989254
H  H48  1  0.00700000  0.83090000  0.76590000  1.0 0.111989254
H  H49  1  0.03360000  0.78550000  0.26200000  1.0 0.119055086
H  H50  1  0.96640000  0.28550000  0.23800000  1.0 0.119055086
H  H51  1  0.96640000  0.21450000  0.73800000  1.0 0.119055086
H  H52  1  0.03360000  0.71450000  0.76200000  1.0 0.119055086
H  H53  1  0.92900000  0.86380000  0.27870000  1.0 0.119055086
H  H54  1  0.07100000  0.36380000  0.22130000  1.0 0.119055086
H  H55  1  0.07100000  0.13620000  0.72130000  1.0 0.119055086
H  H56  1  0.92900000  0.63620000  0.77870000  1.0 0.119055086
H  H57  1  0.79700000  0.82500000  0.29430000  1.0 0.1298735403
H  H58  1  0.20300000  0.32500000  0.20570000  1.0 0.1298735403
H  H59  1  0.20300000  0.17500000  0.70570000  1.0 0.1298735403
H  H60  1  0.79700000  0.67500000  0.79430000  1.0 0.1298735403
H  H61  1  0.92320000  0.54320000  0.59410000  1.0 0.138948505
H  H62  1  0.07680000  0.04320000  0.90590000  1.0 0.138948505
H  H63  1  0.07680000  0.45680000  0.40590000  1.0 0.138948505
H  H64  1  0.92320000  0.95680000  0.09410000  1.0 0.138948505
H  H65  1  0.15260000  0.58340000  0.78380000  1.0 0.1298735403
H  H66  1  0.84740000  0.08340000  0.71620000  1.0 0.1298735403
H  H67  1  0.84740000  0.41660000  0.21620000  1.0 0.1298735403
H  H68  1  0.15260000  0.91660000  0.28380000  1.0 0.1298735403
H  H69  1  0.98520000  0.50270000  0.92860000  1.0 0.111989254
H  H70  1  0.01480000  0.00270000  0.57140000  1.0 0.111989254
H  H71  1  0.01480000  0.49730000  0.07140000  1.0 0.111989254
H  H72  1  0.98520000  0.99730000  0.42860000  1.0 0.111989254
H  H73  1  0.11020000  0.57150000  0.91760000  1.0 0.111989254
H  H74  1  0.88980000  0.07150000  0.58240000  1.0 0.111989254
H  H75  1  0.88980000  0.42850000  0.08240000  1.0 0.111989254
H  H76  1  0.11020000  0.92850000  0.41760000  1.0 0.111989254
H  H77  1  0.90870000  0.45670000  0.82460000  1.0 0.111989254
H  H78  1  0.09130000  0.95670000  0.67540000  1.0 0.111989254
H  H79  1  0.09130000  0.54330000  0.17540000  1.0 0.111989254
H  H80  1  0.90870000  0.04330000  0.32460000  1.0 0.111989254
H  H81  1  0.94920000  0.46980000  0.69500000  1.0 0.1298735403
H  H82  1  0.05080000  0.96980000  0.80500000  1.0 0.1298735403
H  H83  1  0.05080000  0.53020000  0.30500000  1.0 0.1298735403
H  H84  1  0.94920000  0.03020000  0.19500000  1.0 0.1298735403
C  C1  1  0.27330000  0.81480000  0.15730000  1.0 -0.1868970656
C  C2  1  0.72670000  0.31480000  0.34270000  1.0 -0.1868970656
C  C3  1  0.72670000  0.18520000  0.84270000  1.0 -0.1868970656
C  C4  1  0.27330000  0.68520000  0.65730000  1.0 -0.1868970656
C  C5  1  0.19260000  0.78890000  0.15460000  1.0 -0.0964602991
C  C6  1  0.80740000  0.28890000  0.34540000  1.0 -0.0964602991
C  C7  1  0.80740000  0.21110000  0.84540000  1.0 -0.0964602991
C  C8  1  0.19260000  0.71110000  0.65460000  1.0 -0.0964602991
C  C9  1  0.18230000  0.71920000  0.16590000  1.0 -0.1478568069
C  C10  1  0.81770000  0.21920000  0.33410000  1.0 -0.1478568069
C  C11  1  0.81770000  0.28080000  0.83410000  1.0 -0.1478568069
C  C12  1  0.18230000  0.78080000  0.66590000  1.0 -0.1478568069
C  C13  1  0.25290000  0.67580000  0.18150000  1.0 -0.0821878247
C  C14  1  0.74710000  0.17580000  0.31850000  1.0 -0.0821878247
C  C15  1  0.74710000  0.32420000  0.81850000  1.0 -0.0821878247
C  C16  1  0.25290000  0.82420000  0.68150000  1.0 -0.0821878247
C  C17  1  0.33460000  0.70080000  0.18350000  1.0 -0.1868970656
C  C18  1  0.66540000  0.20080000  0.31650000  1.0 -0.1868970656
C  C19  1  0.66540000  0.29920000  0.81650000  1.0 -0.1868970656
C  C20  1  0.33460000  0.79920000  0.68350000  1.0 -0.1868970656
C  C21  1  0.34500000  0.77170000  0.17350000  1.0 0.2390237809
C  C22  1  0.65500000  0.27170000  0.32650000  1.0 0.2390237809
C  C23  1  0.65500000  0.22830000  0.82650000  1.0 0.2390237809
C  C24  1  0.34500000  0.72830000  0.67350000  1.0 0.2390237809
C  C25  1  0.50330000  0.77730000  0.20200000  1.0 0.1861781837
C  C26  1  0.49670000  0.27730000  0.29800000  1.0 0.1861781837
C  C27  1  0.49670000  0.22270000  0.79800000  1.0 0.1861781837
C  C28  1  0.50330000  0.72270000  0.70200000  1.0 0.1861781837
C  C29  1  0.57810000  0.79790000  0.17330000  1.0 -0.0904232622
C  C30  1  0.42190000  0.29790000  0.32670000  1.0 -0.0904232622
C  C31  1  0.42190000  0.20210000  0.82670000  1.0 -0.0904232622
C  C32  1  0.57810000  0.70210000  0.67330000  1.0 -0.0904232622
C  C33  1  0.65470000  0.77320000  0.20840000  1.0 -0.1868970656
C  C34  1  0.34530000  0.27320000  0.29160000  1.0 -0.1868970656
C  C35  1  0.34530000  0.22680000  0.79160000  1.0 -0.1868970656
C  C36  1  0.65470000  0.72680000  0.70840000  1.0 -0.1868970656
C  C37  1  0.66110000  0.72760000  0.27050000  1.0 0.1992803873
C  C38  1  0.33890000  0.22760000  0.22950000  1.0 0.1992803873
C  C39  1  0.33890000  0.27240000  0.72950000  1.0 0.1992803873
C  C40  1  0.66110000  0.77240000  0.77050000  1.0 0.1992803873
C  C41  1  0.58640000  0.70610000  0.30200000  1.0 -0.1077297726
C  C42  1  0.41360000  0.20610000  0.19800000  1.0 -0.1077297726
C  C43  1  0.41360000  0.29390000  0.69800000  1.0 -0.1077297726
C  C44  1  0.58640000  0.79390000  0.80200000  1.0 -0.1077297726
C  C45  1  0.50990000  0.73160000  0.26650000  1.0 -0.1798465415
C  C46  1  0.49010000  0.23160000  0.23350000  1.0 -0.1798465415
C  C47  1  0.49010000  0.26840000  0.73350000  1.0 -0.1798465415
C  C48  1  0.50990000  0.76840000  0.76650000  1.0 -0.1798465415
C  C49  1  0.57850000  0.85090000  0.10380000  1.0 0.5989370854
C  C50  1  0.42150000  0.35090000  0.39620000  1.0 0.5989370854
C  C51  1  0.42150000  0.14910000  0.89620000  1.0 0.5989370854
C  C52  1  0.57850000  0.64910000  0.60380000  1.0 0.5989370854
C  C53  1  0.58480000  0.65720000  0.37090000  1.0 0.6183839948
C  C54  1  0.41520000  0.15720000  0.12910000  1.0 0.6183839948
C  C55  1  0.41520000  0.34280000  0.62910000  1.0 0.6183839948
C  C56  1  0.58480000  0.84280000  0.87090000  1.0 0.6183839948
C  C57  1  0.82010000  0.72190000  0.28660000  1.0 0.2264518947
C  C58  1  0.17990000  0.22190000  0.21340000  1.0 0.2264518947
C  C59  1  0.17990000  0.27810000  0.71340000  1.0 0.2264518947
C  C60  1  0.82010000  0.77810000  0.78660000  1.0 0.2264518947
C  C61  1  0.88340000  0.67700000  0.27880000  1.0 -0.1798465415
C  C62  1  0.11660000  0.17700000  0.22120000  1.0 -0.1798465415
C  C63  1  0.11660000  0.32300000  0.72120000  1.0 -0.1798465415
C  C64  1  0.88340000  0.82300000  0.77880000  1.0 -0.1798465415
C  C65  1  0.96380000  0.70070000  0.27060000  1.0 -0.0904232622
C  C66  1  0.03620000  0.20070000  0.22940000  1.0 -0.0904232622
C  C67  1  0.03620000  0.29930000  0.72940000  1.0 -0.0904232622
C  C68  1  0.96380000  0.79930000  0.77060000  1.0 -0.0904232622
C  C69  1  0.97990000  0.76990000  0.26930000  1.0 -0.1243727147
C  C70  1  0.02010000  0.26990000  0.23070000  1.0 -0.1243727147
C  C71  1  0.02010000  0.23010000  0.73070000  1.0 -0.1243727147
C  C72  1  0.97990000  0.73010000  0.76930000  1.0 -0.1243727147
C  C73  1  0.91780000  0.81630000  0.27850000  1.0 -0.0904232622
C  C74  1  0.08220000  0.31630000  0.22150000  1.0 -0.0821878247
C  C75  1  0.08220000  0.18370000  0.72150000  1.0 -0.0821878247
C  C76  1  0.91780000  0.68370000  0.77850000  1.0 -0.0821878247
C  C77  1  0.83930000  0.79290000  0.28740000  1.0 -0.1659833244
C  C78  1  0.16070000  0.29290000  0.21260000  1.0 -0.1659833244
C  C79  1  0.16070000  0.20710000  0.71260000  1.0 -0.1659833244
C  C80  1  0.83930000  0.70710000  0.78740000  1.0 -0.1659833244
C  C81  1  0.81980000  0.51890000  0.46640000  1.0 0.5544800372
C  C82  1  0.18020000  0.01890000  0.03360000  1.0 0.5544800372
C  C83  1  0.18020000  0.48110000  0.53360000  1.0 0.5544800372
C  C84  1  0.81980000  0.98110000  0.96640000  1.0 0.5544800372
C  C85  1  0.91130000  0.51020000  0.48110000  1.0 -0.1077297726
C  C86  1  0.08870000  0.01020000  0.01890000  1.0 -0.1077297726
C  C87  1  0.08870000  0.48980000  0.51890000  1.0 -0.1077297726
C  C88  1  0.91130000  0.98980000  0.98110000  1.0 -0.1077297726
C  C89  1  0.95470000  0.52540000  0.55550000  1.0 -0.2031703233
C  C90  1  0.04530000  0.02540000  0.94450000  1.0 -0.2031703233
C  C91  1  0.04530000  0.47460000  0.44450000  1.0 -0.2031703233
C  C92  1  0.95470000  0.97460000  0.05550000  1.0 -0.2031703233
C  C93  1  0.04090000  0.51660000  0.57840000  1.0 0.1992803873
C  C94  1  0.95910000  0.01660000  0.92160000  1.0 0.1992803873
C  C95  1  0.95910000  0.48340000  0.42160000  1.0 0.1992803873
C  C96  1  0.04090000  0.98340000  0.07840000  1.0 0.1992803873
C  C97  1  0.05250000  0.52720000  0.72840000  1.0 0.2185014211
C  C98  1  0.94750000  0.02720000  0.77160000  1.0 0.2185014211
C  C99  1  0.94750000  0.47280000  0.27160000  1.0 0.2185014211
C  C100  1  0.05250000  0.97280000  0.22840000  1.0 0.2185014211
C  C101  1  0.10440000  0.55880000  0.79270000  1.0 -0.2267875909
C  C102  1  0.89560000  0.05880000  0.70730000  1.0 -0.2267875909
C  C103  1  0.89560000  0.44120000  0.20730000  1.0 -0.2267875909
C  C104  1  0.10440000  0.94120000  0.29270000  1.0 -0.2267875909
C  C105  1  0.00220000  0.50940000  0.87790000  1.0 -0.1385483085
C  C106  1  0.99780000  0.00940000  0.62210000  1.0 -0.1385483085
C  C107  1  0.99780000  0.49060000  0.12210000  1.0 -0.1385483085
C  C108  1  0.00220000  0.99060000  0.37790000  1.0 -0.1385483085
C  C109  1  0.07970000  0.55140000  0.87260000  1.0 -0.0821878247
C  C110  1  0.92030000  0.05140000  0.62740000  1.0 -0.0821878247
C  C111  1  0.92030000  0.44860000  0.12740000  1.0 -0.0821878247
C  C112  1  0.07970000  0.94860000  0.37260000  1.0 -0.0821878247
C  C113  1  0.95700000  0.48180000  0.81720000  1.0 -0.0904232622
C  C114  1  0.04300000  0.98180000  0.68280000  1.0 -0.0904232622
C  C115  1  0.04300000  0.51820000  0.18280000  1.0 -0.0904232622
C  C116  1  0.95700000  0.01820000  0.31720000  1.0 -0.0904232622
C  C117  1  0.98140000  0.48980000  0.73910000  1.0 -0.2031703233
C  C118  1  0.01860000  0.98980000  0.76090000  1.0 -0.2031703233
C  C119  1  0.01860000  0.51020000  0.26090000  1.0 -0.2031703233
C  C120  1  0.98140000  0.01020000  0.23910000  1.0 -0.2031703233
N  N1  1  0.42320000  0.80240000  0.17090000  1.0 -0.3123631789
N  N2  1  0.57680000  0.30240000  0.32910000  1.0 -0.3123631789
N  N3  1  0.57680000  0.19760000  0.82910000  1.0 -0.3123631789
N  N4  1  0.42320000  0.69760000  0.67090000  1.0 -0.3123631789
N  N5  1  0.73940000  0.69850000  0.29960000  1.0 -0.3566815197
N  N6  1  0.26060000  0.19850000  0.20040000  1.0 -0.3566815197
N  N7  1  0.26060000  0.30150000  0.70040000  1.0 -0.3566815197
N  N8  1  0.73940000  0.80150000  0.79960000  1.0 -0.3566815197
N  N9  1  0.08220000  0.53450000  0.65280000  1.0 -0.3427695869
N  N10  1  0.91780000  0.03450000  0.84720000  1.0 -0.3427695869
N  N11  1  0.91780000  0.46550000  0.34720000  1.0 -0.3427695869
N  N12  1  0.08220000  0.96550000  0.15280000  1.0 -0.3427695869
O  O1  1  0.51390000  0.64260000  0.39160000  1.0 -0.5696919798
O  O2  1  0.48610000  0.14260000  0.10840000  1.0 -0.5696919798
O  O3  1  0.48610000  0.35740000  0.60840000  1.0 -0.5696919798
O  O4  1  0.51390000  0.85740000  0.89160000  1.0 -0.5696919798
O  O5  1  0.65460000  0.63390000  0.40390000  1.0 -0.5419793417
O  O6  1  0.34540000  0.13390000  0.09610000  1.0 -0.5507627616
O  O7  1  0.34540000  0.36610000  0.59610000  1.0 -0.5419793417
O  O8  1  0.65460000  0.86610000  0.90390000  1.0 -0.5507627616
O  O9  1  0.51130000  0.87580000  0.07320000  1.0 -0.531098579
O  O10  1  0.48870000  0.37580000  0.42680000  1.0 -0.5419793417
O  O11  1  0.48870000  0.12420000  0.92680000  1.0 -0.531098579
O  O12  1  0.51130000  0.62420000  0.57320000  1.0 -0.531098579
O  O13  1  0.65040000  0.86510000  0.08470000  1.0 -0.531098579
O  O14  1  0.34960000  0.36510000  0.41530000  1.0 -0.531098579
O  O15  1  0.34960000  0.13490000  0.91530000  1.0 -0.531098579
O  O16  1  0.65040000  0.63490000  0.58470000  1.0 -0.531098579
O  O17  1  0.78510000  0.54800000  0.52500000  1.0 -0.5507627616
O  O18  1  0.21490000  0.04800000  0.97500000  1.0 -0.5507627616
O  O19  1  0.21490000  0.45200000  0.47500000  1.0 -0.5507627616
O  O20  1  0.78510000  0.95200000  0.02500000  1.0 -0.5507627616
O  O21  1  0.77690000  0.49990000  0.40490000  1.0 -0.5170257478
O  O22  1  0.22310000  0.99990000  0.09510000  1.0 -0.5170257478
O  O23  1  0.22310000  0.50010000  0.59510000  1.0 -0.5170257478
O  O24  1  0.77690000  0.00010000  0.90490000  1.0 -0.5170257478
O  O25  1  0.57270000  0.50569000  0.46300000  1.0 -0.9621887445
O  O26  1  0.42730000  0.00569000  0.03700000  1.0 -0.9621887445
O  O27  1  0.42730000  0.49431000  0.53700000  1.0 -0.9621887445
O  O28  1  0.57270000  0.99431000  0.96300000  1.0 -0.9621887445
