# DDEC6 charges by PACMAN v1.1 (https://github.com/mtap-research/PACMAN-charge/)
data_OJUNIS_ASR_pacman
_symmetry_space_group_name_H-M   'P 1'
_cell_length_a   13.01820000
_cell_length_b   13.01820000
_cell_length_c   13.01820000
_cell_angle_alpha   97.74940000
_cell_angle_beta   97.74940000
_cell_angle_gamma   136.91300000
_symmetry_Int_Tables_number   1
_chemical_formula_structural   ZnH56C54N5O8
_chemical_formula_sum   'Zn2 H112 C108 N10 O16'
_cell_volume   1401.81442128
_cell_formula_units_Z   2
loop_
 _symmetry_equiv_pos_site_id
 _symmetry_equiv_pos_as_xyz
  1  'x, y, z'
loop_
 _atom_site_type_symbol
 _atom_site_label
 _atom_site_symmetry_multiplicity
 _atom_site_fract_x
 _atom_site_fract_y
 _atom_site_fract_z
 _atom_site_occupancy
 _atom_site_charge
Zn  Zn1  1  0.84758000  0.84758000  0.00000000  1.0 0.6486614435
Zn  Zn2  1  0.15242000  0.15242000  0.00000000  1.0 0.6486614435
H  H1  1  0.50580000  0.57190000  0.85010000  1.0 0.0588054554
H  H2  1  0.72180000  0.65570000  0.14990000  1.0 0.0588054554
H  H3  1  0.65570000  0.50580000  0.93390000  1.0 0.0588054554
H  H4  1  0.57190000  0.72180000  0.06610000  1.0 0.0588054554
H  H5  1  0.49420000  0.34430000  0.06610000  1.0 0.0588054554
H  H6  1  0.27820000  0.42810000  0.93390000  1.0 0.0588054554
H  H7  1  0.34430000  0.27820000  0.85010000  1.0 0.0588054554
H  H8  1  0.42810000  0.49420000  0.14990000  1.0 0.0588054554
H  H9  1  0.49420000  0.42810000  0.14990000  1.0 0.0588054554
H  H10  1  0.27820000  0.34430000  0.85010000  1.0 0.0588054554
H  H11  1  0.34430000  0.49420000  0.06610000  1.0 0.0588054554
H  H12  1  0.42810000  0.27820000  0.93390000  1.0 0.0588054554
H  H13  1  0.50580000  0.65570000  0.93390000  1.0 0.0588054554
H  H14  1  0.72180000  0.57190000  0.06610000  1.0 0.0588054554
H  H15  1  0.65570000  0.72180000  0.14990000  1.0 0.0588054554
H  H16  1  0.57190000  0.50580000  0.85010000  1.0 0.0588054554
H  H17  1  0.77690000  0.01270000  0.25100000  1.0 0.0768621568
H  H18  1  0.76170000  0.52590000  0.74900000  1.0 0.0768621568
H  H19  1  0.52590000  0.77690000  0.76420000  1.0 0.0768621568
H  H20  1  0.01270000  0.76170000  0.23580000  1.0 0.0768621568
H  H21  1  0.22310000  0.47410000  0.23580000  1.0 0.0768621568
H  H22  1  0.23830000  0.98730000  0.76420000  1.0 0.0768621568
H  H23  1  0.47410000  0.23830000  0.25100000  1.0 0.0768621568
H  H24  1  0.98730000  0.22310000  0.74900000  1.0 0.0768621568
H  H25  1  0.22310000  0.98730000  0.74900000  1.0 0.0768621568
H  H26  1  0.23830000  0.47410000  0.25100000  1.0 0.0768621568
H  H27  1  0.47410000  0.22310000  0.23580000  1.0 0.0768621568
H  H28  1  0.98730000  0.23830000  0.76420000  1.0 0.0768621568
H  H29  1  0.77690000  0.52590000  0.76420000  1.0 0.0768621568
H  H30  1  0.76170000  0.01270000  0.23580000  1.0 0.0768621568
H  H31  1  0.52590000  0.76170000  0.74900000  1.0 0.0768621568
H  H32  1  0.01270000  0.77690000  0.25100000  1.0 0.0768621568
H  H33  1  0.18370000  0.44770000  0.24880000  1.0 0.0996140255
H  H34  1  0.19890000  0.93490000  0.75120000  1.0 0.0996140255
H  H35  1  0.93490000  0.18370000  0.73600000  1.0 0.0996140255
H  H36  1  0.44770000  0.19890000  0.26400000  1.0 0.0996140255
H  H37  1  0.81630000  0.06510000  0.26400000  1.0 0.0996140255
H  H38  1  0.80110000  0.55230000  0.73600000  1.0 0.0996140255
H  H39  1  0.06510000  0.80110000  0.24880000  1.0 0.0996140255
H  H40  1  0.55230000  0.81630000  0.75120000  1.0 0.0996140255
H  H41  1  0.81630000  0.55230000  0.75120000  1.0 0.0996140255
H  H42  1  0.80110000  0.06510000  0.24880000  1.0 0.0996140255
H  H43  1  0.06510000  0.81630000  0.26400000  1.0 0.0996140255
H  H44  1  0.55230000  0.80110000  0.73600000  1.0 0.0996140255
H  H45  1  0.18370000  0.93490000  0.73600000  1.0 0.0996140255
H  H46  1  0.19890000  0.44770000  0.26400000  1.0 0.0996140255
H  H47  1  0.93490000  0.19890000  0.75120000  1.0 0.0996140255
H  H48  1  0.44770000  0.18370000  0.24880000  1.0 0.0996140255
H  H49  1  0.76320000  0.13560000  0.38720000  1.0 0.0588054554
H  H50  1  0.74840000  0.37600000  0.61280000  1.0 0.0588054554
H  H51  1  0.37600000  0.76320000  0.62760000  1.0 0.0588054554
H  H52  1  0.13560000  0.74840000  0.37240000  1.0 0.0588054554
H  H53  1  0.23680000  0.62400000  0.37240000  1.0 0.0588054554
H  H54  1  0.25160000  0.86440000  0.62760000  1.0 0.0588054554
H  H55  1  0.62400000  0.25160000  0.38720000  1.0 0.0588054554
H  H56  1  0.86440000  0.23680000  0.61280000  1.0 0.0588054554
H  H57  1  0.23680000  0.86440000  0.61280000  1.0 0.0588054554
H  H58  1  0.25160000  0.62400000  0.38720000  1.0 0.0588054554
H  H59  1  0.62400000  0.23680000  0.37240000  1.0 0.0588054554
H  H60  1  0.86440000  0.25160000  0.62760000  1.0 0.0588054554
H  H61  1  0.76320000  0.37600000  0.62760000  1.0 0.0588054554
H  H62  1  0.74840000  0.13560000  0.37240000  1.0 0.0588054554
H  H63  1  0.37600000  0.74840000  0.61280000  1.0 0.0588054554
H  H64  1  0.13560000  0.76320000  0.38720000  1.0 0.0588054554
H  H65  1  0.83010000  0.21510000  0.40060000  1.0 0.0892018792
H  H66  1  0.81450000  0.42950000  0.59940000  1.0 0.0892018792
H  H67  1  0.42950000  0.83010000  0.61500000  1.0 0.0892018792
H  H68  1  0.21510000  0.81450000  0.38500000  1.0 0.0892018792
H  H69  1  0.16990000  0.57050000  0.38500000  1.0 0.0892018792
H  H70  1  0.18550000  0.78490000  0.61500000  1.0 0.0892018792
H  H71  1  0.57050000  0.18550000  0.40060000  1.0 0.0892018792
H  H72  1  0.78490000  0.16990000  0.59940000  1.0 0.0892018792
H  H73  1  0.16990000  0.78490000  0.59940000  1.0 0.0892018792
H  H74  1  0.18550000  0.57050000  0.40060000  1.0 0.0892018792
H  H75  1  0.57050000  0.16990000  0.38500000  1.0 0.0892018792
H  H76  1  0.78490000  0.18550000  0.61500000  1.0 0.0892018792
H  H77  1  0.83010000  0.42950000  0.61500000  1.0 0.0892018792
H  H78  1  0.81450000  0.21510000  0.38500000  1.0 0.0892018792
H  H79  1  0.42950000  0.81450000  0.59940000  1.0 0.0892018792
H  H80  1  0.21510000  0.83010000  0.40060000  1.0 0.0892018792
H  H81  1  0.59610000  0.49550000  0.86020000  1.0 0.0478664571
H  H82  1  0.63530000  0.73590000  0.13980000  1.0 0.0478664571
H  H83  1  0.73590000  0.59610000  0.10060000  1.0 0.0478664571
H  H84  1  0.49550000  0.63530000  0.89940000  1.0 0.0478664571
H  H85  1  0.40390000  0.26410000  0.89940000  1.0 0.0478664571
H  H86  1  0.36470000  0.50450000  0.10060000  1.0 0.0478664571
H  H87  1  0.26410000  0.36470000  0.86020000  1.0 0.0478664571
H  H88  1  0.50450000  0.40390000  0.13980000  1.0 0.0478664571
H  H89  1  0.40390000  0.50450000  0.13980000  1.0 0.0478664571
H  H90  1  0.36470000  0.26410000  0.86020000  1.0 0.0478664571
H  H91  1  0.26410000  0.40390000  0.89940000  1.0 0.0478664571
H  H92  1  0.50450000  0.36470000  0.10060000  1.0 0.0478664571
H  H93  1  0.59610000  0.73590000  0.10060000  1.0 0.0478664571
H  H94  1  0.63530000  0.49550000  0.89940000  1.0 0.0478664571
H  H95  1  0.73590000  0.63530000  0.13980000  1.0 0.0478664571
H  H96  1  0.49550000  0.59610000  0.86020000  1.0 0.0478664571
H  H97  1  0.51720000  0.54410000  0.82990000  1.0 0.0478664571
H  H98  1  0.71420000  0.68730000  0.17010000  1.0 0.0478664571
H  H99  1  0.68730000  0.51720000  0.97310000  1.0 0.0478664571
H  H100  1  0.54410000  0.71420000  0.02690000  1.0 0.0478664571
H  H101  1  0.48280000  0.31270000  0.02690000  1.0 0.0478664571
H  H102  1  0.28580000  0.45590000  0.97310000  1.0 0.0478664571
H  H103  1  0.31270000  0.28580000  0.82990000  1.0 0.0478664571
H  H104  1  0.45590000  0.48280000  0.17010000  1.0 0.0478664571
H  H105  1  0.48280000  0.45590000  0.17010000  1.0 0.0478664571
H  H106  1  0.28580000  0.31270000  0.82990000  1.0 0.0478664571
H  H107  1  0.31270000  0.48280000  0.02690000  1.0 0.0478664571
H  H108  1  0.45590000  0.28580000  0.97310000  1.0 0.0478664571
H  H109  1  0.51720000  0.68730000  0.97310000  1.0 0.0478664571
H  H110  1  0.71420000  0.54410000  0.02690000  1.0 0.0478664571
H  H111  1  0.68730000  0.71420000  0.17010000  1.0 0.0478664571
H  H112  1  0.54410000  0.51720000  0.82990000  1.0 0.0478664571
C  C1  1  0.52430000  0.52430000  0.88980000  1.0 -0.0587488553
C  C2  1  0.63450000  0.63450000  0.11020000  1.0 -0.0587488553
C  C3  1  0.63450000  0.52430000  0.00000000  1.0 -0.0587488553
C  C4  1  0.52430000  0.63450000  0.00000000  1.0 -0.0587488553
C  C5  1  0.47570000  0.36550000  0.00000000  1.0 -0.0587488553
C  C6  1  0.36550000  0.47570000  0.00000000  1.0 -0.0587488553
C  C7  1  0.36550000  0.36550000  0.88980000  1.0 -0.0587488553
C  C8  1  0.47570000  0.47570000  0.11020000  1.0 -0.0587488553
C  C9  1  0.00000000  0.14930000  0.14930000  1.0 0.260015422
C  C10  1  0.00000000  0.85070000  0.85070000  1.0 0.260015422
C  C11  1  0.85070000  0.00000000  0.85070000  1.0 0.260015422
C  C12  1  0.14930000  0.00000000  0.14930000  1.0 0.260015422
C  C13  1  0.98160000  0.21870000  0.23710000  1.0 -0.0013611277
C  C14  1  0.98160000  0.74450000  0.76290000  1.0 0.0003833337
C  C15  1  0.74450000  0.98160000  0.76290000  1.0 -0.0013611277
C  C16  1  0.21870000  0.98160000  0.23710000  1.0 -0.0013611277
C  C17  1  0.01840000  0.25550000  0.23710000  1.0 -0.0013611277
C  C18  1  0.01840000  0.78130000  0.76290000  1.0 -0.0013611277
C  C19  1  0.25550000  0.01840000  0.23710000  1.0 -0.0013611277
C  C20  1  0.78130000  0.01840000  0.76290000  1.0 -0.0013611277
C  C21  1  0.85630000  0.12600000  0.27770000  1.0 -0.0971583557
C  C22  1  0.84830000  0.57860000  0.72230000  1.0 -0.0971583557
C  C23  1  0.57860000  0.85630000  0.73030000  1.0 -0.0971583557
C  C24  1  0.12600000  0.84830000  0.26970000  1.0 -0.0971583557
C  C25  1  0.14370000  0.42140000  0.26970000  1.0 -0.0971583557
C  C26  1  0.15170000  0.87400000  0.73030000  1.0 -0.0971583557
C  C27  1  0.42140000  0.15170000  0.27770000  1.0 -0.0971583557
C  C28  1  0.87400000  0.14370000  0.72230000  1.0 -0.0971583557
C  C29  1  0.14370000  0.87400000  0.72230000  1.0 -0.0971583557
C  C30  1  0.15170000  0.42140000  0.27770000  1.0 -0.0971583557
C  C31  1  0.42140000  0.14370000  0.26970000  1.0 -0.0971583557
C  C32  1  0.87400000  0.15170000  0.73030000  1.0 -0.0971583557
C  C33  1  0.85630000  0.57860000  0.73030000  1.0 -0.0971583557
C  C34  1  0.84830000  0.12600000  0.26970000  1.0 -0.0971583557
C  C35  1  0.57860000  0.84830000  0.72230000  1.0 -0.0971583557
C  C36  1  0.12600000  0.85630000  0.27770000  1.0 -0.0971583557
C  C37  1  0.09770000  0.38410000  0.27640000  1.0 -0.0535873315
C  C38  1  0.10770000  0.82130000  0.72360000  1.0 -0.0535873315
C  C39  1  0.82130000  0.09770000  0.71360000  1.0 -0.0535873315
C  C40  1  0.38410000  0.10770000  0.28640000  1.0 -0.0535873315
C  C41  1  0.90230000  0.17870000  0.28640000  1.0 -0.0535873315
C  C42  1  0.89230000  0.61590000  0.71360000  1.0 -0.0535873315
C  C43  1  0.17870000  0.89230000  0.27640000  1.0 -0.0535873315
C  C44  1  0.61590000  0.90230000  0.72360000  1.0 -0.0535873315
C  C45  1  0.90230000  0.61590000  0.72360000  1.0 -0.0535873315
C  C46  1  0.89230000  0.17870000  0.27640000  1.0 -0.0535873315
C  C47  1  0.17870000  0.90230000  0.28640000  1.0 -0.0535873315
C  C48  1  0.61590000  0.89230000  0.71360000  1.0 -0.0535873315
C  C49  1  0.09770000  0.82130000  0.71360000  1.0 -0.0535873315
C  C50  1  0.10770000  0.38410000  0.28640000  1.0 -0.0535873315
C  C51  1  0.82130000  0.10770000  0.72360000  1.0 -0.0535873315
C  C52  1  0.38410000  0.09770000  0.27640000  1.0 -0.0535873315
C  C53  1  0.84830000  0.19910000  0.35880000  1.0 -0.1190281404
C  C54  1  0.84030000  0.48950000  0.64120000  1.0 -0.1190281404
C  C55  1  0.48950000  0.84830000  0.64920000  1.0 -0.1190281404
C  C56  1  0.19910000  0.84030000  0.35080000  1.0 -0.1190281404
C  C57  1  0.15170000  0.51050000  0.35080000  1.0 -0.1190281404
C  C58  1  0.15970000  0.80090000  0.64920000  1.0 -0.1190281404
C  C59  1  0.51050000  0.15970000  0.35880000  1.0 -0.1190281404
C  C60  1  0.80090000  0.15170000  0.64120000  1.0 -0.1190281404
C  C61  1  0.15170000  0.80090000  0.64120000  1.0 -0.1190281404
C  C62  1  0.15970000  0.51050000  0.35880000  1.0 -0.1190281404
C  C63  1  0.51050000  0.15170000  0.35080000  1.0 -0.1190281404
C  C64  1  0.80090000  0.15970000  0.64920000  1.0 -0.1190281404
C  C65  1  0.84830000  0.48950000  0.64920000  1.0 -0.1190281404
C  C66  1  0.84030000  0.19910000  0.35080000  1.0 -0.1190281404
C  C67  1  0.48950000  0.84030000  0.64120000  1.0 -0.1190281404
C  C68  1  0.19910000  0.84830000  0.35880000  1.0 -0.1190281404
C  C69  1  0.91030000  0.26780000  0.36750000  1.0 -0.0013611277
C  C70  1  0.90030000  0.54280000  0.63250000  1.0 -0.0013611277
C  C71  1  0.54280000  0.91030000  0.64250000  1.0 -0.0057437479
C  C72  1  0.26780000  0.90030000  0.35750000  1.0 -0.0057437479
C  C73  1  0.08970000  0.45720000  0.35750000  1.0 -0.0057437479
C  C74  1  0.09970000  0.73220000  0.64250000  1.0 -0.0057437479
C  C75  1  0.45720000  0.09970000  0.36750000  1.0 -0.0057437479
C  C76  1  0.73220000  0.08970000  0.63250000  1.0 -0.0057437479
C  C77  1  0.08970000  0.73220000  0.63250000  1.0 -0.0057437479
C  C78  1  0.09970000  0.45720000  0.36750000  1.0 -0.0057437479
C  C79  1  0.45720000  0.08970000  0.35750000  1.0 -0.0057437479
C  C80  1  0.73220000  0.09970000  0.64250000  1.0 -0.0057437479
C  C81  1  0.91030000  0.54280000  0.64250000  1.0 -0.0057437479
C  C82  1  0.90030000  0.26780000  0.35750000  1.0 -0.0057437479
C  C83  1  0.54280000  0.90030000  0.63250000  1.0 -0.0057437479
C  C84  1  0.26780000  0.91030000  0.36750000  1.0 -0.0057437479
C  C85  1  0.96550000  0.36470000  0.39920000  1.0 0.0173918248
C  C86  1  0.96550000  0.56630000  0.60080000  1.0 0.0173918248
C  C87  1  0.56630000  0.96550000  0.60080000  1.0 0.0173918248
C  C88  1  0.36470000  0.96550000  0.39920000  1.0 0.0173918248
C  C89  1  0.03450000  0.43370000  0.39920000  1.0 0.0173918248
C  C90  1  0.03450000  0.63530000  0.60080000  1.0 0.0173918248
C  C91  1  0.43370000  0.03450000  0.39920000  1.0 0.0173918248
C  C92  1  0.63530000  0.03450000  0.60080000  1.0 0.0173918248
C  C93  1  0.60020000  0.49810000  0.93710000  1.0 -0.0708670211
C  C94  1  0.56100000  0.66310000  0.06290000  1.0 -0.0708670211
C  C95  1  0.66310000  0.60020000  0.10210000  1.0 -0.0708670211
C  C96  1  0.49810000  0.56100000  0.89790000  1.0 -0.0708670211
C  C97  1  0.39980000  0.33690000  0.89790000  1.0 -0.0708670211
C  C98  1  0.43900000  0.50190000  0.10210000  1.0 -0.0708670211
C  C99  1  0.33690000  0.43900000  0.93710000  1.0 -0.0708670211
C  C100  1  0.50190000  0.39980000  0.06290000  1.0 -0.0708670211
C  C101  1  0.39980000  0.50190000  0.06290000  1.0 -0.0708670211
C  C102  1  0.43900000  0.33690000  0.93710000  1.0 -0.0708670211
C  C103  1  0.33690000  0.39980000  0.89790000  1.0 -0.0708670211
C  C104  1  0.50190000  0.43900000  0.10210000  1.0 -0.0708670211
C  C105  1  0.60020000  0.66310000  0.10210000  1.0 -0.0708670211
C  C106  1  0.56100000  0.49810000  0.89790000  1.0 -0.0708670211
C  C107  1  0.66310000  0.56100000  0.06290000  1.0 -0.0708670211
C  C108  1  0.49810000  0.60020000  0.93710000  1.0 -0.0708670211
N  N1  1  0.63380000  0.63380000  0.00000000  1.0 -0.113994828
N  N2  1  0.36620000  0.36620000  0.00000000  1.0 -0.113994828
N  N3  1  0.94560000  0.42660000  0.48100000  1.0 -0.0323115019
N  N4  1  0.94560000  0.46460000  0.51900000  1.0 -0.0323115019
N  N5  1  0.46460000  0.94560000  0.51900000  1.0 -0.0323115019
N  N6  1  0.42660000  0.94560000  0.48100000  1.0 -0.0323115019
N  N7  1  0.05440000  0.53540000  0.48100000  1.0 -0.0323115019
N  N8  1  0.05440000  0.57340000  0.51900000  1.0 -0.0323115019
N  N9  1  0.53540000  0.05440000  0.48100000  1.0 -0.0323115019
N  N10  1  0.57340000  0.05440000  0.51900000  1.0 -0.0323115019
O  O1  1  0.87080000  0.00138000  0.10098000  1.0 -0.2276164988
O  O2  1  0.90040000  0.76982000  0.89902000  1.0 -0.2276164988
O  O3  1  0.76982000  0.87080000  0.86942000  1.0 -0.2276164988
O  O4  1  0.00138000  0.90040000  0.13058000  1.0 -0.2276164988
O  O5  1  0.12920000  0.23018000  0.13058000  1.0 -0.2276164988
O  O6  1  0.09960000  0.99862000  0.86942000  1.0 -0.2276164988
O  O7  1  0.23018000  0.09960000  0.10098000  1.0 -0.2276164988
O  O8  1  0.99862000  0.12920000  0.89902000  1.0 -0.2276164988
O  O9  1  0.12920000  0.99862000  0.89902000  1.0 -0.2276164988
O  O10  1  0.09960000  0.23018000  0.10098000  1.0 -0.2276164988
O  O11  1  0.23018000  0.12920000  0.13058000  1.0 -0.2276164988
O  O12  1  0.99862000  0.09960000  0.86942000  1.0 -0.2276164988
O  O13  1  0.87080000  0.76982000  0.86942000  1.0 -0.2276164988
O  O14  1  0.90040000  0.00138000  0.13058000  1.0 -0.2276164988
O  O15  1  0.76982000  0.90040000  0.89902000  1.0 -0.2276164988
O  O16  1  0.00138000  0.87080000  0.10098000  1.0 -0.2276164988
