# DDEC6 charges by PACMAN v1.1 (https://github.com/mtap-research/PACMAN-charge/)
data_OKABAE_ASR_pacman
_symmetry_space_group_name_H-M   'P 1'
_cell_length_a   18.44560000
_cell_length_b   18.44560000
_cell_length_c   39.53690000
_cell_angle_alpha   90.00000000
_cell_angle_beta   90.00000000
_cell_angle_gamma   120.00000000
_symmetry_Int_Tables_number   1
_chemical_formula_structural   Cu3H10C26(NO3)4
_chemical_formula_sum   'Cu18 H60 C156 N24 O72'
_cell_volume   11649.80937437
_cell_formula_units_Z   6
loop_
 _symmetry_equiv_pos_site_id
 _symmetry_equiv_pos_as_xyz
  1  'x, y, z'
loop_
 _atom_site_type_symbol
 _atom_site_label
 _atom_site_symmetry_multiplicity
 _atom_site_fract_x
 _atom_site_fract_y
 _atom_site_fract_z
 _atom_site_occupancy
 _atom_site_charge
Cu  Cu1  1  0.47550000  0.52450000  0.52734000  1.0 0.8700876793
Cu  Cu2  1  0.95100000  0.47550000  0.02734000  1.0 0.8700876793
Cu  Cu3  1  0.47550000  0.95100000  0.52734000  1.0 0.8700876793
Cu  Cu4  1  0.52450000  0.47550000  0.02734000  1.0 0.8700876793
Cu  Cu5  1  0.04900000  0.52450000  0.52734000  1.0 0.8700876793
Cu  Cu6  1  0.52450000  0.04900000  0.02734000  1.0 0.8700876793
Cu  Cu7  1  0.95100000  0.47550000  0.47266000  1.0 0.8700876793
Cu  Cu8  1  0.47550000  0.52450000  0.97266000  1.0 0.8700876793
Cu  Cu9  1  0.52450000  0.04900000  0.47266000  1.0 0.8700876793
Cu  Cu10  1  0.04900000  0.52450000  0.97266000  1.0 0.8700876793
Cu  Cu11  1  0.52450000  0.47550000  0.47266000  1.0 0.8700876793
Cu  Cu12  1  0.47550000  0.95100000  0.97266000  1.0 0.8700876793
Cu  Cu13  1  0.93758000  0.87517000  0.25000000  1.0 0.7352534742
Cu  Cu14  1  0.06241000  0.93759000  0.75000000  1.0 0.7333381982
Cu  Cu15  1  0.12483000  0.06241000  0.25000000  1.0 0.7333381982
Cu  Cu16  1  0.06241000  0.12483000  0.75000000  1.0 0.7333381982
Cu  Cu17  1  0.93758000  0.06241000  0.25000000  1.0 0.7352534742
Cu  Cu18  1  0.87517000  0.93759000  0.75000000  1.0 0.7352534742
H  H1  1  0.52830000  0.76415000  0.49380000  1.0 0.1359941424
H  H2  1  0.76415000  0.52830000  0.99380000  1.0 0.1359941424
H  H3  1  0.23585000  0.76415000  0.49380000  1.0 0.1359941424
H  H4  1  0.47170000  0.23585000  0.99380000  1.0 0.1359941424
H  H5  1  0.23585000  0.47170000  0.49380000  1.0 0.1359941424
H  H6  1  0.76415000  0.23585000  0.99380000  1.0 0.1359941424
H  H7  1  0.76415000  0.23585000  0.50620000  1.0 0.1359941424
H  H8  1  0.23585000  0.47170000  0.00620000  1.0 0.1359941424
H  H9  1  0.47170000  0.23585000  0.50620000  1.0 0.1359941424
H  H10  1  0.23585000  0.76415000  0.00620000  1.0 0.1359941424
H  H11  1  0.76415000  0.52830000  0.50620000  1.0 0.1359941424
H  H12  1  0.52830000  0.76415000  0.00620000  1.0 0.1359941424
H  H13  1  0.63300000  0.70710000  0.41620000  1.0 0.1297204257
H  H14  1  0.92590000  0.63300000  0.91620000  1.0 0.1297204257
H  H15  1  0.29290000  0.92590000  0.41620000  1.0 0.1297204257
H  H16  1  0.36700000  0.29290000  0.91620000  1.0 0.1297204257
H  H17  1  0.07410000  0.36700000  0.41620000  1.0 0.1297204257
H  H18  1  0.70710000  0.07410000  0.91620000  1.0 0.1297204257
H  H19  1  0.92590000  0.29290000  0.58380000  1.0 0.1297204257
H  H20  1  0.29290000  0.36700000  0.08380000  1.0 0.1297204257
H  H21  1  0.36700000  0.07410000  0.58380000  1.0 0.1297204257
H  H22  1  0.07410000  0.70710000  0.08380000  1.0 0.1297204257
H  H23  1  0.70710000  0.63300000  0.58380000  1.0 0.1297204257
H  H24  1  0.63300000  0.92590000  0.08380000  1.0 0.1297204257
H  H25  1  0.36700000  0.29290000  0.58380000  1.0 0.1297204257
H  H26  1  0.07410000  0.36700000  0.08380000  1.0 0.1297204257
H  H27  1  0.70710000  0.07410000  0.58380000  1.0 0.1297204257
H  H28  1  0.63300000  0.70710000  0.08380000  1.0 0.1297204257
H  H29  1  0.92590000  0.63300000  0.58380000  1.0 0.1297204257
H  H30  1  0.29290000  0.92590000  0.08380000  1.0 0.1297204257
H  H31  1  0.07410000  0.70710000  0.41620000  1.0 0.1297204257
H  H32  1  0.70710000  0.63300000  0.91620000  1.0 0.1297204257
H  H33  1  0.63300000  0.92590000  0.41620000  1.0 0.1297204257
H  H34  1  0.92590000  0.29290000  0.91620000  1.0 0.1297204257
H  H35  1  0.29290000  0.36700000  0.41620000  1.0 0.1297204257
H  H36  1  0.36700000  0.07410000  0.91620000  1.0 0.1297204257
H  H37  1  0.78090000  0.99730000  0.33050000  1.0 0.1164568256
H  H38  1  0.78360000  0.78090000  0.83050000  1.0 0.1164568256
H  H39  1  0.00270000  0.78360000  0.33050000  1.0 0.1164568256
H  H40  1  0.21910000  0.00270000  0.83050000  1.0 0.1164568256
H  H41  1  0.21640000  0.21910000  0.33050000  1.0 0.1164568256
H  H42  1  0.99730000  0.21640000  0.83050000  1.0 0.1164568256
H  H43  1  0.78360000  0.00270000  0.66950000  1.0 0.1164568256
H  H44  1  0.00270000  0.21910000  0.16950000  1.0 0.1164568256
H  H45  1  0.21910000  0.21640000  0.66950000  1.0 0.1164568256
H  H46  1  0.21640000  0.99730000  0.16950000  1.0 0.1164568256
H  H47  1  0.99730000  0.78090000  0.66950000  1.0 0.1164568256
H  H48  1  0.78090000  0.78360000  0.16950000  1.0 0.1164568256
H  H49  1  0.21910000  0.00270000  0.66950000  1.0 0.1164568256
H  H50  1  0.21640000  0.21910000  0.16950000  1.0 0.1164568256
H  H51  1  0.99730000  0.21640000  0.66950000  1.0 0.1164568256
H  H52  1  0.78090000  0.99730000  0.16950000  1.0 0.1164568256
H  H53  1  0.78360000  0.78090000  0.66950000  1.0 0.1164568256
H  H54  1  0.00270000  0.78360000  0.16950000  1.0 0.1164568256
H  H55  1  0.21640000  0.99730000  0.33050000  1.0 0.1164568256
H  H56  1  0.99730000  0.78090000  0.83050000  1.0 0.1164568256
H  H57  1  0.78090000  0.78360000  0.33050000  1.0 0.1164568256
H  H58  1  0.78360000  0.00270000  0.83050000  1.0 0.1164568256
H  H59  1  0.00270000  0.21910000  0.33050000  1.0 0.1164568256
H  H60  1  0.21910000  0.21640000  0.83050000  1.0 0.1164568256
C  C1  1  0.55000000  0.64110000  0.47313000  1.0 0.5806306513
C  C2  1  0.90890000  0.55000000  0.97313000  1.0 0.5806306513
C  C3  1  0.35890000  0.90890000  0.47313000  1.0 0.5806306513
C  C4  1  0.45000000  0.35890000  0.97313000  1.0 0.5806306513
C  C5  1  0.09110000  0.45000000  0.47313000  1.0 0.5806306513
C  C6  1  0.64110000  0.09110000  0.97313000  1.0 0.5806306513
C  C7  1  0.90890000  0.35890000  0.52687000  1.0 0.5806306513
C  C8  1  0.35890000  0.45000000  0.02687000  1.0 0.5806306513
C  C9  1  0.45000000  0.09110000  0.52687000  1.0 0.5806306513
C  C10  1  0.09110000  0.64110000  0.02687000  1.0 0.5806306513
C  C11  1  0.64110000  0.55000000  0.52687000  1.0 0.5806306513
C  C12  1  0.55000000  0.90890000  0.02687000  1.0 0.5806306513
C  C13  1  0.45000000  0.35890000  0.52687000  1.0 0.5806306513
C  C14  1  0.09110000  0.45000000  0.02687000  1.0 0.5806306513
C  C15  1  0.64110000  0.09110000  0.52687000  1.0 0.5806306513
C  C16  1  0.55000000  0.64110000  0.02687000  1.0 0.5806306513
C  C17  1  0.90890000  0.55000000  0.52687000  1.0 0.5806306513
C  C18  1  0.35890000  0.90890000  0.02687000  1.0 0.5806306513
C  C19  1  0.09110000  0.64110000  0.47313000  1.0 0.5806306513
C  C20  1  0.64110000  0.55000000  0.97313000  1.0 0.5806306513
C  C21  1  0.55000000  0.90890000  0.47313000  1.0 0.5806306513
C  C22  1  0.90890000  0.35890000  0.97313000  1.0 0.5806306513
C  C23  1  0.35890000  0.45000000  0.47313000  1.0 0.5806306513
C  C24  1  0.45000000  0.09110000  0.97313000  1.0 0.5806306513
C  C25  1  0.55620000  0.77810000  0.47257000  1.0 -0.0807095107
C  C26  1  0.77810000  0.55620000  0.97257000  1.0 -0.0807095107
C  C27  1  0.22190000  0.77810000  0.47257000  1.0 -0.0807095107
C  C28  1  0.44380000  0.22190000  0.97257000  1.0 -0.0807095107
C  C29  1  0.22190000  0.44380000  0.47257000  1.0 -0.0807095107
C  C30  1  0.77810000  0.22190000  0.97257000  1.0 -0.0807095107
C  C31  1  0.77810000  0.22190000  0.52743000  1.0 -0.0807095107
C  C32  1  0.22190000  0.44380000  0.02743000  1.0 -0.0807095107
C  C33  1  0.44380000  0.22190000  0.52743000  1.0 -0.0807095107
C  C34  1  0.22190000  0.77810000  0.02743000  1.0 -0.0807095107
C  C35  1  0.77810000  0.55620000  0.52743000  1.0 -0.0807095107
C  C36  1  0.55620000  0.77810000  0.02743000  1.0 -0.0807095107
C  C37  1  0.57640000  0.72240000  0.45720000  1.0 -0.0468642136
C  C38  1  0.85400000  0.57640000  0.95720000  1.0 -0.0468642136
C  C39  1  0.27760000  0.85400000  0.45720000  1.0 -0.0468642136
C  C40  1  0.42360000  0.27760000  0.95720000  1.0 -0.0468642136
C  C41  1  0.14600000  0.42360000  0.45720000  1.0 -0.0468642136
C  C42  1  0.72240000  0.14600000  0.95720000  1.0 -0.0468642136
C  C43  1  0.85400000  0.27760000  0.54280000  1.0 -0.0468642136
C  C44  1  0.27760000  0.42360000  0.04280000  1.0 -0.0468642136
C  C45  1  0.42360000  0.14600000  0.54280000  1.0 -0.0468642136
C  C46  1  0.14600000  0.72240000  0.04280000  1.0 -0.0468642136
C  C47  1  0.72240000  0.57640000  0.54280000  1.0 -0.0468642136
C  C48  1  0.57640000  0.85400000  0.04280000  1.0 -0.0468642136
C  C49  1  0.42360000  0.27760000  0.54280000  1.0 -0.0468642136
C  C50  1  0.14600000  0.42360000  0.04280000  1.0 -0.0468642136
C  C51  1  0.72240000  0.14600000  0.54280000  1.0 -0.0468642136
C  C52  1  0.57640000  0.72240000  0.04280000  1.0 -0.0468642136
C  C53  1  0.85400000  0.57640000  0.54280000  1.0 -0.0468642136
C  C54  1  0.27760000  0.85400000  0.04280000  1.0 -0.0468642136
C  C55  1  0.14600000  0.72240000  0.45720000  1.0 -0.0468642136
C  C56  1  0.72240000  0.57640000  0.95720000  1.0 -0.0468642136
C  C57  1  0.57640000  0.85400000  0.45720000  1.0 -0.0468642136
C  C58  1  0.85400000  0.27760000  0.95720000  1.0 -0.0468642136
C  C59  1  0.27760000  0.42360000  0.45720000  1.0 -0.0468642136
C  C60  1  0.42360000  0.14600000  0.95720000  1.0 -0.0468642136
C  C61  1  0.61930000  0.74480000  0.42683000  1.0 -0.0807095107
C  C62  1  0.87450000  0.61930000  0.92683000  1.0 -0.0807095107
C  C63  1  0.25520000  0.87450000  0.42683000  1.0 -0.0807095107
C  C64  1  0.38070000  0.25520000  0.92683000  1.0 -0.0807095107
C  C65  1  0.12550000  0.38070000  0.42683000  1.0 -0.0807095107
C  C66  1  0.74480000  0.12550000  0.92683000  1.0 -0.0807095107
C  C67  1  0.87450000  0.25520000  0.57317000  1.0 -0.0807095107
C  C68  1  0.25520000  0.38070000  0.07317000  1.0 -0.0807095107
C  C69  1  0.38070000  0.12550000  0.57317000  1.0 -0.0807095107
C  C70  1  0.12550000  0.74480000  0.07317000  1.0 -0.0807095107
C  C71  1  0.74480000  0.61930000  0.57317000  1.0 -0.0807095107
C  C72  1  0.61930000  0.87450000  0.07317000  1.0 -0.0807095107
C  C73  1  0.38070000  0.25520000  0.57317000  1.0 -0.0807095107
C  C74  1  0.12550000  0.38070000  0.07317000  1.0 -0.0807095107
C  C75  1  0.74480000  0.12550000  0.57317000  1.0 -0.0807095107
C  C76  1  0.61930000  0.74480000  0.07317000  1.0 -0.0807095107
C  C77  1  0.87450000  0.61930000  0.57317000  1.0 -0.0807095107
C  C78  1  0.25520000  0.87450000  0.07317000  1.0 -0.0807095107
C  C79  1  0.12550000  0.74480000  0.42683000  1.0 -0.0807095107
C  C80  1  0.74480000  0.61930000  0.92683000  1.0 -0.0807095107
C  C81  1  0.61930000  0.87450000  0.42683000  1.0 -0.0807095107
C  C82  1  0.87450000  0.25520000  0.92683000  1.0 -0.0807095107
C  C83  1  0.25520000  0.38070000  0.42683000  1.0 -0.0807095107
C  C84  1  0.38070000  0.12550000  0.92683000  1.0 -0.0807095107
C  C85  1  0.64280000  0.82140000  0.41154000  1.0 0.0233703149
C  C86  1  0.82140000  0.64280000  0.91154000  1.0 0.0233703149
C  C87  1  0.17860000  0.82140000  0.41154000  1.0 0.0233703149
C  C88  1  0.35720000  0.17860000  0.91154000  1.0 0.0233703149
C  C89  1  0.17860000  0.35720000  0.41154000  1.0 0.0233703149
C  C90  1  0.82140000  0.17860000  0.91154000  1.0 0.0233703149
C  C91  1  0.82140000  0.17860000  0.58846000  1.0 0.0233703149
C  C92  1  0.17860000  0.35720000  0.08846000  1.0 0.0233703149
C  C93  1  0.35720000  0.17860000  0.58846000  1.0 0.0233703149
C  C94  1  0.17860000  0.82140000  0.08846000  1.0 0.0233703149
C  C95  1  0.82140000  0.64280000  0.58846000  1.0 0.0233703149
C  C96  1  0.64280000  0.82140000  0.08846000  1.0 0.0233703149
C  C97  1  0.69440000  0.84720000  0.38020000  1.0 0.3463591785
C  C98  1  0.84720000  0.69440000  0.88020000  1.0 0.344471267
C  C99  1  0.15280000  0.84720000  0.38020000  1.0 0.3463591785
C  C100  1  0.30560000  0.15280000  0.88020000  1.0 0.3463591785
C  C101  1  0.15280000  0.30560000  0.38020000  1.0 0.3463591785
C  C102  1  0.84720000  0.15280000  0.88020000  1.0 0.344471267
C  C103  1  0.84720000  0.15280000  0.61980000  1.0 0.3463591785
C  C104  1  0.15280000  0.30560000  0.11980000  1.0 0.3463591785
C  C105  1  0.30560000  0.15280000  0.61980000  1.0 0.3463591785
C  C106  1  0.15280000  0.84720000  0.11980000  1.0 0.3463591785
C  C107  1  0.84720000  0.69440000  0.61980000  1.0 0.3463591785
C  C108  1  0.69440000  0.84720000  0.11980000  1.0 0.3463591785
C  C109  1  0.76360000  0.94390000  0.34011000  1.0 0.1164568256
C  C110  1  0.81970000  0.76360000  0.84011000  1.0 0.1164568256
C  C111  1  0.05610000  0.81970000  0.34011000  1.0 0.1164568256
C  C112  1  0.23640000  0.05610000  0.84011000  1.0 0.1164568256
C  C113  1  0.18030000  0.23640000  0.34011000  1.0 0.1164568256
C  C114  1  0.94390000  0.18030000  0.84011000  1.0 0.1164568256
C  C115  1  0.81970000  0.05610000  0.65989000  1.0 0.1164568256
C  C116  1  0.05610000  0.23640000  0.15989000  1.0 0.1164568256
C  C117  1  0.23640000  0.18030000  0.65989000  1.0 0.1164568256
C  C118  1  0.18030000  0.94390000  0.15989000  1.0 0.1164568256
C  C119  1  0.94390000  0.76360000  0.65989000  1.0 0.1164568256
C  C120  1  0.76360000  0.81970000  0.15989000  1.0 0.1164568256
C  C121  1  0.23640000  0.05610000  0.65989000  1.0 0.1164568256
C  C122  1  0.18030000  0.23640000  0.15989000  1.0 0.1164568256
C  C123  1  0.94390000  0.18030000  0.65989000  1.0 0.1164568256
C  C124  1  0.76360000  0.94390000  0.15989000  1.0 0.1164568256
C  C125  1  0.81970000  0.76360000  0.65989000  1.0 0.1164568256
C  C126  1  0.05610000  0.81970000  0.15989000  1.0 0.1164568256
C  C127  1  0.18030000  0.94390000  0.34011000  1.0 0.1164568256
C  C128  1  0.94390000  0.76360000  0.84011000  1.0 0.1164568256
C  C129  1  0.76360000  0.81970000  0.34011000  1.0 0.1164568256
C  C130  1  0.81970000  0.05610000  0.84011000  1.0 0.1164568256
C  C131  1  0.05610000  0.23640000  0.34011000  1.0 0.1164568256
C  C132  1  0.23640000  0.18030000  0.84011000  1.0 0.1164568256
C  C133  1  0.79030000  0.89515000  0.32518000  1.0 -0.1505997543
C  C134  1  0.89515000  0.79030000  0.82518000  1.0 -0.1505997543
C  C135  1  0.10485000  0.89515000  0.32518000  1.0 -0.1505997543
C  C136  1  0.20970000  0.10485000  0.82518000  1.0 -0.1505997543
C  C137  1  0.10485000  0.20970000  0.32518000  1.0 -0.1505997543
C  C138  1  0.89515000  0.10485000  0.82518000  1.0 -0.1505997543
C  C139  1  0.89515000  0.10485000  0.67482000  1.0 -0.1505997543
C  C140  1  0.10485000  0.20970000  0.17482000  1.0 -0.1505997543
C  C141  1  0.20970000  0.10485000  0.67482000  1.0 -0.1505997543
C  C142  1  0.10485000  0.89515000  0.17482000  1.0 -0.1505997543
C  C143  1  0.89515000  0.79030000  0.67482000  1.0 -0.1505997543
C  C144  1  0.79030000  0.89515000  0.17482000  1.0 -0.1505997543
C  C145  1  0.84750000  0.92375000  0.29648000  1.0 0.5975933881
C  C146  1  0.92375000  0.84750000  0.79648000  1.0 0.5975933881
C  C147  1  0.07625000  0.92375000  0.29648000  1.0 0.5975933881
C  C148  1  0.15250000  0.07625000  0.79648000  1.0 0.5975933881
C  C149  1  0.07625000  0.15250000  0.29648000  1.0 0.5975933881
C  C150  1  0.92375000  0.07625000  0.79648000  1.0 0.5975933881
C  C151  1  0.92375000  0.07625000  0.70352000  1.0 0.5975933881
C  C152  1  0.07625000  0.15250000  0.20352000  1.0 0.5975933881
C  C153  1  0.15250000  0.07625000  0.70352000  1.0 0.5975933881
C  C154  1  0.07625000  0.92375000  0.20352000  1.0 0.5975933881
C  C155  1  0.92375000  0.84750000  0.70352000  1.0 0.5975933881
C  C156  1  0.84750000  0.92375000  0.20352000  1.0 0.5975933881
N  N1  1  0.71460000  0.92140000  0.36753000  1.0 -0.3562300706
N  N2  1  0.79320000  0.71460000  0.86753000  1.0 -0.3544056233
N  N3  1  0.07860000  0.79320000  0.36753000  1.0 -0.3562300706
N  N4  1  0.28540000  0.07860000  0.86753000  1.0 -0.3544056233
N  N5  1  0.20680000  0.28540000  0.36753000  1.0 -0.3562300706
N  N6  1  0.92140000  0.20680000  0.86753000  1.0 -0.3544056233
N  N7  1  0.79320000  0.07860000  0.63247000  1.0 -0.3544056233
N  N8  1  0.07860000  0.28540000  0.13247000  1.0 -0.3562300706
N  N9  1  0.28540000  0.20680000  0.63247000  1.0 -0.3562300706
N  N10  1  0.20680000  0.92140000  0.13247000  1.0 -0.3562300706
N  N11  1  0.92140000  0.71460000  0.63247000  1.0 -0.3544056233
N  N12  1  0.71460000  0.79320000  0.13247000  1.0 -0.3562300706
N  N13  1  0.28540000  0.07860000  0.63247000  1.0 -0.3544056233
N  N14  1  0.20680000  0.28540000  0.13247000  1.0 -0.3562300706
N  N15  1  0.92140000  0.20680000  0.63247000  1.0 -0.3544056233
N  N16  1  0.71460000  0.92140000  0.13247000  1.0 -0.3562300706
N  N17  1  0.79320000  0.71460000  0.63247000  1.0 -0.3544056233
N  N18  1  0.07860000  0.79320000  0.13247000  1.0 -0.3562300706
N  N19  1  0.20680000  0.92140000  0.36753000  1.0 -0.3562300706
N  N20  1  0.92140000  0.71460000  0.86753000  1.0 -0.3544056233
N  N21  1  0.71460000  0.79320000  0.36753000  1.0 -0.3562300706
N  N22  1  0.79320000  0.07860000  0.86753000  1.0 -0.3544056233
N  N23  1  0.07860000  0.28540000  0.36753000  1.0 -0.3562300706
N  N24  1  0.28540000  0.20680000  0.86753000  1.0 -0.3544056233
O  O1  1  0.51919000  0.62862000  0.50181000  1.0 -0.5064103667
O  O2  1  0.89057000  0.51919000  0.00181000  1.0 -0.5064103667
O  O3  1  0.37138000  0.89057000  0.50181000  1.0 -0.5064103667
O  O4  1  0.48081000  0.37138000  0.00181000  1.0 -0.5064103667
O  O5  1  0.10943000  0.48081000  0.50181000  1.0 -0.5064103667
O  O6  1  0.62862000  0.10943000  0.00181000  1.0 -0.5064103667
O  O7  1  0.89057000  0.37138000  0.49819000  1.0 -0.5064103667
O  O8  1  0.37138000  0.48081000  0.99819000  1.0 -0.5064103667
O  O9  1  0.48081000  0.10943000  0.49819000  1.0 -0.5064103667
O  O10  1  0.10943000  0.62862000  0.99819000  1.0 -0.5064103667
O  O11  1  0.62862000  0.51919000  0.49819000  1.0 -0.5064103667
O  O12  1  0.51919000  0.89057000  0.99819000  1.0 -0.5064103667
O  O13  1  0.48081000  0.37138000  0.49819000  1.0 -0.5064103667
O  O14  1  0.10943000  0.48081000  0.99819000  1.0 -0.5064103667
O  O15  1  0.62862000  0.10943000  0.49819000  1.0 -0.5064103667
O  O16  1  0.51919000  0.62862000  0.99819000  1.0 -0.5064103667
O  O17  1  0.89057000  0.51919000  0.49819000  1.0 -0.5064103667
O  O18  1  0.37138000  0.89057000  0.99819000  1.0 -0.5064103667
O  O19  1  0.10943000  0.62862000  0.50181000  1.0 -0.5064103667
O  O20  1  0.62862000  0.51919000  0.00181000  1.0 -0.5064103667
O  O21  1  0.51919000  0.89057000  0.50181000  1.0 -0.5064103667
O  O22  1  0.89057000  0.37138000  0.00181000  1.0 -0.5064103667
O  O23  1  0.37138000  0.48081000  0.50181000  1.0 -0.5064103667
O  O24  1  0.48081000  0.10943000  0.00181000  1.0 -0.5064103667
O  O25  1  0.56130000  0.58870000  0.45631000  1.0 -0.5259505003
O  O26  1  0.97260000  0.56130000  0.95631000  1.0 -0.5259505003
O  O27  1  0.41130000  0.97260000  0.45631000  1.0 -0.5259505003
O  O28  1  0.43870000  0.41130000  0.95631000  1.0 -0.5259505003
O  O29  1  0.02740000  0.43870000  0.45631000  1.0 -0.5259505003
O  O30  1  0.58870000  0.02740000  0.95631000  1.0 -0.5259505003
O  O31  1  0.97260000  0.41130000  0.54369000  1.0 -0.5259505003
O  O32  1  0.41130000  0.43870000  0.04369000  1.0 -0.5259505003
O  O33  1  0.43870000  0.02740000  0.54369000  1.0 -0.5259505003
O  O34  1  0.02740000  0.58870000  0.04369000  1.0 -0.5259505003
O  O35  1  0.58870000  0.56130000  0.54369000  1.0 -0.5259505003
O  O36  1  0.56130000  0.97260000  0.04369000  1.0 -0.5259505003
O  O37  1  0.43870000  0.41130000  0.54369000  1.0 -0.5259505003
O  O38  1  0.02740000  0.43870000  0.04369000  1.0 -0.5259505003
O  O39  1  0.58870000  0.02740000  0.54369000  1.0 -0.5259505003
O  O40  1  0.56130000  0.58870000  0.04369000  1.0 -0.5259505003
O  O41  1  0.97260000  0.56130000  0.54369000  1.0 -0.5259505003
O  O42  1  0.41130000  0.97260000  0.04369000  1.0 -0.5259505003
O  O43  1  0.02740000  0.58870000  0.45631000  1.0 -0.5259505003
O  O44  1  0.58870000  0.56130000  0.95631000  1.0 -0.5259505003
O  O45  1  0.56130000  0.97260000  0.45631000  1.0 -0.5259505003
O  O46  1  0.97260000  0.41130000  0.95631000  1.0 -0.5259505003
O  O47  1  0.41130000  0.43870000  0.45631000  1.0 -0.5259505003
O  O48  1  0.43870000  0.02740000  0.95631000  1.0 -0.5259505003
O  O49  1  0.86710000  0.87570000  0.28415000  1.0 -0.4824006236
O  O50  1  0.99140000  0.86710000  0.78415000  1.0 -0.4824006236
O  O51  1  0.12430000  0.99140000  0.28415000  1.0 -0.4824006236
O  O52  1  0.13290000  0.12430000  0.78415000  1.0 -0.4824006236
O  O53  1  0.00860000  0.13290000  0.28415000  1.0 -0.4824006236
O  O54  1  0.87570000  0.00860000  0.78415000  1.0 -0.4824006236
O  O55  1  0.99140000  0.12430000  0.71585000  1.0 -0.4824006236
O  O56  1  0.12430000  0.13290000  0.21585000  1.0 -0.4824006236
O  O57  1  0.13290000  0.00860000  0.71585000  1.0 -0.4824006236
O  O58  1  0.00860000  0.87570000  0.21585000  1.0 -0.4824006236
O  O59  1  0.87570000  0.86710000  0.71585000  1.0 -0.4824006236
O  O60  1  0.86710000  0.99140000  0.21585000  1.0 -0.4824006236
O  O61  1  0.13290000  0.12430000  0.71585000  1.0 -0.4824006236
O  O62  1  0.00860000  0.13290000  0.21585000  1.0 -0.4824006236
O  O63  1  0.87570000  0.00860000  0.71585000  1.0 -0.4824006236
O  O64  1  0.86710000  0.87570000  0.21585000  1.0 -0.4824006236
O  O65  1  0.99140000  0.86710000  0.71585000  1.0 -0.4824006236
O  O66  1  0.12430000  0.99140000  0.21585000  1.0 -0.4824006236
O  O67  1  0.00860000  0.87570000  0.28415000  1.0 -0.4824006236
O  O68  1  0.87570000  0.86710000  0.78415000  1.0 -0.4824006236
O  O69  1  0.86710000  0.99140000  0.28415000  1.0 -0.4824006236
O  O70  1  0.99140000  0.12430000  0.78415000  1.0 -0.4824006236
O  O71  1  0.12430000  0.13290000  0.28415000  1.0 -0.4824006236
O  O72  1  0.13290000  0.00860000  0.78415000  1.0 -0.4824006236
