# DDEC6 charges by PACMAN v1.1 (https://github.com/mtap-research/PACMAN-charge/)
data_OKABEI_ASR_pacman
_symmetry_space_group_name_H-M   'P 1'
_cell_length_a   18.20560000
_cell_length_b   18.20560000
_cell_length_c   40.66550000
_cell_angle_alpha   90.00000000
_cell_angle_beta   90.00000000
_cell_angle_gamma   120.00000000
_symmetry_Int_Tables_number   1
_chemical_formula_structural   Cu3H14C26(NO3)4
_chemical_formula_sum   'Cu18 H84 C156 N24 O72'
_cell_volume   11672.57683079
_cell_formula_units_Z   6
loop_
 _symmetry_equiv_pos_site_id
 _symmetry_equiv_pos_as_xyz
  1  'x, y, z'
loop_
 _atom_site_type_symbol
 _atom_site_label
 _atom_site_symmetry_multiplicity
 _atom_site_fract_x
 _atom_site_fract_y
 _atom_site_fract_z
 _atom_site_occupancy
 _atom_site_charge
Cu  Cu1  1  0.52514000  0.47486000  0.47460000  1.0 0.8554667538
Cu  Cu2  1  0.05028000  0.52514000  0.97460000  1.0 0.8554667538
Cu  Cu3  1  0.52514000  0.05028000  0.47460000  1.0 0.8554667538
Cu  Cu4  1  0.47486000  0.52514000  0.97460000  1.0 0.8554667538
Cu  Cu5  1  0.94972000  0.47486000  0.47460000  1.0 0.8554667538
Cu  Cu6  1  0.47486000  0.94972000  0.97460000  1.0 0.8554667538
Cu  Cu7  1  0.05028000  0.52514000  0.52540000  1.0 0.8548635548
Cu  Cu8  1  0.52514000  0.47486000  0.02540000  1.0 0.8554667538
Cu  Cu9  1  0.47486000  0.94972000  0.52540000  1.0 0.8548635548
Cu  Cu10  1  0.94972000  0.47486000  0.02540000  1.0 0.8554667538
Cu  Cu11  1  0.47486000  0.52514000  0.52540000  1.0 0.8548635548
Cu  Cu12  1  0.52514000  0.05028000  0.02540000  1.0 0.8554667538
Cu  Cu13  1  0.05827000  0.11654000  0.75000000  1.0 0.603617172
Cu  Cu14  1  0.94173000  0.05827000  0.25000000  1.0 0.603617172
Cu  Cu15  1  0.88346000  0.94173000  0.75000000  1.0 0.603617172
Cu  Cu16  1  0.94173000  0.88346000  0.25000000  1.0 0.603617172
Cu  Cu17  1  0.05827000  0.94173000  0.75000000  1.0 0.603617172
Cu  Cu18  1  0.11654000  0.05827000  0.25000000  1.0 0.603617172
H  H1  1  0.36199000  0.29799000  0.58340000  1.0 0.1197679029
H  H2  1  0.06400000  0.36199000  0.08340000  1.0 0.1197679029
H  H3  1  0.70201000  0.06400000  0.58340000  1.0 0.1197679029
H  H4  1  0.63801000  0.70201000  0.08340000  1.0 0.1197679029
H  H5  1  0.93600000  0.63801000  0.58340000  1.0 0.1197679029
H  H6  1  0.29799000  0.93600000  0.08340000  1.0 0.1197679029
H  H7  1  0.06400000  0.70201000  0.41660000  1.0 0.1197679029
H  H8  1  0.70201000  0.63801000  0.91660000  1.0 0.1197679029
H  H9  1  0.63801000  0.93600000  0.41660000  1.0 0.1197679029
H  H10  1  0.93600000  0.29799000  0.91660000  1.0 0.1197679029
H  H11  1  0.29799000  0.36199000  0.41660000  1.0 0.1197679029
H  H12  1  0.36199000  0.06400000  0.91660000  1.0 0.1197679029
H  H13  1  0.63801000  0.70201000  0.41660000  1.0 0.1197679029
H  H14  1  0.93600000  0.63801000  0.91660000  1.0 0.1197679029
H  H15  1  0.29799000  0.93600000  0.41660000  1.0 0.1197679029
H  H16  1  0.36199000  0.29799000  0.91660000  1.0 0.1197679029
H  H17  1  0.06400000  0.36199000  0.41660000  1.0 0.1197679029
H  H18  1  0.70201000  0.06400000  0.91660000  1.0 0.1197679029
H  H19  1  0.93600000  0.29799000  0.58340000  1.0 0.1197679029
H  H20  1  0.29799000  0.36199000  0.08340000  1.0 0.1197679029
H  H21  1  0.36199000  0.06400000  0.58340000  1.0 0.1197679029
H  H22  1  0.06400000  0.70201000  0.08340000  1.0 0.1197679029
H  H23  1  0.70201000  0.63801000  0.58340000  1.0 0.1197679029
H  H24  1  0.63801000  0.93600000  0.08340000  1.0 0.1197679029
H  H25  1  0.30329000  0.25899000  0.62510000  1.0 0.2834072417
H  H26  1  0.04430000  0.30329000  0.12510000  1.0 0.2834072417
H  H27  1  0.74101000  0.04430000  0.62510000  1.0 0.2834072417
H  H28  1  0.69671000  0.74101000  0.12510000  1.0 0.2834072417
H  H29  1  0.95570000  0.69671000  0.62510000  1.0 0.2834072417
H  H30  1  0.25899000  0.95570000  0.12510000  1.0 0.2834072417
H  H31  1  0.04430000  0.74101000  0.37490000  1.0 0.2834072417
H  H32  1  0.74101000  0.69671000  0.87490000  1.0 0.2834072417
H  H33  1  0.69671000  0.95570000  0.37490000  1.0 0.2834072417
H  H34  1  0.95570000  0.25899000  0.87490000  1.0 0.2834072417
H  H35  1  0.25899000  0.30329000  0.37490000  1.0 0.2834072417
H  H36  1  0.30329000  0.04430000  0.87490000  1.0 0.2834072417
H  H37  1  0.69671000  0.74101000  0.37490000  1.0 0.2834072417
H  H38  1  0.95570000  0.69671000  0.87490000  1.0 0.2834072417
H  H39  1  0.25899000  0.95570000  0.37490000  1.0 0.2834072417
H  H40  1  0.30329000  0.25899000  0.87490000  1.0 0.2834072417
H  H41  1  0.04430000  0.30329000  0.37490000  1.0 0.2834072417
H  H42  1  0.74101000  0.04430000  0.87490000  1.0 0.2834072417
H  H43  1  0.95570000  0.25899000  0.62510000  1.0 0.2834072417
H  H44  1  0.25899000  0.30329000  0.12510000  1.0 0.2834072417
H  H45  1  0.30329000  0.04430000  0.62510000  1.0 0.2834072417
H  H46  1  0.04430000  0.74101000  0.12510000  1.0 0.2834072417
H  H47  1  0.74101000  0.69671000  0.62510000  1.0 0.2834072417
H  H48  1  0.69671000  0.95570000  0.12510000  1.0 0.2834072417
H  H49  1  0.22149000  0.21789000  0.67170000  1.0 0.1197679029
H  H50  1  0.00360000  0.22149000  0.17170000  1.0 0.1197679029
H  H51  1  0.78211000  0.00360000  0.67170000  1.0 0.1197679029
H  H52  1  0.77851000  0.78211000  0.17170000  1.0 0.1197679029
H  H53  1  0.99640000  0.77851000  0.67170000  1.0 0.1197679029
H  H54  1  0.21789000  0.99640000  0.17170000  1.0 0.1197679029
H  H55  1  0.00360000  0.78211000  0.32830000  1.0 0.1197679029
H  H56  1  0.78211000  0.77851000  0.82830000  1.0 0.1197679029
H  H57  1  0.77851000  0.99640000  0.32830000  1.0 0.1197679029
H  H58  1  0.99640000  0.21789000  0.82830000  1.0 0.1197679029
H  H59  1  0.21789000  0.22149000  0.32830000  1.0 0.1197679029
H  H60  1  0.22149000  0.00360000  0.82830000  1.0 0.1197679029
H  H61  1  0.77851000  0.78211000  0.32830000  1.0 0.1197679029
H  H62  1  0.99640000  0.77851000  0.82830000  1.0 0.1197679029
H  H63  1  0.21789000  0.99640000  0.32830000  1.0 0.1197679029
H  H64  1  0.22149000  0.21789000  0.82830000  1.0 0.1197679029
H  H65  1  0.00360000  0.22149000  0.32830000  1.0 0.1197679029
H  H66  1  0.78211000  0.00360000  0.82830000  1.0 0.1197679029
H  H67  1  0.99640000  0.21789000  0.67170000  1.0 0.1197679029
H  H68  1  0.21789000  0.22149000  0.17170000  1.0 0.1197679029
H  H69  1  0.22149000  0.00360000  0.67170000  1.0 0.1197679029
H  H70  1  0.00360000  0.78211000  0.17170000  1.0 0.1197679029
H  H71  1  0.78211000  0.77851000  0.67170000  1.0 0.1197679029
H  H72  1  0.77851000  0.99640000  0.17170000  1.0 0.1197679029
H  H73  1  0.46599000  0.23300000  0.50980000  1.0 0.1397793745
H  H74  1  0.23300000  0.46599000  0.00980000  1.0 0.1397793745
H  H75  1  0.76701000  0.23300000  0.50980000  1.0 0.1397793745
H  H76  1  0.53401000  0.76701000  0.00980000  1.0 0.1397793745
H  H77  1  0.76701000  0.53401000  0.50980000  1.0 0.1397793745
H  H78  1  0.23300000  0.76701000  0.00980000  1.0 0.1397793745
H  H79  1  0.23300000  0.76701000  0.49020000  1.0 0.1397793745
H  H80  1  0.76701000  0.53401000  0.99020000  1.0 0.1397793745
H  H81  1  0.53401000  0.76701000  0.49020000  1.0 0.1397793745
H  H82  1  0.76701000  0.23300000  0.99020000  1.0 0.1397793745
H  H83  1  0.23300000  0.46599000  0.49020000  1.0 0.1397793745
H  H84  1  0.46599000  0.23300000  0.99020000  1.0 0.1397793745
C  C1  1  0.44689000  0.35959000  0.52825000  1.0 0.5730004614
C  C2  1  0.08730000  0.44689000  0.02825000  1.0 0.5730004614
C  C3  1  0.64041000  0.08730000  0.52825000  1.0 0.5730004614
C  C4  1  0.55311000  0.64041000  0.02825000  1.0 0.5730004614
C  C5  1  0.91270000  0.55311000  0.52825000  1.0 0.5730004614
C  C6  1  0.35959000  0.91270000  0.02825000  1.0 0.5730004614
C  C7  1  0.08730000  0.64041000  0.47175000  1.0 0.5730004614
C  C8  1  0.64041000  0.55311000  0.97175000  1.0 0.5730004614
C  C9  1  0.55311000  0.91270000  0.47175000  1.0 0.5730004614
C  C10  1  0.91270000  0.35959000  0.97175000  1.0 0.5730004614
C  C11  1  0.35959000  0.44689000  0.47175000  1.0 0.5730004614
C  C12  1  0.44689000  0.08730000  0.97175000  1.0 0.5730004614
C  C13  1  0.55311000  0.64041000  0.47175000  1.0 0.5730004614
C  C14  1  0.91270000  0.55311000  0.97175000  1.0 0.5730004614
C  C15  1  0.35959000  0.91270000  0.47175000  1.0 0.5730004614
C  C16  1  0.44689000  0.35959000  0.97175000  1.0 0.5730004614
C  C17  1  0.08730000  0.44689000  0.47175000  1.0 0.5730004614
C  C18  1  0.64041000  0.08730000  0.97175000  1.0 0.5730004614
C  C19  1  0.91270000  0.35959000  0.52825000  1.0 0.5730004614
C  C20  1  0.35959000  0.44689000  0.02825000  1.0 0.5730004614
C  C21  1  0.44689000  0.08730000  0.52825000  1.0 0.5730004614
C  C22  1  0.08730000  0.64041000  0.02825000  1.0 0.5730004614
C  C23  1  0.64041000  0.55311000  0.52825000  1.0 0.5730004614
C  C24  1  0.55311000  0.91270000  0.02825000  1.0 0.5730004614
C  C25  1  0.42039000  0.27599000  0.54425000  1.0 -0.0235562444
C  C26  1  0.14440000  0.42039000  0.04425000  1.0 -0.0235562444
C  C27  1  0.72401000  0.14440000  0.54425000  1.0 -0.0235562444
C  C28  1  0.57961000  0.72401000  0.04425000  1.0 -0.0235562444
C  C29  1  0.85560000  0.57961000  0.54425000  1.0 -0.0235562444
C  C30  1  0.27599000  0.85560000  0.04425000  1.0 -0.0235562444
C  C31  1  0.14440000  0.72401000  0.45575000  1.0 -0.0235562444
C  C32  1  0.72401000  0.57961000  0.95575000  1.0 -0.0235562444
C  C33  1  0.57961000  0.85560000  0.45575000  1.0 -0.0235562444
C  C34  1  0.85560000  0.27599000  0.95575000  1.0 -0.0235562444
C  C35  1  0.27599000  0.42039000  0.45575000  1.0 -0.0235562444
C  C36  1  0.42039000  0.14440000  0.95575000  1.0 -0.0235562444
C  C37  1  0.57961000  0.72401000  0.45575000  1.0 -0.0235562444
C  C38  1  0.85560000  0.57961000  0.95575000  1.0 -0.0235562444
C  C39  1  0.27599000  0.85560000  0.45575000  1.0 -0.0235562444
C  C40  1  0.42039000  0.27599000  0.95575000  1.0 -0.0235562444
C  C41  1  0.14440000  0.42039000  0.45575000  1.0 -0.0235562444
C  C42  1  0.72401000  0.14440000  0.95575000  1.0 -0.0235562444
C  C43  1  0.85560000  0.27599000  0.54425000  1.0 -0.0235562444
C  C44  1  0.27599000  0.42039000  0.04425000  1.0 -0.0235562444
C  C45  1  0.42039000  0.14440000  0.54425000  1.0 -0.0235562444
C  C46  1  0.14440000  0.72401000  0.04425000  1.0 -0.0235562444
C  C47  1  0.72401000  0.57961000  0.54425000  1.0 -0.0235562444
C  C48  1  0.57961000  0.85560000  0.04425000  1.0 -0.0235562444
C  C49  1  0.37729000  0.25499000  0.57387000  1.0 -0.1722746399
C  C50  1  0.12230000  0.37729000  0.07387000  1.0 -0.1722746399
C  C51  1  0.74501000  0.12230000  0.57387000  1.0 -0.1722746399
C  C52  1  0.62271000  0.74501000  0.07387000  1.0 -0.1722746399
C  C53  1  0.87770000  0.62271000  0.57387000  1.0 -0.1722746399
C  C54  1  0.25499000  0.87770000  0.07387000  1.0 -0.1722746399
C  C55  1  0.12230000  0.74501000  0.42613000  1.0 -0.1722746399
C  C56  1  0.74501000  0.62271000  0.92613000  1.0 -0.1722746399
C  C57  1  0.62271000  0.87770000  0.42613000  1.0 -0.1722746399
C  C58  1  0.87770000  0.25499000  0.92613000  1.0 -0.1722746399
C  C59  1  0.25499000  0.37729000  0.42613000  1.0 -0.1722746399
C  C60  1  0.37729000  0.12230000  0.92613000  1.0 -0.1722746399
C  C61  1  0.62271000  0.74501000  0.42613000  1.0 -0.1722746399
C  C62  1  0.87770000  0.62271000  0.92613000  1.0 -0.1722746399
C  C63  1  0.25499000  0.87770000  0.42613000  1.0 -0.1722746399
C  C64  1  0.37729000  0.25499000  0.92613000  1.0 -0.1722746399
C  C65  1  0.12230000  0.37729000  0.42613000  1.0 -0.1722746399
C  C66  1  0.74501000  0.12230000  0.92613000  1.0 -0.1722746399
C  C67  1  0.87770000  0.25499000  0.57387000  1.0 -0.1722746399
C  C68  1  0.25499000  0.37729000  0.07387000  1.0 -0.1722746399
C  C69  1  0.37729000  0.12230000  0.57387000  1.0 -0.1722746399
C  C70  1  0.12230000  0.74501000  0.07387000  1.0 -0.1722746399
C  C71  1  0.74501000  0.62271000  0.57387000  1.0 -0.1722746399
C  C72  1  0.62271000  0.87770000  0.07387000  1.0 -0.1722746399
C  C73  1  0.44059000  0.22030000  0.52912000  1.0 -0.0863639781
C  C74  1  0.22030000  0.44059000  0.02912000  1.0 -0.0863639781
C  C75  1  0.77970000  0.22030000  0.52912000  1.0 -0.0863639781
C  C76  1  0.55941000  0.77971000  0.02912000  1.0 -0.0863639781
C  C77  1  0.77970000  0.55941000  0.52912000  1.0 -0.0863639781
C  C78  1  0.22030000  0.77971000  0.02912000  1.0 -0.0863639781
C  C79  1  0.22030000  0.77971000  0.47088000  1.0 -0.0863639781
C  C80  1  0.77970000  0.55941000  0.97088000  1.0 -0.0863639781
C  C81  1  0.55941000  0.77971000  0.47088000  1.0 -0.0863639781
C  C82  1  0.77970000  0.22030000  0.97088000  1.0 -0.0863639781
C  C83  1  0.22030000  0.44059000  0.47088000  1.0 -0.0863639781
C  C84  1  0.44059000  0.22030000  0.97088000  1.0 -0.0863639781
C  C85  1  0.35449000  0.17725000  0.58883000  1.0 -0.0284111631
C  C86  1  0.17725000  0.35449000  0.08883000  1.0 -0.0284111631
C  C87  1  0.82276000  0.17725000  0.58883000  1.0 -0.0284111631
C  C88  1  0.64551000  0.82276000  0.08883000  1.0 -0.0284111631
C  C89  1  0.82276000  0.64551000  0.58883000  1.0 -0.0284111631
C  C90  1  0.17725000  0.82276000  0.08883000  1.0 -0.0284111631
C  C91  1  0.17725000  0.82276000  0.41117000  1.0 -0.0284111631
C  C92  1  0.82276000  0.64551000  0.91117000  1.0 -0.0284111631
C  C93  1  0.64551000  0.82276000  0.41117000  1.0 -0.0284111631
C  C94  1  0.82276000  0.17725000  0.91117000  1.0 -0.0284111631
C  C95  1  0.17725000  0.35449000  0.41117000  1.0 -0.0284111631
C  C96  1  0.35449000  0.17725000  0.91117000  1.0 -0.0284111631
C  C97  1  0.30709000  0.15354000  0.62053000  1.0 0.1922429589
C  C98  1  0.15354000  0.30709000  0.12053000  1.0 0.1922429589
C  C99  1  0.84645000  0.15354000  0.62053000  1.0 0.1922429589
C  C100  1  0.69291000  0.84646000  0.12053000  1.0 0.1922429589
C  C101  1  0.84645000  0.69291000  0.62053000  1.0 0.1922429589
C  C102  1  0.15355000  0.84646000  0.12053000  1.0 0.1922429589
C  C103  1  0.15355000  0.84646000  0.37947000  1.0 0.1922429589
C  C104  1  0.84645000  0.69291000  0.87947000  1.0 0.1922429589
C  C105  1  0.69291000  0.84646000  0.37947000  1.0 0.1922429589
C  C106  1  0.84645000  0.15354000  0.87947000  1.0 0.1922429589
C  C107  1  0.15354000  0.30709000  0.37947000  1.0 0.1922429589
C  C108  1  0.30709000  0.15354000  0.87947000  1.0 0.1956703966
C  C109  1  0.23709000  0.18009000  0.66212000  1.0 0.023804354
C  C110  1  0.05700000  0.23709000  0.16212000  1.0 0.023804354
C  C111  1  0.81991000  0.05700000  0.66212000  1.0 0.0255522398
C  C112  1  0.76291000  0.81991000  0.16212000  1.0 0.0255522398
C  C113  1  0.94300000  0.76291000  0.66212000  1.0 0.023804354
C  C114  1  0.18009000  0.94300000  0.16212000  1.0 0.023804354
C  C115  1  0.05700000  0.81991000  0.33788000  1.0 0.023804354
C  C116  1  0.81991000  0.76291000  0.83788000  1.0 0.0255522398
C  C117  1  0.76291000  0.94300000  0.33788000  1.0 0.023804354
C  C118  1  0.94300000  0.18009000  0.83788000  1.0 0.0255522398
C  C119  1  0.18009000  0.23709000  0.33788000  1.0 0.023804354
C  C120  1  0.23709000  0.05700000  0.83788000  1.0 0.0255522398
C  C121  1  0.76291000  0.81991000  0.33788000  1.0 0.023804354
C  C122  1  0.94300000  0.76291000  0.83788000  1.0 0.0255522398
C  C123  1  0.18009000  0.94300000  0.33788000  1.0 0.023804354
C  C124  1  0.23709000  0.18009000  0.83788000  1.0 0.0255522398
C  C125  1  0.05700000  0.23709000  0.33788000  1.0 0.023804354
C  C126  1  0.81991000  0.05700000  0.83788000  1.0 0.0255522398
C  C127  1  0.94300000  0.18009000  0.66212000  1.0 0.0255522398
C  C128  1  0.18009000  0.23709000  0.16212000  1.0 0.023804354
C  C129  1  0.23709000  0.05700000  0.66212000  1.0 0.0255522398
C  C130  1  0.05700000  0.81991000  0.16212000  1.0 0.023804354
C  C131  1  0.81991000  0.76291000  0.66212000  1.0 0.023804354
C  C132  1  0.76291000  0.94300000  0.16212000  1.0 0.023804354
C  C133  1  0.21109000  0.10555000  0.67632000  1.0 -0.1260137485
C  C134  1  0.10555000  0.21109000  0.17632000  1.0 -0.1260137485
C  C135  1  0.89446000  0.10555000  0.67632000  1.0 -0.1260137485
C  C136  1  0.78891000  0.89446000  0.17632000  1.0 -0.1248695547
C  C137  1  0.89446000  0.78891000  0.67632000  1.0 -0.1260137485
C  C138  1  0.10555000  0.89446000  0.17632000  1.0 -0.1260137485
C  C139  1  0.10555000  0.89446000  0.32368000  1.0 -0.1260137485
C  C140  1  0.89446000  0.78891000  0.82368000  1.0 -0.1260137485
C  C141  1  0.78891000  0.89446000  0.32368000  1.0 -0.1260137485
C  C142  1  0.89446000  0.10555000  0.82368000  1.0 -0.1260137485
C  C143  1  0.10555000  0.21109000  0.32368000  1.0 -0.1260137485
C  C144  1  0.21109000  0.10555000  0.82368000  1.0 -0.1260137485
C  C145  1  0.15449000  0.07724000  0.70560000  1.0 0.5469112699
C  C146  1  0.07724000  0.15449000  0.20560000  1.0 0.5437560186
C  C147  1  0.92275000  0.07724000  0.70560000  1.0 0.5469112699
C  C148  1  0.84551000  0.92276000  0.20560000  1.0 0.5437560186
C  C149  1  0.92275000  0.84551000  0.70560000  1.0 0.5469112699
C  C150  1  0.07725000  0.92276000  0.20560000  1.0 0.5437560186
C  C151  1  0.07725000  0.92276000  0.29440000  1.0 0.5437560186
C  C152  1  0.92275000  0.84551000  0.79440000  1.0 0.5469112699
C  C153  1  0.84551000  0.92276000  0.29440000  1.0 0.5437560186
C  C154  1  0.92275000  0.07724000  0.79440000  1.0 0.5469112699
C  C155  1  0.07724000  0.15449000  0.29440000  1.0 0.5437560186
C  C156  1  0.15449000  0.07724000  0.79440000  1.0 0.5469112699
N  N1  1  0.28539000  0.20479000  0.63438000  1.0 -0.3099880598
N  N2  1  0.08060000  0.28539000  0.13438000  1.0 -0.3099880598
N  N3  1  0.79521000  0.08060000  0.63438000  1.0 -0.3099880598
N  N4  1  0.71461000  0.79521000  0.13438000  1.0 -0.3099880598
N  N5  1  0.91940000  0.71461000  0.63438000  1.0 -0.3099880598
N  N6  1  0.20479000  0.91940000  0.13438000  1.0 -0.3099880598
N  N7  1  0.08060000  0.79521000  0.36562000  1.0 -0.3099880598
N  N8  1  0.79521000  0.71461000  0.86562000  1.0 -0.3099880598
N  N9  1  0.71461000  0.91940000  0.36562000  1.0 -0.3099880598
N  N10  1  0.91940000  0.20479000  0.86562000  1.0 -0.3099880598
N  N11  1  0.20479000  0.28539000  0.36562000  1.0 -0.3099880598
N  N12  1  0.28539000  0.08060000  0.86562000  1.0 -0.3099880598
N  N13  1  0.71461000  0.79521000  0.36562000  1.0 -0.3099880598
N  N14  1  0.91940000  0.71461000  0.86562000  1.0 -0.3099880598
N  N15  1  0.20479000  0.91940000  0.36562000  1.0 -0.3099880598
N  N16  1  0.28539000  0.20479000  0.86562000  1.0 -0.3099880598
N  N17  1  0.08060000  0.28539000  0.36562000  1.0 -0.3099880598
N  N18  1  0.79521000  0.08060000  0.86562000  1.0 -0.3099880598
N  N19  1  0.91940000  0.20479000  0.63438000  1.0 -0.3099880598
N  N20  1  0.20479000  0.28539000  0.13438000  1.0 -0.3099880598
N  N21  1  0.28539000  0.08060000  0.63438000  1.0 -0.3099880598
N  N22  1  0.08060000  0.79521000  0.13438000  1.0 -0.3099880598
N  N23  1  0.79521000  0.71461000  0.63438000  1.0 -0.3099880598
N  N24  1  0.71461000  0.91940000  0.13438000  1.0 -0.3099880598
O  O1  1  0.48012000  0.37054000  0.50014000  1.0 -0.5278797057
O  O2  1  0.10958000  0.48012000  0.00014000  1.0 -0.5278797057
O  O3  1  0.62946000  0.10958000  0.50014000  1.0 -0.5278797057
O  O4  1  0.51988000  0.62946000  0.00014000  1.0 -0.5278797057
O  O5  1  0.89042000  0.51988000  0.50014000  1.0 -0.5278797057
O  O6  1  0.37054000  0.89042000  0.00014000  1.0 -0.5278797057
O  O7  1  0.10958000  0.62946000  0.49986000  1.0 -0.5278797057
O  O8  1  0.62946000  0.51988000  0.99986000  1.0 -0.5278797057
O  O9  1  0.51988000  0.89042000  0.49986000  1.0 -0.5278797057
O  O10  1  0.89042000  0.37054000  0.99986000  1.0 -0.5278797057
O  O11  1  0.37054000  0.48012000  0.49986000  1.0 -0.5278797057
O  O12  1  0.48012000  0.10958000  0.99986000  1.0 -0.5278797057
O  O13  1  0.51988000  0.62946000  0.49986000  1.0 -0.5278797057
O  O14  1  0.89042000  0.51988000  0.99986000  1.0 -0.5278797057
O  O15  1  0.37054000  0.89042000  0.49986000  1.0 -0.5278797057
O  O16  1  0.48012000  0.37054000  0.99986000  1.0 -0.5278797057
O  O17  1  0.10958000  0.48012000  0.49986000  1.0 -0.5278797057
O  O18  1  0.62946000  0.10958000  0.99986000  1.0 -0.5278797057
O  O19  1  0.89042000  0.37054000  0.50014000  1.0 -0.5278797057
O  O20  1  0.37054000  0.48012000  0.00014000  1.0 -0.5278797057
O  O21  1  0.48012000  0.10958000  0.50014000  1.0 -0.5278797057
O  O22  1  0.10958000  0.62946000  0.00014000  1.0 -0.5278797057
O  O23  1  0.62946000  0.51988000  0.50014000  1.0 -0.5278797057
O  O24  1  0.51988000  0.89042000  0.00014000  1.0 -0.5278797057
O  O25  1  0.43560000  0.41306000  0.54380000  1.0 -0.5278797057
O  O26  1  0.02254000  0.43560000  0.04380000  1.0 -0.5278797057
O  O27  1  0.58694000  0.02254000  0.54380000  1.0 -0.5278797057
O  O28  1  0.56440000  0.58694000  0.04380000  1.0 -0.5278797057
O  O29  1  0.97746000  0.56440000  0.54380000  1.0 -0.5278797057
O  O30  1  0.41306000  0.97746000  0.04380000  1.0 -0.5278797057
O  O31  1  0.02254000  0.58694000  0.45620000  1.0 -0.5278797057
O  O32  1  0.58694000  0.56440000  0.95620000  1.0 -0.5278797057
O  O33  1  0.56440000  0.97746000  0.45620000  1.0 -0.5278797057
O  O34  1  0.97746000  0.41306000  0.95620000  1.0 -0.5278797057
O  O35  1  0.41306000  0.43560000  0.45620000  1.0 -0.5278797057
O  O36  1  0.43560000  0.02254000  0.95620000  1.0 -0.5278797057
O  O37  1  0.56440000  0.58694000  0.45620000  1.0 -0.5278797057
O  O38  1  0.97746000  0.56440000  0.95620000  1.0 -0.5278797057
O  O39  1  0.41306000  0.97746000  0.45620000  1.0 -0.5278797057
O  O40  1  0.43560000  0.41306000  0.95620000  1.0 -0.5278797057
O  O41  1  0.02254000  0.43560000  0.45620000  1.0 -0.5278797057
O  O42  1  0.58694000  0.02254000  0.95620000  1.0 -0.5278797057
O  O43  1  0.97746000  0.41306000  0.54380000  1.0 -0.5278797057
O  O44  1  0.41306000  0.43560000  0.04380000  1.0 -0.5278797057
O  O45  1  0.43560000  0.02254000  0.54380000  1.0 -0.5278797057
O  O46  1  0.02254000  0.58694000  0.04380000  1.0 -0.5278797057
O  O47  1  0.58694000  0.56440000  0.54380000  1.0 -0.5278797057
O  O48  1  0.56440000  0.97746000  0.04380000  1.0 -0.5278797057
O  O49  1  0.13389000  0.12509000  0.71712000  1.0 -0.4559340919
O  O50  1  0.00880000  0.13389000  0.21712000  1.0 -0.4559340919
O  O51  1  0.87491000  0.00880000  0.71712000  1.0 -0.4559340919
O  O52  1  0.86611000  0.87491000  0.21712000  1.0 -0.4559340919
O  O53  1  0.99120000  0.86611000  0.71712000  1.0 -0.4559340919
O  O54  1  0.12509000  0.99120000  0.21712000  1.0 -0.4559340919
O  O55  1  0.00880000  0.87491000  0.28288000  1.0 -0.4559340919
O  O56  1  0.87491000  0.86611000  0.78288000  1.0 -0.4559340919
O  O57  1  0.86611000  0.99120000  0.28288000  1.0 -0.4559340919
O  O58  1  0.99120000  0.12509000  0.78288000  1.0 -0.4559340919
O  O59  1  0.12509000  0.13389000  0.28288000  1.0 -0.4559340919
O  O60  1  0.13389000  0.00880000  0.78288000  1.0 -0.4559340919
O  O61  1  0.86611000  0.87491000  0.28288000  1.0 -0.4559340919
O  O62  1  0.99120000  0.86611000  0.78288000  1.0 -0.4559340919
O  O63  1  0.12509000  0.99120000  0.28288000  1.0 -0.4559340919
O  O64  1  0.13389000  0.12509000  0.78288000  1.0 -0.4559340919
O  O65  1  0.00880000  0.13389000  0.28288000  1.0 -0.4559340919
O  O66  1  0.87491000  0.00880000  0.78288000  1.0 -0.4559340919
O  O67  1  0.99120000  0.12509000  0.71712000  1.0 -0.4559340919
O  O68  1  0.12509000  0.13389000  0.21712000  1.0 -0.4559340919
O  O69  1  0.13389000  0.00880000  0.71712000  1.0 -0.4559340919
O  O70  1  0.00880000  0.87491000  0.21712000  1.0 -0.4559340919
O  O71  1  0.87491000  0.86611000  0.71712000  1.0 -0.4559340919
O  O72  1  0.86611000  0.99120000  0.21712000  1.0 -0.4559340919
