# DDEC6 charges by PACMAN v1.1 (https://github.com/mtap-research/PACMAN-charge/)
data_OKAYAC_FSR_pacman
_symmetry_space_group_name_H-M   'P 1'
_cell_length_a   11.65830000
_cell_length_b   5.56710000
_cell_length_c   23.66020000
_cell_angle_alpha   90.00000000
_cell_angle_beta   108.03600000
_cell_angle_gamma   90.00000000
_symmetry_Int_Tables_number   1
_chemical_formula_structural   CaH8C14SO6
_chemical_formula_sum   'Ca4 H32 C56 S4 O24'
_cell_volume   1460.15926604
_cell_formula_units_Z   4
loop_
 _symmetry_equiv_pos_site_id
 _symmetry_equiv_pos_as_xyz
  1  'x, y, z'
loop_
 _atom_site_type_symbol
 _atom_site_label
 _atom_site_symmetry_multiplicity
 _atom_site_fract_x
 _atom_site_fract_y
 _atom_site_fract_z
 _atom_site_occupancy
 _atom_site_charge
Ca  Ca1  1  0.41564000  0.24316000  0.77865000  1.0 1.4053005738
Ca  Ca2  1  0.58436000  0.74316000  0.72135000  1.0 1.4053005738
Ca  Ca3  1  0.58436000  0.75684000  0.22135000  1.0 1.4053005738
Ca  Ca4  1  0.41564000  0.25684000  0.27865000  1.0 1.4053005738
H  H1  1  0.96580000  0.52600000  0.78020000  1.0 0.1121493442
H  H2  1  0.03420000  0.02600000  0.71980000  1.0 0.1121493442
H  H3  1  0.03420000  0.47400000  0.21980000  1.0 0.1121493442
H  H4  1  0.96580000  0.97400000  0.28020000  1.0 0.1121493442
H  H5  1  0.07180000  0.79610000  0.88200000  1.0 0.1206142996
H  H6  1  0.92820000  0.29610000  0.61800000  1.0 0.1206142996
H  H7  1  0.92820000  0.20390000  0.11800000  1.0 0.1206142996
H  H8  1  0.07180000  0.70390000  0.38200000  1.0 0.1206142996
H  H9  1  0.38180000  0.44900000  0.96290000  1.0 0.1292626014
H  H10  1  0.61820000  0.94900000  0.53710000  1.0 0.1292626014
H  H11  1  0.61820000  0.55100000  0.03710000  1.0 0.1292626014
H  H12  1  0.38180000  0.05100000  0.46290000  1.0 0.1292626014
H  H13  1  0.32140000  0.87260000  0.09610000  1.0 0.1292626014
H  H14  1  0.67860000  0.37260000  0.40390000  1.0 0.1292626014
H  H15  1  0.67860000  0.12740000  0.90390000  1.0 0.1292626014
H  H16  1  0.32140000  0.62740000  0.59610000  1.0 0.1292626014
H  H17  1  0.17050000  0.43890000  0.82930000  1.0 0.1292626014
H  H18  1  0.82950000  0.93890000  0.67070000  1.0 0.1292626014
H  H19  1  0.82950000  0.56110000  0.17070000  1.0 0.1292626014
H  H20  1  0.17050000  0.06110000  0.32930000  1.0 0.1292626014
H  H21  1  0.43650000  0.53270000  0.06520000  1.0 0.1206142996
H  H22  1  0.56350000  0.03270000  0.43480000  1.0 0.1206142996
H  H23  1  0.56350000  0.46730000  0.93480000  1.0 0.1206142996
H  H24  1  0.43650000  0.96730000  0.56520000  1.0 0.1206142996
H  H25  1  0.26160000  0.79090000  0.99320000  1.0 0.1206142996
H  H26  1  0.73840000  0.29090000  0.50680000  1.0 0.1206142996
H  H27  1  0.73840000  0.20910000  0.00680000  1.0 0.1206142996
H  H28  1  0.26160000  0.70910000  0.49320000  1.0 0.1206142996
H  H29  1  0.86930000  0.87600000  0.82890000  1.0 0.1292626014
H  H30  1  0.13070000  0.37600000  0.67110000  1.0 0.1292626014
H  H31  1  0.13070000  0.12400000  0.17110000  1.0 0.1292626014
H  H32  1  0.86930000  0.62400000  0.32890000  1.0 0.1292626014
C  C1  1  0.32146000  0.10870000  0.97006000  1.0 -0.0802880857
C  C2  1  0.67854000  0.60870000  0.52994000  1.0 -0.0802880857
C  C3  1  0.67854000  0.89130000  0.02994000  1.0 -0.0802880857
C  C4  1  0.32146000  0.39130000  0.47006000  1.0 -0.0802880857
C  C5  1  0.13755000  0.10820000  0.85865000  1.0 -0.0802880857
C  C6  1  0.86245000  0.60820000  0.64135000  1.0 -0.0802880857
C  C7  1  0.86245000  0.89180000  0.14135000  1.0 -0.0802880857
C  C8  1  0.13755000  0.39180000  0.35865000  1.0 -0.0802880857
C  C9  1  0.98783000  0.37640000  0.79993000  1.0 -0.0972441925
C  C10  1  0.01217000  0.87640000  0.70007000  1.0 -0.0972441925
C  C11  1  0.01217000  0.62360000  0.20007000  1.0 -0.0972441925
C  C12  1  0.98783000  0.12360000  0.29993000  1.0 -0.0972441925
C  C13  1  0.05006000  0.94130000  0.86026000  1.0 -0.1070611268
C  C14  1  0.94994000  0.44130000  0.63974000  1.0 -0.1070611268
C  C15  1  0.94994000  0.05870000  0.13974000  1.0 -0.1070611268
C  C16  1  0.05006000  0.55870000  0.36026000  1.0 -0.1070611268
C  C17  1  0.37057000  0.33220000  0.98997000  1.0 -0.0972441925
C  C18  1  0.62943000  0.83220000  0.51003000  1.0 -0.0972441925
C  C19  1  0.62943000  0.66780000  0.01003000  1.0 -0.0972441925
C  C20  1  0.37057000  0.16780000  0.48997000  1.0 -0.0972441925
C  C21  1  0.89897000  0.20820000  0.79927000  1.0 -0.0178089837
C  C22  1  0.10103000  0.70820000  0.70073000  1.0 -0.0178089837
C  C23  1  0.10103000  0.79180000  0.20073000  1.0 -0.0178089837
C  C24  1  0.89897000  0.29180000  0.29927000  1.0 -0.0178089837
C  C25  1  0.38672000  0.20870000  0.09002000  1.0 -0.0141479712
C  C26  1  0.61328000  0.70870000  0.40998000  1.0 -0.0141479712
C  C27  1  0.61328000  0.79130000  0.90998000  1.0 -0.0141479712
C  C28  1  0.38672000  0.29130000  0.59002000  1.0 -0.0141479712
C  C29  1  0.33396000  0.98850000  0.06916000  1.0 -0.0911160695
C  C30  1  0.66604000  0.48850000  0.43084000  1.0 -0.0911160695
C  C31  1  0.66604000  0.01150000  0.93084000  1.0 -0.0911160695
C  C32  1  0.33396000  0.51150000  0.56916000  1.0 -0.0911160695
C  C33  1  0.10928000  0.32660000  0.82938000  1.0 -0.0911160695
C  C34  1  0.89072000  0.82660000  0.67062000  1.0 -0.0911160695
C  C35  1  0.89072000  0.67340000  0.17062000  1.0 -0.0911160695
C  C36  1  0.10928000  0.17340000  0.32938000  1.0 -0.0911160695
C  C37  1  0.40301000  0.38080000  0.05061000  1.0 -0.0911160695
C  C38  1  0.59699000  0.88080000  0.44939000  1.0 -0.0911160695
C  C39  1  0.59699000  0.61920000  0.94939000  1.0 -0.0911160695
C  C40  1  0.40301000  0.11920000  0.55061000  1.0 -0.0911160695
C  C41  1  0.29950000  0.93890000  0.00820000  1.0 -0.1070611268
C  C42  1  0.70050000  0.43890000  0.49180000  1.0 -0.1070611268
C  C43  1  0.70050000  0.06110000  0.99180000  1.0 -0.1070611268
C  C44  1  0.29950000  0.56110000  0.50820000  1.0 -0.1070611268
C  C45  1  0.42891000  0.26210000  0.15551000  1.0 0.6180802746
C  C46  1  0.57109000  0.76210000  0.34449000  1.0 0.6180802746
C  C47  1  0.57109000  0.73790000  0.84449000  1.0 0.6180802746
C  C48  1  0.42891000  0.23790000  0.65551000  1.0 0.6180802746
C  C49  1  0.93015000  0.99050000  0.82945000  1.0 -0.0972441925
C  C50  1  0.06985000  0.49050000  0.67055000  1.0 -0.0972441925
C  C51  1  0.06985000  0.00950000  0.17055000  1.0 -0.0972441925
C  C52  1  0.93015000  0.50950000  0.32945000  1.0 -0.0972441925
C  C53  1  0.76926000  0.25890000  0.76226000  1.0 0.6180802746
C  C54  1  0.23074000  0.75890000  0.73774000  1.0 0.6180802746
C  C55  1  0.23074000  0.74110000  0.23774000  1.0 0.6180802746
C  C56  1  0.76926000  0.24110000  0.26226000  1.0 0.6180802746
S  S1  1  0.29088000  0.03423000  0.89401000  1.0 0.990875916
S  S2  1  0.70912000  0.53423000  0.60599000  1.0 0.990875916
S  S3  1  0.70912000  0.96577000  0.10599000  1.0 0.990875916
S  S4  1  0.29088000  0.46577000  0.39401000  1.0 0.990875916
O  O1  1  0.36512000  0.19200000  0.87093000  1.0 -0.5692367541
O  O2  1  0.63488000  0.69200000  0.62907000  1.0 -0.5692367541
O  O3  1  0.63488000  0.80800000  0.12907000  1.0 -0.5692367541
O  O4  1  0.36512000  0.30800000  0.37093000  1.0 -0.5692367541
O  O5  1  0.30388000  0.77800000  0.89030000  1.0 -0.5063996749
O  O6  1  0.69612000  0.27800000  0.60970000  1.0 -0.5063996749
O  O7  1  0.69612000  0.22200000  0.10970000  1.0 -0.5063996749
O  O8  1  0.30388000  0.72200000  0.39030000  1.0 -0.5063996749
O  O9  1  0.45085000  0.08570000  0.19111000  1.0 -0.6776388126
O  O10  1  0.54915000  0.58570000  0.30889000  1.0 -0.6776388126
O  O11  1  0.54915000  0.91430000  0.80889000  1.0 -0.6776388126
O  O12  1  0.45085000  0.41430000  0.69111000  1.0 -0.6776388126
O  O13  1  0.43582000  0.47700000  0.17232000  1.0 -0.6293332564
O  O14  1  0.56418000  0.97700000  0.32768000  1.0 -0.6293332564
O  O15  1  0.56418000  0.52300000  0.82768000  1.0 -0.6293332564
O  O16  1  0.43582000  0.02300000  0.67232000  1.0 -0.6293332564
O  O17  1  0.74068000  0.47600000  0.75298000  1.0 -0.6397017675
O  O18  1  0.25932000  0.97600000  0.74702000  1.0 -0.6397017675
O  O19  1  0.25932000  0.52400000  0.24702000  1.0 -0.6397017675
O  O20  1  0.74068000  0.02400000  0.25298000  1.0 -0.6397017675
O  O21  1  0.70275000  0.08080000  0.74402000  1.0 -0.6293332564
O  O22  1  0.29725000  0.58080000  0.75598000  1.0 -0.6293332564
O  O23  1  0.29725000  0.91920000  0.25598000  1.0 -0.6293332564
O  O24  1  0.70275000  0.41920000  0.24402000  1.0 -0.6293332564
