# DDEC6 charges by PACMAN v1.1 (https://github.com/mtap-research/PACMAN-charge/)
data_OKAYOQ_ASR_pacman
_symmetry_space_group_name_H-M   'P 1'
_cell_length_a   5.16340000
_cell_length_b   10.55180000
_cell_length_c   15.48490000
_cell_angle_alpha   82.72500000
_cell_angle_beta   87.23300000
_cell_angle_gamma   83.78200000
_symmetry_Int_Tables_number   1
_chemical_formula_structural   CaH20(C17O4)2
_chemical_formula_sum   'Ca1 H20 C34 O8'
_cell_volume   831.44026120
_cell_formula_units_Z   1
loop_
 _symmetry_equiv_pos_site_id
 _symmetry_equiv_pos_as_xyz
  1  'x, y, z'
loop_
 _atom_site_type_symbol
 _atom_site_label
 _atom_site_symmetry_multiplicity
 _atom_site_fract_x
 _atom_site_fract_y
 _atom_site_fract_z
 _atom_site_occupancy
 _atom_site_charge
Ca  Ca1  1  0.00000000  0.00000000  0.00000000  1.0 1.3984768539
H  H1  1  0.96800000  0.72320000  0.48250000  1.0 0.1193327725
H  H2  1  0.03200000  0.27680000  0.51750000  1.0 0.1193327725
H  H3  1  0.50790000  0.52960000  0.66130000  1.0 0.112461239
H  H4  1  0.49210000  0.47040000  0.33870000  1.0 0.112461239
H  H5  1  0.61450000  0.63160000  0.77760000  1.0 0.112461239
H  H6  1  0.38550000  0.36840000  0.22240000  1.0 0.112461239
H  H7  1  0.85410000  0.77760000  0.62750000  1.0 0.1193327725
H  H8  1  0.14590000  0.22240000  0.37250000  1.0 0.1193327725
H  H9  1  0.49850000  0.24890000  0.60810000  1.0 0.1193327725
H  H10  1  0.50150000  0.75110000  0.39190000  1.0 0.1193327725
H  H11  1  0.65320000  0.14290000  0.74020000  1.0 0.1193327725
H  H12  1  0.34680000  0.85710000  0.25980000  1.0 0.1193327725
H  H13  1  0.02980000  0.30770000  0.86850000  1.0 0.1193327725
H  H14  1  0.97020000  0.69230000  0.13150000  1.0 0.1193327725
H  H15  1  0.88880000  0.42330000  0.73810000  1.0 0.112461239
H  H16  1  0.11120000  0.57670000  0.26190000  1.0 0.112461239
H  H17  1  0.58980000  0.81700000  0.93100000  1.0 0.3697277456
H  H18  1  0.41020000  0.18300000  0.06900000  1.0 0.3697277456
H  H19  1  0.95980000  0.87970000  0.74460000  1.0 0.1250338107
H  H20  1  0.04020000  0.12030000  0.25540000  1.0 0.1250338107
C  C1  1  0.98160000  0.63204000  0.48961000  1.0 -0.1912611127
C  C2  1  0.01840000  0.36796000  0.51039000  1.0 -0.1912611127
C  C3  1  0.07900000  0.56551000  0.56708000  1.0 0.0258096703
C  C4  1  0.92100000  0.43449000  0.43292000  1.0 0.0258096703
C  C5  1  0.09640000  0.42991000  0.57756000  1.0 0.0258096703
C  C6  1  0.90360000  0.57009000  0.42244000  1.0 0.0258096703
C  C7  1  0.16320000  0.63861000  0.63556000  1.0 0.0759865865
C  C8  1  0.83680000  0.36139000  0.36444000  1.0 0.0759865865
C  C9  1  0.39360000  0.59906000  0.67911000  1.0 -0.1521430165
C  C10  1  0.60640000  0.40094000  0.32089000  1.0 -0.1521430165
C  C11  1  0.45770000  0.65997000  0.74811000  1.0 -0.106556803
C  C12  1  0.54230000  0.34003000  0.25189000  1.0 -0.106556803
C  C13  1  0.29310000  0.76268000  0.77439000  1.0 -0.0388029069
C  C14  1  0.70690000  0.23732000  0.22561000  1.0 -0.0388029069
C  C15  1  0.00570000  0.74619000  0.65917000  1.0 -0.1521430165
C  C16  1  0.99430000  0.25381000  0.34083000  1.0 -0.1521430165
C  C17  1  0.34620000  0.82156000  0.85355000  1.0 0.5782910734
C  C18  1  0.65380000  0.17844000  0.14645000  1.0 0.5782910734
C  C19  1  0.18290000  0.35172000  0.66021000  1.0 0.0682340041
C  C20  1  0.81710000  0.64828000  0.33979000  1.0 0.0682340041
C  C21  1  0.40740000  0.26414000  0.66115000  1.0 -0.1576971263
C  C22  1  0.59260000  0.73586000  0.33885000  1.0 -0.1576971263
C  C23  1  0.49700000  0.19948000  0.73972000  1.0 -0.0958853513
C  C24  1  0.50300000  0.80052000  0.26028000  1.0 -0.0958853513
C  C25  1  0.36020000  0.21695000  0.81746000  1.0 -0.0388029069
C  C26  1  0.63980000  0.78305000  0.18254000  1.0 -0.0388029069
C  C27  1  0.12930000  0.29847000  0.81602000  1.0 -0.0831763186
C  C28  1  0.87070000  0.70153000  0.18398000  1.0 -0.0831763186
C  C29  1  0.04420000  0.36617000  0.73819000  1.0 -0.1393838152
C  C30  1  0.95580000  0.63383000  0.26181000  1.0 -0.1393838152
C  C31  1  0.46480000  0.15454000  0.90300000  1.0 0.6145317703
C  C32  1  0.53520000  0.84546000  0.09700000  1.0 0.6145317703
C  C33  1  0.06910000  0.80746000  0.72851000  1.0 -0.0875916928
C  C34  1  0.93090000  0.19254000  0.27149000  1.0 -0.0875916928
O  O1  1  0.69890000  0.11281000  0.90574000  1.0 -0.6094131619
O  O2  1  0.30110000  0.88719000  0.09426000  1.0 -0.6094131619
O  O3  1  0.30520000  0.15016000  0.96937000  1.0 -0.6597981304
O  O4  1  0.69480000  0.84984000  0.03063000  1.0 -0.6597981304
O  O5  1  0.18720000  0.90057000  0.88373000  1.0 -0.5661802143
O  O6  1  0.81280000  0.09943000  0.11627000  1.0 -0.5661802143
O  O7  1  0.57190000  0.78049000  0.88679000  1.0 -0.4378747642
O  O8  1  0.42810000  0.21951000  0.11321000  1.0 -0.4378747642
