# DDEC6 charges by PACMAN v1.1 (https://github.com/mtap-research/PACMAN-charge/)
data_OKAYIK_ASR_pacman
_symmetry_space_group_name_H-M   'P 1'
_cell_length_a   11.66670000
_cell_length_b   5.55860000
_cell_length_c   23.66250000
_cell_angle_alpha   90.00000000
_cell_angle_beta   107.93400000
_cell_angle_gamma   90.00000000
_symmetry_Int_Tables_number   1
_chemical_formula_structural   CaH8C14SO6
_chemical_formula_sum   'Ca4 H32 C56 S4 O24'
_cell_volume   1459.96564247
_cell_formula_units_Z   4
loop_
 _symmetry_equiv_pos_site_id
 _symmetry_equiv_pos_as_xyz
  1  'x, y, z'
loop_
 _atom_site_type_symbol
 _atom_site_label
 _atom_site_symmetry_multiplicity
 _atom_site_fract_x
 _atom_site_fract_y
 _atom_site_fract_z
 _atom_site_occupancy
 _atom_site_charge
Ca  Ca1  1  0.41530000  0.24372000  0.77871000  1.0 1.4062810304
Ca  Ca2  1  0.58470000  0.74372000  0.72129000  1.0 1.4062810304
Ca  Ca3  1  0.58470000  0.75628000  0.22129000  1.0 1.4062810304
Ca  Ca4  1  0.41530000  0.25628000  0.27871000  1.0 1.4062810304
H  H1  1  0.07040000  0.79700000  0.88270000  1.0 0.1216811031
H  H2  1  0.92960000  0.29700000  0.61730000  1.0 0.1216811031
H  H3  1  0.92960000  0.20300000  0.11730000  1.0 0.1216811031
H  H4  1  0.07040000  0.70300000  0.38270000  1.0 0.1216811031
H  H5  1  0.26120000  0.79280000  0.99360000  1.0 0.1216811031
H  H6  1  0.73880000  0.29280000  0.50640000  1.0 0.1216811031
H  H7  1  0.73880000  0.20720000  0.00640000  1.0 0.1216811031
H  H8  1  0.26120000  0.70720000  0.49360000  1.0 0.1216811031
H  H9  1  0.16820000  0.44390000  0.82970000  1.0 0.1303764978
H  H10  1  0.83180000  0.94390000  0.67030000  1.0 0.1303764978
H  H11  1  0.83180000  0.55610000  0.17030000  1.0 0.1303764978
H  H12  1  0.16820000  0.05610000  0.32970000  1.0 0.1303764978
H  H13  1  0.37990000  0.45210000  0.96200000  1.0 0.1303764978
H  H14  1  0.62010000  0.95210000  0.53800000  1.0 0.1303764978
H  H15  1  0.62010000  0.54790000  0.03800000  1.0 0.1303764978
H  H16  1  0.37990000  0.04790000  0.46200000  1.0 0.1303764978
H  H17  1  0.31820000  0.87460000  0.09540000  1.0 0.1303764978
H  H18  1  0.68180000  0.37460000  0.40460000  1.0 0.1303764978
H  H19  1  0.68180000  0.12540000  0.90460000  1.0 0.1303764978
H  H20  1  0.31820000  0.62540000  0.59540000  1.0 0.1303764978
H  H21  1  0.86940000  0.87830000  0.82930000  1.0 0.1303764978
H  H22  1  0.13060000  0.37830000  0.67070000  1.0 0.1303764978
H  H23  1  0.13060000  0.12170000  0.17070000  1.0 0.1303764978
H  H24  1  0.86940000  0.62170000  0.32930000  1.0 0.1303764978
H  H25  1  0.96720000  0.52630000  0.78000000  1.0 0.1216811031
H  H26  1  0.03280000  0.02630000  0.72000000  1.0 0.1216811031
H  H27  1  0.03280000  0.47370000  0.22000000  1.0 0.1216811031
H  H28  1  0.96720000  0.97370000  0.28000000  1.0 0.1216811031
H  H29  1  0.43620000  0.53480000  0.06490000  1.0 0.1216811031
H  H30  1  0.56380000  0.03480000  0.43510000  1.0 0.1216811031
H  H31  1  0.56380000  0.46520000  0.93510000  1.0 0.1216811031
H  H32  1  0.43620000  0.96520000  0.56490000  1.0 0.1216811031
C  C1  1  0.04940000  0.94220000  0.86080000  1.0 -0.109407565
C  C2  1  0.95060000  0.44220000  0.63920000  1.0 -0.109407565
C  C3  1  0.95060000  0.05780000  0.13920000  1.0 -0.109407565
C  C4  1  0.04940000  0.55780000  0.36080000  1.0 -0.109407565
C  C5  1  0.13830000  0.10940000  0.85910000  1.0 -0.0849975659
C  C6  1  0.86170000  0.60940000  0.64090000  1.0 -0.0849975659
C  C7  1  0.86170000  0.89060000  0.14090000  1.0 -0.0849975659
C  C8  1  0.13830000  0.39060000  0.35910000  1.0 -0.0849975659
C  C9  1  0.29930000  0.94060000  0.00870000  1.0 -0.109407565
C  C10  1  0.70070000  0.44060000  0.49130000  1.0 -0.109407565
C  C11  1  0.70070000  0.05940000  0.99130000  1.0 -0.109407565
C  C12  1  0.29930000  0.55940000  0.50870000  1.0 -0.109407565
C  C13  1  0.32300000  0.10970000  0.97100000  1.0 -0.0718943378
C  C14  1  0.67700000  0.60970000  0.52900000  1.0 -0.0718943378
C  C15  1  0.67700000  0.89030000  0.02900000  1.0 -0.0718943378
C  C16  1  0.32300000  0.39030000  0.47100000  1.0 -0.0718943378
C  C17  1  0.10760000  0.32940000  0.82950000  1.0 -0.0894156893
C  C18  1  0.89240000  0.82940000  0.67050000  1.0 -0.0894156893
C  C19  1  0.89240000  0.67060000  0.17050000  1.0 -0.0894156893
C  C20  1  0.10760000  0.17060000  0.32950000  1.0 -0.0894156893
C  C21  1  0.37000000  0.33520000  0.98940000  1.0 -0.0989924409
C  C22  1  0.63000000  0.83520000  0.51060000  1.0 -0.0989924409
C  C23  1  0.63000000  0.66480000  0.01060000  1.0 -0.0989924409
C  C24  1  0.37000000  0.16480000  0.48940000  1.0 -0.0989924409
C  C25  1  0.33200000  0.98980000  0.06850000  1.0 -0.0894156893
C  C26  1  0.66800000  0.48980000  0.43150000  1.0 -0.0894156893
C  C27  1  0.66800000  0.01020000  0.93150000  1.0 -0.0894156893
C  C28  1  0.33200000  0.51020000  0.56850000  1.0 -0.0894156893
C  C29  1  0.93020000  0.99290000  0.82990000  1.0 -0.0989924409
C  C30  1  0.06980000  0.49290000  0.67010000  1.0 -0.0989924409
C  C31  1  0.06980000  0.00710000  0.17010000  1.0 -0.0989924409
C  C32  1  0.93020000  0.50710000  0.32990000  1.0 -0.0989924409
C  C33  1  0.98840000  0.37710000  0.80020000  1.0 -0.0989924409
C  C34  1  0.01160000  0.87710000  0.69980000  1.0 -0.0989924409
C  C35  1  0.01160000  0.62290000  0.19980000  1.0 -0.0989924409
C  C36  1  0.98840000  0.12290000  0.30020000  1.0 -0.0989924409
C  C37  1  0.40250000  0.38270000  0.05040000  1.0 -0.0894156893
C  C38  1  0.59750000  0.88270000  0.44960000  1.0 -0.0894156893
C  C39  1  0.59750000  0.61730000  0.94960000  1.0 -0.0894156893
C  C40  1  0.40250000  0.11730000  0.55040000  1.0 -0.0894156893
C  C41  1  0.42880000  0.26060000  0.15500000  1.0 0.6210846888
C  C42  1  0.57120000  0.76060000  0.34500000  1.0 0.6210846888
C  C43  1  0.57120000  0.73940000  0.84500000  1.0 0.6210846888
C  C44  1  0.42880000  0.23940000  0.65500000  1.0 0.6210846888
C  C45  1  0.76890000  0.25620000  0.76280000  1.0 0.6210846888
C  C46  1  0.23110000  0.75620000  0.73720000  1.0 0.6210846888
C  C47  1  0.23110000  0.74380000  0.23720000  1.0 0.6210846888
C  C48  1  0.76890000  0.24380000  0.26280000  1.0 0.6210846888
C  C49  1  0.89790000  0.21280000  0.79920000  1.0 -0.0211397367
C  C50  1  0.10210000  0.71280000  0.70080000  1.0 -0.0211397367
C  C51  1  0.10210000  0.78720000  0.20080000  1.0 -0.0211397367
C  C52  1  0.89790000  0.28720000  0.29920000  1.0 -0.0211397367
C  C53  1  0.38660000  0.21310000  0.09000000  1.0 -0.0265796551
C  C54  1  0.61340000  0.71310000  0.41000000  1.0 -0.0265796551
C  C55  1  0.61340000  0.78690000  0.91000000  1.0 -0.0265796551
C  C56  1  0.38660000  0.28690000  0.59000000  1.0 -0.0265796551
S  S1  1  0.29013000  0.03460000  0.89402000  1.0 0.9926422598
S  S2  1  0.70987000  0.53460000  0.60598000  1.0 0.9926422598
S  S3  1  0.70987000  0.96540000  0.10598000  1.0 0.9926422598
S  S4  1  0.29013000  0.46540000  0.39402000  1.0 0.9926422598
O  O1  1  0.73980000  0.47560000  0.75290000  1.0 -0.6519003747
O  O2  1  0.26020000  0.97560000  0.74710000  1.0 -0.6519003747
O  O3  1  0.26020000  0.52440000  0.24710000  1.0 -0.6519003747
O  O4  1  0.73980000  0.02440000  0.25290000  1.0 -0.6519003747
O  O5  1  0.44980000  0.08340000  0.19030000  1.0 -0.6732606528
O  O6  1  0.55020000  0.58340000  0.30970000  1.0 -0.6732606528
O  O7  1  0.55020000  0.91660000  0.80970000  1.0 -0.6732606528
O  O8  1  0.44980000  0.41660000  0.69030000  1.0 -0.6732606528
O  O9  1  0.70320000  0.08020000  0.74440000  1.0 -0.6111960648
O  O10  1  0.29680000  0.58020000  0.75560000  1.0 -0.6111960648
O  O11  1  0.29680000  0.91980000  0.25560000  1.0 -0.6111960648
O  O12  1  0.70320000  0.41980000  0.24440000  1.0 -0.6111960648
O  O13  1  0.43683000  0.47680000  0.17273000  1.0 -0.6375565169
O  O14  1  0.56317000  0.97680000  0.32727000  1.0 -0.6375565169
O  O15  1  0.56317000  0.52320000  0.82727000  1.0 -0.6375565169
O  O16  1  0.43683000  0.02320000  0.67273000  1.0 -0.6375565169
O  O17  1  0.30270000  0.77550000  0.89000000  1.0 -0.5119512615
O  O18  1  0.69730000  0.27550000  0.61000000  1.0 -0.5119512615
O  O19  1  0.69730000  0.22450000  0.11000000  1.0 -0.5119512615
O  O20  1  0.30270000  0.72450000  0.39000000  1.0 -0.5119512615
O  O21  1  0.36447000  0.19640000  0.87087000  1.0 -0.5748073844
O  O22  1  0.63553000  0.69640000  0.62913000  1.0 -0.5748073844
O  O23  1  0.63553000  0.80360000  0.12913000  1.0 -0.5748073844
O  O24  1  0.36447000  0.30360000  0.37087000  1.0 -0.5748073844
