# DDEC6 charges by PACMAN v1.1 (https://github.com/mtap-research/PACMAN-charge/)
data_OKAYUW_FSR_pacman
_symmetry_space_group_name_H-M   'P 1'
_cell_length_a   5.18030000
_cell_length_b   10.65080000
_cell_length_c   15.29140000
_cell_angle_alpha   82.59100000
_cell_angle_beta   85.94500000
_cell_angle_gamma   82.73900000
_symmetry_Int_Tables_number   1
_chemical_formula_structural   CaH20(C17O4)2
_chemical_formula_sum   'Ca1 H20 C34 O8'
_cell_volume   828.66869484
_cell_formula_units_Z   1
loop_
 _symmetry_equiv_pos_site_id
 _symmetry_equiv_pos_as_xyz
  1  'x, y, z'
loop_
 _atom_site_type_symbol
 _atom_site_label
 _atom_site_symmetry_multiplicity
 _atom_site_fract_x
 _atom_site_fract_y
 _atom_site_fract_z
 _atom_site_occupancy
 _atom_site_charge
Ca  Ca1  1  0.00000000  0.00000000  0.00000000  1.0 1.3988195669
H  H1  1  0.96760000  0.72110000  0.47920000  1.0 0.1208388146
H  H2  1  0.03240000  0.27890000  0.52080000  1.0 0.1208388146
H  H3  1  0.50440000  0.25420000  0.60890000  1.0 0.1208388146
H  H4  1  0.49560000  0.74580000  0.39110000  1.0 0.1208388146
H  H5  1  0.65760000  0.14910000  0.74180000  1.0 0.1208388146
H  H6  1  0.34240000  0.85090000  0.25820000  1.0 0.1208388146
H  H7  1  0.02690000  0.31510000  0.87420000  1.0 0.1208388146
H  H8  1  0.97310000  0.68490000  0.12580000  1.0 0.1208388146
H  H9  1  0.88970000  0.42980000  0.74270000  1.0 0.111634209
H  H10  1  0.11030000  0.57020000  0.25730000  1.0 0.111634209
H  H11  1  0.50880000  0.53110000  0.65780000  1.0 0.111634209
H  H12  1  0.49120000  0.46890000  0.34220000  1.0 0.111634209
H  H13  1  0.61640000  0.63450000  0.77260000  1.0 0.111634209
H  H14  1  0.38360000  0.36550000  0.22740000  1.0 0.111634209
H  H15  1  0.96610000  0.88670000  0.73900000  1.0 0.1208388146
H  H16  1  0.03390000  0.11330000  0.26100000  1.0 0.1208388146
H  H17  1  0.85800000  0.78140000  0.62490000  1.0 0.111634209
H  H18  1  0.14200000  0.21860000  0.37510000  1.0 0.111634209
H  H19  1  0.59860000  0.82660000  0.92210000  1.0 0.3704271626
H  H20  1  0.40140000  0.17340000  0.07790000  1.0 0.3704271626
C  C1  1  0.98180000  0.63060000  0.48763000  1.0 -0.1908297826
C  C2  1  0.01820000  0.36940000  0.51237000  1.0 -0.1908297826
C  C3  1  0.08040000  0.56660000  0.56562000  1.0 0.0266775863
C  C4  1  0.91960000  0.43340000  0.43438000  1.0 0.0266775863
C  C5  1  0.09730000  0.43230000  0.57875000  1.0 0.0266775863
C  C6  1  0.90270000  0.56770000  0.42125000  1.0 0.0266775863
C  C7  1  0.18550000  0.35580000  0.66256000  1.0 0.0705152165
C  C8  1  0.81450000  0.64420000  0.33744000  1.0 0.0705152165
C  C9  1  0.41110000  0.26940000  0.66305000  1.0 -0.1565810431
C  C10  1  0.58890000  0.73060000  0.33695000  1.0 -0.1565810431
C  C11  1  0.50010000  0.20540000  0.74190000  1.0 -0.0957564104
C  C12  1  0.49990000  0.79460000  0.25810000  1.0 -0.0957564104
C  C13  1  0.36000000  0.22320000  0.82141000  1.0 -0.0400539923
C  C14  1  0.64000000  0.77680000  0.17859000  1.0 -0.0400539923
C  C15  1  0.12800000  0.30520000  0.82068000  1.0 -0.0829043079
C  C16  1  0.87200000  0.69480000  0.17932000  1.0 -0.0829043079
C  C17  1  0.04510000  0.37190000  0.74236000  1.0 -0.1395185728
C  C18  1  0.95490000  0.62810000  0.25764000  1.0 -0.1395185728
C  C19  1  0.46230000  0.15930000  0.90697000  1.0 0.6156516086
C  C20  1  0.53770000  0.84070000  0.09303000  1.0 0.6156516086
C  C21  1  0.16540000  0.64090000  0.63316000  1.0 0.0765584644
C  C22  1  0.83460000  0.35910000  0.36684000  1.0 0.0765584644
C  C23  1  0.39500000  0.60150000  0.67556000  1.0 -0.1505957383
C  C24  1  0.60500000  0.39850000  0.32444000  1.0 -0.1505957383
C  C25  1  0.46020000  0.66360000  0.74334000  1.0 -0.1062404241
C  C26  1  0.53980000  0.33640000  0.25666000  1.0 -0.1062404241
C  C27  1  0.29740000  0.76900000  0.76906000  1.0 -0.0400539923
C  C28  1  0.70260000  0.23100000  0.23094000  1.0 -0.0400539923
C  C29  1  0.07450000  0.81310000  0.72363000  1.0 -0.085951871
C  C30  1  0.92550000  0.18690000  0.27637000  1.0 -0.085951871
C  C31  1  0.00980000  0.75010000  0.65609000  1.0 -0.1505957383
C  C32  1  0.99020000  0.24990000  0.34391000  1.0 -0.1505957383
C  C33  1  0.35290000  0.82980000  0.84692000  1.0 0.5798241805
C  C34  1  0.64710000  0.17020000  0.15308000  1.0 0.5798241805
O  O1  1  0.29980000  0.14994000  0.97457000  1.0 -0.6612397123
O  O2  1  0.70020000  0.85006000  0.02543000  1.0 -0.6612397123
O  O3  1  0.69900000  0.12052000  0.90969000  1.0 -0.6142235983
O  O4  1  0.30100000  0.87948000  0.09031000  1.0 -0.6142235983
O  O5  1  0.19380000  0.91006000  0.87796000  1.0 -0.5685949314
O  O6  1  0.80620000  0.08994000  0.12204000  1.0 -0.5685949314
O  O7  1  0.57930000  0.78880000  0.87851000  1.0 -0.4333323825
O  O8  1  0.42070000  0.21120000  0.12149000  1.0 -0.4333323825
