# DDEC6 charges by PACMAN v1.1 (https://github.com/mtap-research/PACMAN-charge/)
data_OKAYEG_FSR_pacman
_symmetry_space_group_name_H-M   'P 1'
_cell_length_a   11.59550000
_cell_length_b   5.55810000
_cell_length_c   23.64820000
_cell_angle_alpha   90.00000000
_cell_angle_beta   107.70300000
_cell_angle_gamma   90.00000000
_symmetry_Int_Tables_number   1
_chemical_formula_structural   CaH8C14SO6
_chemical_formula_sum   'Ca4 H32 C56 S4 O24'
_cell_volume   1451.92864738
_cell_formula_units_Z   4
loop_
 _symmetry_equiv_pos_site_id
 _symmetry_equiv_pos_as_xyz
  1  'x, y, z'
loop_
 _atom_site_type_symbol
 _atom_site_label
 _atom_site_symmetry_multiplicity
 _atom_site_fract_x
 _atom_site_fract_y
 _atom_site_fract_z
 _atom_site_occupancy
 _atom_site_charge
Ca  Ca1  1  0.08402000  0.24220000  0.72083000  1.0 1.4083749504
Ca  Ca2  1  0.91598000  0.74220000  0.77917000  1.0 1.4083749504
Ca  Ca3  1  0.91598000  0.75780000  0.27917000  1.0 1.4083749504
Ca  Ca4  1  0.08402000  0.25780000  0.22083000  1.0 1.4083749504
H  H1  1  0.18090000  0.87660000  0.40410000  1.0 0.1296512859
H  H2  1  0.81910000  0.37660000  0.09590000  1.0 0.1296512859
H  H3  1  0.81910000  0.12340000  0.59590000  1.0 0.1296512859
H  H4  1  0.18090000  0.62340000  0.90410000  1.0 0.1296512859
H  H5  1  0.63110000  0.87790000  0.67100000  1.0 0.1296512859
H  H6  1  0.36890000  0.37790000  0.82900000  1.0 0.1296512859
H  H7  1  0.36890000  0.12210000  0.32900000  1.0 0.1296512859
H  H8  1  0.63110000  0.62210000  0.17100000  1.0 0.1296512859
H  H9  1  0.43040000  0.79750000  0.61820000  1.0 0.1213396162
H  H10  1  0.56960000  0.29750000  0.88180000  1.0 0.1213396162
H  H11  1  0.56960000  0.20250000  0.38180000  1.0 0.1213396162
H  H12  1  0.43040000  0.70250000  0.11820000  1.0 0.1213396162
H  H13  1  0.11840000  0.44610000  0.53630000  1.0 0.1296512859
H  H14  1  0.88160000  0.94610000  0.96370000  1.0 0.1296512859
H  H15  1  0.88160000  0.55390000  0.46370000  1.0 0.1296512859
H  H16  1  0.11840000  0.05390000  0.03630000  1.0 0.1296512859
H  H17  1  0.53300000  0.52190000  0.71880000  1.0 0.1136832239
H  H18  1  0.46700000  0.02190000  0.78120000  1.0 0.1136832239
H  H19  1  0.46700000  0.47810000  0.28120000  1.0 0.1136832239
H  H20  1  0.53300000  0.97810000  0.21880000  1.0 0.1136832239
H  H21  1  0.23890000  0.79320000  0.50540000  1.0 0.1213396162
H  H22  1  0.76110000  0.29320000  0.99460000  1.0 0.1213396162
H  H23  1  0.76110000  0.20680000  0.49460000  1.0 0.1213396162
H  H24  1  0.23890000  0.70680000  0.00540000  1.0 0.1213396162
H  H25  1  0.33090000  0.43720000  0.67000000  1.0 0.1296512859
H  H26  1  0.66910000  0.93720000  0.83000000  1.0 0.1296512859
H  H27  1  0.66910000  0.56280000  0.33000000  1.0 0.1296512859
H  H28  1  0.33090000  0.06280000  0.17000000  1.0 0.1296512859
H  H29  1  0.06510000  0.53130000  0.43540000  1.0 0.1213396162
H  H30  1  0.93490000  0.03130000  0.06460000  1.0 0.1213396162
H  H31  1  0.93490000  0.46870000  0.56460000  1.0 0.1213396162
H  H32  1  0.06510000  0.96870000  0.93540000  1.0 0.1213396162
C  C1  1  0.07221000  0.26330000  0.34445000  1.0 0.6196017193
C  C2  1  0.92779000  0.76330000  0.15555000  1.0 0.6196017193
C  C3  1  0.92779000  0.73670000  0.65555000  1.0 0.6196017193
C  C4  1  0.07221000  0.23670000  0.84445000  1.0 0.6196017193
C  C5  1  0.11448000  0.21020000  0.40979000  1.0 -0.0179508289
C  C6  1  0.88552000  0.71020000  0.09021000  1.0 -0.0179508289
C  C7  1  0.88552000  0.78980000  0.59021000  1.0 -0.0179508289
C  C8  1  0.11448000  0.28980000  0.90979000  1.0 -0.0179508289
C  C9  1  0.16796000  0.98950000  0.43056000  1.0 -0.0907045121
C  C10  1  0.83204000  0.48950000  0.06944000  1.0 -0.0907045121
C  C11  1  0.83204000  0.01050000  0.56944000  1.0 -0.0907045121
C  C12  1  0.16796000  0.51050000  0.93056000  1.0 -0.0907045121
C  C13  1  0.36211000  0.10730000  0.64052000  1.0 -0.0907045121
C  C14  1  0.63789000  0.60730000  0.85948000  1.0 -0.0907045121
C  C15  1  0.63789000  0.89270000  0.35948000  1.0 -0.0907045121
C  C16  1  0.36211000  0.39270000  0.14052000  1.0 -0.0907045121
C  C17  1  0.17994000  0.10880000  0.52964000  1.0 -0.0837580523
C  C18  1  0.82006000  0.60880000  0.97036000  1.0 -0.0837580523
C  C19  1  0.82006000  0.89120000  0.47036000  1.0 -0.0837580523
C  C20  1  0.17994000  0.39120000  0.02964000  1.0 -0.0837580523
C  C21  1  0.60167000  0.20690000  0.70096000  1.0 -0.0179508289
C  C22  1  0.39833000  0.70690000  0.79904000  1.0 -0.0179508289
C  C23  1  0.39833000  0.79310000  0.29904000  1.0 -0.0179508289
C  C24  1  0.60167000  0.29310000  0.20096000  1.0 -0.0179508289
C  C25  1  0.57111000  0.98960000  0.67051000  1.0 -0.0975990275
C  C26  1  0.42889000  0.48960000  0.82949000  1.0 -0.0975990275
C  C27  1  0.42889000  0.01040000  0.32949000  1.0 -0.0975990275
C  C28  1  0.57111000  0.51040000  0.17051000  1.0 -0.0975990275
C  C29  1  0.45111000  0.94010000  0.63942000  1.0 -0.1069747562
C  C30  1  0.54889000  0.44010000  0.86058000  1.0 -0.1069747562
C  C31  1  0.54889000  0.05990000  0.36058000  1.0 -0.1069747562
C  C32  1  0.45111000  0.55990000  0.13942000  1.0 -0.1069747562
C  C33  1  0.13003000  0.33230000  0.50974000  1.0 -0.0975990275
C  C34  1  0.86997000  0.83230000  0.99026000  1.0 -0.0975990275
C  C35  1  0.86997000  0.66770000  0.49026000  1.0 -0.0975990275
C  C36  1  0.13003000  0.16770000  0.00974000  1.0 -0.0975990275
C  C37  1  0.51182000  0.37500000  0.69961000  1.0 -0.0975990275
C  C38  1  0.48818000  0.87500000  0.80039000  1.0 -0.0975990275
C  C39  1  0.48818000  0.62500000  0.30039000  1.0 -0.0975990275
C  C40  1  0.51182000  0.12500000  0.19961000  1.0 -0.0975990275
C  C41  1  0.20195000  0.93880000  0.49101000  1.0 -0.1069747562
C  C42  1  0.79805000  0.43880000  0.00899000  1.0 -0.1069747562
C  C43  1  0.79805000  0.06120000  0.50899000  1.0 -0.1069747562
C  C44  1  0.20195000  0.56120000  0.99101000  1.0 -0.1069747562
C  C45  1  0.73091000  0.25770000  0.73801000  1.0 0.6196017193
C  C46  1  0.26909000  0.75770000  0.76199000  1.0 0.6196017193
C  C47  1  0.26909000  0.74230000  0.26199000  1.0 0.6196017193
C  C48  1  0.73091000  0.24230000  0.23801000  1.0 0.6196017193
C  C49  1  0.39104000  0.32640000  0.67007000  1.0 -0.0907045121
C  C50  1  0.60896000  0.82640000  0.82993000  1.0 -0.0907045121
C  C51  1  0.60896000  0.67360000  0.32993000  1.0 -0.0907045121
C  C52  1  0.39104000  0.17360000  0.17007000  1.0 -0.0907045121
C  C53  1  0.09793000  0.38210000  0.44944000  1.0 -0.0907045121
C  C54  1  0.90207000  0.88210000  0.05056000  1.0 -0.0907045121
C  C55  1  0.90207000  0.61790000  0.55056000  1.0 -0.0907045121
C  C56  1  0.09793000  0.11790000  0.94944000  1.0 -0.0907045121
S  S1  1  0.20959000  0.03343000  0.60533000  1.0 0.9966619463
S  S2  1  0.79041000  0.53343000  0.89467000  1.0 0.9966619463
S  S3  1  0.79041000  0.96657000  0.39467000  1.0 0.9966619463
S  S4  1  0.20959000  0.46657000  0.10533000  1.0 0.9966619463
O  O1  1  0.06497000  0.47860000  0.32768000  1.0 -0.6284271402
O  O2  1  0.93503000  0.97860000  0.17232000  1.0 -0.6284271402
O  O3  1  0.93503000  0.52140000  0.67232000  1.0 -0.6284271402
O  O4  1  0.06497000  0.02140000  0.82768000  1.0 -0.6284271402
O  O5  1  0.75958000  0.47440000  0.74794000  1.0 -0.6362605242
O  O6  1  0.24042000  0.97440000  0.75206000  1.0 -0.6362605242
O  O7  1  0.24042000  0.52560000  0.25206000  1.0 -0.6362605242
O  O8  1  0.75958000  0.02560000  0.24794000  1.0 -0.6362605242
O  O9  1  0.04997000  0.08660000  0.30893000  1.0 -0.677067369
O  O10  1  0.95003000  0.58660000  0.19107000  1.0 -0.677067369
O  O11  1  0.95003000  0.91340000  0.69107000  1.0 -0.677067369
O  O12  1  0.04997000  0.41340000  0.80893000  1.0 -0.677067369
O  O13  1  0.13439000  0.19110000  0.62836000  1.0 -0.571407765
O  O14  1  0.86561000  0.69110000  0.87164000  1.0 -0.571407765
O  O15  1  0.86561000  0.80890000  0.37164000  1.0 -0.571407765
O  O16  1  0.13439000  0.30890000  0.12836000  1.0 -0.571407765
O  O17  1  0.79724000  0.07930000  0.75679000  1.0 -0.6284271402
O  O18  1  0.20276000  0.57930000  0.74321000  1.0 -0.6284271402
O  O19  1  0.20276000  0.92070000  0.24321000  1.0 -0.6284271402
O  O20  1  0.79724000  0.42070000  0.25679000  1.0 -0.6284271402
O  O21  1  0.19639000  0.77672000  0.60887000  1.0 -0.5097332595
O  O22  1  0.80361000  0.27672000  0.89113000  1.0 -0.5097332595
O  O23  1  0.80361000  0.22328000  0.39113000  1.0 -0.5097332595
O  O24  1  0.19639000  0.72328000  0.10887000  1.0 -0.5097332595
