# DDEC6 charges by PACMAN v1.1 (https://github.com/mtap-research/PACMAN-charge/)
data_OKAZAD_FSR_pacman
_symmetry_space_group_name_H-M   'P 1'
_cell_length_a   5.21950000
_cell_length_b   10.56910000
_cell_length_c   15.36040000
_cell_angle_alpha   82.53300000
_cell_angle_beta   86.65700000
_cell_angle_gamma   83.00000000
_symmetry_Int_Tables_number   1
_chemical_formula_structural   CaH20(C17O4)2
_chemical_formula_sum   'Ca1 H20 C34 O8'
_cell_volume   833.13749236
_cell_formula_units_Z   1
loop_
 _symmetry_equiv_pos_site_id
 _symmetry_equiv_pos_as_xyz
  1  'x, y, z'
loop_
 _atom_site_type_symbol
 _atom_site_label
 _atom_site_symmetry_multiplicity
 _atom_site_fract_x
 _atom_site_fract_y
 _atom_site_fract_z
 _atom_site_occupancy
 _atom_site_charge
Ca  Ca1  1  0.00000000  0.00000000  0.00000000  1.0 1.3956454172
H  H1  1  0.96750000  0.72320000  0.47960000  1.0 0.1205496911
H  H2  1  0.03250000  0.27680000  0.52040000  1.0 0.1205496911
H  H3  1  0.49820000  0.25140000  0.60980000  1.0 0.1205496911
H  H4  1  0.50180000  0.74860000  0.39020000  1.0 0.1205496911
H  H5  1  0.65350000  0.14640000  0.74290000  1.0 0.1205496911
H  H6  1  0.34650000  0.85360000  0.25710000  1.0 0.1205496911
H  H7  1  0.03030000  0.31320000  0.87300000  1.0 0.1205496911
H  H8  1  0.96970000  0.68680000  0.12700000  1.0 0.1205496911
H  H9  1  0.88950000  0.42800000  0.74120000  1.0 0.1118734752
H  H10  1  0.11050000  0.57200000  0.25880000  1.0 0.1118734752
H  H11  1  0.50580000  0.53130000  0.65900000  1.0 0.1118734752
H  H12  1  0.49420000  0.46870000  0.34100000  1.0 0.1118734752
H  H13  1  0.61300000  0.63640000  0.77340000  1.0 0.1118734752
H  H14  1  0.38700000  0.36360000  0.22660000  1.0 0.1118734752
H  H15  1  0.95830000  0.88460000  0.74130000  1.0 0.1205496911
H  H16  1  0.04170000  0.11540000  0.25870000  1.0 0.1205496911
H  H17  1  0.85230000  0.77940000  0.62650000  1.0 0.1205496911
H  H18  1  0.14770000  0.22060000  0.37350000  1.0 0.1205496911
H  H19  1  0.59630000  0.83040000  0.92190000  1.0 0.3699637427
H  H20  1  0.40370000  0.16960000  0.07810000  1.0 0.3699637427
C  C1  1  0.98120000  0.63200000  0.48794000  1.0 -0.191485636
C  C2  1  0.01880000  0.36800000  0.51206000  1.0 -0.191485636
C  C3  1  0.07840000  0.56600000  0.56645000  1.0 0.0246859528
C  C4  1  0.92160000  0.43400000  0.43355000  1.0 0.0255239792
C  C5  1  0.09600000  0.43160000  0.57842000  1.0 0.0255239792
C  C6  1  0.90400000  0.56840000  0.42158000  1.0 0.0255239792
C  C7  1  0.18330000  0.35410000  0.66229000  1.0 0.0670480206
C  C8  1  0.81670000  0.64590000  0.33771000  1.0 0.0670480206
C  C9  1  0.40710000  0.26700000  0.66344000  1.0 -0.1556495801
C  C10  1  0.59290000  0.73300000  0.33656000  1.0 -0.1556495801
C  C11  1  0.49750000  0.20310000  0.74248000  1.0 -0.0998623049
C  C12  1  0.50250000  0.79690000  0.25752000  1.0 -0.0998623049
C  C13  1  0.36010000  0.22200000  0.82110000  1.0 -0.0335136839
C  C14  1  0.63990000  0.77800000  0.17890000  1.0 -0.0335136839
C  C15  1  0.12940000  0.30340000  0.81990000  1.0 -0.0866757464
C  C16  1  0.87060000  0.69660000  0.18010000  1.0 -0.0866757464
C  C17  1  0.04420000  0.37040000  0.74133000  1.0 -0.1394046918
C  C18  1  0.95580000  0.62960000  0.25867000  1.0 -0.1394046918
C  C19  1  0.46330000  0.15790000  0.90725000  1.0 0.6131164207
C  C20  1  0.53670000  0.84210000  0.09275000  1.0 0.6131164207
C  C21  1  0.16170000  0.64090000  0.63402000  1.0 0.0756267234
C  C22  1  0.83830000  0.35910000  0.36598000  1.0 0.0756267234
C  C23  1  0.39230000  0.60150000  0.67668000  1.0 -0.1506572068
C  C24  1  0.60770000  0.39850000  0.32332000  1.0 -0.1506572068
C  C25  1  0.45640000  0.66420000  0.74442000  1.0 -0.0998623049
C  C26  1  0.54360000  0.33580000  0.25558000  1.0 -0.1055005715
C  C27  1  0.29270000  0.76790000  0.77045000  1.0 -0.041098537
C  C28  1  0.70730000  0.23210000  0.22955000  1.0 -0.041098537
C  C29  1  0.06750000  0.81180000  0.72538000  1.0 -0.0866757464
C  C30  1  0.93250000  0.18820000  0.27462000  1.0 -0.0866757464
C  C31  1  0.00440000  0.74890000  0.65753000  1.0 -0.1506572068
C  C32  1  0.99560000  0.25110000  0.34247000  1.0 -0.1506572068
C  C33  1  0.34780000  0.82980000  0.84798000  1.0 0.577391304
C  C34  1  0.65220000  0.17020000  0.15202000  1.0 0.577391304
O  O1  1  0.30320000  0.14919000  0.97339000  1.0 -0.6554802284
O  O2  1  0.69680000  0.85081000  0.02661000  1.0 -0.6547210441
O  O3  1  0.69850000  0.12014000  0.91005000  1.0 -0.6172909663
O  O4  1  0.30150000  0.87986000  0.08995000  1.0 -0.6172909663
O  O5  1  0.18790000  0.90735000  0.87983000  1.0 -0.5651722477
O  O6  1  0.81210000  0.09265000  0.12017000  1.0 -0.5651722477
O  O7  1  0.57640000  0.79169000  0.87877000  1.0 -0.4345908091
O  O8  1  0.42360000  0.20831000  0.12123000  1.0 -0.4345908091
