# DDEC6 charges by PACMAN v1.1 (https://github.com/mtap-research/PACMAN-charge/)
data_OKECIQ_FSR_pacman
_symmetry_space_group_name_H-M   'P 1'
_cell_length_a   16.79420000
_cell_length_b   16.79420000
_cell_length_c   16.79420000
_cell_angle_alpha   90.00000000
_cell_angle_beta   90.00000000
_cell_angle_gamma   90.00000000
_symmetry_Int_Tables_number   1
_chemical_formula_structural   Al3(PO4)4
_chemical_formula_sum   'Al18 P24 O96'
_cell_volume   4736.72271926
_cell_formula_units_Z   6
loop_
 _symmetry_equiv_pos_site_id
 _symmetry_equiv_pos_as_xyz
  1  'x, y, z'
loop_
 _atom_site_type_symbol
 _atom_site_label
 _atom_site_symmetry_multiplicity
 _atom_site_fract_x
 _atom_site_fract_y
 _atom_site_fract_z
 _atom_site_occupancy
 _atom_site_charge
Al  Al1  1  0.00000000  0.50000000  0.00000000  1.0 1.6765663192
Al  Al2  1  0.00000000  0.00000000  0.50000000  1.0 1.6765663192
Al  Al3  1  0.50000000  0.00000000  0.00000000  1.0 1.6743526424
Al  Al4  1  0.00000000  0.50000000  0.50000000  1.0 1.6765663192
Al  Al5  1  0.50000000  0.50000000  0.00000000  1.0 1.6743526424
Al  Al6  1  0.50000000  0.00000000  0.50000000  1.0 1.6743526424
Al  Al7  1  0.25000000  0.50000000  0.00000000  1.0 1.7023703024
Al  Al8  1  0.75000000  0.50000000  0.00000000  1.0 1.7023703024
Al  Al9  1  0.00000000  0.25000000  0.50000000  1.0 1.7054633662
Al  Al10  1  0.00000000  0.75000000  0.50000000  1.0 1.7054633662
Al  Al11  1  0.50000000  0.00000000  0.25000000  1.0 1.7023703024
Al  Al12  1  0.50000000  0.00000000  0.75000000  1.0 1.7023703024
Al  Al13  1  0.00000000  0.50000000  0.25000000  1.0 1.7569474742
Al  Al14  1  0.00000000  0.50000000  0.75000000  1.0 1.7569474742
Al  Al15  1  0.25000000  0.00000000  0.50000000  1.0 1.7569474742
Al  Al16  1  0.75000000  0.00000000  0.50000000  1.0 1.7531798249
Al  Al17  1  0.50000000  0.25000000  0.00000000  1.0 1.7531798249
Al  Al18  1  0.50000000  0.75000000  0.00000000  1.0 1.7531798249
P  P1  1  0.12289000  0.43554000  0.12217000  1.0 1.3380932547
P  P2  1  0.87711000  0.56446000  0.12217000  1.0 1.3305424441
P  P3  1  0.87711000  0.43554000  0.87783000  1.0 1.3305424441
P  P4  1  0.12289000  0.56446000  0.87783000  1.0 1.3305424441
P  P5  1  0.12217000  0.12289000  0.43554000  1.0 1.3380932547
P  P6  1  0.12217000  0.87711000  0.56446000  1.0 1.3380932547
P  P7  1  0.87783000  0.87711000  0.43554000  1.0 1.3305424441
P  P8  1  0.87783000  0.12289000  0.56446000  1.0 1.3305424441
P  P9  1  0.43554000  0.12217000  0.12289000  1.0 1.3380932547
P  P10  1  0.56446000  0.12217000  0.87711000  1.0 1.3380932547
P  P11  1  0.43554000  0.87783000  0.87711000  1.0 1.3305424441
P  P12  1  0.56446000  0.87783000  0.12289000  1.0 1.3305424441
P  P13  1  0.93554000  0.62289000  0.62217000  1.0 1.3305424441
P  P14  1  0.06446000  0.37711000  0.62217000  1.0 1.3380932547
P  P15  1  0.93554000  0.37711000  0.37783000  1.0 1.3305424441
P  P16  1  0.06446000  0.62289000  0.37783000  1.0 1.3305424441
P  P17  1  0.62289000  0.62217000  0.93554000  1.0 1.3305424441
P  P18  1  0.37711000  0.62217000  0.06446000  1.0 1.3380932547
P  P19  1  0.37711000  0.37783000  0.93554000  1.0 1.3305424441
P  P20  1  0.62289000  0.37783000  0.06446000  1.0 1.3305424441
P  P21  1  0.62217000  0.93554000  0.62289000  1.0 1.3305424441
P  P22  1  0.62217000  0.06446000  0.37711000  1.0 1.3305424441
P  P23  1  0.37783000  0.93554000  0.37711000  1.0 1.3305424441
P  P24  1  0.37783000  0.06446000  0.62289000  1.0 1.3305424441
O  O1  1  0.14597000  0.35132000  0.14297000  1.0 -0.4590575829
O  O2  1  0.85403000  0.64868000  0.14297000  1.0 -0.4590575829
O  O3  1  0.85403000  0.35132000  0.85703000  1.0 -0.4590575829
O  O4  1  0.14597000  0.64868000  0.85703000  1.0 -0.4590575829
O  O5  1  0.14297000  0.14597000  0.35132000  1.0 -0.4590575829
O  O6  1  0.14297000  0.85403000  0.64868000  1.0 -0.451991792
O  O7  1  0.85703000  0.85403000  0.35132000  1.0 -0.4590575829
O  O8  1  0.85703000  0.14597000  0.64868000  1.0 -0.4590575829
O  O9  1  0.35132000  0.14297000  0.14597000  1.0 -0.4590575829
O  O10  1  0.64868000  0.14297000  0.85403000  1.0 -0.4590575829
O  O11  1  0.35132000  0.85703000  0.85403000  1.0 -0.4590575829
O  O12  1  0.64868000  0.85703000  0.14597000  1.0 -0.4590575829
O  O13  1  0.85132000  0.64597000  0.64297000  1.0 -0.451991792
O  O14  1  0.14868000  0.35403000  0.64297000  1.0 -0.451991792
O  O15  1  0.85132000  0.35403000  0.35703000  1.0 -0.4590575829
O  O16  1  0.14868000  0.64597000  0.35703000  1.0 -0.451991792
O  O17  1  0.64597000  0.64297000  0.85132000  1.0 -0.451991792
O  O18  1  0.35403000  0.64297000  0.14868000  1.0 -0.451991792
O  O19  1  0.35403000  0.35703000  0.85132000  1.0 -0.4590575829
O  O20  1  0.64597000  0.35703000  0.14868000  1.0 -0.451991792
O  O21  1  0.64297000  0.85132000  0.64597000  1.0 -0.451991792
O  O22  1  0.64297000  0.14868000  0.35403000  1.0 -0.451991792
O  O23  1  0.35703000  0.85132000  0.35403000  1.0 -0.4590575829
O  O24  1  0.35703000  0.14868000  0.64597000  1.0 -0.451991792
O  O25  1  0.19471000  0.48395000  0.09007000  1.0 -0.7091900488
O  O26  1  0.80529000  0.51605000  0.09007000  1.0 -0.7039914364
O  O27  1  0.80529000  0.48395000  0.90993000  1.0 -0.7091900488
O  O28  1  0.19471000  0.51605000  0.90993000  1.0 -0.7091900488
O  O29  1  0.09007000  0.19471000  0.48395000  1.0 -0.7091900488
O  O30  1  0.09007000  0.80529000  0.51605000  1.0 -0.7091900488
O  O31  1  0.90993000  0.80529000  0.48395000  1.0 -0.7091900488
O  O32  1  0.90993000  0.19471000  0.51605000  1.0 -0.7091900488
O  O33  1  0.48395000  0.09007000  0.19471000  1.0 -0.7091900488
O  O34  1  0.51605000  0.09007000  0.80529000  1.0 -0.7039914364
O  O35  1  0.48395000  0.90993000  0.80529000  1.0 -0.7091900488
O  O36  1  0.51605000  0.90993000  0.19471000  1.0 -0.7091900488
O  O37  1  0.98395000  0.69471000  0.59007000  1.0 -0.7091900488
O  O38  1  0.01605000  0.30529000  0.59007000  1.0 -0.7091900488
O  O39  1  0.98395000  0.30529000  0.40993000  1.0 -0.7091900488
O  O40  1  0.01605000  0.69471000  0.40993000  1.0 -0.7091900488
O  O41  1  0.69471000  0.59007000  0.98395000  1.0 -0.7091900488
O  O42  1  0.30529000  0.59007000  0.01605000  1.0 -0.7091900488
O  O43  1  0.30529000  0.40993000  0.98395000  1.0 -0.7091900488
O  O44  1  0.69471000  0.40993000  0.01605000  1.0 -0.7039914364
O  O45  1  0.59007000  0.98395000  0.69471000  1.0 -0.7091900488
O  O46  1  0.59007000  0.01605000  0.30529000  1.0 -0.7091900488
O  O47  1  0.40993000  0.98395000  0.30529000  1.0 -0.7091900488
O  O48  1  0.40993000  0.01605000  0.69471000  1.0 -0.7091900488
O  O49  1  0.09342000  0.48318000  0.19447000  1.0 -0.7200701221
O  O50  1  0.90658000  0.51682000  0.19447000  1.0 -0.7200701221
O  O51  1  0.90658000  0.48318000  0.80553000  1.0 -0.7091900488
O  O52  1  0.09342000  0.51682000  0.80553000  1.0 -0.7091900488
O  O53  1  0.19447000  0.09342000  0.48318000  1.0 -0.7200701221
O  O54  1  0.19447000  0.90658000  0.51682000  1.0 -0.7200701221
O  O55  1  0.80553000  0.90658000  0.48318000  1.0 -0.7091900488
O  O56  1  0.80553000  0.09342000  0.51682000  1.0 -0.7091900488
O  O57  1  0.48318000  0.19447000  0.09342000  1.0 -0.7200701221
O  O58  1  0.51682000  0.19447000  0.90658000  1.0 -0.7200701221
O  O59  1  0.48318000  0.80553000  0.90658000  1.0 -0.7091900488
O  O60  1  0.51682000  0.80553000  0.09342000  1.0 -0.7091900488
O  O61  1  0.98318000  0.59342000  0.69447000  1.0 -0.7200701221
O  O62  1  0.01682000  0.40658000  0.69447000  1.0 -0.7091900488
O  O63  1  0.98318000  0.40658000  0.30553000  1.0 -0.7091900488
O  O64  1  0.01682000  0.59342000  0.30553000  1.0 -0.7200701221
O  O65  1  0.59342000  0.69447000  0.98318000  1.0 -0.7200701221
O  O66  1  0.40658000  0.69447000  0.01682000  1.0 -0.7091900488
O  O67  1  0.40658000  0.30553000  0.98318000  1.0 -0.7091900488
O  O68  1  0.59342000  0.30553000  0.01682000  1.0 -0.7200701221
O  O69  1  0.69447000  0.98318000  0.59342000  1.0 -0.7200701221
O  O70  1  0.69447000  0.01682000  0.40658000  1.0 -0.7091900488
O  O71  1  0.30553000  0.98318000  0.40658000  1.0 -0.7091900488
O  O72  1  0.30553000  0.01682000  0.59342000  1.0 -0.7200701221
O  O73  1  0.05757000  0.43542000  0.05792000  1.0 -0.7336358914
O  O74  1  0.94243000  0.56458000  0.05792000  1.0 -0.7397395988
O  O75  1  0.94243000  0.43542000  0.94208000  1.0 -0.7336358914
O  O76  1  0.05757000  0.56458000  0.94208000  1.0 -0.7397395988
O  O77  1  0.05792000  0.05757000  0.43542000  1.0 -0.7336358914
O  O78  1  0.05792000  0.94243000  0.56458000  1.0 -0.7397395988
O  O79  1  0.94208000  0.94243000  0.43542000  1.0 -0.7397395988
O  O80  1  0.94208000  0.05757000  0.56458000  1.0 -0.7336358914
O  O81  1  0.43542000  0.05792000  0.05757000  1.0 -0.7336358914
O  O82  1  0.56458000  0.05792000  0.94243000  1.0 -0.7397395988
O  O83  1  0.43542000  0.94208000  0.94243000  1.0 -0.7397395988
O  O84  1  0.56458000  0.94208000  0.05757000  1.0 -0.7336358914
O  O85  1  0.93542000  0.55757000  0.55792000  1.0 -0.7336358914
O  O86  1  0.06458000  0.44243000  0.55792000  1.0 -0.7397395988
O  O87  1  0.93542000  0.44243000  0.44208000  1.0 -0.7336358914
O  O88  1  0.06458000  0.55757000  0.44208000  1.0 -0.7397395988
O  O89  1  0.55757000  0.55792000  0.93542000  1.0 -0.7336358914
O  O90  1  0.44243000  0.55792000  0.06458000  1.0 -0.7397395988
O  O91  1  0.44243000  0.44208000  0.93542000  1.0 -0.7336358914
O  O92  1  0.55757000  0.44208000  0.06458000  1.0 -0.7397395988
O  O93  1  0.55792000  0.93542000  0.55757000  1.0 -0.7336358914
O  O94  1  0.55792000  0.06458000  0.44243000  1.0 -0.7397395988
O  O95  1  0.44208000  0.93542000  0.44243000  1.0 -0.7397395988
O  O96  1  0.44208000  0.06458000  0.55757000  1.0 -0.7397395988
