# DDEC6 charges by PACMAN v1.1 (https://github.com/mtap-research/PACMAN-charge/)
data_OKEREC_ASR_pacman
_symmetry_space_group_name_H-M   'P 1'
_cell_length_a   21.62660000
_cell_length_b   21.62660000
_cell_length_c   21.62660000
_cell_angle_alpha   60.00000000
_cell_angle_beta   60.00000000
_cell_angle_gamma   60.00000000
_symmetry_Int_Tables_number   1
_chemical_formula_structural   Ni4H27C78(N2O3)9
_chemical_formula_sum   'Ni8 H54 C156 N36 O54'
_cell_volume   7152.36625205
_cell_formula_units_Z   2
loop_
 _symmetry_equiv_pos_site_id
 _symmetry_equiv_pos_as_xyz
  1  'x, y, z'
loop_
 _atom_site_type_symbol
 _atom_site_label
 _atom_site_symmetry_multiplicity
 _atom_site_fract_x
 _atom_site_fract_y
 _atom_site_fract_z
 _atom_site_occupancy
 _atom_site_charge
Ni  Ni1  1  0.04717000  0.04717000  0.04717000  1.0 0.7678181581
Ni  Ni2  1  0.14151000  0.95283000  0.95283000  1.0 0.7678181581
Ni  Ni3  1  0.85849000  0.04717000  0.04717000  1.0 0.7678181581
Ni  Ni4  1  0.04717000  0.04717000  0.85849000  1.0 0.7678181581
Ni  Ni5  1  0.95283000  0.95283000  0.14151000  1.0 0.7678181581
Ni  Ni6  1  0.95283000  0.14151000  0.95283000  1.0 0.7678181581
Ni  Ni7  1  0.04717000  0.85849000  0.04717000  1.0 0.7678181581
Ni  Ni8  1  0.95283000  0.95283000  0.95283000  1.0 0.7678181581
H  H1  1  0.90500000  0.09500000  0.09500000  1.0 0.4065424952
H  H2  1  0.09500000  0.90500000  0.09500000  1.0 0.4065424952
H  H3  1  0.09500000  0.90500000  0.90500000  1.0 0.4065424952
H  H4  1  0.90500000  0.09500000  0.90500000  1.0 0.4065424952
H  H5  1  0.09500000  0.09500000  0.90500000  1.0 0.4065424952
H  H6  1  0.90500000  0.90500000  0.09500000  1.0 0.4065424952
H  H7  1  0.55385000  0.86929000  0.02301000  1.0 0.1656020498
H  H8  1  0.44615000  0.97699000  0.44615000  1.0 0.1656020498
H  H9  1  0.55385000  0.02301000  0.86929000  1.0 0.1588263955
H  H10  1  0.02301000  0.55385000  0.86929000  1.0 0.1656020498
H  H11  1  0.86929000  0.55385000  0.55385000  1.0 0.1588263955
H  H12  1  0.44615000  0.13071000  0.44615000  1.0 0.1588263955
H  H13  1  0.44615000  0.13071000  0.97699000  1.0 0.1588263955
H  H14  1  0.97699000  0.44615000  0.13071000  1.0 0.1588263955
H  H15  1  0.02301000  0.55385000  0.55385000  1.0 0.1588263955
H  H16  1  0.55385000  0.02301000  0.55385000  1.0 0.1588263955
H  H17  1  0.13071000  0.44615000  0.97699000  1.0 0.1656020498
H  H18  1  0.13071000  0.44615000  0.44615000  1.0 0.1588263955
H  H19  1  0.55385000  0.86929000  0.55385000  1.0 0.1656020498
H  H20  1  0.44615000  0.97699000  0.13071000  1.0 0.1656020498
H  H21  1  0.86929000  0.55385000  0.02301000  1.0 0.1588263955
H  H22  1  0.97699000  0.44615000  0.44615000  1.0 0.1588263955
H  H23  1  0.86929000  0.02301000  0.55385000  1.0 0.1588263955
H  H24  1  0.44615000  0.44615000  0.97699000  1.0 0.1656020498
H  H25  1  0.44615000  0.44615000  0.13071000  1.0 0.1656020498
H  H26  1  0.13071000  0.97699000  0.44615000  1.0 0.1656020498
H  H27  1  0.55385000  0.55385000  0.02301000  1.0 0.1588263955
H  H28  1  0.97699000  0.13071000  0.44615000  1.0 0.1588263955
H  H29  1  0.55385000  0.55385000  0.86929000  1.0 0.1656020498
H  H30  1  0.02301000  0.86929000  0.55385000  1.0 0.1656020498
H  H31  1  0.18879000  0.06631000  0.06631000  1.0 0.1588263955
H  H32  1  0.32141000  0.93369000  0.81121000  1.0 0.1588263955
H  H33  1  0.67859000  0.06631000  0.06631000  1.0 0.1588263955
H  H34  1  0.06631000  0.18879000  0.06631000  1.0 0.1588263955
H  H35  1  0.06631000  0.18879000  0.67859000  1.0 0.1588263955
H  H36  1  0.81121000  0.93369000  0.32141000  1.0 0.1588263955
H  H37  1  0.32141000  0.93369000  0.93369000  1.0 0.1588263955
H  H38  1  0.93369000  0.32141000  0.93369000  1.0 0.1588263955
H  H39  1  0.06631000  0.67859000  0.18879000  1.0 0.1588263955
H  H40  1  0.18879000  0.06631000  0.67859000  1.0 0.1588263955
H  H41  1  0.93369000  0.81121000  0.93369000  1.0 0.1588263955
H  H42  1  0.93369000  0.32141000  0.81121000  1.0 0.1588263955
H  H43  1  0.67859000  0.06631000  0.18879000  1.0 0.1588263955
H  H44  1  0.81121000  0.93369000  0.93369000  1.0 0.1588263955
H  H45  1  0.06631000  0.67859000  0.06631000  1.0 0.1588263955
H  H46  1  0.93369000  0.81121000  0.32141000  1.0 0.1588263955
H  H47  1  0.06631000  0.06631000  0.18879000  1.0 0.1588263955
H  H48  1  0.81121000  0.32141000  0.93369000  1.0 0.1588263955
H  H49  1  0.32141000  0.81121000  0.93369000  1.0 0.1588263955
H  H50  1  0.93369000  0.93369000  0.32141000  1.0 0.1588263955
H  H51  1  0.67859000  0.18879000  0.06631000  1.0 0.1588263955
H  H52  1  0.93369000  0.93369000  0.81121000  1.0 0.1588263955
H  H53  1  0.18879000  0.67859000  0.06631000  1.0 0.1588263955
H  H54  1  0.06631000  0.06631000  0.67859000  1.0 0.1588263955
C  C1  1  0.53199000  0.92235000  0.01367000  1.0 -0.1040996692
C  C2  1  0.46801000  0.98633000  0.46801000  1.0 -0.1040996692
C  C3  1  0.53199000  0.01367000  0.92235000  1.0 -0.1040996692
C  C4  1  0.01367000  0.53199000  0.92235000  1.0 -0.1040996692
C  C5  1  0.92235000  0.53199000  0.53199000  1.0 -0.1040996692
C  C6  1  0.46801000  0.07765000  0.46801000  1.0 -0.1040996692
C  C7  1  0.46801000  0.07765000  0.98633000  1.0 -0.1040996692
C  C8  1  0.98633000  0.46801000  0.07765000  1.0 -0.1040996692
C  C9  1  0.01367000  0.53199000  0.53199000  1.0 -0.1040996692
C  C10  1  0.53199000  0.01367000  0.53199000  1.0 -0.1040996692
C  C11  1  0.07765000  0.46801000  0.98633000  1.0 -0.1040996692
C  C12  1  0.07765000  0.46801000  0.46801000  1.0 -0.1040996692
C  C13  1  0.53199000  0.92235000  0.53199000  1.0 -0.1040996692
C  C14  1  0.46801000  0.98633000  0.07765000  1.0 -0.1040996692
C  C15  1  0.92235000  0.53199000  0.01367000  1.0 -0.1061161779
C  C16  1  0.98633000  0.46801000  0.46801000  1.0 -0.1040996692
C  C17  1  0.92235000  0.01367000  0.53199000  1.0 -0.1040996692
C  C18  1  0.46801000  0.46801000  0.98633000  1.0 -0.1040996692
C  C19  1  0.46801000  0.46801000  0.07765000  1.0 -0.1040996692
C  C20  1  0.07765000  0.98633000  0.46801000  1.0 -0.1040996692
C  C21  1  0.53199000  0.53199000  0.01367000  1.0 -0.1040996692
C  C22  1  0.98633000  0.07765000  0.46801000  1.0 -0.1040996692
C  C23  1  0.53199000  0.53199000  0.92235000  1.0 -0.1040996692
C  C24  1  0.01367000  0.92235000  0.53199000  1.0 -0.1040996692
C  C25  1  0.46033000  0.96119000  0.00683000  1.0 0.0112742032
C  C26  1  0.42835000  0.99317000  0.53967000  1.0 0.0112742032
C  C27  1  0.57165000  0.00683000  0.96119000  1.0 0.0112742032
C  C28  1  0.00683000  0.46033000  0.96119000  1.0 0.0112742032
C  C29  1  0.96119000  0.46033000  0.57165000  1.0 0.0112742032
C  C30  1  0.53967000  0.03881000  0.42835000  1.0 0.0112742032
C  C31  1  0.42835000  0.03881000  0.99317000  1.0 0.0112742032
C  C32  1  0.99317000  0.42835000  0.03881000  1.0 0.0167812082
C  C33  1  0.00683000  0.57165000  0.46033000  1.0 0.0112742032
C  C34  1  0.46033000  0.00683000  0.57165000  1.0 0.0112742032
C  C35  1  0.03881000  0.53967000  0.99317000  1.0 0.0112742032
C  C36  1  0.03881000  0.42835000  0.53967000  1.0 0.0112742032
C  C37  1  0.57165000  0.96119000  0.46033000  1.0 0.0112742032
C  C38  1  0.53967000  0.99317000  0.03881000  1.0 0.0167812082
C  C39  1  0.96119000  0.57165000  0.00683000  1.0 0.0112742032
C  C40  1  0.99317000  0.53967000  0.42835000  1.0 0.0167812082
C  C41  1  0.96119000  0.00683000  0.46033000  1.0 0.0112742032
C  C42  1  0.53967000  0.42835000  0.99317000  1.0 0.0167812082
C  C43  1  0.42835000  0.53967000  0.03881000  1.0 0.0112742032
C  C44  1  0.03881000  0.99317000  0.42835000  1.0 0.0112742032
C  C45  1  0.57165000  0.46033000  0.00683000  1.0 0.0167812082
C  C46  1  0.99317000  0.03881000  0.53967000  1.0 0.0112742032
C  C47  1  0.46033000  0.57165000  0.96119000  1.0 0.0167812082
C  C48  1  0.00683000  0.96119000  0.57165000  1.0 0.0167812082
C  C49  1  0.53967000  0.03881000  0.99317000  1.0 0.0112742032
C  C50  1  0.57165000  0.00683000  0.46033000  1.0 0.0112742032
C  C51  1  0.42835000  0.99317000  0.03881000  1.0 0.0112742032
C  C52  1  0.99317000  0.53967000  0.03881000  1.0 0.0112742032
C  C53  1  0.03881000  0.53967000  0.42835000  1.0 0.0167812082
C  C54  1  0.46033000  0.96119000  0.57165000  1.0 0.0167812082
C  C55  1  0.57165000  0.96119000  0.00683000  1.0 0.0167812082
C  C56  1  0.00683000  0.57165000  0.96119000  1.0 0.0167812082
C  C57  1  0.99317000  0.42835000  0.53967000  1.0 0.0112742032
C  C58  1  0.53967000  0.99317000  0.42835000  1.0 0.0112742032
C  C59  1  0.96119000  0.46033000  0.00683000  1.0 0.0167812082
C  C60  1  0.96119000  0.57165000  0.46033000  1.0 0.0112742032
C  C61  1  0.42835000  0.03881000  0.53967000  1.0 0.0112742032
C  C62  1  0.46033000  0.00683000  0.96119000  1.0 0.0112742032
C  C63  1  0.03881000  0.42835000  0.99317000  1.0 0.0167812082
C  C64  1  0.00683000  0.46033000  0.57165000  1.0 0.0167812082
C  C65  1  0.03881000  0.99317000  0.53967000  1.0 0.0112742032
C  C66  1  0.46033000  0.57165000  0.00683000  1.0 0.0167812082
C  C67  1  0.57165000  0.46033000  0.96119000  1.0 0.0112742032
C  C68  1  0.96119000  0.00683000  0.57165000  1.0 0.0112742032
C  C69  1  0.42835000  0.53967000  0.99317000  1.0 0.0112742032
C  C70  1  0.00683000  0.96119000  0.46033000  1.0 0.0112742032
C  C71  1  0.53967000  0.42835000  0.03881000  1.0 0.0167812082
C  C72  1  0.99317000  0.03881000  0.42835000  1.0 0.0112742032
C  C73  1  0.40909000  0.93719000  0.01105000  1.0 0.2473645534
C  C74  1  0.35733000  0.98895000  0.59091000  1.0 0.2401709839
C  C75  1  0.64267000  0.01105000  0.93719000  1.0 0.2401709839
C  C76  1  0.01105000  0.40909000  0.93719000  1.0 0.2401709839
C  C77  1  0.93719000  0.40909000  0.64267000  1.0 0.2401709839
C  C78  1  0.59091000  0.06281000  0.35733000  1.0 0.2401709839
C  C79  1  0.35733000  0.06281000  0.98895000  1.0 0.2401709839
C  C80  1  0.98895000  0.35733000  0.06281000  1.0 0.2401709839
C  C81  1  0.01105000  0.64267000  0.40909000  1.0 0.2401709839
C  C82  1  0.40909000  0.01105000  0.64267000  1.0 0.2401709839
C  C83  1  0.06281000  0.59091000  0.98895000  1.0 0.2401709839
C  C84  1  0.06281000  0.35733000  0.59091000  1.0 0.2401709839
C  C85  1  0.64267000  0.93719000  0.40909000  1.0 0.2401709839
C  C86  1  0.59091000  0.98895000  0.06281000  1.0 0.2473645534
C  C87  1  0.93719000  0.64267000  0.01105000  1.0 0.2473645534
C  C88  1  0.98895000  0.59091000  0.35733000  1.0 0.2401709839
C  C89  1  0.93719000  0.01105000  0.40909000  1.0 0.2401709839
C  C90  1  0.59091000  0.35733000  0.98895000  1.0 0.2401709839
C  C91  1  0.35733000  0.59091000  0.06281000  1.0 0.2401709839
C  C92  1  0.06281000  0.98895000  0.35733000  1.0 0.2401709839
C  C93  1  0.64267000  0.40909000  0.01105000  1.0 0.2473645534
C  C94  1  0.98895000  0.06281000  0.59091000  1.0 0.2401709839
C  C95  1  0.40909000  0.64267000  0.93719000  1.0 0.2401709839
C  C96  1  0.01105000  0.93719000  0.64267000  1.0 0.2401709839
C  C97  1  0.59091000  0.06281000  0.98895000  1.0 0.2401709839
C  C98  1  0.64267000  0.01105000  0.40909000  1.0 0.2401709839
C  C99  1  0.35733000  0.98895000  0.06281000  1.0 0.2473645534
C  C100  1  0.98895000  0.59091000  0.06281000  1.0 0.2401709839
C  C101  1  0.06281000  0.59091000  0.35733000  1.0 0.2401709839
C  C102  1  0.40909000  0.93719000  0.64267000  1.0 0.2401709839
C  C103  1  0.64267000  0.93719000  0.01105000  1.0 0.2401709839
C  C104  1  0.01105000  0.64267000  0.93719000  1.0 0.2401709839
C  C105  1  0.98895000  0.35733000  0.59091000  1.0 0.2401709839
C  C106  1  0.59091000  0.98895000  0.35733000  1.0 0.2473645534
C  C107  1  0.93719000  0.40909000  0.01105000  1.0 0.2473645534
C  C108  1  0.93719000  0.64267000  0.40909000  1.0 0.2401709839
C  C109  1  0.35733000  0.06281000  0.59091000  1.0 0.2401709839
C  C110  1  0.40909000  0.01105000  0.93719000  1.0 0.2401709839
C  C111  1  0.06281000  0.35733000  0.98895000  1.0 0.2401709839
C  C112  1  0.01105000  0.40909000  0.64267000  1.0 0.2473645534
C  C113  1  0.06281000  0.98895000  0.59091000  1.0 0.2473645534
C  C114  1  0.40909000  0.64267000  0.01105000  1.0 0.2401709839
C  C115  1  0.64267000  0.40909000  0.93719000  1.0 0.2401709839
C  C116  1  0.93719000  0.01105000  0.64267000  1.0 0.2401709839
C  C117  1  0.35733000  0.59091000  0.98895000  1.0 0.2401709839
C  C118  1  0.01105000  0.93719000  0.40909000  1.0 0.2473645534
C  C119  1  0.59091000  0.35733000  0.06281000  1.0 0.2473645534
C  C120  1  0.98895000  0.06281000  0.35733000  1.0 0.2401709839
C  C121  1  0.27931000  0.00000000  0.00000000  1.0 0.1304378866
C  C122  1  0.27931000  0.00000000  0.72069000  1.0 0.1304378866
C  C123  1  0.72069000  0.00000000  0.00000000  1.0 0.1304378866
C  C124  1  0.00000000  0.27931000  0.00000000  1.0 0.1304378866
C  C125  1  0.00000000  0.27931000  0.72069000  1.0 0.1304378866
C  C126  1  0.72069000  0.00000000  0.27931000  1.0 0.1304378866
C  C127  1  0.00000000  0.72069000  0.27931000  1.0 0.1304378866
C  C128  1  0.00000000  0.72069000  0.00000000  1.0 0.1304378866
C  C129  1  0.00000000  0.00000000  0.27931000  1.0 0.1304378866
C  C130  1  0.72069000  0.27931000  0.00000000  1.0 0.1304378866
C  C131  1  0.27931000  0.72069000  0.00000000  1.0 0.1304378866
C  C132  1  0.00000000  0.00000000  0.72069000  1.0 0.1304378866
C  C133  1  0.20477000  0.03677000  0.03677000  1.0 -0.0479156441
C  C134  1  0.27831000  0.96323000  0.79523000  1.0 -0.0479156441
C  C135  1  0.72169000  0.03677000  0.03677000  1.0 -0.0479156441
C  C136  1  0.03677000  0.20477000  0.03677000  1.0 -0.0479156441
C  C137  1  0.03677000  0.20477000  0.72169000  1.0 -0.0479156441
C  C138  1  0.79523000  0.96323000  0.27831000  1.0 -0.0479156441
C  C139  1  0.27831000  0.96323000  0.96323000  1.0 -0.0479156441
C  C140  1  0.96323000  0.27831000  0.96323000  1.0 -0.0479156441
C  C141  1  0.03677000  0.72169000  0.20477000  1.0 -0.0479156441
C  C142  1  0.20477000  0.03677000  0.72169000  1.0 -0.0479156441
C  C143  1  0.96323000  0.79523000  0.96323000  1.0 -0.0479156441
C  C144  1  0.96323000  0.27831000  0.79523000  1.0 -0.0479156441
C  C145  1  0.72169000  0.03677000  0.20477000  1.0 -0.0479156441
C  C146  1  0.79523000  0.96323000  0.96323000  1.0 -0.0479156441
C  C147  1  0.03677000  0.72169000  0.03677000  1.0 -0.0479156441
C  C148  1  0.96323000  0.79523000  0.27831000  1.0 -0.0479156441
C  C149  1  0.03677000  0.03677000  0.20477000  1.0 -0.0479156441
C  C150  1  0.79523000  0.27831000  0.96323000  1.0 -0.0479156441
C  C151  1  0.27831000  0.79523000  0.96323000  1.0 -0.0479156441
C  C152  1  0.96323000  0.96323000  0.27831000  1.0 -0.0479156441
C  C153  1  0.72169000  0.20477000  0.03677000  1.0 -0.0479156441
C  C154  1  0.96323000  0.96323000  0.79523000  1.0 -0.0479156441
C  C155  1  0.20477000  0.72169000  0.03677000  1.0 -0.0479156441
C  C156  1  0.03677000  0.03677000  0.72169000  1.0 -0.0479156441
N  N1  1  0.34544000  0.00000000  0.00000000  1.0 -0.1380032804
N  N2  1  0.34544000  0.00000000  0.65456000  1.0 -0.1349869765
N  N3  1  0.65456000  0.00000000  0.00000000  1.0 -0.1380032804
N  N4  1  0.00000000  0.34544000  0.00000000  1.0 -0.1380032804
N  N5  1  0.00000000  0.34544000  0.65456000  1.0 -0.1380032804
N  N6  1  0.65456000  0.00000000  0.34544000  1.0 -0.1380032804
N  N7  1  0.00000000  0.65456000  0.34544000  1.0 -0.1380032804
N  N8  1  0.00000000  0.65456000  0.00000000  1.0 -0.1380032804
N  N9  1  0.00000000  0.00000000  0.34544000  1.0 -0.1380032804
N  N10  1  0.65456000  0.34544000  0.00000000  1.0 -0.1380032804
N  N11  1  0.34544000  0.65456000  0.00000000  1.0 -0.1380032804
N  N12  1  0.00000000  0.00000000  0.65456000  1.0 -0.1380032804
N  N13  1  0.15768000  0.02272000  0.02272000  1.0 -0.1783061807
N  N14  1  0.20312000  0.97728000  0.84232000  1.0 -0.1783061807
N  N15  1  0.79688000  0.02272000  0.02272000  1.0 -0.1783061807
N  N16  1  0.02272000  0.15768000  0.02272000  1.0 -0.1783061807
N  N17  1  0.02272000  0.15768000  0.79688000  1.0 -0.1783061807
N  N18  1  0.84232000  0.97728000  0.20312000  1.0 -0.1783061807
N  N19  1  0.20312000  0.97728000  0.97728000  1.0 -0.1783061807
N  N20  1  0.97728000  0.20312000  0.97728000  1.0 -0.1783061807
N  N21  1  0.02272000  0.79688000  0.15768000  1.0 -0.1783061807
N  N22  1  0.15768000  0.02272000  0.79688000  1.0 -0.1783061807
N  N23  1  0.97728000  0.84232000  0.97728000  1.0 -0.1783061807
N  N24  1  0.97728000  0.20312000  0.84232000  1.0 -0.1783061807
N  N25  1  0.79688000  0.02272000  0.15768000  1.0 -0.1783061807
N  N26  1  0.84232000  0.97728000  0.97728000  1.0 -0.1783061807
N  N27  1  0.02272000  0.79688000  0.02272000  1.0 -0.1783061807
N  N28  1  0.97728000  0.84232000  0.20312000  1.0 -0.1783061807
N  N29  1  0.02272000  0.02272000  0.15768000  1.0 -0.1783061807
N  N30  1  0.84232000  0.20312000  0.97728000  1.0 -0.1783061807
N  N31  1  0.20312000  0.84232000  0.97728000  1.0 -0.1783061807
N  N32  1  0.97728000  0.97728000  0.20312000  1.0 -0.1783061807
N  N33  1  0.79688000  0.15768000  0.02272000  1.0 -0.1783061807
N  N34  1  0.97728000  0.97728000  0.84232000  1.0 -0.1783061807
N  N35  1  0.15768000  0.79688000  0.02272000  1.0 -0.1783061807
N  N36  1  0.02272000  0.02272000  0.79688000  1.0 -0.1783061807
O  O1  1  0.93930000  0.06070000  0.06070000  1.0 -0.6897856938
O  O2  1  0.06070000  0.93930000  0.06070000  1.0 -0.6897856938
O  O3  1  0.06070000  0.93930000  0.93930000  1.0 -0.6897856938
O  O4  1  0.93930000  0.06070000  0.93930000  1.0 -0.6897856938
O  O5  1  0.06070000  0.06070000  0.93930000  1.0 -0.6897856938
O  O6  1  0.93930000  0.93930000  0.06070000  1.0 -0.6897856938
O  O7  1  0.41813000  0.87397000  0.02219000  1.0 -0.3408415582
O  O8  1  0.31429000  0.97781000  0.58187000  1.0 -0.3408415582
O  O9  1  0.68571000  0.02219000  0.87397000  1.0 -0.3408415582
O  O10  1  0.02219000  0.41813000  0.87397000  1.0 -0.3408415582
O  O11  1  0.87397000  0.41813000  0.68571000  1.0 -0.3408415582
O  O12  1  0.58187000  0.12603000  0.31429000  1.0 -0.3408415582
O  O13  1  0.31429000  0.12603000  0.97781000  1.0 -0.3408415582
O  O14  1  0.97781000  0.31429000  0.12603000  1.0 -0.3408415582
O  O15  1  0.02219000  0.68571000  0.41813000  1.0 -0.3408415582
O  O16  1  0.41813000  0.02219000  0.68571000  1.0 -0.3408415582
O  O17  1  0.12603000  0.58187000  0.97781000  1.0 -0.3408415582
O  O18  1  0.12603000  0.31429000  0.58187000  1.0 -0.3408415582
O  O19  1  0.68571000  0.87397000  0.41813000  1.0 -0.3408415582
O  O20  1  0.58187000  0.97781000  0.12603000  1.0 -0.3408415582
O  O21  1  0.87397000  0.68571000  0.02219000  1.0 -0.3408415582
O  O22  1  0.97781000  0.58187000  0.31429000  1.0 -0.3408415582
O  O23  1  0.87397000  0.02219000  0.41813000  1.0 -0.3408415582
O  O24  1  0.58187000  0.31429000  0.97781000  1.0 -0.3408415582
O  O25  1  0.31429000  0.58187000  0.12603000  1.0 -0.3408415582
O  O26  1  0.12603000  0.97781000  0.31429000  1.0 -0.3408415582
O  O27  1  0.68571000  0.41813000  0.02219000  1.0 -0.3408415582
O  O28  1  0.97781000  0.12603000  0.58187000  1.0 -0.3408415582
O  O29  1  0.41813000  0.68571000  0.87397000  1.0 -0.3408415582
O  O30  1  0.02219000  0.87397000  0.68571000  1.0 -0.3408415582
O  O31  1  0.58187000  0.12603000  0.97781000  1.0 -0.3408415582
O  O32  1  0.68571000  0.02219000  0.41813000  1.0 -0.3408415582
O  O33  1  0.31429000  0.97781000  0.12603000  1.0 -0.3408415582
O  O34  1  0.97781000  0.58187000  0.12603000  1.0 -0.3408415582
O  O35  1  0.12603000  0.58187000  0.31429000  1.0 -0.3408415582
O  O36  1  0.41813000  0.87397000  0.68571000  1.0 -0.3408415582
O  O37  1  0.68571000  0.87397000  0.02219000  1.0 -0.3408415582
O  O38  1  0.02219000  0.68571000  0.87397000  1.0 -0.3408415582
O  O39  1  0.97781000  0.31429000  0.58187000  1.0 -0.3408415582
O  O40  1  0.58187000  0.97781000  0.31429000  1.0 -0.3408415582
O  O41  1  0.87397000  0.41813000  0.02219000  1.0 -0.3408415582
O  O42  1  0.87397000  0.68571000  0.41813000  1.0 -0.3408415582
O  O43  1  0.31429000  0.12603000  0.58187000  1.0 -0.3408415582
O  O44  1  0.41813000  0.02219000  0.87397000  1.0 -0.3408415582
O  O45  1  0.12603000  0.31429000  0.97781000  1.0 -0.3408415582
O  O46  1  0.02219000  0.41813000  0.68571000  1.0 -0.3408415582
O  O47  1  0.12603000  0.97781000  0.58187000  1.0 -0.3408415582
O  O48  1  0.41813000  0.68571000  0.02219000  1.0 -0.3408415582
O  O49  1  0.68571000  0.41813000  0.87397000  1.0 -0.3408415582
O  O50  1  0.87397000  0.02219000  0.68571000  1.0 -0.3408415582
O  O51  1  0.31429000  0.58187000  0.97781000  1.0 -0.3408415582
O  O52  1  0.02219000  0.87397000  0.41813000  1.0 -0.3408415582
O  O53  1  0.58187000  0.31429000  0.12603000  1.0 -0.3408415582
O  O54  1  0.97781000  0.12603000  0.31429000  1.0 -0.3408415582
