# DDEC6 charges by PACMAN v1.1 (https://github.com/mtap-research/PACMAN-charge/)
data_OKIJUO_ion_pacman
_symmetry_space_group_name_H-M   'P 1'
_cell_length_a   9.54900000
_cell_length_b   12.14100000
_cell_length_c   26.71700000
_cell_angle_alpha   90.00000000
_cell_angle_beta   90.00000000
_cell_angle_gamma   90.00000000
_symmetry_Int_Tables_number   1
_chemical_formula_structural   Ag2B2H26C42N8OF8
_chemical_formula_sum   'Ag4 B4 H52 C84 N16 O2 F16'
_cell_volume   3097.41960525
_cell_formula_units_Z   2
loop_
 _symmetry_equiv_pos_site_id
 _symmetry_equiv_pos_as_xyz
  1  'x, y, z'
loop_
 _atom_site_type_symbol
 _atom_site_label
 _atom_site_symmetry_multiplicity
 _atom_site_fract_x
 _atom_site_fract_y
 _atom_site_fract_z
 _atom_site_occupancy
 _atom_site_charge
Ag  Ag1  1  0.21581000  0.71970000  0.00605000  1.0 0.508911164
Ag  Ag2  1  0.78419000  0.71970000  0.99395000  1.0 0.508911164
Ag  Ag3  1  0.21581000  0.21970000  0.49395000  1.0 0.508911164
Ag  Ag4  1  0.78419000  0.21970000  0.50605000  1.0 0.508911164
B  B1  1  0.95800000  0.45250000  0.63050000  1.0 1.0686307116
B  B2  1  0.04200000  0.45250000  0.36950000  1.0 1.0686307116
B  B3  1  0.95800000  0.95250000  0.86950000  1.0 1.0686307116
B  B4  1  0.04200000  0.95250000  0.13050000  1.0 1.0686307116
H  H1  1  0.20690000  0.54330000  0.82000000  1.0 0.1129448428
H  H2  1  0.79310000  0.54330000  0.18000000  1.0 0.1129448428
H  H3  1  0.20690000  0.04330000  0.68000000  1.0 0.1129448428
H  H4  1  0.79310000  0.04330000  0.32000000  1.0 0.1129448428
H  H5  1  0.20100000  0.54760000  0.73210000  1.0 0.1303002555
H  H6  1  0.79900000  0.54760000  0.26790000  1.0 0.1303002555
H  H7  1  0.20100000  0.04760000  0.76790000  1.0 0.1303002555
H  H8  1  0.79900000  0.04760000  0.23210000  1.0 0.1303002555
H  H9  1  0.31210000  0.86560000  0.73570000  1.0 0.1303002555
H  H10  1  0.68790000  0.86560000  0.26430000  1.0 0.1303002555
H  H11  1  0.31210000  0.36560000  0.76430000  1.0 0.1303002555
H  H12  1  0.68790000  0.36560000  0.23570000  1.0 0.1303002555
H  H13  1  0.32850000  0.85730000  0.82210000  1.0 0.1212545004
H  H14  1  0.67150000  0.85730000  0.17790000  1.0 0.1212545004
H  H15  1  0.32850000  0.35730000  0.67790000  1.0 0.1212545004
H  H16  1  0.67150000  0.35730000  0.32210000  1.0 0.1212545004
H  H17  1  0.02690000  0.79480000  0.69710000  1.0 0.1400207295
H  H18  1  0.97310000  0.79480000  0.30290000  1.0 0.1400207295
H  H19  1  0.02690000  0.29480000  0.80290000  1.0 0.1400207295
H  H20  1  0.97310000  0.29480000  0.19710000  1.0 0.1400207295
H  H21  1  0.89350000  0.92150000  0.65600000  1.0 0.1303002555
H  H22  1  0.10650000  0.92150000  0.34400000  1.0 0.1303002555
H  H23  1  0.89350000  0.42150000  0.84400000  1.0 0.1303002555
H  H24  1  0.10650000  0.42150000  0.15600000  1.0 0.1303002555
H  H25  1  0.19270000  0.94150000  0.54780000  1.0 0.1303002555
H  H26  1  0.80730000  0.94150000  0.45220000  1.0 0.1303002555
H  H27  1  0.19270000  0.44150000  0.95220000  1.0 0.1303002555
H  H28  1  0.80730000  0.44150000  0.04780000  1.0 0.1303002555
H  H29  1  0.31010000  0.80570000  0.58770000  1.0 0.1303002555
H  H30  1  0.68990000  0.80570000  0.41230000  1.0 0.1303002555
H  H31  1  0.31010000  0.30570000  0.91230000  1.0 0.1303002555
H  H32  1  0.68990000  0.30570000  0.08770000  1.0 0.1303002555
H  H33  1  0.50530000  0.62560000  0.69180000  1.0 0.1303002555
H  H34  1  0.49470000  0.62560000  0.30820000  1.0 0.1303002555
H  H35  1  0.50530000  0.12560000  0.80820000  1.0 0.1303002555
H  H36  1  0.49470000  0.12560000  0.19180000  1.0 0.1303002555
H  H37  1  0.62840000  0.48890000  0.64980000  1.0 0.1400207295
H  H38  1  0.37160000  0.48890000  0.35020000  1.0 0.1400207295
H  H39  1  0.62840000  0.98890000  0.85020000  1.0 0.1400207295
H  H40  1  0.37160000  0.98890000  0.14980000  1.0 0.1400207295
H  H41  1  0.31750000  0.47120000  0.54880000  1.0 0.1212545004
H  H42  1  0.68250000  0.47120000  0.45120000  1.0 0.1212545004
H  H43  1  0.31750000  0.97120000  0.95120000  1.0 0.1212545004
H  H44  1  0.68250000  0.97120000  0.04880000  1.0 0.1212545004
H  H45  1  0.20090000  0.60790000  0.59140000  1.0 0.1303002555
H  H46  1  0.79910000  0.60790000  0.40860000  1.0 0.1303002555
H  H47  1  0.20090000  0.10790000  0.90860000  1.0 0.1303002555
H  H48  1  0.79910000  0.10790000  0.09140000  1.0 0.1303002555
H  H49  1  0.97160000  0.85010000  0.02920000  1.0 0.3777183159
H  H50  1  0.02840000  0.85010000  0.97080000  1.0 0.3777183159
H  H51  1  0.97160000  0.35010000  0.47080000  1.0 0.3777183159
H  H52  1  0.02840000  0.35010000  0.52920000  1.0 0.3777183159
C  C1  1  0.25610000  0.69380000  0.88310000  1.0 0.3112371652
C  C2  1  0.74390000  0.69380000  0.11690000  1.0 0.3112371652
C  C3  1  0.25610000  0.19380000  0.61690000  1.0 0.3112371652
C  C4  1  0.74390000  0.19380000  0.38310000  1.0 0.3112371652
C  C5  1  0.26060000  0.69850000  0.82850000  1.0 0.0471030264
C  C6  1  0.73940000  0.69850000  0.17150000  1.0 0.0471030264
C  C7  1  0.26060000  0.19850000  0.67150000  1.0 0.0471030264
C  C8  1  0.73940000  0.19850000  0.32850000  1.0 0.0471030264
C  C9  1  0.22810000  0.60800000  0.80300000  1.0 -0.1099887998
C  C10  1  0.77190000  0.60800000  0.19700000  1.0 -0.1099887998
C  C11  1  0.22810000  0.10800000  0.69700000  1.0 -0.1099887998
C  C12  1  0.77190000  0.10800000  0.30300000  1.0 -0.1099887998
C  C13  1  0.22600000  0.60980000  0.75030000  1.0 -0.1541092233
C  C14  1  0.77400000  0.60980000  0.24970000  1.0 -0.1541092233
C  C15  1  0.22600000  0.10980000  0.74970000  1.0 -0.1541092233
C  C16  1  0.77400000  0.10980000  0.25030000  1.0 -0.1541092233
C  C17  1  0.26250000  0.70780000  0.72630000  1.0 0.1737044914
C  C18  1  0.73750000  0.70780000  0.27370000  1.0 0.1737044914
C  C19  1  0.26250000  0.20780000  0.77370000  1.0 0.1737044914
C  C20  1  0.73750000  0.20780000  0.22630000  1.0 0.1737044914
C  C21  1  0.29410000  0.79990000  0.75250000  1.0 -0.1601016483
C  C22  1  0.70590000  0.79990000  0.24750000  1.0 -0.1601016483
C  C23  1  0.29410000  0.29990000  0.74750000  1.0 -0.1601016483
C  C24  1  0.70590000  0.29990000  0.25250000  1.0 -0.1601016483
C  C25  1  0.29950000  0.79610000  0.80390000  1.0 -0.0897973539
C  C26  1  0.70050000  0.79610000  0.19610000  1.0 -0.0897973539
C  C27  1  0.29950000  0.29610000  0.69610000  1.0 -0.0897973539
C  C28  1  0.70050000  0.29610000  0.30390000  1.0 -0.0897973539
C  C29  1  0.18410000  0.78530000  0.64660000  1.0 0.1737044914
C  C30  1  0.81590000  0.78530000  0.35340000  1.0 0.1737044914
C  C31  1  0.18410000  0.28530000  0.85340000  1.0 0.1737044914
C  C32  1  0.81590000  0.28530000  0.14660000  1.0 0.1737044914
C  C33  1  0.05730000  0.82250000  0.66666667  1.0 -0.1719219298
C  C34  1  0.94270000  0.82250000  0.33333333  1.0 -0.1719219298
C  C35  1  0.05730000  0.32250000  0.83333000  1.0 -0.1719219298
C  C36  1  0.94270000  0.32250000  0.16667000  1.0 -0.1719219298
C  C37  1  0.97800000  0.89760000  0.64250000  1.0 -0.0897973539
C  C38  1  0.02200000  0.89760000  0.35750000  1.0 -0.0897973539
C  C39  1  0.97800000  0.39760000  0.85750000  1.0 -0.0897973539
C  C40  1  0.02200000  0.39760000  0.14250000  1.0 -0.0897973539
C  C41  1  0.02920000  0.94110000  0.59390000  1.0 -0.0131718649
C  C42  1  0.97080000  0.94110000  0.40610000  1.0 -0.0131718649
C  C43  1  0.02920000  0.44110000  0.90610000  1.0 -0.0131718649
C  C44  1  0.97080000  0.44110000  0.09390000  1.0 -0.0131718649
C  C45  1  0.94620000  0.01610000  0.56990000  1.0 0.2745704516
C  C46  1  0.05380000  0.01610000  0.43010000  1.0 0.2745704516
C  C47  1  0.94620000  0.51610000  0.93010000  1.0 0.2745704516
C  C48  1  0.05380000  0.51610000  0.06990000  1.0 0.2745704516
C  C49  1  0.15540000  0.90960000  0.57650000  1.0 -0.0769362473
C  C50  1  0.84460000  0.90960000  0.42350000  1.0 -0.0769362473
C  C51  1  0.15540000  0.40960000  0.92350000  1.0 -0.0769362473
C  C52  1  0.84460000  0.40960000  0.07650000  1.0 -0.0769362473
C  C53  1  0.22680000  0.83090000  0.60160000  1.0 -0.1824241714
C  C54  1  0.77320000  0.83090000  0.39840000  1.0 -0.1824241714
C  C55  1  0.22680000  0.33090000  0.89840000  1.0 -0.1824241714
C  C56  1  0.77320000  0.33090000  0.10160000  1.0 -0.1824241714
C  C57  1  0.34200000  0.62460000  0.64700000  1.0 0.1763586267
C  C58  1  0.65800000  0.62460000  0.35300000  1.0 0.1763586267
C  C59  1  0.34200000  0.12460000  0.85300000  1.0 0.1763586267
C  C60  1  0.65800000  0.12460000  0.14700000  1.0 0.1763586267
C  C61  1  0.46730000  0.59340000  0.66330000  1.0 -0.1601016483
C  C62  1  0.53270000  0.59340000  0.33670000  1.0 -0.1601016483
C  C63  1  0.46730000  0.09340000  0.83670000  1.0 -0.1601016483
C  C64  1  0.53270000  0.09340000  0.16330000  1.0 -0.1601016483
C  C65  1  0.54200000  0.51200000  0.63760000  1.0 -0.0897973539
C  C66  1  0.45800000  0.51200000  0.36240000  1.0 -0.0897973539
C  C67  1  0.54200000  0.01200000  0.86240000  1.0 -0.0897973539
C  C68  1  0.45800000  0.01200000  0.13760000  1.0 -0.0897973539
C  C69  1  0.49060000  0.46700000  0.59570000  1.0 0.0444848477
C  C70  1  0.50940000  0.46700000  0.40430000  1.0 0.0471030264
C  C71  1  0.49060000  0.96700000  0.90430000  1.0 0.0444848477
C  C72  1  0.50940000  0.96700000  0.09570000  1.0 0.0471030264
C  C73  1  0.57040000  0.38310000  0.56660000  1.0 0.3375348761
C  C74  1  0.42960000  0.38310000  0.43340000  1.0 0.3375348761
C  C75  1  0.57040000  0.88310000  0.93340000  1.0 0.3375348761
C  C76  1  0.42960000  0.88310000  0.06660000  1.0 0.3375348761
C  C77  1  0.35600000  0.50220000  0.57750000  1.0 -0.1099887998
C  C78  1  0.64400000  0.50220000  0.42250000  1.0 -0.1099887998
C  C79  1  0.35600000  0.00220000  0.92250000  1.0 -0.1099887998
C  C80  1  0.64400000  0.00220000  0.07750000  1.0 -0.1099887998
C  C81  1  0.28630000  0.58190000  0.60330000  1.0 -0.1601016483
C  C82  1  0.71370000  0.58190000  0.39670000  1.0 -0.1601016483
C  C83  1  0.28630000  0.08190000  0.89670000  1.0 -0.1601016483
C  C84  1  0.71370000  0.08190000  0.10330000  1.0 -0.1601016483
N  N1  1  0.25810000  0.69120000  0.92450000  1.0 -0.3635101454
N  N2  1  0.74190000  0.69120000  0.07550000  1.0 -0.3635101454
N  N3  1  0.25810000  0.19120000  0.57550000  1.0 -0.3635101454
N  N4  1  0.74190000  0.19120000  0.42450000  1.0 -0.3635101454
N  N5  1  0.26670000  0.70440000  0.67260000  1.0 -0.1250528083
N  N6  1  0.73330000  0.70440000  0.32740000  1.0 -0.1250528083
N  N7  1  0.26670000  0.20440000  0.82740000  1.0 -0.1250528083
N  N8  1  0.73330000  0.20440000  0.17260000  1.0 -0.1250528083
N  N9  1  0.87860000  0.08100000  0.54650000  1.0 -0.3959855796
N  N10  1  0.12140000  0.08100000  0.45350000  1.0 -0.3959855796
N  N11  1  0.87860000  0.58100000  0.95350000  1.0 -0.3959855796
N  N12  1  0.12140000  0.58100000  0.04650000  1.0 -0.3959855796
N  N13  1  0.63590000  0.32610000  0.54530000  1.0 -0.3393577473
N  N14  1  0.36410000  0.32610000  0.45470000  1.0 -0.3393577473
N  N15  1  0.63590000  0.82610000  0.95470000  1.0 -0.3393577473
N  N16  1  0.36410000  0.82610000  0.04530000  1.0 -0.3393577473
O  O1  1  0.00000000  0.83390000  0.00000000  1.0 -0.7275405661
O  O2  1  0.00000000  0.33390000  0.50000000  1.0 -0.7275405661
F  F1  1  0.84670000  0.39120000  0.64440000  1.0 -0.4735108004
F  F2  1  0.04170000  0.39190000  0.60040000  1.0 -0.4621414082
F  F3  1  0.91600000  0.54240000  0.60540000  1.0 -0.4735108004
F  F4  1  0.03140000  0.48100000  0.67140000  1.0 -0.4777867333
F  F5  1  0.15330000  0.39120000  0.35560000  1.0 -0.4735108004
F  F6  1  0.95830000  0.39190000  0.39960000  1.0 -0.4621414082
F  F7  1  0.08400000  0.54240000  0.39460000  1.0 -0.4735108004
F  F8  1  0.96860000  0.48100000  0.32860000  1.0 -0.4777867333
F  F9  1  0.84670000  0.89120000  0.85560000  1.0 -0.4735108004
F  F10  1  0.04170000  0.89190000  0.89960000  1.0 -0.4621414082
F  F11  1  0.91600000  0.04240000  0.89460000  1.0 -0.4735108004
F  F12  1  0.03140000  0.98100000  0.82860000  1.0 -0.4777867333
F  F13  1  0.15330000  0.89120000  0.14440000  1.0 -0.4735108004
F  F14  1  0.95830000  0.89190000  0.10040000  1.0 -0.4621414082
F  F15  1  0.08400000  0.04240000  0.10540000  1.0 -0.4735108004
F  F16  1  0.96860000  0.98100000  0.17140000  1.0 -0.4777867333
