# DDEC6 charges by PACMAN v1.1 (https://github.com/mtap-research/PACMAN-charge/)
data_OKIKAV_ion_pacman
_symmetry_space_group_name_H-M   'P 1'
_cell_length_a   9.87040000
_cell_length_b   12.13810000
_cell_length_c   26.39000000
_cell_angle_alpha   90.00000000
_cell_angle_beta   90.00000000
_cell_angle_gamma   90.00000000
_symmetry_Int_Tables_number   1
_chemical_formula_structural   Ag2H26C42N8Cl2O9
_chemical_formula_sum   'Ag4 H52 C84 N16 Cl4 O18'
_cell_volume   3161.73054011
_cell_formula_units_Z   2
loop_
 _symmetry_equiv_pos_site_id
 _symmetry_equiv_pos_as_xyz
  1  'x, y, z'
loop_
 _atom_site_type_symbol
 _atom_site_label
 _atom_site_symmetry_multiplicity
 _atom_site_fract_x
 _atom_site_fract_y
 _atom_site_fract_z
 _atom_site_occupancy
 _atom_site_charge
Ag  Ag1  1  0.28952000  0.99740000  0.01064000  1.0 0.5341875094
Ag  Ag2  1  0.71048000  0.99740000  0.98936000  1.0 0.5341875094
Ag  Ag3  1  0.28952000  0.49740000  0.48936000  1.0 0.5341875094
Ag  Ag4  1  0.71048000  0.49740000  0.51064000  1.0 0.5341875094
H  H1  1  0.19190000  0.86060000  0.82450000  1.0 0.1218901687
H  H2  1  0.80810000  0.86060000  0.17550000  1.0 0.1218901687
H  H3  1  0.19190000  0.36060000  0.67550000  1.0 0.1218901687
H  H4  1  0.80810000  0.36060000  0.32450000  1.0 0.1218901687
H  H5  1  0.19000000  0.85710000  0.73710000  1.0 0.1218901687
H  H6  1  0.81000000  0.85710000  0.26290000  1.0 0.1218901687
H  H7  1  0.19000000  0.35710000  0.76290000  1.0 0.1218901687
H  H8  1  0.81000000  0.35710000  0.23710000  1.0 0.1218901687
H  H9  1  0.28620000  0.17320000  0.73210000  1.0 0.1312370232
H  H10  1  0.71380000  0.17320000  0.26790000  1.0 0.1312370232
H  H11  1  0.28620000  0.67320000  0.76790000  1.0 0.1312370232
H  H12  1  0.71380000  0.67320000  0.23210000  1.0 0.1312370232
H  H13  1  0.28150000  0.17980000  0.82030000  1.0 0.1119927975
H  H14  1  0.71850000  0.17980000  0.17970000  1.0 0.1119927975
H  H15  1  0.28150000  0.67980000  0.67970000  1.0 0.1119927975
H  H16  1  0.71850000  0.67980000  0.32030000  1.0 0.1119927975
H  H17  1  0.46610000  0.93500000  0.69570000  1.0 0.1392061698
H  H18  1  0.53390000  0.93500000  0.30430000  1.0 0.1392061698
H  H19  1  0.46610000  0.43500000  0.80430000  1.0 0.1392061698
H  H20  1  0.53390000  0.43500000  0.19570000  1.0 0.1392061698
H  H21  1  0.59110000  0.80230000  0.65960000  1.0 0.1312370232
H  H22  1  0.40890000  0.80230000  0.34040000  1.0 0.1312370232
H  H23  1  0.59110000  0.30230000  0.84040000  1.0 0.1312370232
H  H24  1  0.40890000  0.30230000  0.15960000  1.0 0.1312370232
H  H25  1  0.31060000  0.78220000  0.54610000  1.0 0.1312370232
H  H26  1  0.68940000  0.78220000  0.45390000  1.0 0.1312370232
H  H27  1  0.31060000  0.28220000  0.95390000  1.0 0.1312370232
H  H28  1  0.68940000  0.28220000  0.04610000  1.0 0.1312370232
H  H29  1  0.18620000  0.91380000  0.58870000  1.0 0.1312370232
H  H30  1  0.81380000  0.91380000  0.41130000  1.0 0.1312370232
H  H31  1  0.18620000  0.41380000  0.91130000  1.0 0.1312370232
H  H32  1  0.81380000  0.41380000  0.08870000  1.0 0.1312370232
H  H33  1  0.29180000  0.11740000  0.58830000  1.0 0.1312370232
H  H34  1  0.70820000  0.11740000  0.41170000  1.0 0.1312370232
H  H35  1  0.29180000  0.61740000  0.91170000  1.0 0.1312370232
H  H36  1  0.70820000  0.61740000  0.08830000  1.0 0.1312370232
H  H37  1  0.17010000  0.24980000  0.54710000  1.0 0.1218901687
H  H38  1  0.82990000  0.24980000  0.45290000  1.0 0.1218901687
H  H39  1  0.17010000  0.74980000  0.95290000  1.0 0.1218901687
H  H40  1  0.82990000  0.74980000  0.04710000  1.0 0.1218901687
H  H41  1  0.87960000  0.23940000  0.65190000  1.0 0.1392061698
H  H42  1  0.12040000  0.23940000  0.34810000  1.0 0.1392061698
H  H43  1  0.87960000  0.73940000  0.84810000  1.0 0.1392061698
H  H44  1  0.12040000  0.73940000  0.15190000  1.0 0.1392061698
H  H45  1  0.99910000  0.09620000  0.69430000  1.0 0.1312370232
H  H46  1  0.00090000  0.09620000  0.30570000  1.0 0.1312370232
H  H47  1  0.99910000  0.59620000  0.80570000  1.0 0.1312370232
H  H48  1  0.00090000  0.59620000  0.19430000  1.0 0.1312370232
H  H49  1  0.51060000  0.84180000  0.02940000  1.0 0.3968161631
H  H50  1  0.48940000  0.84180000  0.97060000  1.0 0.3968161631
H  H51  1  0.51060000  0.34180000  0.47060000  1.0 0.3968161631
H  H52  1  0.48940000  0.34180000  0.52940000  1.0 0.3968161631
C  C1  1  0.24760000  0.01940000  0.88580000  1.0 0.3140708047
C  C2  1  0.75240000  0.01940000  0.11420000  1.0 0.3140708047
C  C3  1  0.24760000  0.51940000  0.61420000  1.0 0.3140708047
C  C4  1  0.75240000  0.51940000  0.38580000  1.0 0.3140708047
C  C5  1  0.23870000  0.01950000  0.83050000  1.0 0.0456916082
C  C6  1  0.76130000  0.01950000  0.16950000  1.0 0.0456916082
C  C7  1  0.23870000  0.51950000  0.66950000  1.0 0.0456916082
C  C8  1  0.76130000  0.51950000  0.33050000  1.0 0.0456916082
C  C9  1  0.21030000  0.92430000  0.80620000  1.0 -0.096415953
C  C10  1  0.78970000  0.92430000  0.19380000  1.0 -0.096415953
C  C11  1  0.21030000  0.42430000  0.69380000  1.0 -0.096415953
C  C12  1  0.78970000  0.42430000  0.30620000  1.0 -0.096415953
C  C13  1  0.20880000  0.92250000  0.75400000  1.0 -0.1693942559
C  C14  1  0.79120000  0.92250000  0.24600000  1.0 -0.1693942559
C  C15  1  0.20880000  0.42250000  0.74600000  1.0 -0.1693942559
C  C16  1  0.79120000  0.42250000  0.25400000  1.0 -0.1693942559
C  C17  1  0.23490000  0.01640000  0.72690000  1.0 0.1619114417
C  C18  1  0.76510000  0.01640000  0.27310000  1.0 0.1619114417
C  C19  1  0.23490000  0.51640000  0.77310000  1.0 0.1619114417
C  C20  1  0.76510000  0.51640000  0.22690000  1.0 0.1619114417
C  C21  1  0.26500000  0.11040000  0.75070000  1.0 -0.1546062541
C  C22  1  0.73500000  0.11040000  0.24930000  1.0 -0.1546062541
C  C23  1  0.26500000  0.61040000  0.74930000  1.0 -0.1546062541
C  C24  1  0.73500000  0.61040000  0.25070000  1.0 -0.1546062541
C  C25  1  0.26450000  0.11400000  0.80350000  1.0 -0.1193178606
C  C26  1  0.73550000  0.11400000  0.19650000  1.0 -0.1193178606
C  C27  1  0.26450000  0.61400000  0.69650000  1.0 -0.1193178606
C  C28  1  0.73550000  0.61400000  0.30350000  1.0 -0.1193178606
C  C29  1  0.31490000  0.93440000  0.64620000  1.0 0.1619114417
C  C30  1  0.68510000  0.93440000  0.35380000  1.0 0.1619114417
C  C31  1  0.31490000  0.43440000  0.85380000  1.0 0.1619114417
C  C32  1  0.68510000  0.43440000  0.14620000  1.0 0.1619114417
C  C33  1  0.43560000  0.90210000  0.66600000  1.0 -0.1442379107
C  C34  1  0.56440000  0.90210000  0.33400000  1.0 -0.1442379107
C  C35  1  0.43560000  0.40210000  0.83400000  1.0 -0.1442379107
C  C36  1  0.56440000  0.40210000  0.16600000  1.0 -0.1442379107
C  C37  1  0.51100000  0.82540000  0.64430000  1.0 -0.0915742528
C  C38  1  0.48900000  0.82540000  0.35570000  1.0 -0.0915742528
C  C39  1  0.51100000  0.32540000  0.85570000  1.0 -0.0915742528
C  C40  1  0.48900000  0.32540000  0.14430000  1.0 -0.0915742528
C  C41  1  0.46700000  0.77680000  0.59570000  1.0 -0.0096428648
C  C42  1  0.53300000  0.77680000  0.40430000  1.0 -0.0096428648
C  C43  1  0.46700000  0.27680000  0.90430000  1.0 -0.0096428648
C  C44  1  0.53300000  0.27680000  0.09570000  1.0 -0.0096428648
C  C45  1  0.54810000  0.70120000  0.57020000  1.0 0.2790018904
C  C46  1  0.45190000  0.70120000  0.42980000  1.0 0.2790018904
C  C47  1  0.54810000  0.20120000  0.92980000  1.0 0.2790018904
C  C48  1  0.45190000  0.20120000  0.07020000  1.0 0.2790018904
C  C49  1  0.34320000  0.81170000  0.57620000  1.0 -0.0915742528
C  C50  1  0.65680000  0.81170000  0.42380000  1.0 -0.0915742528
C  C51  1  0.34320000  0.31170000  0.92380000  1.0 -0.0915742528
C  C52  1  0.65680000  0.31170000  0.07620000  1.0 -0.0915742528
C  C53  1  0.26880000  0.89050000  0.60190000  1.0 -0.1765476328
C  C54  1  0.73120000  0.89050000  0.39810000  1.0 -0.1693942559
C  C55  1  0.26880000  0.39050000  0.89810000  1.0 -0.1765476328
C  C56  1  0.73120000  0.39050000  0.10190000  1.0 -0.1693942559
C  C57  1  0.15860000  0.09490000  0.64630000  1.0 0.1858884829
C  C58  1  0.84140000  0.09490000  0.35370000  1.0 0.1858884829
C  C59  1  0.15860000  0.59490000  0.85370000  1.0 0.1858884829
C  C60  1  0.84140000  0.59490000  0.14630000  1.0 0.1858884829
C  C61  1  0.20910000  0.14080000  0.60130000  1.0 -0.1560103421
C  C62  1  0.79090000  0.14080000  0.39870000  1.0 -0.1560103421
C  C63  1  0.20910000  0.64080000  0.89870000  1.0 -0.1560103421
C  C64  1  0.79090000  0.64080000  0.10130000  1.0 -0.1560103421
C  C65  1  0.13670000  0.21940000  0.57700000  1.0 -0.1130194621
C  C66  1  0.86330000  0.21940000  0.42300000  1.0 -0.1130194621
C  C67  1  0.13670000  0.71940000  0.92300000  1.0 -0.1130194621
C  C68  1  0.86330000  0.71940000  0.07700000  1.0 -0.1130194621
C  C69  1  0.01370000  0.25470000  0.59610000  1.0 0.0258873959
C  C70  1  0.98630000  0.25470000  0.40390000  1.0 0.0258873959
C  C71  1  0.01370000  0.75470000  0.90390000  1.0 0.0258873959
C  C72  1  0.98630000  0.75470000  0.09610000  1.0 0.0258873959
C  C73  1  0.96140000  0.21330000  0.63920000  1.0 -0.096415953
C  C74  1  0.03860000  0.21330000  0.36080000  1.0 -0.096415953
C  C75  1  0.96140000  0.71330000  0.86080000  1.0 -0.096415953
C  C76  1  0.03860000  0.71330000  0.13920000  1.0 -0.096415953
C  C77  1  0.03450000  0.12830000  0.66520000  1.0 -0.1765476328
C  C78  1  0.96550000  0.12830000  0.33480000  1.0 -0.1765476328
C  C79  1  0.03450000  0.62830000  0.83480000  1.0 -0.1765476328
C  C80  1  0.96550000  0.62830000  0.16520000  1.0 -0.1765476328
C  C81  1  0.92920000  0.33360000  0.56630000  1.0 0.3385009679
C  C82  1  0.07080000  0.33360000  0.43370000  1.0 0.3385009679
C  C83  1  0.92920000  0.83360000  0.93370000  1.0 0.3385009679
C  C84  1  0.07080000  0.83360000  0.06630000  1.0 0.3385009679
N  N1  1  0.24760000  0.02420000  0.92790000  1.0 -0.3703092945
N  N2  1  0.75240000  0.02420000  0.07210000  1.0 -0.3703092945
N  N3  1  0.24760000  0.52420000  0.57210000  1.0 -0.3703092945
N  N4  1  0.75240000  0.52420000  0.42790000  1.0 -0.3703092945
N  N5  1  0.61200000  0.63780000  0.54940000  1.0 -0.3763386917
N  N6  1  0.38800000  0.63780000  0.45060000  1.0 -0.3763386917
N  N7  1  0.61200000  0.13780000  0.95060000  1.0 -0.3763386917
N  N8  1  0.38800000  0.13780000  0.04940000  1.0 -0.3763386917
N  N9  1  0.86950000  0.39450000  0.54610000  1.0 -0.3640126449
N  N10  1  0.13050000  0.39450000  0.45390000  1.0 -0.3640126449
N  N11  1  0.86950000  0.89450000  0.95390000  1.0 -0.3640126449
N  N12  1  0.13050000  0.89450000  0.04610000  1.0 -0.3640126449
N  N13  1  0.23240000  0.01350000  0.67230000  1.0 -0.1560103421
N  N14  1  0.76760000  0.01350000  0.32770000  1.0 -0.1560103421
N  N15  1  0.23240000  0.51350000  0.82770000  1.0 -0.1560103421
N  N16  1  0.76760000  0.51350000  0.17230000  1.0 -0.1560103421
Cl  Cl1  1  0.46150000  0.27720000  0.36290000  1.0 1.2740145313
Cl  Cl2  1  0.53850000  0.27720000  0.63710000  1.0 1.2740145313
Cl  Cl3  1  0.46150000  0.77720000  0.13710000  1.0 1.2740145313
Cl  Cl4  1  0.53850000  0.77720000  0.86290000  1.0 1.2740145313
O  O1  1  0.50000000  0.88910000  0.00000000  1.0 -0.7643571508
O  O2  1  0.50000000  0.38910000  0.50000000  1.0 -0.7643571508
O  O3  1  0.33610000  0.33250000  0.35580000  1.0 -0.4891800594
O  O4  1  0.52700000  0.26100000  0.31400000  1.0 -0.5120357287
O  O5  1  0.43800000  0.16970000  0.38480000  1.0 -0.5008304131
O  O6  1  0.55100000  0.33950000  0.39420000  1.0 -0.5187563312
O  O7  1  0.66390000  0.33250000  0.64420000  1.0 -0.4891800594
O  O8  1  0.47300000  0.26100000  0.68600000  1.0 -0.5120357287
O  O9  1  0.56200000  0.16970000  0.61520000  1.0 -0.5008304131
O  O10  1  0.44900000  0.33950000  0.60580000  1.0 -0.5187563312
O  O11  1  0.33610000  0.83250000  0.14420000  1.0 -0.4891800594
O  O12  1  0.52700000  0.76100000  0.18600000  1.0 -0.5120357287
O  O13  1  0.43800000  0.66970000  0.11520000  1.0 -0.5008304131
O  O14  1  0.55100000  0.83950000  0.10580000  1.0 -0.5187563312
O  O15  1  0.66390000  0.83250000  0.85580000  1.0 -0.4891800594
O  O16  1  0.47300000  0.76100000  0.81400000  1.0 -0.5120357287
O  O17  1  0.56200000  0.66970000  0.88480000  1.0 -0.5008304131
O  O18  1  0.44900000  0.83950000  0.89420000  1.0 -0.5187563312
