# DDEC6 charges by PACMAN v1.1 (https://github.com/mtap-research/PACMAN-charge/)
data_OKIQEG_ion_pacman
_symmetry_space_group_name_H-M   'P 1'
_cell_length_a   14.95890000
_cell_length_b   14.95890000
_cell_length_c   14.41100000
_cell_angle_alpha   67.80270000
_cell_angle_beta   112.19700000
_cell_angle_gamma   78.57340000
_symmetry_Int_Tables_number   1
_chemical_formula_structural   Cd3H31C41(N4O9)2
_chemical_formula_sum   'Cd6 H62 C82 N16 O36'
_cell_volume   2536.57609288
_cell_formula_units_Z   2
loop_
 _symmetry_equiv_pos_site_id
 _symmetry_equiv_pos_as_xyz
  1  'x, y, z'
loop_
 _atom_site_type_symbol
 _atom_site_label
 _atom_site_symmetry_multiplicity
 _atom_site_fract_x
 _atom_site_fract_y
 _atom_site_fract_z
 _atom_site_occupancy
 _atom_site_charge
Cd  Cd1  1  0.40435000  0.28937000  0.00358000  1.0 0.9834615726
Cd  Cd2  1  0.28937000  0.40435000  0.49642000  1.0 0.9834615726
Cd  Cd3  1  0.59565000  0.71063000  0.99642000  1.0 0.9834615726
Cd  Cd4  1  0.71063000  0.59565000  0.50358000  1.0 0.9834615726
Cd  Cd5  1  0.50000000  0.50000000  0.00000000  1.0 1.0880395609
Cd  Cd6  1  0.50000000  0.50000000  0.50000000  1.0 1.0880395609
H  H1  1  0.88300000  0.97840000  0.11380000  1.0 0.2712626595
H  H2  1  0.97840000  0.88300000  0.38620000  1.0 0.2712626595
H  H3  1  0.11700000  0.02160000  0.88620000  1.0 0.2712626595
H  H4  1  0.02160000  0.11700000  0.61380000  1.0 0.2712626595
H  H5  1  0.74790000  0.14990000  0.06330000  1.0 0.1184458013
H  H6  1  0.14990000  0.74790000  0.43670000  1.0 0.1184458013
H  H7  1  0.25210000  0.85010000  0.93670000  1.0 0.1184458013
H  H8  1  0.85010000  0.25210000  0.56330000  1.0 0.1184458013
H  H9  1  0.88070000  0.26230000  0.87660000  1.0 0.1265472749
H  H10  1  0.26230000  0.88070000  0.62340000  1.0 0.1265472749
H  H11  1  0.11930000  0.73770000  0.12340000  1.0 0.1265472749
H  H12  1  0.73770000  0.11930000  0.37660000  1.0 0.1265472749
H  H13  1  0.58830000  0.43610000  0.77880000  1.0 0.1398551341
H  H14  1  0.43610000  0.58830000  0.72120000  1.0 0.1398551341
H  H15  1  0.41170000  0.56390000  0.22120000  1.0 0.1398551341
H  H16  1  0.56390000  0.41170000  0.27880000  1.0 0.1398551341
H  H17  1  0.24860000  0.81620000  0.28710000  1.0 0.1265472749
H  H18  1  0.81620000  0.24860000  0.21290000  1.0 0.1265472749
H  H19  1  0.75140000  0.18380000  0.71290000  1.0 0.1265472749
H  H20  1  0.18380000  0.75140000  0.78710000  1.0 0.1265472749
H  H21  1  0.47230000  0.91230000  0.25140000  1.0 0.1265472749
H  H22  1  0.91230000  0.47230000  0.24860000  1.0 0.1265472749
H  H23  1  0.52770000  0.08770000  0.74860000  1.0 0.1265472749
H  H24  1  0.08770000  0.52770000  0.75140000  1.0 0.1265472749
H  H25  1  0.17600000  0.12060000  0.08070000  1.0 0.1265472749
H  H26  1  0.12060000  0.17600000  0.41930000  1.0 0.1265472749
H  H27  1  0.82400000  0.87940000  0.91930000  1.0 0.1265472749
H  H28  1  0.87940000  0.82400000  0.58070000  1.0 0.1265472749
H  H29  1  0.36440000  0.36440000  0.75000000  1.0 0.1025702197
H  H30  1  0.63560000  0.63560000  0.25000000  1.0 0.1025702197
H  H31  1  0.66650000  0.04810000  0.18780000  1.0 0.2598035771
H  H32  1  0.58850000  0.00390000  0.17830000  1.0 0.2712626595
H  H33  1  0.77430000  0.93030000  0.34740000  1.0 0.1184458013
H  H34  1  0.70960000  0.86060000  0.33650000  1.0 0.1398551341
H  H35  1  0.66560000  0.96120000  0.34280000  1.0 0.1398551341
H  H36  1  0.74950000  0.93830000  0.15460000  1.0 0.1064546693
H  H37  1  0.63530000  0.01750000  0.05330000  1.0 0.1398551341
H  H38  1  0.65630000  0.90110000  0.13380000  1.0 0.1398551341
H  H39  1  0.04810000  0.66650000  0.31220000  1.0 0.2598035771
H  H40  1  0.00390000  0.58850000  0.32170000  1.0 0.2712626595
H  H41  1  0.93030000  0.77430000  0.15260000  1.0 0.1184458013
H  H42  1  0.86060000  0.70960000  0.16350000  1.0 0.1398551341
H  H43  1  0.96120000  0.66560000  0.15720000  1.0 0.1398551341
H  H44  1  0.93830000  0.74950000  0.34540000  1.0 0.1064546693
H  H45  1  0.01750000  0.63530000  0.44670000  1.0 0.1398551341
H  H46  1  0.90110000  0.65630000  0.36620000  1.0 0.1398551341
H  H47  1  0.33350000  0.95190000  0.81220000  1.0 0.2598035771
H  H48  1  0.41150000  0.99610000  0.82170000  1.0 0.2712626595
H  H49  1  0.22570000  0.06970000  0.65260000  1.0 0.1184458013
H  H50  1  0.29040000  0.13940000  0.66350000  1.0 0.1398551341
H  H51  1  0.33440000  0.03880000  0.65720000  1.0 0.1398551341
H  H52  1  0.25050000  0.06170000  0.84540000  1.0 0.1064546693
H  H53  1  0.36470000  0.98250000  0.94670000  1.0 0.1398551341
H  H54  1  0.34370000  0.09890000  0.86620000  1.0 0.1398551341
H  H55  1  0.95190000  0.33350000  0.68780000  1.0 0.2598035771
H  H56  1  0.99610000  0.41150000  0.67830000  1.0 0.2712626595
H  H57  1  0.06970000  0.22570000  0.84740000  1.0 0.1184458013
H  H58  1  0.13940000  0.29040000  0.83650000  1.0 0.1398551341
H  H59  1  0.03880000  0.33440000  0.84280000  1.0 0.1398551341
H  H60  1  0.06170000  0.25050000  0.65460000  1.0 0.1064546693
H  H61  1  0.98250000  0.36470000  0.55330000  1.0 0.1398551341
H  H62  1  0.09890000  0.34370000  0.63380000  1.0 0.1398551341
C  C1  1  0.56410000  0.31030000  0.94700000  1.0 0.5479665834
C  C2  1  0.31030000  0.56410000  0.55300000  1.0 0.5479665834
C  C3  1  0.43590000  0.68970000  0.05300000  1.0 0.5479665834
C  C4  1  0.68970000  0.43590000  0.44700000  1.0 0.5479665834
C  C5  1  0.65560000  0.29540000  0.92700000  1.0 0.0025011662
C  C6  1  0.29540000  0.65560000  0.57300000  1.0 0.0025011662
C  C7  1  0.34440000  0.70460000  0.07300000  1.0 0.0025011662
C  C8  1  0.70460000  0.34440000  0.42700000  1.0 0.0025011662
C  C9  1  0.74410000  0.20310000  0.00000000  1.0 -0.1497322333
C  C10  1  0.20310000  0.74410000  0.50000000  1.0 -0.1497322333
C  C11  1  0.25590000  0.79690000  0.00000000  1.0 -0.1497322333
C  C12  1  0.79690000  0.25590000  0.50000000  1.0 -0.1497322333
C  C13  1  0.82800000  0.18960000  0.97940000  1.0 0.0168957326
C  C14  1  0.18960000  0.82800000  0.52060000  1.0 0.0168957326
C  C15  1  0.17200000  0.81040000  0.02060000  1.0 0.0168957326
C  C16  1  0.81040000  0.17200000  0.47940000  1.0 0.0168957326
C  C17  1  0.82390000  0.27010000  0.88920000  1.0 -0.1182608566
C  C18  1  0.27010000  0.82390000  0.61080000  1.0 -0.1182608566
C  C19  1  0.17610000  0.72990000  0.11080000  1.0 -0.1182608566
C  C20  1  0.72990000  0.17610000  0.38920000  1.0 -0.1182608566
C  C21  1  0.73520000  0.36300000  0.81690000  1.0 0.0025011662
C  C22  1  0.36300000  0.73520000  0.68310000  1.0 0.0025011662
C  C23  1  0.26480000  0.63700000  0.18310000  1.0 0.0025011662
C  C24  1  0.63700000  0.26480000  0.31690000  1.0 0.0025011662
C  C25  1  0.64960000  0.37540000  0.83150000  1.0 -0.1084289488
C  C26  1  0.37540000  0.64960000  0.66850000  1.0 -0.1084289488
C  C27  1  0.35040000  0.62460000  0.16850000  1.0 -0.1084289488
C  C28  1  0.62460000  0.35040000  0.33150000  1.0 -0.1084289488
C  C29  1  0.73150000  0.44850000  0.71350000  1.0 0.572257011
C  C30  1  0.44850000  0.73150000  0.78650000  1.0 0.572257011
C  C31  1  0.26850000  0.55150000  0.28650000  1.0 0.572257011
C  C32  1  0.55150000  0.26850000  0.21350000  1.0 0.572257011
C  C33  1  0.92170000  0.09150000  0.05710000  1.0 0.2598035771
C  C34  1  0.09150000  0.92170000  0.44290000  1.0 0.2598035771
C  C35  1  0.07830000  0.90850000  0.94290000  1.0 0.2598035771
C  C36  1  0.90850000  0.07830000  0.55710000  1.0 0.2598035771
C  C37  1  0.08420000  0.99520000  0.14310000  1.0 0.2832062084
C  C38  1  0.99520000  0.08420000  0.35690000  1.0 0.2832062084
C  C39  1  0.91580000  0.00480000  0.85690000  1.0 0.2832062084
C  C40  1  0.00480000  0.91580000  0.64310000  1.0 0.2832062084
C  C41  1  0.19480000  0.97320000  0.17540000  1.0 0.0270137976
C  C42  1  0.97320000  0.19480000  0.32460000  1.0 0.0270137976
C  C43  1  0.80520000  0.02680000  0.82460000  1.0 0.0270137976
C  C44  1  0.02680000  0.80520000  0.67540000  1.0 0.0270137976
C  C45  1  0.26860000  0.86960000  0.25420000  1.0 -0.1497322333
C  C46  1  0.86960000  0.26860000  0.24580000  1.0 -0.1497322333
C  C47  1  0.73140000  0.13040000  0.74580000  1.0 -0.1497322333
C  C48  1  0.13040000  0.73140000  0.75420000  1.0 -0.1497322333
C  C49  1  0.37300000  0.84860000  0.28150000  1.0 -0.0132629575
C  C50  1  0.84860000  0.37300000  0.21850000  1.0 -0.0132629575
C  C51  1  0.62700000  0.15140000  0.71850000  1.0 -0.0132629575
C  C52  1  0.15140000  0.62700000  0.78150000  1.0 -0.0132629575
C  C53  1  0.40230000  0.92810000  0.23230000  1.0 -0.125101344
C  C54  1  0.92810000  0.40230000  0.26770000  1.0 -0.1182608566
C  C55  1  0.59770000  0.07190000  0.76770000  1.0 -0.1182608566
C  C56  1  0.07190000  0.59770000  0.73230000  1.0 -0.125101344
C  C57  1  0.32950000  0.03030000  0.15540000  1.0 -0.0132629575
C  C58  1  0.03030000  0.32950000  0.34460000  1.0 -0.0132629575
C  C59  1  0.67050000  0.96970000  0.84460000  1.0 -0.0132629575
C  C60  1  0.96970000  0.67050000  0.65540000  1.0 -0.0132629575
C  C61  1  0.22570000  0.05170000  0.12980000  1.0 -0.1401858938
C  C62  1  0.05170000  0.22570000  0.37020000  1.0 -0.1401858938
C  C63  1  0.77430000  0.94830000  0.87020000  1.0 -0.1401858938
C  C64  1  0.94830000  0.77430000  0.62980000  1.0 -0.1401858938
C  C65  1  0.45510000  0.73830000  0.36790000  1.0 0.5899366576
C  C66  1  0.73830000  0.45510000  0.13210000  1.0 0.5899366576
C  C67  1  0.54490000  0.26170000  0.63210000  1.0 0.5899366576
C  C68  1  0.26170000  0.54490000  0.86790000  1.0 0.5899366576
C  C69  1  0.36200000  0.11560000  0.10340000  1.0 0.5479665834
C  C70  1  0.11560000  0.36200000  0.39660000  1.0 0.5479665834
C  C71  1  0.63800000  0.88440000  0.89660000  1.0 0.5479665834
C  C72  1  0.88440000  0.63800000  0.60340000  1.0 0.5479665834
C  C73  1  0.32420000  0.32420000  0.75000000  1.0 0.4759056407
C  C74  1  0.67580000  0.67580000  0.25000000  1.0 0.4759056407
C  C75  1  0.70480000  0.93120000  0.31470000  1.0 -0.199122974
C  C76  1  0.67600000  0.95900000  0.13090000  1.0 -0.2605302792
C  C77  1  0.93120000  0.70480000  0.18530000  1.0 -0.199122974
C  C78  1  0.95900000  0.67600000  0.36910000  1.0 -0.2605302792
C  C79  1  0.29520000  0.06880000  0.68530000  1.0 -0.199122974
C  C80  1  0.32400000  0.04100000  0.86910000  1.0 -0.2605302792
C  C81  1  0.06880000  0.29520000  0.81470000  1.0 -0.199122974
C  C82  1  0.04100000  0.32400000  0.63090000  1.0 -0.2605302792
N  N1  1  0.01570000  0.09790000  0.07200000  1.0 -0.4134524253
N  N2  1  0.09790000  0.01570000  0.42800000  1.0 -0.4134524253
N  N3  1  0.98430000  0.90210000  0.92800000  1.0 -0.4134524253
N  N4  1  0.90210000  0.98430000  0.57200000  1.0 -0.4134524253
N  N5  1  0.93260000  0.99860000  0.11200000  1.0 -0.1497322333
N  N6  1  0.99860000  0.93260000  0.38800000  1.0 -0.1497322333
N  N7  1  0.06740000  0.00140000  0.88800000  1.0 -0.1497322333
N  N8  1  0.00140000  0.06740000  0.61200000  1.0 -0.1497322333
N  N9  1  0.03950000  0.93310000  0.17010000  1.0 -0.2908137303
N  N10  1  0.93310000  0.03950000  0.32990000  1.0 -0.2908137303
N  N11  1  0.96050000  0.06690000  0.82990000  1.0 -0.2908137303
N  N12  1  0.06690000  0.96050000  0.67010000  1.0 -0.2908137303
N  N13  1  0.65760000  0.98740000  0.20290000  1.0 -0.0787651923
N  N14  1  0.98740000  0.65760000  0.29710000  1.0 -0.0787651923
N  N15  1  0.34240000  0.01260000  0.79710000  1.0 -0.0787651923
N  N16  1  0.01260000  0.34240000  0.70290000  1.0 -0.0787651923
O  O1  1  0.55649000  0.23029000  0.00710000  1.0 -0.5217487227
O  O2  1  0.23029000  0.55649000  0.49290000  1.0 -0.5217487227
O  O3  1  0.44351000  0.76971000  0.99290000  1.0 -0.5217487227
O  O4  1  0.76971000  0.44351000  0.50710000  1.0 -0.5217487227
O  O5  1  0.50118000  0.39920000  0.90780000  1.0 -0.5430476081
O  O6  1  0.39920000  0.50118000  0.59220000  1.0 -0.5430476081
O  O7  1  0.49882000  0.60080000  0.09220000  1.0 -0.5430476081
O  O8  1  0.60080000  0.49882000  0.40780000  1.0 -0.5430476081
O  O9  1  0.64339000  0.51525000  0.62660000  1.0 -0.5758926284
O  O10  1  0.51525000  0.64339000  0.87340000  1.0 -0.5758926284
O  O11  1  0.35661000  0.48475000  0.37340000  1.0 -0.5758926284
O  O12  1  0.48475000  0.35661000  0.12660000  1.0 -0.5758926284
O  O13  1  0.81480000  0.45420000  0.72130000  1.0 -0.5312280666
O  O14  1  0.45420000  0.81480000  0.77870000  1.0 -0.5312280666
O  O15  1  0.18520000  0.54580000  0.27870000  1.0 -0.5312280666
O  O16  1  0.54580000  0.18520000  0.22130000  1.0 -0.5312280666
O  O17  1  0.42175000  0.66965000  0.40020000  1.0 -0.5430476081
O  O18  1  0.66965000  0.42175000  0.09980000  1.0 -0.5430476081
O  O19  1  0.57825000  0.33035000  0.59980000  1.0 -0.5430476081
O  O20  1  0.33035000  0.57825000  0.90020000  1.0 -0.5430476081
O  O21  1  0.54874000  0.72634000  0.39850000  1.0 -0.545494349
O  O22  1  0.72634000  0.54874000  0.10150000  1.0 -0.545494349
O  O23  1  0.45126000  0.27366000  0.60150000  1.0 -0.545494349
O  O24  1  0.27366000  0.45126000  0.89850000  1.0 -0.545494349
O  O25  1  0.43919000  0.09159000  0.09190000  1.0 -0.5312280666
O  O26  1  0.09159000  0.43919000  0.40810000  1.0 -0.5312280666
O  O27  1  0.56081000  0.90841000  0.90810000  1.0 -0.5312280666
O  O28  1  0.90841000  0.56081000  0.59190000  1.0 -0.5312280666
O  O29  1  0.30637000  0.20877000  0.06620000  1.0 -0.5217487227
O  O30  1  0.20877000  0.30637000  0.43380000  1.0 -0.5217487227
O  O31  1  0.69363000  0.79123000  0.93380000  1.0 -0.5217487227
O  O32  1  0.79123000  0.69363000  0.56620000  1.0 -0.5217487227
O  O33  1  0.31750000  0.28210000  0.83900000  1.0 -0.4975079161
O  O34  1  0.28210000  0.31750000  0.66100000  1.0 -0.4975079161
O  O35  1  0.68250000  0.71790000  0.16100000  1.0 -0.4975079161
O  O36  1  0.71790000  0.68250000  0.33900000  1.0 -0.4975079161
