# DDEC6 charges by PACMAN v1.1 (https://github.com/mtap-research/PACMAN-charge/)
data_OKITAE_FSR_pacman
_symmetry_space_group_name_H-M   'P 1'
_cell_length_a   7.13010000
_cell_length_b   9.62270000
_cell_length_c   16.76250000
_cell_angle_alpha   90.00000000
_cell_angle_beta   90.00000000
_cell_angle_gamma   90.00000000
_symmetry_Int_Tables_number   1
_chemical_formula_structural   Cd2H4C2S(N2O3)2
_chemical_formula_sum   'Cd8 H16 C8 S4 N16 O24'
_cell_volume   1150.08875744
_cell_formula_units_Z   4
loop_
 _symmetry_equiv_pos_site_id
 _symmetry_equiv_pos_as_xyz
  1  'x, y, z'
loop_
 _atom_site_type_symbol
 _atom_site_label
 _atom_site_symmetry_multiplicity
 _atom_site_fract_x
 _atom_site_fract_y
 _atom_site_fract_z
 _atom_site_occupancy
 _atom_site_charge
Cd  Cd1  1  0.29290000  0.71741000  0.34303000  1.0 1.0143362015
Cd  Cd2  1  0.79290000  0.28259000  0.65697000  1.0 1.0143362015
Cd  Cd3  1  0.79290000  0.78259000  0.84303000  1.0 1.0143362015
Cd  Cd4  1  0.29290000  0.21741000  0.15697000  1.0 1.0143362015
Cd  Cd5  1  0.04240000  0.50048000  0.49976000  1.0 0.9619610041
Cd  Cd6  1  0.54240000  0.49952000  0.50024000  1.0 0.9619610041
Cd  Cd7  1  0.54240000  0.99952000  0.99976000  1.0 0.9619610041
Cd  Cd8  1  0.04240000  0.00048000  0.00024000  1.0 0.9619610041
H  H1  1  0.26700000  0.70200000  0.49800000  1.0 0.3753671079
H  H2  1  0.76700000  0.29800000  0.50200000  1.0 0.3753671079
H  H3  1  0.76700000  0.79800000  0.99800000  1.0 0.3753671079
H  H4  1  0.26700000  0.20200000  0.00200000  1.0 0.3753671079
H  H5  1  0.93800000  0.90080000  0.24180000  1.0 0.1606327772
H  H6  1  0.43800000  0.09920000  0.75820000  1.0 0.1606327772
H  H7  1  0.43800000  0.59920000  0.74180000  1.0 0.1606327772
H  H8  1  0.93800000  0.40080000  0.25820000  1.0 0.1606327772
H  H9  1  0.74870000  0.96470000  0.27200000  1.0 0.1606327772
H  H10  1  0.24870000  0.03530000  0.72800000  1.0 0.1606327772
H  H11  1  0.24870000  0.53530000  0.77200000  1.0 0.1606327772
H  H12  1  0.74870000  0.46470000  0.22800000  1.0 0.1606327772
H  H13  1  0.74680000  0.84760000  0.20700000  1.0 0.1606327772
H  H14  1  0.24680000  0.15240000  0.79300000  1.0 0.1606327772
H  H15  1  0.24680000  0.65240000  0.70700000  1.0 0.1606327772
H  H16  1  0.74680000  0.34760000  0.29300000  1.0 0.1606327772
C  C1  1  0.79900000  0.77410000  0.31760000  1.0 0.3705239623
C  C2  1  0.29900000  0.22590000  0.68240000  1.0 0.3705239623
C  C3  1  0.29900000  0.72590000  0.81760000  1.0 0.3705239623
C  C4  1  0.79900000  0.27410000  0.18240000  1.0 0.3705239623
C  C5  1  0.80910000  0.88130000  0.25400000  1.0 -0.5084418327
C  C6  1  0.30910000  0.11870000  0.74600000  1.0 -0.5084418327
C  C7  1  0.30910000  0.61870000  0.75400000  1.0 -0.5084418327
C  C8  1  0.80910000  0.38130000  0.24600000  1.0 -0.5084418327
S  S1  1  0.29480000  0.85679000  0.15172000  1.0 1.4038288921
S  S2  1  0.79480000  0.14321000  0.84828000  1.0 1.4038288921
S  S3  1  0.79480000  0.64321000  0.65172000  1.0 1.4038288921
S  S4  1  0.29480000  0.35679000  0.34828000  1.0 1.4038288921
N  N1  1  0.95350000  0.71790000  0.35090000  1.0 -0.2840443224
N  N2  1  0.45350000  0.28210000  0.64910000  1.0 -0.2840443224
N  N3  1  0.45350000  0.78210000  0.85090000  1.0 -0.2840443224
N  N4  1  0.95350000  0.21790000  0.14910000  1.0 -0.2840443224
N  N5  1  0.87570000  0.63190000  0.40790000  1.0 -0.0892111832
N  N6  1  0.37570000  0.36810000  0.59210000  1.0 -0.0892111832
N  N7  1  0.37570000  0.86810000  0.90790000  1.0 -0.0892111832
N  N8  1  0.87570000  0.13190000  0.09210000  1.0 -0.0892111832
N  N9  1  0.69370000  0.63110000  0.40420000  1.0 -0.0455445339
N  N10  1  0.19370000  0.36890000  0.59580000  1.0 -0.0455445339
N  N11  1  0.19370000  0.86890000  0.90420000  1.0 -0.0455445339
N  N12  1  0.69370000  0.13110000  0.09580000  1.0 -0.0455445339
N  N13  1  0.64200000  0.72150000  0.35050000  1.0 -0.2419135988
N  N14  1  0.14200000  0.27850000  0.64950000  1.0 -0.2419135988
N  N15  1  0.14200000  0.77850000  0.85050000  1.0 -0.2419135988
N  N16  1  0.64200000  0.22150000  0.14950000  1.0 -0.2419135988
O  O1  1  0.28300000  0.74070000  0.20840000  1.0 -0.5658081442
O  O2  1  0.78300000  0.25930000  0.79160000  1.0 -0.5658081442
O  O3  1  0.78300000  0.75930000  0.70840000  1.0 -0.5658081442
O  O4  1  0.28300000  0.24070000  0.29160000  1.0 -0.5658081442
O  O5  1  0.27600000  0.98890000  0.19520000  1.0 -0.631281522
O  O6  1  0.77600000  0.01110000  0.80480000  1.0 -0.631281522
O  O7  1  0.77600000  0.51110000  0.69520000  1.0 -0.631281522
O  O8  1  0.27600000  0.48890000  0.30480000  1.0 -0.631281522
O  O9  1  0.46440000  0.84820000  0.09920000  1.0 -0.6867126495
O  O10  1  0.96440000  0.15180000  0.90080000  1.0 -0.6867126495
O  O11  1  0.96440000  0.65180000  0.59920000  1.0 -0.6867126495
O  O12  1  0.46440000  0.34820000  0.40080000  1.0 -0.6867126495
O  O13  1  0.12920000  0.84750000  0.10290000  1.0 -0.620763433
O  O14  1  0.62920000  0.15250000  0.89710000  1.0 -0.620763433
O  O15  1  0.62920000  0.65250000  0.60290000  1.0 -0.620763433
O  O16  1  0.12920000  0.34750000  0.39710000  1.0 -0.620763433
O  O17  1  0.30300000  0.63450000  0.46970000  1.0 -0.8463329941
O  O18  1  0.80300000  0.36550000  0.53030000  1.0 -0.8463329941
O  O19  1  0.80300000  0.86550000  0.96970000  1.0 -0.8463329941
O  O20  1  0.30300000  0.13450000  0.03030000  1.0 -0.8463329941
O  O21  1  0.28300000  0.94860000  0.36310000  1.0 -0.0892111832
O  O22  1  0.78300000  0.05140000  0.63690000  1.0 -0.0838115931
O  O23  1  0.78300000  0.55140000  0.86310000  1.0 -0.0892111832
O  O24  1  0.28300000  0.44860000  0.13690000  1.0 -0.0892111832
