# DDEC6 charges by PACMAN v1.1 (https://github.com/mtap-research/PACMAN-charge/)
data_OLANAS_FSR_pacman
_symmetry_space_group_name_H-M   'P 1'
_cell_length_a   17.24120000
_cell_length_b   17.24120000
_cell_length_c   13.64600000
_cell_angle_alpha   84.70740000
_cell_angle_beta   95.29260000
_cell_angle_gamma   67.30270000
_symmetry_Int_Tables_number   1
_chemical_formula_structural   Na2Zn8Co2H36C92N12O61
_chemical_formula_sum   'Na2 Zn8 Co2 H36 C92 N12 O61'
_cell_volume   3690.04220806
_cell_formula_units_Z   1
loop_
 _symmetry_equiv_pos_site_id
 _symmetry_equiv_pos_as_xyz
  1  'x, y, z'
loop_
 _atom_site_type_symbol
 _atom_site_label
 _atom_site_symmetry_multiplicity
 _atom_site_fract_x
 _atom_site_fract_y
 _atom_site_fract_z
 _atom_site_occupancy
 _atom_site_charge
Na  Na1  1  0.90340000  0.09660000  0.01480000  1.0 1.0212377826
Na  Na2  1  0.09660000  0.90340000  0.98520000  1.0 1.0212377826
Zn  Zn1  1  0.48882000  0.88296000  0.39312000  1.0 1.1282212456
Zn  Zn2  1  0.88296000  0.48882000  0.60688000  1.0 1.138728551
Zn  Zn3  1  0.51118000  0.11704000  0.60688000  1.0 1.1282212456
Zn  Zn4  1  0.11704000  0.51118000  0.39312000  1.0 1.1282212456
Zn  Zn5  1  0.18388000  0.81612000  0.80128000  1.0 1.0571339051
Zn  Zn6  1  0.81612000  0.18388000  0.19872000  1.0 1.0571339051
Zn  Zn7  1  0.30786000  0.69214000  0.03083000  1.0 1.2606727401
Zn  Zn8  1  0.69214000  0.30786000  0.96917000  1.0 1.2606727401
Co  Co1  1  0.72133000  0.72133000  0.00000000  1.0 0.6159869353
Co  Co2  1  0.27867000  0.27867000  0.00000000  1.0 0.6139870206
H  H1  1  0.98560000  0.51880000  0.17170000  1.0 0.1472931648
H  H2  1  0.51880000  0.98560000  0.82830000  1.0 0.1472931648
H  H3  1  0.01440000  0.48120000  0.82830000  1.0 0.1472931648
H  H4  1  0.48120000  0.01440000  0.17170000  1.0 0.1472931648
H  H5  1  0.98640000  0.40900000  0.08070000  1.0 0.1226554955
H  H6  1  0.40900000  0.98640000  0.91930000  1.0 0.1226554955
H  H7  1  0.01360000  0.59100000  0.91930000  1.0 0.1226554955
H  H8  1  0.59100000  0.01360000  0.08070000  1.0 0.1226554955
H  H9  1  0.88060000  0.43600000  0.94780000  1.0 0.1658652583
H  H10  1  0.43600000  0.88060000  0.05220000  1.0 0.1658652583
H  H11  1  0.11940000  0.56400000  0.05220000  1.0 0.1658652583
H  H12  1  0.56400000  0.11940000  0.94780000  1.0 0.1658652583
H  H13  1  0.53360000  0.68160000  0.93520000  1.0 0.1400320934
H  H14  1  0.68160000  0.53360000  0.06480000  1.0 0.1400320934
H  H15  1  0.46640000  0.31840000  0.06480000  1.0 0.1400320934
H  H16  1  0.31840000  0.46640000  0.93520000  1.0 0.1400320934
H  H17  1  0.39680000  0.81220000  0.67890000  1.0 0.1400320934
H  H18  1  0.81220000  0.39680000  0.32110000  1.0 0.1400320934
H  H19  1  0.60320000  0.18780000  0.32110000  1.0 0.1400320934
H  H20  1  0.18780000  0.60320000  0.67890000  1.0 0.1400320934
H  H21  1  0.64980000  0.73680000  0.71510000  1.0 0.1472931648
H  H22  1  0.73680000  0.64980000  0.28490000  1.0 0.1472931648
H  H23  1  0.35020000  0.26320000  0.28490000  1.0 0.1472931648
H  H24  1  0.26320000  0.35020000  0.71510000  1.0 0.1472931648
H  H25  1  0.68410000  0.80630000  0.22800000  1.0 0.1400320934
H  H26  1  0.80630000  0.68410000  0.77200000  1.0 0.1400320934
H  H27  1  0.31590000  0.19370000  0.77200000  1.0 0.1400320934
H  H28  1  0.19370000  0.31590000  0.22800000  1.0 0.1400320934
H  H29  1  0.71560000  0.01920000  0.26770000  1.0 0.1255254964
H  H30  1  0.01920000  0.71560000  0.73230000  1.0 0.1255254964
H  H31  1  0.28440000  0.98080000  0.73230000  1.0 0.1255254964
H  H32  1  0.98080000  0.28440000  0.26770000  1.0 0.1255254964
H  H33  1  0.83640000  0.87360000  0.06960000  1.0 0.1400320934
H  H34  1  0.87360000  0.83640000  0.93040000  1.0 0.1400320934
H  H35  1  0.16360000  0.12640000  0.93040000  1.0 0.1400320934
H  H36  1  0.12640000  0.16360000  0.06960000  1.0 0.1400320934
C  C1  1  0.86230000  0.68550000  0.14050000  1.0 0.4243440623
C  C2  1  0.68550000  0.86230000  0.85950000  1.0 0.4243440623
C  C3  1  0.13770000  0.31450000  0.85950000  1.0 0.4243440623
C  C4  1  0.31450000  0.13770000  0.14050000  1.0 0.4243440623
C  C5  1  0.87880000  0.60800000  0.09110000  1.0 0.1094348426
C  C6  1  0.60800000  0.87880000  0.90890000  1.0 0.1094348426
C  C7  1  0.12120000  0.39200000  0.90890000  1.0 0.1094348426
C  C8  1  0.39200000  0.12120000  0.09110000  1.0 0.1094348426
C  C9  1  0.94340000  0.52860000  0.11870000  1.0 -0.1212837217
C  C10  1  0.52860000  0.94340000  0.88130000  1.0 -0.1212837217
C  C11  1  0.05660000  0.47140000  0.88130000  1.0 -0.1212837217
C  C12  1  0.47140000  0.05660000  0.11870000  1.0 -0.1212837217
C  C13  1  0.94340000  0.46300000  0.06400000  1.0 -0.0286683767
C  C14  1  0.46300000  0.94340000  0.93600000  1.0 -0.0286683767
C  C15  1  0.05660000  0.53700000  0.93600000  1.0 -0.0286683767
C  C16  1  0.53700000  0.05660000  0.06400000  1.0 -0.0286683767
C  C17  1  0.88000000  0.47820000  0.98580000  1.0 -0.1212837217
C  C18  1  0.47820000  0.88000000  0.01420000  1.0 -0.1212837217
C  C19  1  0.12000000  0.52180000  0.01420000  1.0 -0.1212837217
C  C20  1  0.52180000  0.12000000  0.98580000  1.0 -0.1212837217
C  C21  1  0.81602000  0.55822000  0.96630000  1.0 0.1094348426
C  C22  1  0.55822000  0.81602000  0.03370000  1.0 0.1094348426
C  C23  1  0.18398000  0.44178000  0.03370000  1.0 0.1094348426
C  C24  1  0.44178000  0.18398000  0.96630000  1.0 0.1094348426
C  C25  1  0.73820000  0.58580000  0.89280000  1.0 0.4122323612
C  C26  1  0.58580000  0.73820000  0.10720000  1.0 0.4122323612
C  C27  1  0.26180000  0.41420000  0.10720000  1.0 0.4122323612
C  C28  1  0.41420000  0.26180000  0.89280000  1.0 0.4122323612
C  C29  1  0.60410000  0.70250000  0.83590000  1.0 0.2114114197
C  C30  1  0.70250000  0.60410000  0.16410000  1.0 0.2114114197
C  C31  1  0.39590000  0.29750000  0.16410000  1.0 0.2114114197
C  C32  1  0.29750000  0.39590000  0.83590000  1.0 0.2114114197
C  C33  1  0.53090000  0.70750000  0.87140000  1.0 -0.1707261843
C  C34  1  0.70750000  0.53090000  0.12860000  1.0 -0.1707261843
C  C35  1  0.46910000  0.29250000  0.12860000  1.0 -0.1707261843
C  C36  1  0.29250000  0.46910000  0.87140000  1.0 -0.1707261843
C  C37  1  0.45370000  0.74990000  0.81420000  1.0 0.0014642807
C  C38  1  0.74990000  0.45370000  0.18580000  1.0 0.0014642807
C  C39  1  0.54630000  0.25010000  0.18580000  1.0 0.0014642807
C  C40  1  0.25010000  0.54630000  0.81420000  1.0 0.0014642807
C  C41  1  0.44920000  0.78500000  0.71860000  1.0 -0.1020435435
C  C42  1  0.78500000  0.44920000  0.28140000  1.0 -0.1020435435
C  C43  1  0.55080000  0.21500000  0.28140000  1.0 -0.1020435435
C  C44  1  0.21500000  0.55080000  0.71860000  1.0 -0.1020435435
C  C45  1  0.52260000  0.78020000  0.68080000  1.0 0.0014642807
C  C46  1  0.78020000  0.52260000  0.31920000  1.0 0.0014642807
C  C47  1  0.47740000  0.21980000  0.31920000  1.0 0.0014642807
C  C48  1  0.21980000  0.47740000  0.68080000  1.0 0.0014642807
C  C49  1  0.60050000  0.73950000  0.73960000  1.0 -0.1526250621
C  C50  1  0.73950000  0.60050000  0.26040000  1.0 -0.1526250621
C  C51  1  0.39950000  0.26050000  0.26040000  1.0 -0.1526250621
C  C52  1  0.26050000  0.39950000  0.73960000  1.0 -0.1526250621
C  C53  1  0.36990000  0.76110000  0.85490000  1.0 0.5572401205
C  C54  1  0.76110000  0.36990000  0.14510000  1.0 0.5572401205
C  C55  1  0.63010000  0.23890000  0.14510000  1.0 0.5572401205
C  C56  1  0.23890000  0.63010000  0.85490000  1.0 0.5572401205
C  C57  1  0.51650000  0.81870000  0.57560000  1.0 0.5144589464
C  C58  1  0.81870000  0.51650000  0.42440000  1.0 0.5156565825
C  C59  1  0.48350000  0.18130000  0.42440000  1.0 0.5156565825
C  C60  1  0.18130000  0.48350000  0.57560000  1.0 0.5156565825
C  C61  1  0.76589000  0.82569000  0.14530000  1.0 0.2114114197
C  C62  1  0.82569000  0.76589000  0.85470000  1.0 0.2114114197
C  C63  1  0.23411000  0.17431000  0.85470000  1.0 0.2114114197
C  C64  1  0.17431000  0.23411000  0.14530000  1.0 0.2114114197
C  C65  1  0.70930000  0.84410000  0.21270000  1.0 -0.1707261843
C  C66  1  0.84410000  0.70930000  0.78730000  1.0 -0.1707261843
C  C67  1  0.29070000  0.15590000  0.78730000  1.0 -0.1707261843
C  C68  1  0.15590000  0.29070000  0.21270000  1.0 -0.1707261843
C  C69  1  0.68830000  0.91530000  0.25850000  1.0 -0.0286683767
C  C70  1  0.91530000  0.68830000  0.74150000  1.0 -0.0286683767
C  C71  1  0.31170000  0.08470000  0.74150000  1.0 -0.0286683767
C  C72  1  0.08470000  0.31170000  0.25850000  1.0 -0.0286683767
C  C73  1  0.72670000  0.97170000  0.23530000  1.0 -0.1070018993
C  C74  1  0.97170000  0.72670000  0.76470000  1.0 -0.1070018993
C  C75  1  0.27330000  0.02830000  0.76470000  1.0 -0.1070018993
C  C76  1  0.02830000  0.27330000  0.23530000  1.0 -0.1070018993
C  C77  1  0.78130000  0.95670000  0.16430000  1.0 -0.0077486197
C  C78  1  0.95670000  0.78130000  0.83570000  1.0 -0.0077486197
C  C79  1  0.21870000  0.04330000  0.83570000  1.0 -0.0077486197
C  C80  1  0.04330000  0.21870000  0.16430000  1.0 -0.0077486197
C  C81  1  0.80060000  0.88340000  0.11810000  1.0 -0.1443423113
C  C82  1  0.88340000  0.80060000  0.88190000  1.0 -0.1443423113
C  C83  1  0.19940000  0.11660000  0.88190000  1.0 -0.1443423113
C  C84  1  0.11660000  0.19940000  0.11810000  1.0 -0.1443423113
C  C85  1  0.62440000  0.93420000  0.32910000  1.0 0.5496753374
C  C86  1  0.93420000  0.62440000  0.67090000  1.0 0.5496753374
C  C87  1  0.37560000  0.06580000  0.67090000  1.0 0.5496753374
C  C88  1  0.06580000  0.37560000  0.32910000  1.0 0.5496753374
C  C89  1  0.81710000  0.01990000  0.13390000  1.0 0.5774369607
C  C90  1  0.01990000  0.81710000  0.86610000  1.0 0.5774369607
C  C91  1  0.18290000  0.98010000  0.86610000  1.0 0.5774369607
C  C92  1  0.98010000  0.18290000  0.13390000  1.0 0.5774369607
N  N1  1  0.78940000  0.74840000  0.10410000  1.0 -0.4205521052
N  N2  1  0.74840000  0.78940000  0.89590000  1.0 -0.4205521052
N  N3  1  0.21060000  0.25160000  0.89590000  1.0 -0.4205521052
N  N4  1  0.25160000  0.21060000  0.10410000  1.0 -0.4205521052
N  N5  1  0.81690000  0.61990000  0.01760000  1.0 -0.2068887954
N  N6  1  0.61990000  0.81690000  0.98240000  1.0 -0.2068887954
N  N7  1  0.18310000  0.38010000  0.98240000  1.0 -0.2068887954
N  N8  1  0.38010000  0.18310000  0.01760000  1.0 -0.2068887954
N  N9  1  0.68348000  0.66508000  0.89900000  1.0 -0.4205521052
N  N10  1  0.66508000  0.68348000  0.10100000  1.0 -0.4205521052
N  N11  1  0.31652000  0.33492000  0.10100000  1.0 -0.4205521052
N  N12  1  0.33492000  0.31652000  0.89900000  1.0 -0.4205521052
O  O1  1  0.91390000  0.68410000  0.20680000  1.0 -0.3084015628
O  O2  1  0.68410000  0.91390000  0.79320000  1.0 -0.3084015628
O  O3  1  0.08610000  0.31590000  0.79320000  1.0 -0.3084015628
O  O4  1  0.31590000  0.08610000  0.20680000  1.0 -0.3084015628
O  O5  1  0.72548000  0.53728000  0.83470000  1.0 -0.3306521741
O  O6  1  0.53728000  0.72548000  0.16530000  1.0 -0.3306521741
O  O7  1  0.27452000  0.46272000  0.16530000  1.0 -0.3306521741
O  O8  1  0.46272000  0.27452000  0.83470000  1.0 -0.3306521741
O  O9  1  0.57470000  0.83350000  0.54940000  1.0 -0.4876043876
O  O10  1  0.83350000  0.57470000  0.45060000  1.0 -0.4876043876
O  O11  1  0.42530000  0.16650000  0.45060000  1.0 -0.4876043876
O  O12  1  0.16650000  0.42530000  0.54940000  1.0 -0.4876043876
O  O13  1  0.45090000  0.83430000  0.51630000  1.0 -0.5499845525
O  O14  1  0.83430000  0.45090000  0.48370000  1.0 -0.5499845525
O  O15  1  0.54910000  0.16570000  0.48370000  1.0 -0.5499845525
O  O16  1  0.16570000  0.54910000  0.51630000  1.0 -0.5499845525
O  O17  1  0.30730000  0.79030000  0.79910000  1.0 -0.4536626419
O  O18  1  0.79030000  0.30730000  0.20090000  1.0 -0.4536626419
O  O19  1  0.69270000  0.20970000  0.20090000  1.0 -0.4536626419
O  O20  1  0.20970000  0.69270000  0.79910000  1.0 -0.4536626419
O  O21  1  0.38060000  0.72640000  0.94380000  1.0 -0.5346056899
O  O22  1  0.72640000  0.38060000  0.05620000  1.0 -0.5346056899
O  O23  1  0.61940000  0.27360000  0.05620000  1.0 -0.5346056899
O  O24  1  0.27360000  0.61940000  0.94380000  1.0 -0.5346056899
O  O25  1  0.57400000  0.89780000  0.31780000  1.0 -0.563509353
O  O26  1  0.89780000  0.57400000  0.68220000  1.0 -0.563509353
O  O27  1  0.42600000  0.10220000  0.68220000  1.0 -0.563509353
O  O28  1  0.10220000  0.42600000  0.31780000  1.0 -0.563509353
O  O29  1  0.62420000  0.98340000  0.39230000  1.0 -0.4720221539
O  O30  1  0.98340000  0.62420000  0.60770000  1.0 -0.4720221539
O  O31  1  0.37580000  0.01660000  0.60770000  1.0 -0.4720221539
O  O32  1  0.01660000  0.37580000  0.39230000  1.0 -0.4720221539
O  O33  1  0.83627000  0.05807000  0.20090000  1.0 -0.5237696697
O  O34  1  0.05807000  0.83627000  0.79910000  1.0 -0.5237696697
O  O35  1  0.16373000  0.94193000  0.79910000  1.0 -0.5237696697
O  O36  1  0.94193000  0.16373000  0.20090000  1.0 -0.5237696697
O  O37  1  0.82780000  0.03120000  0.04730000  1.0 -0.5237696697
O  O38  1  0.03120000  0.82780000  0.95270000  1.0 -0.5237696697
O  O39  1  0.17220000  0.96880000  0.95270000  1.0 -0.5237696697
O  O40  1  0.96880000  0.17220000  0.04730000  1.0 -0.5237696697
O  O41  1  0.19850000  0.80150000  0.97130000  1.0 -0.8565418204
O  O42  1  0.80150000  0.19850000  0.02870000  1.0 -0.8544350942
O  O43  1  0.00000000  0.00000000  0.00000000  1.0 -0.9987466415
O  O44  1  0.41890000  0.00450000  0.42510000  1.0 0.1605408261
O  O45  1  0.00450000  0.41890000  0.57490000  1.0 0.1605408261
O  O46  1  0.58110000  0.99550000  0.57490000  1.0 0.1658652583
O  O47  1  0.99550000  0.58110000  0.42510000  1.0 0.1605408261
O  O48  1  0.53240000  0.75300000  0.36090000  1.0 0.0187772214
O  O49  1  0.75300000  0.53240000  0.63910000  1.0 0.0187772214
O  O50  1  0.46760000  0.24700000  0.63910000  1.0 0.0187772214
O  O51  1  0.24700000  0.46760000  0.36090000  1.0 0.0187772214
O  O52  1  0.39580000  0.91100000  0.27430000  1.0 -0.3306521741
O  O53  1  0.91100000  0.39580000  0.72570000  1.0 -0.3306521741
O  O54  1  0.60420000  0.08900000  0.72570000  1.0 -0.3306521741
O  O55  1  0.08900000  0.60420000  0.27430000  1.0 -0.3306521741
O  O56  1  0.16460000  0.83540000  0.64450000  1.0 -0.0036227872
O  O57  1  0.83540000  0.16460000  0.35550000  1.0 -0.0036227872
O  O58  1  0.35200000  0.75100000  0.13810000  1.0 -0.2785758456
O  O59  1  0.75100000  0.35200000  0.86190000  1.0 -0.2785758456
O  O60  1  0.64800000  0.24900000  0.86190000  1.0 -0.2730471274
O  O61  1  0.24900000  0.64800000  0.13810000  1.0 -0.2785758456
