# DDEC6 charges by PACMAN v1.1 (https://github.com/mtap-research/PACMAN-charge/)
data_OLEKUM_FSR_pacman
_symmetry_space_group_name_H-M   'P 1'
_cell_length_a   24.73180000
_cell_length_b   24.73180000
_cell_length_c   24.73180000
_cell_angle_alpha   127.65300000
_cell_angle_beta   127.65300000
_cell_angle_gamma   77.18810000
_symmetry_Int_Tables_number   1
_chemical_formula_structural   ZnC11N(ClO2)2
_chemical_formula_sum   'Zn16 C176 N16 Cl32 O64'
_cell_volume   9201.51950616
_cell_formula_units_Z   16
loop_
 _symmetry_equiv_pos_site_id
 _symmetry_equiv_pos_as_xyz
  1  'x, y, z'
loop_
 _atom_site_type_symbol
 _atom_site_label
 _atom_site_symmetry_multiplicity
 _atom_site_fract_x
 _atom_site_fract_y
 _atom_site_fract_z
 _atom_site_occupancy
 _atom_site_charge
Zn  Zn1  1  0.80264000  0.29891000  0.02421000  1.0 0.8711031791
Zn  Zn2  1  0.27470000  0.77843000  0.97579000  1.0 0.8711031791
Zn  Zn3  1  0.04891000  0.52470000  0.99627000  1.0 0.8711031791
Zn  Zn4  1  0.52843000  0.05264000  0.00373000  1.0 0.8711031791
Zn  Zn5  1  0.97530000  0.45109000  0.00373000  1.0 0.8711031791
Zn  Zn6  1  0.44736000  0.97157000  0.99627000  1.0 0.8711031791
Zn  Zn7  1  0.72157000  0.22530000  0.02421000  1.0 0.8711031791
Zn  Zn8  1  0.20109000  0.69736000  0.97579000  1.0 0.8711031791
Zn  Zn9  1  0.94736000  0.95109000  0.47579000  1.0 0.8711031791
Zn  Zn10  1  0.47530000  0.47157000  0.52421000  1.0 0.8711031791
Zn  Zn11  1  0.70109000  0.72530000  0.50373000  1.0 0.8711031791
Zn  Zn12  1  0.22157000  0.19736000  0.49627000  1.0 0.8711031791
Zn  Zn13  1  0.77470000  0.79891000  0.49627000  1.0 0.8711031791
Zn  Zn14  1  0.30264000  0.27843000  0.50373000  1.0 0.8711031791
Zn  Zn15  1  0.02843000  0.02470000  0.47579000  1.0 0.8711031791
Zn  Zn16  1  0.54891000  0.55264000  0.52421000  1.0 0.8711031791
C  C1  1  0.74117000  0.57347000  0.31990000  1.0 -0.089371561
C  C2  1  0.25357000  0.42127000  0.68010000  1.0 -0.089371561
C  C3  1  0.32347000  0.50357000  0.33230000  1.0 -0.089371561
C  C4  1  0.17127000  0.99117000  0.66770000  1.0 -0.089371561
C  C5  1  0.99643000  0.17653000  0.66770000  1.0 -0.089371561
C  C6  1  0.50883000  0.32873000  0.33230000  1.0 -0.089371561
C  C7  1  0.07873000  0.24643000  0.31990000  1.0 -0.089371561
C  C8  1  0.92653000  0.75883000  0.68010000  1.0 -0.089371561
C  C9  1  0.00883000  0.67653000  0.18010000  1.0 -0.089371561
C  C10  1  0.49643000  0.82873000  0.81990000  1.0 -0.089371561
C  C11  1  0.42653000  0.74643000  0.16770000  1.0 -0.089371561
C  C12  1  0.57873000  0.25883000  0.83230000  1.0 -0.089371561
C  C13  1  0.75357000  0.07347000  0.83230000  1.0 -0.089371561
C  C14  1  0.24117000  0.92127000  0.16770000  1.0 -0.089371561
C  C15  1  0.67127000  0.00357000  0.18010000  1.0 -0.089371561
C  C16  1  0.82347000  0.49117000  0.81990000  1.0 -0.089371561
C  C17  1  0.75915000  0.44965000  0.20490000  1.0 -0.0780541454
C  C18  1  0.24475000  0.55425000  0.79510000  1.0 -0.0780541454
C  C19  1  0.19965000  0.49475000  0.19050000  1.0 -0.0780541454
C  C20  1  0.30425000  0.00915000  0.80950000  1.0 -0.0780541454
C  C21  1  0.00525000  0.30035000  0.80950000  1.0 -0.0780541454
C  C22  1  0.49085000  0.19575000  0.19050000  1.0 -0.0780541454
C  C23  1  0.94575000  0.25525000  0.20490000  1.0 -0.0780541454
C  C24  1  0.05035000  0.74085000  0.79510000  1.0 -0.0780541454
C  C25  1  0.99085000  0.80035000  0.29510000  1.0 -0.0780541454
C  C26  1  0.50525000  0.69575000  0.70490000  1.0 -0.0780541454
C  C27  1  0.55035000  0.75525000  0.30950000  1.0 -0.0780541454
C  C28  1  0.44575000  0.24085000  0.69050000  1.0 -0.0780541454
C  C29  1  0.74475000  0.94965000  0.69050000  1.0 -0.0780541454
C  C30  1  0.25915000  0.05425000  0.30950000  1.0 -0.0780541454
C  C31  1  0.80425000  0.99475000  0.29510000  1.0 -0.0780541454
C  C32  1  0.69965000  0.50915000  0.70490000  1.0 -0.0780541454
C  C33  1  0.76255000  0.38045000  0.13930000  1.0 0.6193893035
C  C34  1  0.24115000  0.62325000  0.86070000  1.0 0.6193893035
C  C35  1  0.13045000  0.49115000  0.11790000  1.0 0.6193893035
C  C36  1  0.37325000  0.01255000  0.88210000  1.0 0.6193893035
C  C37  1  0.00885000  0.36955000  0.88210000  1.0 0.6193893035
C  C38  1  0.48745000  0.12675000  0.11790000  1.0 0.6193893035
C  C39  1  0.87675000  0.25885000  0.13930000  1.0 0.6193893035
C  C40  1  0.11955000  0.73745000  0.86070000  1.0 0.6193893035
C  C41  1  0.98745000  0.86955000  0.36070000  1.0 0.6193893035
C  C42  1  0.50885000  0.62675000  0.63930000  1.0 0.6193893035
C  C43  1  0.61955000  0.75885000  0.38210000  1.0 0.6193893035
C  C44  1  0.37675000  0.23745000  0.61790000  1.0 0.6193893035
C  C45  1  0.74115000  0.88045000  0.61790000  1.0 0.6193893035
C  C46  1  0.26255000  0.12325000  0.38210000  1.0 0.6193893035
C  C47  1  0.87325000  0.99115000  0.36070000  1.0 0.6193893035
C  C48  1  0.63045000  0.51255000  0.63930000  1.0 0.6193893035
C  C49  1  0.73688000  0.64178000  0.38450000  1.0 0.6193893035
C  C50  1  0.25728000  0.35238000  0.61550000  1.0 0.6193893035
C  C51  1  0.39178000  0.50728000  0.40490000  1.0 0.6193893035
C  C52  1  0.10238000  0.98688000  0.59510000  1.0 0.6193893035
C  C53  1  0.99272000  0.10822000  0.59510000  1.0 0.6193893035
C  C54  1  0.51312000  0.39762000  0.40490000  1.0 0.6193893035
C  C55  1  0.14762000  0.24272000  0.38450000  1.0 0.6193893035
C  C56  1  0.85822000  0.76312000  0.61550000  1.0 0.6193893035
C  C57  1  0.01312000  0.60822000  0.11550000  1.0 0.6193893035
C  C58  1  0.49272000  0.89762000  0.88450000  1.0 0.6193893035
C  C59  1  0.35822000  0.74272000  0.09510000  1.0 0.6193893035
C  C60  1  0.64762000  0.26312000  0.90490000  1.0 0.6193893035
C  C61  1  0.75728000  0.14178000  0.90490000  1.0 0.6193893035
C  C62  1  0.23688000  0.85238000  0.09510000  1.0 0.6193893035
C  C63  1  0.60238000  0.00728000  0.11550000  1.0 0.6193893035
C  C64  1  0.89178000  0.48688000  0.88450000  1.0 0.6193893035
C  C65  1  0.87516000  0.33526000  0.92490000  1.0 0.027947346
C  C66  1  0.41036000  0.95026000  0.07510000  1.0 0.027947346
C  C67  1  0.08526000  0.66036000  0.96010000  1.0 0.027947346
C  C68  1  0.70026000  0.12516000  0.03990000  1.0 0.027947346
C  C69  1  0.83964000  0.41474000  0.03990000  1.0 0.027947346
C  C70  1  0.37484000  0.79974000  0.96010000  1.0 0.027947346
C  C71  1  0.54974000  0.08964000  0.92490000  1.0 0.027947346
C  C72  1  0.16474000  0.62484000  0.07510000  1.0 0.027947346
C  C73  1  0.87484000  0.91474000  0.57510000  1.0 0.027947346
C  C74  1  0.33964000  0.29974000  0.42490000  1.0 0.027947346
C  C75  1  0.66474000  0.58964000  0.53990000  1.0 0.027947346
C  C76  1  0.04974000  0.12484000  0.46010000  1.0 0.027947346
C  C77  1  0.91036000  0.83526000  0.46010000  1.0 0.027947346
C  C78  1  0.37516000  0.45026000  0.53990000  1.0 0.027947346
C  C79  1  0.20026000  0.16036000  0.57510000  1.0 0.027947346
C  C80  1  0.58526000  0.62516000  0.42490000  1.0 0.027947346
C  C81  1  0.88040000  0.45000000  0.03640000  1.0 0.0368428562
C  C82  1  0.41360000  0.84400000  0.96360000  1.0 0.0368428562
C  C83  1  0.20000000  0.66360000  0.06960000  1.0 0.0368428562
C  C84  1  0.59400000  0.13040000  0.93040000  1.0 0.0368428562
C  C85  1  0.83640000  0.30000000  0.93040000  1.0 0.0368428562
C  C86  1  0.36960000  0.90600000  0.06960000  1.0 0.0368428562
C  C87  1  0.65600000  0.08640000  0.03640000  1.0 0.0368428562
C  C88  1  0.05000000  0.61960000  0.96360000  1.0 0.0368428562
C  C89  1  0.86960000  0.80000000  0.46360000  1.0 0.0368428562
C  C90  1  0.33640000  0.40600000  0.53640000  1.0 0.0368428562
C  C91  1  0.55000000  0.58640000  0.43040000  1.0 0.0368428562
C  C92  1  0.15600000  0.11960000  0.56960000  1.0 0.0368428562
C  C93  1  0.91360000  0.95000000  0.56960000  1.0 0.0368428562
C  C94  1  0.38040000  0.34400000  0.43040000  1.0 0.0368428562
C  C95  1  0.09400000  0.16360000  0.46360000  1.0 0.0368428562
C  C96  1  0.70000000  0.63040000  0.53640000  1.0 0.0368428562
C  C97  1  0.50280000  0.29480000  0.74260000  1.0 -0.0225798456
C  C98  1  0.55220000  0.76020000  0.25740000  1.0 -0.0225798456
C  C99  1  0.04480000  0.80220000  0.29200000  1.0 -0.0225798456
C  C100  1  0.51020000  0.75280000  0.70800000  1.0 -0.0225798456
C  C101  1  0.69780000  0.45520000  0.70800000  1.0 -0.0225798456
C  C102  1  0.74720000  0.98980000  0.29200000  1.0 -0.0225798456
C  C103  1  0.73980000  0.94780000  0.74260000  1.0 -0.0225798456
C  C104  1  0.20520000  0.99720000  0.25740000  1.0 -0.0225798456
C  C105  1  0.24720000  0.95520000  0.75740000  1.0 -0.0225798456
C  C106  1  0.19780000  0.48980000  0.24260000  1.0 -0.0225798456
C  C107  1  0.70520000  0.44780000  0.20800000  1.0 -0.0225798456
C  C108  1  0.23980000  0.49720000  0.79200000  1.0 -0.0225798456
C  C109  1  0.05220000  0.79480000  0.79200000  1.0 -0.0225798456
C  C110  1  0.00280000  0.26020000  0.20800000  1.0 -0.0225798456
C  C111  1  0.01020000  0.30220000  0.75740000  1.0 -0.0225798456
C  C112  1  0.54480000  0.25280000  0.24260000  1.0 -0.0225798456
C  C113  1  0.79480000  0.57540000  0.31660000  1.0 -0.0284051189
C  C114  1  0.25880000  0.47820000  0.68340000  1.0 -0.0284051189
C  C115  1  0.32540000  0.50880000  0.28060000  1.0 -0.0284051189
C  C116  1  0.22820000  0.04480000  0.71940000  1.0 -0.0284051189
C  C117  1  0.99120000  0.17460000  0.71940000  1.0 -0.0284051189
C  C118  1  0.45520000  0.27180000  0.28060000  1.0 -0.0284051189
C  C119  1  0.02180000  0.24120000  0.31660000  1.0 -0.0284051189
C  C120  1  0.92460000  0.70520000  0.68340000  1.0 -0.0284051189
C  C121  1  0.95520000  0.67460000  0.18340000  1.0 -0.0284051189
C  C122  1  0.49120000  0.77180000  0.81660000  1.0 -0.0284051189
C  C123  1  0.42460000  0.74120000  0.21940000  1.0 -0.0284051189
C  C124  1  0.52180000  0.20520000  0.78060000  1.0 -0.0284051189
C  C125  1  0.75880000  0.07540000  0.78060000  1.0 -0.0284051189
C  C126  1  0.29480000  0.97820000  0.21940000  1.0 -0.0284051189
C  C127  1  0.72820000  0.00880000  0.18340000  1.0 -0.0284051189
C  C128  1  0.82540000  0.54480000  0.81660000  1.0 -0.0284051189
C  C129  1  0.80294000  0.51444000  0.26010000  1.0 0.1041431306
C  C130  1  0.25434000  0.54284000  0.73990000  1.0 0.1041431306
C  C131  1  0.26444000  0.50434000  0.21150000  1.0 0.1041431306
C  C132  1  0.29284000  0.05294000  0.78850000  1.0 0.1041431306
C  C133  1  0.99566000  0.23556000  0.78850000  1.0 0.1041431306
C  C134  1  0.44706000  0.20716000  0.21150000  1.0 0.1041431306
C  C135  1  0.95716000  0.24566000  0.26010000  1.0 0.1041431306
C  C136  1  0.98556000  0.69706000  0.73990000  1.0 0.1041431306
C  C137  1  0.94706000  0.73556000  0.23990000  1.0 0.1041431306
C  C138  1  0.49566000  0.70716000  0.76010000  1.0 0.1041431306
C  C139  1  0.48556000  0.74566000  0.28850000  1.0 0.1041431306
C  C140  1  0.45716000  0.19706000  0.71150000  1.0 0.1041431306
C  C141  1  0.75434000  0.01444000  0.71150000  1.0 0.1041431306
C  C142  1  0.30294000  0.04284000  0.28850000  1.0 0.1041431306
C  C143  1  0.79284000  0.00434000  0.23990000  1.0 0.1041431306
C  C144  1  0.76444000  0.55294000  0.76010000  1.0 0.1041431306
C  C145  1  0.56743000  0.30373000  0.81190000  1.0 0.1041431306
C  C146  1  0.49183000  0.75553000  0.18810000  1.0 0.1041431306
C  C147  1  0.05373000  0.74183000  0.23630000  1.0 0.1041431306
C  C148  1  0.50553000  0.81743000  0.76370000  1.0 0.1041431306
C  C149  1  0.75817000  0.44627000  0.76370000  1.0 0.1041431306
C  C150  1  0.68257000  0.99447000  0.23630000  1.0 0.1041431306
C  C151  1  0.74447000  0.00817000  0.81190000  1.0 0.1041431306
C  C152  1  0.19627000  0.93257000  0.18810000  1.0 0.1041431306
C  C153  1  0.18257000  0.94627000  0.68810000  1.0 0.1041431306
C  C154  1  0.25817000  0.49447000  0.31190000  1.0 0.1041431306
C  C155  1  0.69627000  0.50817000  0.26370000  1.0 0.1041431306
C  C156  1  0.24447000  0.43257000  0.73630000  1.0 0.1041431306
C  C157  1  0.99183000  0.80373000  0.73630000  1.0 0.1041431306
C  C158  1  0.06743000  0.25553000  0.26370000  1.0 0.1041431306
C  C159  1  0.00553000  0.24183000  0.68810000  1.0 0.1041431306
C  C160  1  0.55373000  0.31743000  0.31190000  1.0 0.1041431306
C  C161  1  0.97400000  0.39230000  0.07650000  1.0 0.0368428562
C  C162  1  0.31580000  0.89750000  0.92350000  1.0 0.0368428562
C  C163  1  0.14230000  0.56580000  0.91830000  1.0 0.0368428562
C  C164  1  0.64750000  0.22400000  0.08170000  1.0 0.0368428562
C  C165  1  0.93420000  0.35770000  0.08170000  1.0 0.0368428562
C  C166  1  0.27600000  0.85250000  0.91830000  1.0 0.0368428562
C  C167  1  0.60250000  0.18420000  0.07650000  1.0 0.0368428562
C  C168  1  0.10770000  0.52600000  0.92350000  1.0 0.0368428562
C  C169  1  0.77600000  0.85770000  0.42350000  1.0 0.0368428562
C  C170  1  0.43420000  0.35250000  0.57650000  1.0 0.0368428562
C  C171  1  0.60770000  0.68420000  0.58170000  1.0 0.0368428562
C  C172  1  0.10250000  0.02600000  0.41830000  1.0 0.0368428562
C  C173  1  0.81580000  0.89230000  0.41830000  1.0 0.0368428562
C  C174  1  0.47400000  0.39750000  0.58170000  1.0 0.0368428562
C  C175  1  0.14750000  0.06580000  0.42350000  1.0 0.0368428562
C  C176  1  0.64230000  0.72400000  0.57650000  1.0 0.0368428562
N  N1  1  0.92314000  0.40424000  0.01090000  1.0 0.014568923
N  N2  1  0.39334000  0.91224000  0.98910000  1.0 0.014568923
N  N3  1  0.15424000  0.64334000  0.98110000  1.0 0.014568923
N  N4  1  0.66224000  0.17314000  0.01890000  1.0 0.014568923
N  N5  1  0.85666000  0.34576000  0.01890000  1.0 0.014568923
N  N6  1  0.32686000  0.83776000  0.98110000  1.0 0.014568923
N  N7  1  0.58776000  0.10666000  0.01090000  1.0 0.0151312244
N  N8  1  0.09576000  0.57686000  0.98910000  1.0 0.014568923
N  N9  1  0.82686000  0.84576000  0.48910000  1.0 0.014568923
N  N10  1  0.35666000  0.33776000  0.51090000  1.0 0.014568923
N  N11  1  0.59576000  0.60666000  0.51890000  1.0 0.014568923
N  N12  1  0.08776000  0.07686000  0.48110000  1.0 0.014568923
N  N13  1  0.89334000  0.90424000  0.48110000  1.0 0.014568923
N  N14  1  0.42314000  0.41224000  0.51890000  1.0 0.014568923
N  N15  1  0.16224000  0.14334000  0.48910000  1.0 0.014568923
N  N16  1  0.65424000  0.67314000  0.51090000  1.0 0.014568923
Cl  Cl1  1  0.39068000  0.12560000  0.64986000  1.0 -0.0527967836
Cl  Cl2  1  0.47574000  0.74082000  0.35014000  1.0 -0.0527967836
Cl  Cl3  1  0.87560000  0.72574000  0.23492000  1.0 -0.0527967836
Cl  Cl4  1  0.49082000  0.64068000  0.76508000  1.0 -0.0527967836
Cl  Cl5  1  0.77426000  0.62440000  0.76508000  1.0 -0.0527967836
Cl  Cl6  1  0.85932000  0.00918000  0.23492000  1.0 -0.0527967836
Cl  Cl7  1  0.75918000  0.02426000  0.64986000  1.0 -0.0527967836
Cl  Cl8  1  0.37440000  0.10932000  0.35014000  1.0 -0.0527967836
Cl  Cl9  1  0.35932000  0.12440000  0.85014000  1.0 -0.0527967836
Cl  Cl10  1  0.27426000  0.50918000  0.14986000  1.0 -0.0527967836
Cl  Cl11  1  0.87440000  0.52426000  0.26508000  1.0 -0.0527967836
Cl  Cl12  1  0.25918000  0.60932000  0.73492000  1.0 -0.0527967836
Cl  Cl13  1  0.97574000  0.62560000  0.73492000  1.0 -0.0527967836
Cl  Cl14  1  0.89068000  0.24082000  0.26508000  1.0 -0.0527967836
Cl  Cl15  1  0.99082000  0.22574000  0.85014000  1.0 -0.0527967836
Cl  Cl16  1  0.37560000  0.14068000  0.14986000  1.0 -0.0527967836
Cl  Cl17  1  0.63373000  0.37372000  0.87271000  1.0 -0.0429320312
Cl  Cl18  1  0.50101000  0.76102000  0.12729000  1.0 -0.0429320312
Cl  Cl19  1  0.12372000  0.75101000  0.23999000  1.0 -0.0429320312
Cl  Cl20  1  0.51102000  0.88373000  0.76001000  1.0 -0.0429320312
Cl  Cl21  1  0.74899000  0.37628000  0.76001000  1.0 -0.0429320312
Cl  Cl22  1  0.61627000  0.98898000  0.23999000  1.0 -0.0429320312
Cl  Cl23  1  0.73898000  0.99899000  0.87271000  1.0 -0.0429320312
Cl  Cl24  1  0.12628000  0.86627000  0.12729000  1.0 -0.0429320312
Cl  Cl25  1  0.11627000  0.87628000  0.62729000  1.0 -0.0429320312
Cl  Cl26  1  0.24899000  0.48898000  0.37271000  1.0 -0.0429320312
Cl  Cl27  1  0.62628000  0.49899000  0.26001000  1.0 -0.0429320312
Cl  Cl28  1  0.23898000  0.36627000  0.73999000  1.0 -0.0429320312
Cl  Cl29  1  0.00101000  0.87372000  0.73999000  1.0 -0.0429320312
Cl  Cl30  1  0.13373000  0.26102000  0.26001000  1.0 -0.0429320312
Cl  Cl31  1  0.01102000  0.25101000  0.62729000  1.0 -0.0429320312
Cl  Cl32  1  0.62372000  0.38373000  0.37271000  1.0 -0.0429320312
O  O1  1  0.74565000  0.32775000  0.12630000  1.0 -0.5079868729
O  O2  1  0.20145000  0.61935000  0.87370000  1.0 -0.5079868729
O  O3  1  0.07775000  0.45145000  0.08210000  1.0 -0.5079868729
O  O4  1  0.36935000  0.99565000  0.91790000  1.0 -0.5079868729
O  O5  1  0.04855000  0.42225000  0.91790000  1.0 -0.5079868729
O  O6  1  0.50435000  0.13065000  0.08210000  1.0 -0.5079868729
O  O7  1  0.88065000  0.29855000  0.12630000  1.0 -0.5079868729
O  O8  1  0.17225000  0.75435000  0.87370000  1.0 -0.5079868729
O  O9  1  0.00435000  0.92225000  0.37370000  1.0 -0.5079868729
O  O10  1  0.54855000  0.63065000  0.62630000  1.0 -0.5079868729
O  O11  1  0.67225000  0.79855000  0.41790000  1.0 -0.5079868729
O  O12  1  0.38065000  0.25435000  0.58210000  1.0 -0.5079868729
O  O13  1  0.70145000  0.82775000  0.58210000  1.0 -0.5079868729
O  O14  1  0.24565000  0.11935000  0.41790000  1.0 -0.5079868729
O  O15  1  0.86935000  0.95145000  0.37370000  1.0 -0.5079868729
O  O16  1  0.57775000  0.49565000  0.62630000  1.0 -0.5079868729
O  O17  1  0.78080000  0.38200000  0.10240000  1.0 -0.5399641725
O  O18  1  0.27960000  0.67840000  0.89760000  1.0 -0.5399641725
O  O19  1  0.13200000  0.52960000  0.10120000  1.0 -0.5399641725
O  O20  1  0.42840000  0.03080000  0.89880000  1.0 -0.5399641725
O  O21  1  0.97040000  0.36800000  0.89880000  1.0 -0.5399641725
O  O22  1  0.46920000  0.07160000  0.10120000  1.0 -0.5399641725
O  O23  1  0.82160000  0.22040000  0.10240000  1.0 -0.5399641725
O  O24  1  0.11800000  0.71920000  0.89760000  1.0 -0.5399641725
O  O25  1  0.96920000  0.86800000  0.39760000  1.0 -0.5399641725
O  O26  1  0.47040000  0.57160000  0.60240000  1.0 -0.5399641725
O  O27  1  0.61800000  0.72040000  0.39880000  1.0 -0.5399641725
O  O28  1  0.32160000  0.21920000  0.60120000  1.0 -0.5399641725
O  O29  1  0.77960000  0.88200000  0.60120000  1.0 -0.5399641725
O  O30  1  0.28080000  0.17840000  0.39880000  1.0 -0.5399641725
O  O31  1  0.92840000  0.02960000  0.39760000  1.0 -0.5399641725
O  O32  1  0.63200000  0.53080000  0.60240000  1.0 -0.5399641725
O  O33  1  0.72156000  0.64156000  0.42440000  1.0 -0.5399641725
O  O34  1  0.21716000  0.29716000  0.57560000  1.0 -0.5399641725
O  O35  1  0.39156000  0.46716000  0.42000000  1.0 -0.5399641725
O  O36  1  0.04716000  0.97156000  0.58000000  1.0 -0.5399641725
O  O37  1  0.03284000  0.10844000  0.58000000  1.0 -0.5399641725
O  O38  1  0.52844000  0.45284000  0.42000000  1.0 -0.5399641725
O  O39  1  0.20284000  0.28284000  0.42440000  1.0 -0.5399641725
O  O40  1  0.85844000  0.77844000  0.57560000  1.0 -0.5399641725
O  O41  1  0.02844000  0.60844000  0.07560000  1.0 -0.5399641725
O  O42  1  0.53284000  0.95284000  0.92440000  1.0 -0.5399641725
O  O43  1  0.35844000  0.78284000  0.08000000  1.0 -0.5399641725
O  O44  1  0.70284000  0.27844000  0.92000000  1.0 -0.5399641725
O  O45  1  0.71716000  0.14156000  0.92000000  1.0 -0.5399641725
O  O46  1  0.22156000  0.79716000  0.08000000  1.0 -0.5399641725
O  O47  1  0.54716000  0.96716000  0.07560000  1.0 -0.5399641725
O  O48  1  0.89156000  0.47156000  0.92440000  1.0 -0.5399641725
O  O49  1  0.64453000  0.24983000  0.94490000  1.0 -0.5323504689
O  O50  1  0.30493000  0.69963000  0.05510000  1.0 -0.5323504689
O  O51  1  0.99983000  0.55493000  0.10530000  1.0 -0.5323504689
O  O52  1  0.44963000  0.89453000  0.89470000  1.0 -0.5323504689
O  O53  1  0.94507000  0.50017000  0.89470000  1.0 -0.5323504689
O  O54  1  0.60547000  0.05037000  0.10530000  1.0 -0.5323504689
O  O55  1  0.80037000  0.19507000  0.94490000  1.0 -0.5323504689
O  O56  1  0.25017000  0.85547000  0.05510000  1.0 -0.5323504689
O  O57  1  0.10547000  0.00017000  0.55510000  1.0 -0.5323504689
O  O58  1  0.44507000  0.55037000  0.44490000  1.0 -0.5323504689
O  O59  1  0.75017000  0.69507000  0.39470000  1.0 -0.5323504689
O  O60  1  0.30037000  0.35547000  0.60530000  1.0 -0.5323504689
O  O61  1  0.80493000  0.74983000  0.60530000  1.0 -0.5323504689
O  O62  1  0.14453000  0.19963000  0.39470000  1.0 -0.5323504689
O  O63  1  0.94963000  0.05493000  0.55510000  1.0 -0.5323504689
O  O64  1  0.49983000  0.39453000  0.44490000  1.0 -0.5323504689
