# DDEC6 charges by PACMAN v1.1 (https://github.com/mtap-research/PACMAN-charge/)
data_OLOGEC_ASR_pacman
_symmetry_space_group_name_H-M   'P 1'
_cell_length_a   19.08930000
_cell_length_b   26.95200000
_cell_length_c   31.71330000
_cell_angle_alpha   90.00000000
_cell_angle_beta   119.59200000
_cell_angle_gamma   90.00000000
_symmetry_Int_Tables_number   1
_chemical_formula_structural   Zn4H24C45N3O16
_chemical_formula_sum   'Zn16 H96 C180 N12 O64'
_cell_volume   14188.08994246
_cell_formula_units_Z   4
loop_
 _symmetry_equiv_pos_site_id
 _symmetry_equiv_pos_as_xyz
  1  'x, y, z'
loop_
 _atom_site_type_symbol
 _atom_site_label
 _atom_site_symmetry_multiplicity
 _atom_site_fract_x
 _atom_site_fract_y
 _atom_site_fract_z
 _atom_site_occupancy
 _atom_site_charge
Zn  Zn1  1  0.26501000  0.60941000  0.43488000  1.0 0.9402254649
Zn  Zn2  1  0.73499000  0.10941000  0.06512000  1.0 0.9402254649
Zn  Zn3  1  0.21945000  0.55301000  0.50383000  1.0 0.9402254649
Zn  Zn4  1  0.78055000  0.05301000  0.99617000  1.0 0.9402254649
Zn  Zn5  1  0.38863000  0.61177000  0.54962000  1.0 0.9749219545
Zn  Zn6  1  0.61137000  0.11177000  0.95038000  1.0 0.9749219545
Zn  Zn7  1  0.22157000  0.66866000  0.50385000  1.0 0.9306149908
Zn  Zn8  1  0.77843000  0.16866000  0.99615000  1.0 0.9306149908
Zn  Zn9  1  0.73499000  0.39059000  0.56512000  1.0 0.9402254649
Zn  Zn10  1  0.26501000  0.89059000  0.93488000  1.0 0.9402254649
Zn  Zn11  1  0.78055000  0.44699000  0.49617000  1.0 0.9402254649
Zn  Zn12  1  0.21945000  0.94699000  0.00383000  1.0 0.9402254649
Zn  Zn13  1  0.61137000  0.38823000  0.45038000  1.0 0.9765246936
Zn  Zn14  1  0.38863000  0.88823000  0.04962000  1.0 0.9765246936
Zn  Zn15  1  0.77843000  0.33134000  0.49615000  1.0 0.9306149908
Zn  Zn16  1  0.22157000  0.83134000  0.00385000  1.0 0.9306149908
H  H1  1  0.47760000  0.66060000  0.43060000  1.0 0.1294006797
H  H2  1  0.52240000  0.16060000  0.06940000  1.0 0.1294006797
H  H3  1  0.59800000  0.66666667  0.43010000  1.0 0.120777423
H  H4  1  0.40200000  0.16667000  0.06990000  1.0 0.120777423
H  H5  1  0.65760000  0.52930000  0.48520000  1.0 0.120777423
H  H6  1  0.34240000  0.02930000  0.01480000  1.0 0.120777423
H  H7  1  0.53630000  0.52270000  0.48480000  1.0 0.1294006797
H  H8  1  0.46370000  0.02270000  0.01520000  1.0 0.1380328117
H  H9  1  0.89650000  0.67940000  0.52500000  1.0 0.1380328117
H  H10  1  0.10350000  0.17940000  0.97500000  1.0 0.1380328117
H  H11  1  0.01890000  0.68040000  0.52620000  1.0 0.120777423
H  H12  1  0.98110000  0.18040000  0.97380000  1.0 0.120777423
H  H13  1  0.98220000  0.53970000  0.47750000  1.0 0.120777423
H  H14  1  0.01780000  0.03970000  0.02250000  1.0 0.120777423
H  H15  1  0.86090000  0.53820000  0.47730000  1.0 0.1380328117
H  H16  1  0.13910000  0.03820000  0.02270000  1.0 0.1380328117
H  H17  1  0.36350000  0.49740000  0.67140000  1.0 0.1294006797
H  H18  1  0.63650000  0.99740000  0.82860000  1.0 0.1294006797
H  H19  1  0.42540000  0.43430000  0.72740000  1.0 0.1694890015
H  H20  1  0.57460000  0.93430000  0.77260000  1.0 0.1694890015
H  H21  1  0.48890000  0.36810000  0.63760000  1.0 0.1294006797
H  H22  1  0.51110000  0.86810000  0.86240000  1.0 0.1294006797
H  H23  1  0.42600000  0.43050000  0.58150000  1.0 0.1813368428
H  H24  1  0.57400000  0.93050000  0.91850000  1.0 0.1813368428
H  H25  1  0.64150000  0.34620000  0.84190000  1.0 0.1294006797
H  H26  1  0.35850000  0.84620000  0.65810000  1.0 0.1294006797
H  H27  1  0.70610000  0.28190000  0.89640000  1.0 0.1294006797
H  H28  1  0.29390000  0.78190000  0.60360000  1.0 0.1294006797
H  H29  1  0.50310000  0.19980000  0.82750000  1.0 0.120777423
H  H30  1  0.49690000  0.69980000  0.67250000  1.0 0.120777423
H  H31  1  0.44110000  0.26410000  0.77280000  1.0 0.1294006797
H  H32  1  0.55890000  0.76410000  0.72720000  1.0 0.1294006797
H  H33  1  0.11840000  0.42770000  0.41720000  1.0 0.120777423
H  H34  1  0.88160000  0.92770000  0.08280000  1.0 0.120777423
H  H35  1  0.05540000  0.36540000  0.36000000  1.0 0.1294006797
H  H36  1  0.94460000  0.86540000  0.14000000  1.0 0.1294006797
H  H37  1  0.07120000  0.44800000  0.25990000  1.0 0.120777423
H  H38  1  0.92880000  0.94800000  0.24010000  1.0 0.120777423
H  H39  1  0.13520000  0.51060000  0.31720000  1.0 0.1294006797
H  H40  1  0.86480000  0.01060000  0.18280000  1.0 0.1294006797
H  H41  1  0.92480000  0.28150000  0.23860000  1.0 0.2203415036
H  H42  1  0.07520000  0.78150000  0.26140000  1.0 0.2203415036
H  H43  1  0.86270000  0.21550000  0.18520000  1.0 0.120777423
H  H44  1  0.13730000  0.71550000  0.31480000  1.0 0.120777423
H  H45  1  0.88140000  0.28960000  0.08140000  1.0 0.120777423
H  H46  1  0.11860000  0.78960000  0.41860000  1.0 0.120777423
H  H47  1  0.93920000  0.35720000  0.13410000  1.0 0.1294006797
H  H48  1  0.06080000  0.85720000  0.36590000  1.0 0.1294006797
H  H49  1  0.52240000  0.33940000  0.56940000  1.0 0.1294006797
H  H50  1  0.47760000  0.83940000  0.93060000  1.0 0.1294006797
H  H51  1  0.40200000  0.33333333  0.56990000  1.0 0.120777423
H  H52  1  0.59800000  0.83333000  0.93010000  1.0 0.120777423
H  H53  1  0.34240000  0.47070000  0.51480000  1.0 0.120777423
H  H54  1  0.65760000  0.97070000  0.98520000  1.0 0.120777423
H  H55  1  0.46370000  0.47730000  0.51520000  1.0 0.1294006797
H  H56  1  0.53630000  0.97730000  0.98480000  1.0 0.1294006797
H  H57  1  0.10350000  0.32060000  0.47500000  1.0 0.1380328117
H  H58  1  0.89650000  0.82060000  0.02500000  1.0 0.1380328117
H  H59  1  0.98110000  0.31960000  0.47380000  1.0 0.120777423
H  H60  1  0.01890000  0.81960000  0.02620000  1.0 0.120777423
H  H61  1  0.01780000  0.46030000  0.52250000  1.0 0.120777423
H  H62  1  0.98220000  0.96030000  0.97750000  1.0 0.120777423
H  H63  1  0.13910000  0.46180000  0.52270000  1.0 0.1380328117
H  H64  1  0.86090000  0.96180000  0.97730000  1.0 0.1380328117
H  H65  1  0.63650000  0.50260000  0.32860000  1.0 0.1294006797
H  H66  1  0.36350000  0.00260000  0.17140000  1.0 0.1294006797
H  H67  1  0.57460000  0.56570000  0.27260000  1.0 0.1694890015
H  H68  1  0.42540000  0.06570000  0.22740000  1.0 0.1694890015
H  H69  1  0.51110000  0.63190000  0.36240000  1.0 0.1294006797
H  H70  1  0.48890000  0.13190000  0.13760000  1.0 0.1294006797
H  H71  1  0.57400000  0.56950000  0.41850000  1.0 0.1900832631
H  H72  1  0.42600000  0.06950000  0.08150000  1.0 0.1813368428
H  H73  1  0.35850000  0.65380000  0.15810000  1.0 0.120777423
H  H74  1  0.64150000  0.15380000  0.34190000  1.0 0.1294006797
H  H75  1  0.29390000  0.71810000  0.10360000  1.0 0.1294006797
H  H76  1  0.70610000  0.21810000  0.39640000  1.0 0.1294006797
H  H77  1  0.49690000  0.80020000  0.17250000  1.0 0.120777423
H  H78  1  0.50310000  0.30020000  0.32750000  1.0 0.120777423
H  H79  1  0.55890000  0.73590000  0.22720000  1.0 0.1294006797
H  H80  1  0.44110000  0.23590000  0.27280000  1.0 0.1294006797
H  H81  1  0.88160000  0.57230000  0.58280000  1.0 0.120777423
H  H82  1  0.11840000  0.07230000  0.91720000  1.0 0.120777423
H  H83  1  0.94460000  0.63460000  0.64000000  1.0 0.1294006797
H  H84  1  0.05540000  0.13460000  0.86000000  1.0 0.1294006797
H  H85  1  0.92880000  0.55200000  0.74010000  1.0 0.120777423
H  H86  1  0.07120000  0.05200000  0.75990000  1.0 0.120777423
H  H87  1  0.86480000  0.48940000  0.68280000  1.0 0.1294006797
H  H88  1  0.13520000  0.98940000  0.81720000  1.0 0.1294006797
H  H89  1  0.07520000  0.71850000  0.76140000  1.0 0.2203415036
H  H90  1  0.92480000  0.21850000  0.73860000  1.0 0.2203415036
H  H91  1  0.13730000  0.78450000  0.81480000  1.0 0.120777423
H  H92  1  0.86270000  0.28450000  0.68520000  1.0 0.120777423
H  H93  1  0.11860000  0.71040000  0.91860000  1.0 0.120777423
H  H94  1  0.88140000  0.21040000  0.58140000  1.0 0.120777423
H  H95  1  0.06080000  0.64280000  0.86590000  1.0 0.1294006797
H  H96  1  0.93920000  0.14280000  0.63410000  1.0 0.1294006797
C  C1  1  0.41782000  0.58932000  0.45930000  1.0 0.5591671147
C  C2  1  0.58218000  0.08932000  0.04070000  1.0 0.5591671147
C  C3  1  0.49471000  0.59058000  0.45739000  1.0 -0.0136502395
C  C4  1  0.50529000  0.09058000  0.04261000  1.0 -0.0136502395
C  C5  1  0.51357000  0.63409000  0.44130000  1.0 -0.1000371175
C  C6  1  0.48643000  0.13409000  0.05870000  1.0 -0.1000371175
C  C7  1  0.58579000  0.63775000  0.44127000  1.0 -0.0884947497
C  C8  1  0.41421000  0.13775000  0.05873000  1.0 -0.0884947497
C  C9  1  0.64019000  0.59863000  0.45781000  1.0 -0.0488110306
C  C10  1  0.35981000  0.09863000  0.04219000  1.0 -0.0488110306
C  C11  1  0.62131000  0.55564000  0.47409000  1.0 -0.0884947497
C  C12  1  0.37869000  0.05564000  0.02591000  1.0 -0.0884947497
C  C13  1  0.54864000  0.55167000  0.47386000  1.0 -0.0884947497
C  C14  1  0.45136000  0.05167000  0.02614000  1.0 -0.0884947497
C  C15  1  0.71762000  0.60239000  0.45745000  1.0 0.4868862756
C  C16  1  0.28238000  0.10239000  0.04255000  1.0 0.4868862756
C  C17  1  0.86638000  0.60879000  0.50121000  1.0 0.2416521076
C  C18  1  0.13362000  0.10879000  0.99879000  1.0 0.2416521076
C  C19  1  0.91377000  0.65135000  0.51565000  1.0 -0.1621266298
C  C20  1  0.08623000  0.15135000  0.98435000  1.0 -0.1621266298
C  C21  1  0.98705000  0.65203000  0.51614000  1.0 -0.0884947497
C  C22  1  0.01295000  0.15203000  0.98386000  1.0 -0.0884947497
C  C23  1  0.01272000  0.61068000  0.50175000  1.0 -0.0488110306
C  C24  1  0.98728000  0.11068000  0.99825000  1.0 -0.0488110306
C  C25  1  0.96499000  0.56765000  0.48707000  1.0 -0.0801708469
C  C26  1  0.03501000  0.06765000  0.01293000  1.0 -0.0801708469
C  C27  1  0.89241000  0.56677000  0.48691000  1.0 -0.1407683812
C  C28  1  0.10759000  0.06677000  0.01309000  1.0 -0.1407683812
C  C29  1  0.09003000  0.61324000  0.50112000  1.0 0.5909802668
C  C30  1  0.90997000  0.11324000  0.99888000  1.0 0.5909802668
C  C31  1  0.34835000  0.51170000  0.58528000  1.0 0.5755049565
C  C32  1  0.65165000  0.01170000  0.91472000  1.0 0.5755049565
C  C33  1  0.38861000  0.47073000  0.62062000  1.0 -0.0195725815
C  C34  1  0.61139000  0.97073000  0.87938000  1.0 -0.0195725815
C  C35  1  0.38853000  0.47145000  0.66455000  1.0 -0.0884947497
C  C36  1  0.61147000  0.97145000  0.83545000  1.0 -0.0884947497
C  C37  1  0.42548000  0.43373000  0.69815000  1.0 -0.1170488935
C  C38  1  0.57452000  0.93373000  0.80185000  1.0 -0.1170488935
C  C39  1  0.46265000  0.39497000  0.68772000  1.0 0.2310620376
C  C40  1  0.53735000  0.89497000  0.81228000  1.0 0.2416521076
C  C41  1  0.46350000  0.39387000  0.64422000  1.0 -0.1549576394
C  C42  1  0.53650000  0.89387000  0.85578000  1.0 -0.1549576394
C  C43  1  0.42610000  0.43138000  0.61087000  1.0 -0.0801708469
C  C44  1  0.57390000  0.93138000  0.88913000  1.0 -0.0801708469
C  C45  1  0.49592000  0.35133000  0.76387000  1.0 0.4312719159
C  C46  1  0.50408000  0.85133000  0.73613000  1.0 0.4312719159
C  C47  1  0.53529000  0.31083000  0.80122000  1.0 0.0072800006
C  C48  1  0.46471000  0.81083000  0.69878000  1.0 0.0072800006
C  C49  1  0.61433000  0.31657000  0.83883000  1.0 -0.0884947497
C  C50  1  0.38567000  0.81657000  0.66117000  1.0 -0.0884947497
C  C51  1  0.65289000  0.27834000  0.87188000  1.0 -0.0801708469
C  C52  1  0.34711000  0.77834000  0.62812000  1.0 -0.0801708469
C  C53  1  0.61065000  0.23474000  0.86768000  1.0 -0.0602806372
C  C54  1  0.38935000  0.73474000  0.63232000  1.0 -0.0602806372
C  C55  1  0.53105000  0.22907000  0.83031000  1.0 -0.0719249032
C  C56  1  0.46895000  0.72907000  0.66969000  1.0 -0.0719249032
C  C57  1  0.49412000  0.26757000  0.79749000  1.0 -0.1000371175
C  C58  1  0.50588000  0.76757000  0.70251000  1.0 -0.1000371175
C  C59  1  0.65038000  0.19667000  0.90527000  1.0 0.5975514256
C  C60  1  0.34962000  0.69667000  0.59473000  1.0 0.5975514256
C  C61  1  0.17548000  0.51368000  0.40938000  1.0 0.5975514256
C  C62  1  0.82452000  0.01368000  0.09062000  1.0 0.5975514256
C  C63  1  0.13262000  0.47507000  0.37276000  1.0 -0.0411698244
C  C64  1  0.86738000  0.97507000  0.12724000  1.0 -0.0411698244
C  C65  1  0.10902000  0.43183000  0.38573000  1.0 -0.0801708469
C  C66  1  0.89098000  0.93183000  0.11427000  1.0 -0.0801708469
C  C67  1  0.07125000  0.39455000  0.35151000  1.0 -0.1081946868
C  C68  1  0.92875000  0.89455000  0.14849000  1.0 -0.1081946868
C  C69  1  0.05743000  0.40103000  0.30496000  1.0 0.0072800006
C  C70  1  0.94257000  0.90103000  0.19504000  1.0 0.0072800006
C  C71  1  0.08083000  0.44406000  0.29143000  1.0 -0.1000371175
C  C72  1  0.91917000  0.94406000  0.20857000  1.0 -0.1000371175
C  C73  1  0.11898000  0.48154000  0.32571000  1.0 -0.0801708469
C  C74  1  0.88102000  0.98154000  0.17429000  1.0 -0.0801708469
C  C75  1  0.02004000  0.35903000  0.27086000  1.0 0.3914286249
C  C76  1  0.97996000  0.85903000  0.22914000  1.0 0.3914286249
C  C77  1  0.93688000  0.32535000  0.19163000  1.0 0.2203415036
C  C78  1  0.06312000  0.82535000  0.30837000  1.0 0.2203415036
C  C79  1  0.91515000  0.28347000  0.20694000  1.0 -0.1831650681
C  C80  1  0.08485000  0.78347000  0.29306000  1.0 -0.1831650681
C  C81  1  0.87852000  0.24357000  0.17506000  1.0 -0.0801708469
C  C82  1  0.12148000  0.74357000  0.32494000  1.0 -0.0801708469
C  C83  1  0.86604000  0.24661000  0.12764000  1.0 -0.0338670335
C  C84  1  0.13396000  0.74661000  0.37236000  1.0 -0.0338670335
C  C85  1  0.88914000  0.28818000  0.11273000  1.0 -0.0801708469
C  C86  1  0.11086000  0.78818000  0.38727000  1.0 -0.0801708469
C  C87  1  0.92447000  0.32878000  0.14437000  1.0 -0.1335716567
C  C88  1  0.07553000  0.82878000  0.35563000  1.0 -0.1335716567
C  C89  1  0.82642000  0.20328000  0.09421000  1.0 0.5909802668
C  C90  1  0.17358000  0.70328000  0.40579000  1.0 0.5909802668
C  C91  1  0.58218000  0.41068000  0.54070000  1.0 0.5591671147
C  C92  1  0.41782000  0.91068000  0.95930000  1.0 0.5591671147
C  C93  1  0.50529000  0.40942000  0.54261000  1.0 -0.0136502395
C  C94  1  0.49471000  0.90942000  0.95739000  1.0 -0.0136502395
C  C95  1  0.48643000  0.36591000  0.55870000  1.0 -0.1000371175
C  C96  1  0.51357000  0.86591000  0.94130000  1.0 -0.1000371175
C  C97  1  0.41421000  0.36225000  0.55873000  1.0 -0.0884947497
C  C98  1  0.58579000  0.86225000  0.94127000  1.0 -0.0884947497
C  C99  1  0.35981000  0.40137000  0.54219000  1.0 -0.0488110306
C  C100  1  0.64019000  0.90137000  0.95781000  1.0 -0.0488110306
C  C101  1  0.37869000  0.44436000  0.52591000  1.0 -0.0884947497
C  C102  1  0.62131000  0.94436000  0.97409000  1.0 -0.0884947497
C  C103  1  0.45136000  0.44833000  0.52614000  1.0 -0.0884947497
C  C104  1  0.54864000  0.94833000  0.97386000  1.0 -0.0884947497
C  C105  1  0.28238000  0.39761000  0.54255000  1.0 0.4868862756
C  C106  1  0.71762000  0.89761000  0.95745000  1.0 0.4868862756
C  C107  1  0.13362000  0.39121000  0.49879000  1.0 0.2416521076
C  C108  1  0.86638000  0.89121000  0.00121000  1.0 0.2416521076
C  C109  1  0.08623000  0.34865000  0.48435000  1.0 -0.1621266298
C  C110  1  0.91377000  0.84865000  0.01565000  1.0 -0.1621266298
C  C111  1  0.01295000  0.34797000  0.48386000  1.0 -0.0884947497
C  C112  1  0.98705000  0.84797000  0.01614000  1.0 -0.0884947497
C  C113  1  0.98728000  0.38932000  0.49825000  1.0 -0.0488110306
C  C114  1  0.01272000  0.88932000  0.00175000  1.0 -0.0488110306
C  C115  1  0.03501000  0.43235000  0.51293000  1.0 -0.0801708469
C  C116  1  0.96499000  0.93235000  0.98707000  1.0 -0.0801708469
C  C117  1  0.10759000  0.43323000  0.51309000  1.0 -0.1407683812
C  C118  1  0.89241000  0.93323000  0.98691000  1.0 -0.1407683812
C  C119  1  0.90997000  0.38676000  0.49888000  1.0 0.5909802668
C  C120  1  0.09003000  0.88676000  0.00112000  1.0 0.5909802668
C  C121  1  0.65165000  0.48830000  0.41472000  1.0 0.5755049565
C  C122  1  0.34835000  0.98830000  0.08528000  1.0 0.5755049565
C  C123  1  0.61139000  0.52927000  0.37938000  1.0 -0.0195725815
C  C124  1  0.38861000  0.02927000  0.12062000  1.0 -0.0195725815
C  C125  1  0.61147000  0.52855000  0.33545000  1.0 -0.0884947497
C  C126  1  0.38853000  0.02855000  0.16455000  1.0 -0.0884947497
C  C127  1  0.57452000  0.56627000  0.30185000  1.0 -0.1170488935
C  C128  1  0.42548000  0.06627000  0.19815000  1.0 -0.1170488935
C  C129  1  0.53735000  0.60503000  0.31228000  1.0 0.2416521076
C  C130  1  0.46265000  0.10503000  0.18772000  1.0 0.2416521076
C  C131  1  0.53650000  0.60613000  0.35578000  1.0 -0.1549576394
C  C132  1  0.46350000  0.10613000  0.14422000  1.0 -0.1621266298
C  C133  1  0.57390000  0.56862000  0.38913000  1.0 -0.0801708469
C  C134  1  0.42610000  0.06862000  0.11087000  1.0 -0.0801708469
C  C135  1  0.50408000  0.64867000  0.23613000  1.0 0.4312719159
C  C136  1  0.49592000  0.14867000  0.26387000  1.0 0.4312719159
C  C137  1  0.46471000  0.68917000  0.19878000  1.0 0.0072800006
C  C138  1  0.53529000  0.18917000  0.30122000  1.0 0.0072800006
C  C139  1  0.38567000  0.68343000  0.16117000  1.0 -0.0884947497
C  C140  1  0.61433000  0.18343000  0.33883000  1.0 -0.0884947497
C  C141  1  0.34711000  0.72166000  0.12812000  1.0 -0.0801708469
C  C142  1  0.65289000  0.22166000  0.37188000  1.0 -0.0801708469
C  C143  1  0.38935000  0.76526000  0.13232000  1.0 -0.0602806372
C  C144  1  0.61065000  0.26526000  0.36768000  1.0 -0.0602806372
C  C145  1  0.46895000  0.77093000  0.16969000  1.0 -0.0719249032
C  C146  1  0.53105000  0.27093000  0.33031000  1.0 -0.0719249032
C  C147  1  0.50588000  0.73243000  0.20251000  1.0 -0.1000371175
C  C148  1  0.49412000  0.23243000  0.29749000  1.0 -0.1000371175
C  C149  1  0.34962000  0.80333000  0.09473000  1.0 0.5975514256
C  C150  1  0.65038000  0.30333000  0.40527000  1.0 0.5975514256
C  C151  1  0.82452000  0.48632000  0.59062000  1.0 0.5975514256
C  C152  1  0.17548000  0.98632000  0.90938000  1.0 0.5975514256
C  C153  1  0.86738000  0.52493000  0.62724000  1.0 -0.0411698244
C  C154  1  0.13262000  0.02493000  0.87276000  1.0 -0.0488110306
C  C155  1  0.89098000  0.56817000  0.61427000  1.0 -0.0801708469
C  C156  1  0.10902000  0.06817000  0.88573000  1.0 -0.0801708469
C  C157  1  0.92875000  0.60545000  0.64849000  1.0 -0.1081946868
C  C158  1  0.07125000  0.10545000  0.85151000  1.0 -0.1081946868
C  C159  1  0.94257000  0.59897000  0.69504000  1.0 0.0072800006
C  C160  1  0.05743000  0.09897000  0.80496000  1.0 0.0072800006
C  C161  1  0.91917000  0.55594000  0.70857000  1.0 -0.1000371175
C  C162  1  0.08083000  0.05594000  0.79143000  1.0 -0.1000371175
C  C163  1  0.88102000  0.51846000  0.67429000  1.0 -0.0801708469
C  C164  1  0.11898000  0.01846000  0.82571000  1.0 -0.0801708469
C  C165  1  0.97996000  0.64097000  0.72914000  1.0 0.3914286249
C  C166  1  0.02004000  0.14097000  0.77086000  1.0 0.3914286249
C  C167  1  0.06312000  0.67465000  0.80837000  1.0 0.2310620376
C  C168  1  0.93688000  0.17465000  0.69163000  1.0 0.2203415036
C  C169  1  0.08485000  0.71653000  0.79306000  1.0 -0.1831650681
C  C170  1  0.91515000  0.21653000  0.70694000  1.0 -0.1831650681
C  C171  1  0.12148000  0.75643000  0.82494000  1.0 -0.0801708469
C  C172  1  0.87852000  0.25643000  0.67506000  1.0 -0.0719249032
C  C173  1  0.13396000  0.75339000  0.87236000  1.0 -0.0411698244
C  C174  1  0.86604000  0.25339000  0.62764000  1.0 -0.0411698244
C  C175  1  0.11086000  0.71182000  0.88727000  1.0 -0.0801708469
C  C176  1  0.88914000  0.21182000  0.61273000  1.0 -0.0801708469
C  C177  1  0.07553000  0.67122000  0.85563000  1.0 -0.1335716567
C  C178  1  0.92447000  0.17122000  0.64437000  1.0 -0.1335716567
C  C179  1  0.17358000  0.79672000  0.90579000  1.0 0.5909802668
C  C180  1  0.82642000  0.29672000  0.59421000  1.0 0.5909802668
N  N1  1  0.78770000  0.60560000  0.49946000  1.0 -0.463949459
N  N2  1  0.21230000  0.10560000  0.00054000  1.0 -0.463949459
N  N3  1  0.98022000  0.36573000  0.22639000  1.0 -0.3621324322
N  N4  1  0.01978000  0.86573000  0.27361000  1.0 -0.3621324322
N  N5  1  0.49748000  0.35211000  0.72319000  1.0 -0.4097708237
N  N6  1  0.50252000  0.85211000  0.77681000  1.0 -0.4097708237
N  N7  1  0.21230000  0.39440000  0.50054000  1.0 -0.4679841371
N  N8  1  0.78770000  0.89440000  0.99946000  1.0 -0.4679841371
N  N9  1  0.01978000  0.63427000  0.77361000  1.0 -0.3621324322
N  N10  1  0.98022000  0.13427000  0.72639000  1.0 -0.3621324322
N  N11  1  0.50252000  0.64789000  0.27681000  1.0 -0.416553276
N  N12  1  0.49748000  0.14789000  0.22319000  1.0 -0.416553276
O  O1  1  0.27413000  0.61011000  0.49826000  1.0 -1.023338931
O  O2  1  0.72587000  0.11011000  0.00174000  1.0 -1.023338931
O  O3  1  0.35842000  0.61148000  0.42729000  1.0 -0.4998859003
O  O4  1  0.64158000  0.11148000  0.07271000  1.0 -0.4998859003
O  O5  1  0.71826000  0.60140000  0.41816000  1.0 -0.4789448717
O  O6  1  0.28174000  0.10140000  0.08184000  1.0 -0.4789448717
O  O7  1  0.12271000  0.65277000  0.50498000  1.0 -0.4789448717
O  O8  1  0.87729000  0.15277000  0.99502000  1.0 -0.4789448717
O  O9  1  0.12315000  0.57331000  0.49985000  1.0 -0.5306461525
O  O10  1  0.87685000  0.07331000  0.00015000  1.0 -0.5365910283
O  O11  1  0.39279000  0.54573000  0.58495000  1.0 -0.5365910283
O  O12  1  0.60721000  0.04573000  0.91505000  1.0 -0.5365910283
O  O13  1  0.27629000  0.50732000  0.55778000  1.0 -0.4998859003
O  O14  1  0.72371000  0.00732000  0.94222000  1.0 -0.4998859003
O  O15  1  0.46084000  0.38550000  0.77377000  1.0 -0.4679841371
O  O16  1  0.53916000  0.88550000  0.72623000  1.0 -0.4679841371
O  O17  1  0.71892000  0.20906000  0.93866000  1.0 -0.5203082818
O  O18  1  0.28108000  0.70906000  0.56134000  1.0 -0.5148152582
O  O19  1  0.19755000  0.55302000  0.39707000  1.0 -0.5365910283
O  O20  1  0.80245000  0.05302000  0.10293000  1.0 -0.5365910283
O  O21  1  0.18717000  0.50476000  0.45123000  1.0 -0.5203082818
O  O22  1  0.81283000  0.00476000  0.04877000  1.0 -0.5203082818
O  O23  1  0.01946000  0.31191000  0.27575000  1.0 -0.4097708237
O  O24  1  0.98054000  0.81191000  0.22425000  1.0 -0.4097708237
O  O25  1  0.81586000  0.20537000  0.05221000  1.0 -0.5306461525
O  O26  1  0.18414000  0.70537000  0.44779000  1.0 -0.5203082818
O  O27  1  0.80155000  0.16818000  0.10763000  1.0 -0.4789448717
O  O28  1  0.19845000  0.66818000  0.39237000  1.0 -0.4856777362
O  O29  1  0.41226000  0.56477000  0.49014000  1.0 -0.5480305574
O  O30  1  0.58774000  0.06477000  0.00986000  1.0 -0.5480305574
O  O31  1  0.61544000  0.15720000  0.89997000  1.0 -0.5203082818
O  O32  1  0.38456000  0.65720000  0.60003000  1.0 -0.5203082818
O  O33  1  0.72587000  0.38989000  0.50174000  1.0 -1.023338931
O  O34  1  0.27413000  0.88989000  0.99826000  1.0 -1.023338931
O  O35  1  0.64158000  0.38852000  0.57271000  1.0 -0.4998859003
O  O36  1  0.35842000  0.88852000  0.92729000  1.0 -0.4998859003
O  O37  1  0.28174000  0.39860000  0.58184000  1.0 -0.4789448717
O  O38  1  0.71826000  0.89860000  0.91816000  1.0 -0.4789448717
O  O39  1  0.87729000  0.34723000  0.49502000  1.0 -0.4789448717
O  O40  1  0.12271000  0.84723000  0.00498000  1.0 -0.4789448717
O  O41  1  0.87685000  0.42669000  0.50015000  1.0 -0.5365910283
O  O42  1  0.12315000  0.92669000  0.99985000  1.0 -0.5306461525
O  O43  1  0.60721000  0.45427000  0.41505000  1.0 -0.5365910283
O  O44  1  0.39279000  0.95427000  0.08495000  1.0 -0.5365910283
O  O45  1  0.72371000  0.49268000  0.44222000  1.0 -0.4998859003
O  O46  1  0.27629000  0.99268000  0.05778000  1.0 -0.4998859003
O  O47  1  0.53916000  0.61450000  0.22623000  1.0 -0.4679841371
O  O48  1  0.46084000  0.11450000  0.27377000  1.0 -0.4679841371
O  O49  1  0.28108000  0.79094000  0.06134000  1.0 -0.5203082818
O  O50  1  0.71892000  0.29094000  0.43866000  1.0 -0.5203082818
O  O51  1  0.80245000  0.44698000  0.60293000  1.0 -0.5365910283
O  O52  1  0.19755000  0.94698000  0.89707000  1.0 -0.5365910283
O  O53  1  0.81283000  0.49524000  0.54877000  1.0 -0.5203082818
O  O54  1  0.18717000  0.99524000  0.95123000  1.0 -0.5203082818
O  O55  1  0.98054000  0.68809000  0.72425000  1.0 -0.4097708237
O  O56  1  0.01946000  0.18809000  0.77575000  1.0 -0.4097708237
O  O57  1  0.18414000  0.79463000  0.94779000  1.0 -0.5203082818
O  O58  1  0.81586000  0.29463000  0.55221000  1.0 -0.5203082818
O  O59  1  0.19845000  0.83182000  0.89237000  1.0 -0.4856777362
O  O60  1  0.80155000  0.33182000  0.60763000  1.0 -0.4856777362
O  O61  1  0.58774000  0.43523000  0.50986000  1.0 -0.5480305574
O  O62  1  0.41226000  0.93523000  0.99014000  1.0 -0.5480305574
O  O63  1  0.38456000  0.84280000  0.10003000  1.0 -0.5203082818
O  O64  1  0.61544000  0.34280000  0.39997000  1.0 -0.5203082818
