# DDEC6 charges by PACMAN v1.1 (https://github.com/mtap-research/PACMAN-charge/)
data_OLOMUZ_ASR_pacman
_symmetry_space_group_name_H-M   'P 1'
_cell_length_a   28.10300000
_cell_length_b   28.10300000
_cell_length_c   28.10300000
_cell_angle_alpha   45.82310000
_cell_angle_beta   45.82310000
_cell_angle_gamma   45.82310000
_symmetry_Int_Tables_number   1
_chemical_formula_structural   CaAg2H6C12S2(NO2)2
_chemical_formula_sum   'Ca12 Ag24 H72 C144 S24 N24 O48'
_cell_volume   10409.21406128
_cell_formula_units_Z   12
loop_
 _symmetry_equiv_pos_site_id
 _symmetry_equiv_pos_as_xyz
  1  'x, y, z'
loop_
 _atom_site_type_symbol
 _atom_site_label
 _atom_site_symmetry_multiplicity
 _atom_site_fract_x
 _atom_site_fract_y
 _atom_site_fract_z
 _atom_site_occupancy
 _atom_site_charge
Ca  Ca1  1  0.14317000  0.53675000  0.03871000  1.0 1.320682366
Ca  Ca2  1  0.53675000  0.03871000  0.14317000  1.0 1.320682366
Ca  Ca3  1  0.03871000  0.14317000  0.53675000  1.0 1.320682366
Ca  Ca4  1  0.96325000  0.35683000  0.46129000  1.0 1.320682366
Ca  Ca5  1  0.46129000  0.96325000  0.35683000  1.0 1.320682366
Ca  Ca6  1  0.35683000  0.46129000  0.96325000  1.0 1.320682366
Ca  Ca7  1  0.85683000  0.46325000  0.96129000  1.0 1.320682366
Ca  Ca8  1  0.46325000  0.96129000  0.85683000  1.0 1.320682366
Ca  Ca9  1  0.96129000  0.85683000  0.46325000  1.0 1.320682366
Ca  Ca10  1  0.03675000  0.64317000  0.53871000  1.0 1.320682366
Ca  Ca11  1  0.53871000  0.03675000  0.64317000  1.0 1.320682366
Ca  Ca12  1  0.64317000  0.53871000  0.03675000  1.0 1.320682366
Ag  Ag1  1  0.31348000  0.43790000  0.26503000  1.0 0.1834187799
Ag  Ag2  1  0.43790000  0.26503000  0.31348000  1.0 0.1834187799
Ag  Ag3  1  0.26503000  0.31348000  0.43790000  1.0 0.1834187799
Ag  Ag4  1  0.06210000  0.18652000  0.23497000  1.0 0.1834187799
Ag  Ag5  1  0.23497000  0.06210000  0.18652000  1.0 0.1834187799
Ag  Ag6  1  0.18652000  0.23497000  0.06210000  1.0 0.1834187799
Ag  Ag7  1  0.68652000  0.56210000  0.73497000  1.0 0.1834187799
Ag  Ag8  1  0.56210000  0.73497000  0.68652000  1.0 0.1834187799
Ag  Ag9  1  0.73497000  0.68652000  0.56210000  1.0 0.1834187799
Ag  Ag10  1  0.93790000  0.81348000  0.76503000  1.0 0.1834187799
Ag  Ag11  1  0.76503000  0.93790000  0.81348000  1.0 0.1834187799
Ag  Ag12  1  0.81348000  0.76503000  0.93790000  1.0 0.1834187799
Ag  Ag13  1  0.21075000  0.38150000  0.33527000  1.0 0.1981998526
Ag  Ag14  1  0.38150000  0.33527000  0.21075000  1.0 0.1981998526
Ag  Ag15  1  0.33527000  0.21075000  0.38150000  1.0 0.1981998526
Ag  Ag16  1  0.11850000  0.28925000  0.16473000  1.0 0.1981998526
Ag  Ag17  1  0.16473000  0.11850000  0.28925000  1.0 0.1981998526
Ag  Ag18  1  0.28925000  0.16473000  0.11850000  1.0 0.1981998526
Ag  Ag19  1  0.78925000  0.61850000  0.66473000  1.0 0.1981998526
Ag  Ag20  1  0.61850000  0.66473000  0.78925000  1.0 0.1981998526
Ag  Ag21  1  0.66473000  0.78925000  0.61850000  1.0 0.1981998526
Ag  Ag22  1  0.88150000  0.71075000  0.83527000  1.0 0.1981998526
Ag  Ag23  1  0.83527000  0.88150000  0.71075000  1.0 0.1981998526
Ag  Ag24  1  0.71075000  0.83527000  0.88150000  1.0 0.1981998526
H  H1  1  0.20240000  0.66830000  0.03150000  1.0 0.1208725696
H  H2  1  0.66830000  0.03150000  0.20240000  1.0 0.1208725696
H  H3  1  0.03150000  0.20240000  0.66830000  1.0 0.1208725696
H  H4  1  0.83170000  0.29760000  0.46850000  1.0 0.1208725696
H  H5  1  0.46850000  0.83170000  0.29760000  1.0 0.1208725696
H  H6  1  0.29760000  0.46850000  0.83170000  1.0 0.1208725696
H  H7  1  0.79760000  0.33170000  0.96850000  1.0 0.1208725696
H  H8  1  0.33170000  0.96850000  0.79760000  1.0 0.1208725696
H  H9  1  0.96850000  0.79760000  0.33170000  1.0 0.1208725696
H  H10  1  0.16830000  0.70240000  0.53150000  1.0 0.1208725696
H  H11  1  0.53150000  0.16830000  0.70240000  1.0 0.1208725696
H  H12  1  0.70240000  0.53150000  0.16830000  1.0 0.1208725696
H  H13  1  0.23400000  0.69430000  0.06630000  1.0 0.1260982447
H  H14  1  0.69430000  0.06630000  0.23400000  1.0 0.1260982447
H  H15  1  0.06630000  0.23400000  0.69430000  1.0 0.1260982447
H  H16  1  0.80570000  0.26600000  0.43370000  1.0 0.1260982447
H  H17  1  0.43370000  0.80570000  0.26600000  1.0 0.1260982447
H  H18  1  0.26600000  0.43370000  0.80570000  1.0 0.1260982447
H  H19  1  0.76600000  0.30570000  0.93370000  1.0 0.1260982447
H  H20  1  0.30570000  0.93370000  0.76600000  1.0 0.1260982447
H  H21  1  0.93370000  0.76600000  0.30570000  1.0 0.1260982447
H  H22  1  0.19430000  0.73400000  0.56630000  1.0 0.1260982447
H  H23  1  0.56630000  0.19430000  0.73400000  1.0 0.1260982447
H  H24  1  0.73400000  0.56630000  0.19430000  1.0 0.1260982447
H  H25  1  0.27990000  0.60340000  0.15330000  1.0 0.1008163038
H  H26  1  0.60340000  0.15330000  0.27990000  1.0 0.1008163038
H  H27  1  0.15330000  0.27990000  0.60340000  1.0 0.1008163038
H  H28  1  0.89660000  0.22010000  0.34670000  1.0 0.1008163038
H  H29  1  0.34670000  0.89660000  0.22010000  1.0 0.1008163038
H  H30  1  0.22010000  0.34670000  0.89660000  1.0 0.1008163038
H  H31  1  0.72010000  0.39660000  0.84670000  1.0 0.1008163038
H  H32  1  0.39660000  0.84670000  0.72010000  1.0 0.1008163038
H  H33  1  0.84670000  0.72010000  0.39660000  1.0 0.1008163038
H  H34  1  0.10340000  0.77990000  0.65330000  1.0 0.1008163038
H  H35  1  0.65330000  0.10340000  0.77990000  1.0 0.1008163038
H  H36  1  0.77990000  0.65330000  0.10340000  1.0 0.1008163038
H  H37  1  0.04260000  0.49060000  0.37380000  1.0 0.1008163038
H  H38  1  0.49060000  0.37380000  0.04260000  1.0 0.1008163038
H  H39  1  0.37380000  0.04260000  0.49060000  1.0 0.1008163038
H  H40  1  0.00940000  0.45740000  0.12620000  1.0 0.1008163038
H  H41  1  0.12620000  0.00940000  0.45740000  1.0 0.1008163038
H  H42  1  0.45740000  0.12620000  0.00940000  1.0 0.1008163038
H  H43  1  0.95740000  0.50940000  0.62620000  1.0 0.1008163038
H  H44  1  0.50940000  0.62620000  0.95740000  1.0 0.1008163038
H  H45  1  0.62620000  0.95740000  0.50940000  1.0 0.1008163038
H  H46  1  0.99060000  0.54260000  0.87380000  1.0 0.1008163038
H  H47  1  0.87380000  0.99060000  0.54260000  1.0 0.1008163038
H  H48  1  0.54260000  0.87380000  0.99060000  1.0 0.1008163038
H  H49  1  0.95270000  0.58230000  0.41280000  1.0 0.1208725696
H  H50  1  0.58230000  0.41280000  0.95270000  1.0 0.1208725696
H  H51  1  0.41280000  0.95270000  0.58230000  1.0 0.1208725696
H  H52  1  0.91770000  0.54730000  0.08720000  1.0 0.1208725696
H  H53  1  0.08720000  0.91770000  0.54730000  1.0 0.1208725696
H  H54  1  0.54730000  0.08720000  0.91770000  1.0 0.1208725696
H  H55  1  0.04730000  0.41770000  0.58720000  1.0 0.1208725696
H  H56  1  0.41770000  0.58720000  0.04730000  1.0 0.1208725696
H  H57  1  0.58720000  0.04730000  0.41770000  1.0 0.1208725696
H  H58  1  0.08230000  0.45270000  0.91280000  1.0 0.1208725696
H  H59  1  0.91280000  0.08230000  0.45270000  1.0 0.1208725696
H  H60  1  0.45270000  0.91280000  0.08230000  1.0 0.1208725696
H  H61  1  0.97810000  0.61270000  0.44820000  1.0 0.1055954837
H  H62  1  0.61270000  0.44820000  0.97810000  1.0 0.1055954837
H  H63  1  0.44820000  0.97810000  0.61270000  1.0 0.1055954837
H  H64  1  0.88730000  0.52190000  0.05180000  1.0 0.1055954837
H  H65  1  0.05180000  0.88730000  0.52190000  1.0 0.1055954837
H  H66  1  0.52190000  0.05180000  0.88730000  1.0 0.1055954837
H  H67  1  0.02190000  0.38730000  0.55180000  1.0 0.1055954837
H  H68  1  0.38730000  0.55180000  0.02190000  1.0 0.1055954837
H  H69  1  0.55180000  0.02190000  0.38730000  1.0 0.1055954837
H  H70  1  0.11270000  0.47810000  0.94820000  1.0 0.1055954837
H  H71  1  0.94820000  0.11270000  0.47810000  1.0 0.1055954837
H  H72  1  0.47810000  0.94820000  0.11270000  1.0 0.1055954837
C  C1  1  0.25344000  0.50894000  0.15824000  1.0 0.2262095206
C  C2  1  0.50894000  0.15824000  0.25344000  1.0 0.2262095206
C  C3  1  0.15824000  0.25344000  0.50894000  1.0 0.2262095206
C  C4  1  0.99106000  0.24656000  0.34176000  1.0 0.2262095206
C  C5  1  0.34176000  0.99106000  0.24656000  1.0 0.2262095206
C  C6  1  0.24656000  0.34176000  0.99106000  1.0 0.2262095206
C  C7  1  0.74656000  0.49106000  0.84176000  1.0 0.2262095206
C  C8  1  0.49106000  0.84176000  0.74656000  1.0 0.2262095206
C  C9  1  0.84176000  0.74656000  0.49106000  1.0 0.2262095206
C  C10  1  0.00894000  0.75344000  0.65824000  1.0 0.2262095206
C  C11  1  0.65824000  0.00894000  0.75344000  1.0 0.2262095206
C  C12  1  0.75344000  0.65824000  0.00894000  1.0 0.2262095206
C  C13  1  0.22480000  0.56160000  0.10410000  1.0 -0.1012650716
C  C14  1  0.56160000  0.10410000  0.22480000  1.0 -0.1012650716
C  C15  1  0.10410000  0.22480000  0.56160000  1.0 -0.1012650716
C  C16  1  0.93840000  0.27520000  0.39590000  1.0 -0.1012650716
C  C17  1  0.39590000  0.93840000  0.27520000  1.0 -0.1012650716
C  C18  1  0.27520000  0.39590000  0.93840000  1.0 -0.1012650716
C  C19  1  0.77520000  0.43840000  0.89590000  1.0 -0.1012650716
C  C20  1  0.43840000  0.89590000  0.77520000  1.0 -0.1012650716
C  C21  1  0.89590000  0.77520000  0.43840000  1.0 -0.1012650716
C  C22  1  0.06160000  0.72480000  0.60410000  1.0 -0.1012650716
C  C23  1  0.60410000  0.06160000  0.72480000  1.0 -0.1012650716
C  C24  1  0.72480000  0.60410000  0.06160000  1.0 -0.1012650716
C  C25  1  0.21914000  0.63244000  0.06814000  1.0 -0.0573340921
C  C26  1  0.63244000  0.06814000  0.21914000  1.0 -0.0573340921
C  C27  1  0.06814000  0.21914000  0.63244000  1.0 -0.0573340921
C  C28  1  0.86756000  0.28086000  0.43186000  1.0 -0.0573340921
C  C29  1  0.43186000  0.86756000  0.28086000  1.0 -0.0573340921
C  C30  1  0.28086000  0.43186000  0.86756000  1.0 -0.0573340921
C  C31  1  0.78086000  0.36756000  0.93186000  1.0 -0.0573340921
C  C32  1  0.36756000  0.93186000  0.78086000  1.0 -0.0573340921
C  C33  1  0.93186000  0.78086000  0.36756000  1.0 -0.0573340921
C  C34  1  0.13244000  0.71914000  0.56814000  1.0 -0.0573340921
C  C35  1  0.56814000  0.13244000  0.71914000  1.0 -0.0573340921
C  C36  1  0.71914000  0.56814000  0.13244000  1.0 -0.0573340921
C  C37  1  0.23885000  0.64755000  0.08825000  1.0 -0.1664193093
C  C38  1  0.64755000  0.08825000  0.23885000  1.0 -0.1664193093
C  C39  1  0.08825000  0.23885000  0.64755000  1.0 -0.1664193093
C  C40  1  0.85245000  0.26115000  0.41175000  1.0 -0.1664193093
C  C41  1  0.41175000  0.85245000  0.26115000  1.0 -0.1664193093
C  C42  1  0.26115000  0.41175000  0.85245000  1.0 -0.1664193093
C  C43  1  0.76115000  0.35245000  0.91175000  1.0 -0.1664193093
C  C44  1  0.35245000  0.91175000  0.76115000  1.0 -0.1664193093
C  C45  1  0.91175000  0.76115000  0.35245000  1.0 -0.1664193093
C  C46  1  0.14755000  0.73885000  0.58825000  1.0 -0.1664193093
C  C47  1  0.58825000  0.14755000  0.73885000  1.0 -0.1664193093
C  C48  1  0.73885000  0.58825000  0.14755000  1.0 -0.1664193093
C  C49  1  0.26576000  0.59276000  0.14106000  1.0 0.0543467023
C  C50  1  0.59276000  0.14106000  0.26576000  1.0 0.0543467023
C  C51  1  0.14106000  0.26576000  0.59276000  1.0 0.0543467023
C  C52  1  0.90724000  0.23424000  0.35894000  1.0 0.0543467023
C  C53  1  0.35894000  0.90724000  0.23424000  1.0 0.0543467023
C  C54  1  0.23424000  0.35894000  0.90724000  1.0 0.0543467023
C  C55  1  0.73424000  0.40724000  0.85894000  1.0 0.0543467023
C  C56  1  0.40724000  0.85894000  0.73424000  1.0 0.0543467023
C  C57  1  0.85894000  0.73424000  0.40724000  1.0 0.0543467023
C  C58  1  0.09276000  0.76576000  0.64106000  1.0 0.0543467023
C  C59  1  0.64106000  0.09276000  0.76576000  1.0 0.0543467023
C  C60  1  0.76576000  0.64106000  0.09276000  1.0 0.0543467023
C  C61  1  0.20005000  0.54685000  0.08435000  1.0 0.5988853269
C  C62  1  0.54685000  0.08435000  0.20005000  1.0 0.5988853269
C  C63  1  0.08435000  0.20005000  0.54685000  1.0 0.5988853269
C  C64  1  0.95315000  0.29995000  0.41565000  1.0 0.5988853269
C  C65  1  0.41565000  0.95315000  0.29995000  1.0 0.5988853269
C  C66  1  0.29995000  0.41565000  0.95315000  1.0 0.5988853269
C  C67  1  0.79995000  0.45315000  0.91565000  1.0 0.5988853269
C  C68  1  0.45315000  0.91565000  0.79995000  1.0 0.5988853269
C  C69  1  0.91565000  0.79995000  0.45315000  1.0 0.5988853269
C  C70  1  0.04685000  0.70005000  0.58435000  1.0 0.5988853269
C  C71  1  0.58435000  0.04685000  0.70005000  1.0 0.5988853269
C  C72  1  0.70005000  0.58435000  0.04685000  1.0 0.5988853269
C  C73  1  0.10093000  0.57553000  0.43643000  1.0 0.5731393986
C  C74  1  0.57553000  0.43643000  0.10093000  1.0 0.5731393986
C  C75  1  0.43643000  0.10093000  0.57553000  1.0 0.5731393986
C  C76  1  0.92447000  0.39907000  0.06357000  1.0 0.5731393986
C  C77  1  0.06357000  0.92447000  0.39907000  1.0 0.5731393986
C  C78  1  0.39907000  0.06357000  0.92447000  1.0 0.5731393986
C  C79  1  0.89907000  0.42447000  0.56357000  1.0 0.5731393986
C  C80  1  0.42447000  0.56357000  0.89907000  1.0 0.5731393986
C  C81  1  0.56357000  0.89907000  0.42447000  1.0 0.5731393986
C  C82  1  0.07553000  0.60093000  0.93643000  1.0 0.5731393986
C  C83  1  0.93643000  0.07553000  0.60093000  1.0 0.5731393986
C  C84  1  0.60093000  0.93643000  0.07553000  1.0 0.5731393986
C  C85  1  0.08537000  0.54537000  0.42137000  1.0 -0.0931793979
C  C86  1  0.54537000  0.42137000  0.08537000  1.0 -0.0931793979
C  C87  1  0.42137000  0.08537000  0.54537000  1.0 -0.0931793979
C  C88  1  0.95463000  0.41463000  0.07863000  1.0 -0.0931793979
C  C89  1  0.07863000  0.95463000  0.41463000  1.0 -0.0931793979
C  C90  1  0.41463000  0.07863000  0.95463000  1.0 -0.0931793979
C  C91  1  0.91463000  0.45463000  0.57863000  1.0 -0.0931793979
C  C92  1  0.45463000  0.57863000  0.91463000  1.0 -0.0931793979
C  C93  1  0.57863000  0.91463000  0.45463000  1.0 -0.0931793979
C  C94  1  0.04537000  0.58537000  0.92137000  1.0 -0.0931793979
C  C95  1  0.92137000  0.04537000  0.58537000  1.0 -0.0931793979
C  C96  1  0.58537000  0.92137000  0.04537000  1.0 -0.0931793979
C  C97  1  0.13921000  0.49071000  0.39351000  1.0 0.2096353117
C  C98  1  0.49071000  0.39351000  0.13921000  1.0 0.2096353117
C  C99  1  0.39351000  0.13921000  0.49071000  1.0 0.2096353117
C  C100  1  0.00929000  0.36079000  0.10649000  1.0 0.2096353117
C  C101  1  0.10649000  0.00929000  0.36079000  1.0 0.2096353117
C  C102  1  0.36079000  0.10649000  0.00929000  1.0 0.2096353117
C  C103  1  0.86079000  0.50929000  0.60649000  1.0 0.2096353117
C  C104  1  0.50929000  0.60649000  0.86079000  1.0 0.2096353117
C  C105  1  0.60649000  0.86079000  0.50929000  1.0 0.2096353117
C  C106  1  0.99071000  0.63921000  0.89351000  1.0 0.2096353117
C  C107  1  0.89351000  0.99071000  0.63921000  1.0 0.2096353117
C  C108  1  0.63921000  0.89351000  0.99071000  1.0 0.2096353117
C  C109  1  0.05381000  0.50531000  0.38511000  1.0 0.0616834455
C  C110  1  0.50531000  0.38511000  0.05381000  1.0 0.0616834455
C  C111  1  0.38511000  0.05381000  0.50531000  1.0 0.0616834455
C  C112  1  0.99469000  0.44619000  0.11489000  1.0 0.0616834455
C  C113  1  0.11489000  0.99469000  0.44619000  1.0 0.0616834455
C  C114  1  0.44619000  0.11489000  0.99469000  1.0 0.0616834455
C  C115  1  0.94619000  0.49469000  0.61489000  1.0 0.0616834455
C  C116  1  0.49469000  0.61489000  0.94619000  1.0 0.0616834455
C  C117  1  0.61489000  0.94619000  0.49469000  1.0 0.0616834455
C  C118  1  0.00531000  0.55381000  0.88511000  1.0 0.0616834455
C  C119  1  0.88511000  0.00531000  0.55381000  1.0 0.0616834455
C  C120  1  0.55381000  0.88511000  0.00531000  1.0 0.0616834455
C  C121  1  0.99906000  0.55926000  0.40976000  1.0 -0.1596156117
C  C122  1  0.55926000  0.40976000  0.99906000  1.0 -0.1596156117
C  C123  1  0.40976000  0.99906000  0.55926000  1.0 -0.1596156117
C  C124  1  0.94074000  0.50094000  0.09024000  1.0 -0.1596156117
C  C125  1  0.09024000  0.94074000  0.50094000  1.0 -0.1596156117
C  C126  1  0.50094000  0.09024000  0.94074000  1.0 -0.1596156117
C  C127  1  0.00094000  0.44074000  0.59024000  1.0 -0.1596156117
C  C128  1  0.44074000  0.59024000  0.00094000  1.0 -0.1596156117
C  C129  1  0.59024000  0.00094000  0.44074000  1.0 -0.1596156117
C  C130  1  0.05926000  0.49906000  0.90976000  1.0 -0.1596156117
C  C131  1  0.90976000  0.05926000  0.49906000  1.0 -0.1596156117
C  C132  1  0.49906000  0.90976000  0.05926000  1.0 -0.1596156117
C  C133  1  0.01476000  0.57786000  0.42916000  1.0 -0.072043726
C  C134  1  0.57786000  0.42916000  0.01476000  1.0 -0.072043726
C  C135  1  0.42916000  0.01476000  0.57786000  1.0 -0.072043726
C  C136  1  0.92214000  0.48524000  0.07084000  1.0 -0.072043726
C  C137  1  0.07084000  0.92214000  0.48524000  1.0 -0.072043726
C  C138  1  0.48524000  0.07084000  0.92214000  1.0 -0.072043726
C  C139  1  0.98524000  0.42214000  0.57084000  1.0 -0.072043726
C  C140  1  0.42214000  0.57084000  0.98524000  1.0 -0.072043726
C  C141  1  0.57084000  0.98524000  0.42214000  1.0 -0.072043726
C  C142  1  0.07786000  0.51476000  0.92916000  1.0 -0.072043726
C  C143  1  0.92916000  0.07786000  0.51476000  1.0 -0.072043726
C  C144  1  0.51476000  0.92916000  0.07786000  1.0 -0.072043726
S  S1  1  0.26087000  0.41987000  0.20316000  1.0 -0.2659339216
S  S2  1  0.41987000  0.20316000  0.26087000  1.0 -0.2659339216
S  S3  1  0.20316000  0.26087000  0.41987000  1.0 -0.2659339216
S  S4  1  0.08013000  0.23913000  0.29684000  1.0 -0.2659339216
S  S5  1  0.29684000  0.08013000  0.23913000  1.0 -0.2659339216
S  S6  1  0.23913000  0.29684000  0.08013000  1.0 -0.2659339216
S  S7  1  0.73913000  0.58013000  0.79684000  1.0 -0.2659339216
S  S8  1  0.58013000  0.79684000  0.73913000  1.0 -0.2659339216
S  S9  1  0.79684000  0.73913000  0.58013000  1.0 -0.2659339216
S  S10  1  0.91987000  0.76087000  0.70316000  1.0 -0.2659339216
S  S11  1  0.70316000  0.91987000  0.76087000  1.0 -0.2659339216
S  S12  1  0.76087000  0.70316000  0.91987000  1.0 -0.2659339216
S  S13  1  0.22893000  0.44524000  0.38415000  1.0 -0.2394690309
S  S14  1  0.44524000  0.38415000  0.22893000  1.0 -0.2394690309
S  S15  1  0.38415000  0.22893000  0.44524000  1.0 -0.2394690309
S  S16  1  0.05476000  0.27107000  0.11585000  1.0 -0.2394690309
S  S17  1  0.11585000  0.05476000  0.27107000  1.0 -0.2394690309
S  S18  1  0.27107000  0.11585000  0.05476000  1.0 -0.2394690309
S  S19  1  0.77107000  0.55476000  0.61585000  1.0 -0.2394690309
S  S20  1  0.55476000  0.61585000  0.77107000  1.0 -0.2394690309
S  S21  1  0.61585000  0.77107000  0.55476000  1.0 -0.2394690309
S  S22  1  0.94524000  0.72893000  0.88415000  1.0 -0.2394690309
S  S23  1  0.88415000  0.94524000  0.72893000  1.0 -0.2394690309
S  S24  1  0.72893000  0.88415000  0.94524000  1.0 -0.2394690309
N  N1  1  0.27223000  0.52513000  0.17543000  1.0 -0.2548550374
N  N2  1  0.52513000  0.17543000  0.27223000  1.0 -0.2548550374
N  N3  1  0.17543000  0.27223000  0.52513000  1.0 -0.2548550374
N  N4  1  0.97487000  0.22777000  0.32457000  1.0 -0.2548550374
N  N5  1  0.32457000  0.97487000  0.22777000  1.0 -0.2548550374
N  N6  1  0.22777000  0.32457000  0.97487000  1.0 -0.2548550374
N  N7  1  0.72777000  0.47487000  0.82457000  1.0 -0.2548550374
N  N8  1  0.47487000  0.82457000  0.72777000  1.0 -0.2548550374
N  N9  1  0.82457000  0.72777000  0.47487000  1.0 -0.2548550374
N  N10  1  0.02513000  0.77223000  0.67543000  1.0 -0.2548550374
N  N11  1  0.67543000  0.02513000  0.77223000  1.0 -0.2548550374
N  N12  1  0.77223000  0.67543000  0.02513000  1.0 -0.2548550374
N  N13  1  0.12199000  0.47239000  0.37619000  1.0 -0.2394690309
N  N14  1  0.47239000  0.37619000  0.12199000  1.0 -0.2394690309
N  N15  1  0.37619000  0.12199000  0.47239000  1.0 -0.2394690309
N  N16  1  0.02761000  0.37801000  0.12381000  1.0 -0.2394690309
N  N17  1  0.12381000  0.02761000  0.37801000  1.0 -0.2394690309
N  N18  1  0.37801000  0.12381000  0.02761000  1.0 -0.2394690309
N  N19  1  0.87801000  0.52761000  0.62381000  1.0 -0.2394690309
N  N20  1  0.52761000  0.62381000  0.87801000  1.0 -0.2394690309
N  N21  1  0.62381000  0.87801000  0.52761000  1.0 -0.2394690309
N  N22  1  0.97239000  0.62199000  0.87619000  1.0 -0.2394690309
N  N23  1  0.87619000  0.97239000  0.62199000  1.0 -0.2394690309
N  N24  1  0.62199000  0.87619000  0.97239000  1.0 -0.2394690309
O  O1  1  0.24514000  0.51614000  0.04324000  1.0 -0.6583917446
O  O2  1  0.51614000  0.04324000  0.24514000  1.0 -0.6583917446
O  O3  1  0.04324000  0.24514000  0.51614000  1.0 -0.6583917446
O  O4  1  0.98386000  0.25486000  0.45676000  1.0 -0.6583917446
O  O5  1  0.45676000  0.98386000  0.25486000  1.0 -0.6583917446
O  O6  1  0.25486000  0.45676000  0.98386000  1.0 -0.6583917446
O  O7  1  0.75486000  0.48386000  0.95676000  1.0 -0.6583917446
O  O8  1  0.48386000  0.95676000  0.75486000  1.0 -0.6583917446
O  O9  1  0.95676000  0.75486000  0.48386000  1.0 -0.6583917446
O  O10  1  0.01614000  0.74514000  0.54324000  1.0 -0.6583917446
O  O11  1  0.54324000  0.01614000  0.74514000  1.0 -0.6583917446
O  O12  1  0.74514000  0.54324000  0.01614000  1.0 -0.6583917446
O  O13  1  0.13409000  0.56569000  0.11089000  1.0 -0.6131160564
O  O14  1  0.56569000  0.11089000  0.13409000  1.0 -0.6131160564
O  O15  1  0.11089000  0.13409000  0.56569000  1.0 -0.6131160564
O  O16  1  0.93431000  0.36591000  0.38911000  1.0 -0.6131160564
O  O17  1  0.38911000  0.93431000  0.36591000  1.0 -0.6131160564
O  O18  1  0.36591000  0.38911000  0.93431000  1.0 -0.6131160564
O  O19  1  0.86591000  0.43431000  0.88911000  1.0 -0.6131160564
O  O20  1  0.43431000  0.88911000  0.86591000  1.0 -0.6131160564
O  O21  1  0.88911000  0.86591000  0.43431000  1.0 -0.6131160564
O  O22  1  0.06569000  0.63409000  0.61089000  1.0 -0.6131160564
O  O23  1  0.61089000  0.06569000  0.63409000  1.0 -0.6131160564
O  O24  1  0.63409000  0.61089000  0.06569000  1.0 -0.6131160564
O  O25  1  0.05234000  0.59684000  0.48384000  1.0 -0.6237344202
O  O26  1  0.59684000  0.48384000  0.05234000  1.0 -0.6237344202
O  O27  1  0.48384000  0.05234000  0.59684000  1.0 -0.6237344202
O  O28  1  0.90316000  0.44766000  0.01616000  1.0 -0.6237344202
O  O29  1  0.01616000  0.90316000  0.44766000  1.0 -0.6237344202
O  O30  1  0.44766000  0.01616000  0.90316000  1.0 -0.6237344202
O  O31  1  0.94766000  0.40316000  0.51616000  1.0 -0.6237344202
O  O32  1  0.40316000  0.51616000  0.94766000  1.0 -0.6237344202
O  O33  1  0.51616000  0.94766000  0.40316000  1.0 -0.6237344202
O  O34  1  0.09684000  0.55234000  0.98384000  1.0 -0.6237344202
O  O35  1  0.98384000  0.09684000  0.55234000  1.0 -0.6237344202
O  O36  1  0.55234000  0.98384000  0.09684000  1.0 -0.6237344202
O  O37  1  0.15886000  0.58576000  0.39326000  1.0 -0.5564457284
O  O38  1  0.58576000  0.39326000  0.15886000  1.0 -0.5564457284
O  O39  1  0.39326000  0.15886000  0.58576000  1.0 -0.5564457284
O  O40  1  0.91424000  0.34114000  0.10674000  1.0 -0.5564457284
O  O41  1  0.10674000  0.91424000  0.34114000  1.0 -0.5564457284
O  O42  1  0.34114000  0.10674000  0.91424000  1.0 -0.5564457284
O  O43  1  0.84114000  0.41424000  0.60674000  1.0 -0.5564457284
O  O44  1  0.41424000  0.60674000  0.84114000  1.0 -0.5564457284
O  O45  1  0.60674000  0.84114000  0.41424000  1.0 -0.5564457284
O  O46  1  0.08576000  0.65886000  0.89326000  1.0 -0.5564457284
O  O47  1  0.89326000  0.08576000  0.65886000  1.0 -0.5564457284
O  O48  1  0.65886000  0.89326000  0.08576000  1.0 -0.5564457284
