# DDEC6 charges by PACMAN v1.1 (https://github.com/mtap-research/PACMAN-charge/)
data_OLOPOW_FSR_pacman
_symmetry_space_group_name_H-M   'P 1'
_cell_length_a   9.57110000
_cell_length_b   12.43800000
_cell_length_c   28.15900000
_cell_angle_alpha   90.00000000
_cell_angle_beta   109.37700000
_cell_angle_gamma   90.00000000
_symmetry_Int_Tables_number   1
_chemical_formula_structural   CdH30C40(N2O3)2
_chemical_formula_sum   'Cd4 H120 C160 N16 O24'
_cell_volume   3162.31562044
_cell_formula_units_Z   4
loop_
 _symmetry_equiv_pos_site_id
 _symmetry_equiv_pos_as_xyz
  1  'x, y, z'
loop_
 _atom_site_type_symbol
 _atom_site_label
 _atom_site_symmetry_multiplicity
 _atom_site_fract_x
 _atom_site_fract_y
 _atom_site_fract_z
 _atom_site_occupancy
 _atom_site_charge
Cd  Cd1  1  0.73087000  0.53898000  0.04647000  1.0 0.8655541173
Cd  Cd2  1  0.26913000  0.03898000  0.45353000  1.0 0.8643319241
Cd  Cd3  1  0.26913000  0.46102000  0.95353000  1.0 0.8643319241
Cd  Cd4  1  0.73087000  0.96102000  0.54647000  1.0 0.8643319241
H  H1  1  0.42800000  0.64660000  0.03290000  1.0 0.1012911501
H  H2  1  0.57200000  0.14660000  0.46710000  1.0 0.1012911501
H  H3  1  0.57200000  0.35340000  0.96710000  1.0 0.1012911501
H  H4  1  0.42800000  0.85340000  0.53290000  1.0 0.1012911501
H  H5  1  0.30450000  0.80540000  0.03300000  1.0 0.1187473281
H  H6  1  0.69550000  0.30540000  0.46700000  1.0 0.1187473281
H  H7  1  0.69550000  0.19460000  0.96700000  1.0 0.1187473281
H  H8  1  0.30450000  0.69460000  0.53300000  1.0 0.1187473281
H  H9  1  0.69860000  0.95290000  0.08370000  1.0 0.1281794714
H  H10  1  0.30140000  0.45290000  0.41630000  1.0 0.1281794714
H  H11  1  0.30140000  0.04710000  0.91630000  1.0 0.1281794714
H  H12  1  0.69860000  0.54710000  0.58370000  1.0 0.1281794714
H  H13  1  0.80880000  0.79140000  0.07580000  1.0 0.1084649476
H  H14  1  0.19120000  0.29140000  0.42420000  1.0 0.1084649476
H  H15  1  0.19120000  0.20860000  0.92420000  1.0 0.1084649476
H  H16  1  0.80880000  0.70860000  0.57580000  1.0 0.1084649476
H  H17  1  0.41740000  0.16070000  0.07550000  1.0 0.1425044841
H  H18  1  0.58260000  0.66070000  0.42450000  1.0 0.1425044841
H  H19  1  0.58260000  0.83930000  0.92450000  1.0 0.1425044841
H  H20  1  0.41740000  0.33930000  0.57550000  1.0 0.1425044841
H  H21  1  0.54440000  0.09180000  0.11510000  1.0 0.1281794714
H  H22  1  0.45560000  0.59180000  0.38490000  1.0 0.1281794714
H  H23  1  0.45560000  0.90820000  0.88490000  1.0 0.1281794714
H  H24  1  0.54440000  0.40820000  0.61510000  1.0 0.1281794714
H  H25  1  0.55700000  0.11990000  0.06120000  1.0 0.1425044841
H  H26  1  0.44300000  0.61990000  0.43880000  1.0 0.1425044841
H  H27  1  0.44300000  0.88010000  0.93880000  1.0 0.1425044841
H  H28  1  0.55700000  0.38010000  0.56120000  1.0 0.1425044841
H  H29  1  0.76560000  0.30530000  0.09740000  1.0 0.1012911501
H  H30  1  0.23440000  0.80530000  0.40260000  1.0 0.1012911501
H  H31  1  0.23440000  0.69470000  0.90260000  1.0 0.1012911501
H  H32  1  0.76560000  0.19470000  0.59740000  1.0 0.1012911501
H  H33  1  0.89670000  0.14630000  0.10520000  1.0 0.1187473281
H  H34  1  0.10330000  0.64630000  0.39480000  1.0 0.1187473281
H  H35  1  0.10330000  0.85370000  0.89480000  1.0 0.1187473281
H  H36  1  0.89670000  0.35370000  0.60520000  1.0 0.1187473281
H  H37  1  0.05270000  0.25240000  0.99630000  1.0 0.1281794714
H  H38  1  0.94730000  0.75240000  0.50370000  1.0 0.1281794714
H  H39  1  0.94730000  0.74760000  0.00370000  1.0 0.1281794714
H  H40  1  0.05270000  0.24760000  0.49630000  1.0 0.1281794714
H  H41  1  0.91660000  0.40910000  0.99160000  1.0 0.1084649476
H  H42  1  0.08340000  0.90910000  0.50840000  1.0 0.1084649476
H  H43  1  0.08340000  0.59090000  0.00840000  1.0 0.1084649476
H  H44  1  0.91660000  0.09090000  0.49160000  1.0 0.1084649476
H  H45  1  0.11430000  0.92720000  0.08130000  1.0 0.1484161374
H  H46  1  0.88570000  0.42720000  0.41870000  1.0 0.1484161374
H  H47  1  0.88570000  0.07280000  0.91870000  1.0 0.1484161374
H  H48  1  0.11430000  0.57280000  0.58130000  1.0 0.1484161374
H  H49  1  0.09790000  0.00800000  0.12340000  1.0 0.1484161374
H  H50  1  0.90210000  0.50800000  0.37660000  1.0 0.1484161374
H  H51  1  0.90210000  0.99200000  0.87660000  1.0 0.1484161374
H  H52  1  0.09790000  0.49200000  0.62340000  1.0 0.1484161374
H  H53  1  0.95500000  0.97430000  0.07710000  1.0 0.1484161374
H  H54  1  0.04500000  0.47430000  0.42290000  1.0 0.1484161374
H  H55  1  0.04500000  0.02570000  0.92290000  1.0 0.1484161374
H  H56  1  0.95500000  0.52570000  0.57710000  1.0 0.1484161374
H  H57  1  0.14480000  0.51060000  0.21220000  1.0 0.078508944
H  H58  1  0.85520000  0.01060000  0.28780000  1.0 0.078508944
H  H59  1  0.85520000  0.48940000  0.78780000  1.0 0.078508944
H  H60  1  0.14480000  0.98940000  0.71220000  1.0 0.078508944
H  H61  1  0.37460000  0.56400000  0.26850000  1.0 0.0900360595
H  H62  1  0.62540000  0.06400000  0.23150000  1.0 0.0900360595
H  H63  1  0.62540000  0.43600000  0.73150000  1.0 0.0900360595
H  H64  1  0.37460000  0.93600000  0.76850000  1.0 0.0900360595
H  H65  1  0.42630000  0.76910000  0.16370000  1.0 0.1012911501
H  H66  1  0.57370000  0.26910000  0.33630000  1.0 0.1012911501
H  H67  1  0.57370000  0.23090000  0.83630000  1.0 0.1012911501
H  H68  1  0.42630000  0.73090000  0.66370000  1.0 0.1012911501
H  H69  1  0.19650000  0.71570000  0.10740000  1.0 0.1281794714
H  H70  1  0.80350000  0.21570000  0.39260000  1.0 0.1281794714
H  H71  1  0.80350000  0.28430000  0.89260000  1.0 0.1281794714
H  H72  1  0.19650000  0.78430000  0.60740000  1.0 0.1281794714
H  H73  1  0.34790000  0.90350000  0.34390000  1.0 0.1084649476
H  H74  1  0.65210000  0.40350000  0.15610000  1.0 0.1084649476
H  H75  1  0.65210000  0.09650000  0.65610000  1.0 0.1084649476
H  H76  1  0.34790000  0.59650000  0.84390000  1.0 0.1084649476
H  H77  1  0.78750000  0.84670000  0.40170000  1.0 0.1281794714
H  H78  1  0.21250000  0.34670000  0.09830000  1.0 0.1281794714
H  H79  1  0.21250000  0.15330000  0.59830000  1.0 0.1281794714
H  H80  1  0.78750000  0.65330000  0.90170000  1.0 0.1281794714
H  H81  1  0.77630000  0.74840000  0.33010000  1.0 0.0900360595
H  H82  1  0.22370000  0.24840000  0.16990000  1.0 0.0900360595
H  H83  1  0.22370000  0.25160000  0.66990000  1.0 0.0900360595
H  H84  1  0.77630000  0.75160000  0.83010000  1.0 0.0900360595
H  H85  1  0.33670000  0.80520000  0.27230000  1.0 0.078508944
H  H86  1  0.66330000  0.30520000  0.22770000  1.0 0.078508944
H  H87  1  0.66330000  0.19480000  0.72770000  1.0 0.078508944
H  H88  1  0.33670000  0.69480000  0.77230000  1.0 0.078508944
H  H89  1  0.13770000  0.56380000  0.21570000  1.0 0.1012911501
H  H90  1  0.86230000  0.06380000  0.28430000  1.0 0.1012911501
H  H91  1  0.86230000  0.43620000  0.78430000  1.0 0.1012911501
H  H92  1  0.13770000  0.93620000  0.71570000  1.0 0.1012911501
H  H93  1  0.36440000  0.63430000  0.26660000  1.0 0.0900360595
H  H94  1  0.63560000  0.13430000  0.23340000  1.0 0.0900360595
H  H95  1  0.63560000  0.36570000  0.73340000  1.0 0.0900360595
H  H96  1  0.36440000  0.86570000  0.76660000  1.0 0.0900360595
H  H97  1  0.40520000  0.79410000  0.14660000  1.0 0.078508944
H  H98  1  0.59480000  0.29410000  0.35340000  1.0 0.078508944
H  H99  1  0.59480000  0.20590000  0.85340000  1.0 0.078508944
H  H100  1  0.40520000  0.70590000  0.64660000  1.0 0.078508944
H  H101  1  0.17850000  0.72360000  0.09570000  1.0 0.1084649476
H  H102  1  0.82150000  0.22360000  0.40430000  1.0 0.1084649476
H  H103  1  0.82150000  0.27640000  0.90430000  1.0 0.1084649476
H  H104  1  0.17850000  0.77640000  0.59570000  1.0 0.1084649476
H  H105  1  0.35690000  0.93740000  0.35170000  1.0 0.0900360595
H  H106  1  0.64310000  0.43740000  0.14830000  1.0 0.0900360595
H  H107  1  0.64310000  0.06260000  0.64830000  1.0 0.0900360595
H  H108  1  0.35690000  0.56260000  0.85170000  1.0 0.0900360595
H  H109  1  0.78350000  0.83710000  0.39960000  1.0 0.1281794714
H  H110  1  0.21650000  0.33710000  0.10040000  1.0 0.1281794714
H  H111  1  0.21650000  0.16290000  0.60040000  1.0 0.1281794714
H  H112  1  0.78350000  0.66290000  0.89960000  1.0 0.1281794714
H  H113  1  0.75510000  0.77420000  0.31870000  1.0 0.1084649476
H  H114  1  0.24490000  0.27420000  0.18130000  1.0 0.1084649476
H  H115  1  0.24490000  0.22580000  0.68130000  1.0 0.1084649476
H  H116  1  0.75510000  0.72580000  0.81870000  1.0 0.1084649476
H  H117  1  0.32860000  0.87450000  0.27080000  1.0 0.078508944
H  H118  1  0.67140000  0.37450000  0.22920000  1.0 0.078508944
H  H119  1  0.67140000  0.12550000  0.72920000  1.0 0.078508944
H  H120  1  0.32860000  0.62550000  0.77080000  1.0 0.078508944
C  C1  1  0.48480000  0.71050000  0.04260000  1.0 0.068419335
C  C2  1  0.51520000  0.21050000  0.45740000  1.0 0.068419335
C  C3  1  0.51520000  0.28950000  0.95740000  1.0 0.068419335
C  C4  1  0.48480000  0.78950000  0.54260000  1.0 0.068419335
C  C5  1  0.40940000  0.80530000  0.04270000  1.0 -0.2000497349
C  C6  1  0.59060000  0.30530000  0.45730000  1.0 -0.2000497349
C  C7  1  0.59060000  0.19470000  0.95730000  1.0 -0.2000497349
C  C8  1  0.40940000  0.69470000  0.54270000  1.0 -0.2000497349
C  C9  1  0.48650000  0.89850000  0.05690000  1.0 0.068419335
C  C10  1  0.51350000  0.39850000  0.44310000  1.0 0.068419335
C  C11  1  0.51350000  0.10150000  0.94310000  1.0 0.068419335
C  C12  1  0.48650000  0.60150000  0.55690000  1.0 0.068419335
C  C13  1  0.63900000  0.89120000  0.07150000  1.0 -0.1770838828
C  C14  1  0.36100000  0.39120000  0.42850000  1.0 -0.1770838828
C  C15  1  0.36100000  0.10880000  0.92850000  1.0 -0.1770838828
C  C16  1  0.63900000  0.60880000  0.57150000  1.0 -0.1770838828
C  C17  1  0.70440000  0.79370000  0.06810000  1.0 0.068419335
C  C18  1  0.29560000  0.29370000  0.43190000  1.0 0.068419335
C  C19  1  0.29560000  0.20630000  0.93190000  1.0 0.068419335
C  C20  1  0.70440000  0.70630000  0.56810000  1.0 0.068419335
C  C21  1  0.40740000  0.00070000  0.05830000  1.0 0.2337381697
C  C22  1  0.59260000  0.50070000  0.44170000  1.0 0.2337381697
C  C23  1  0.59260000  0.99930000  0.94170000  1.0 0.2337381697
C  C24  1  0.40740000  0.49930000  0.55830000  1.0 0.2337381697
C  C25  1  0.48860000  0.10200000  0.07940000  1.0 -0.5424525955
C  C26  1  0.51140000  0.60200000  0.42060000  1.0 -0.5424525955
C  C27  1  0.51140000  0.89800000  0.92060000  1.0 -0.5424525955
C  C28  1  0.48860000  0.39800000  0.57940000  1.0 -0.5424525955
C  C29  1  0.82490000  0.29400000  0.07670000  1.0 0.068419335
C  C30  1  0.17510000  0.79400000  0.42330000  1.0 0.068419335
C  C31  1  0.17510000  0.70600000  0.92330000  1.0 0.068419335
C  C32  1  0.82490000  0.20600000  0.57670000  1.0 0.068419335
C  C33  1  0.90350000  0.19920000  0.08180000  1.0 -0.2000497349
C  C34  1  0.09650000  0.69920000  0.41820000  1.0 -0.2000497349
C  C35  1  0.09650000  0.80080000  0.91820000  1.0 -0.2000497349
C  C36  1  0.90350000  0.30080000  0.58180000  1.0 -0.2000497349
C  C37  1  0.99280000  0.18170000  0.05220000  1.0 0.068419335
C  C38  1  0.00720000  0.68170000  0.44780000  1.0 0.068419335
C  C39  1  0.00720000  0.81830000  0.94780000  1.0 0.068419335
C  C40  1  0.99280000  0.31830000  0.55220000  1.0 0.068419335
C  C41  1  0.99500000  0.26170000  0.01770000  1.0 -0.2000497349
C  C42  1  0.00500000  0.76170000  0.48230000  1.0 -0.2000497349
C  C43  1  0.00500000  0.73830000  0.98230000  1.0 -0.2000497349
C  C44  1  0.99500000  0.23830000  0.51770000  1.0 -0.2000497349
C  C45  1  0.91310000  0.35470000  0.01480000  1.0 0.0368012215
C  C46  1  0.08690000  0.85470000  0.48520000  1.0 0.0368012215
C  C47  1  0.08690000  0.64530000  0.98520000  1.0 0.0368012215
C  C48  1  0.91310000  0.14530000  0.51480000  1.0 0.0368012215
C  C49  1  0.08610000  0.08290000  0.05800000  1.0 0.2455038286
C  C50  1  0.91390000  0.58290000  0.44200000  1.0 0.2455038286
C  C51  1  0.91390000  0.91710000  0.94200000  1.0 0.2455038286
C  C52  1  0.08610000  0.41710000  0.55800000  1.0 0.2455038286
C  C53  1  0.06130000  0.99020000  0.08750000  1.0 -0.5337316164
C  C54  1  0.93870000  0.49020000  0.41250000  1.0 -0.5337316164
C  C55  1  0.93870000  0.00980000  0.91250000  1.0 -0.5337316164
C  C56  1  0.06130000  0.50980000  0.58750000  1.0 -0.5337316164
C  C57  1  0.99510000  0.58650000  0.11800000  1.0 0.4244808114
C  C58  1  0.00490000  0.08650000  0.38200000  1.0 0.4244808114
C  C59  1  0.00490000  0.41350000  0.88200000  1.0 0.4244808114
C  C60  1  0.99510000  0.91350000  0.61800000  1.0 0.4244808114
C  C61  1  0.14900000  0.60810000  0.15450000  1.0 -0.0187849045
C  C62  1  0.85100000  0.10810000  0.34550000  1.0 -0.0187849045
C  C63  1  0.85100000  0.39190000  0.84550000  1.0 -0.0187849045
C  C64  1  0.14900000  0.89190000  0.65450000  1.0 -0.0187849045
C  C65  1  0.20190000  0.56300000  0.20240000  1.0 -0.0187849045
C  C66  1  0.79810000  0.06300000  0.29760000  1.0 -0.0187849045
C  C67  1  0.79810000  0.43700000  0.79760000  1.0 -0.0187849045
C  C68  1  0.20190000  0.93700000  0.70240000  1.0 -0.0187849045
C  C69  1  0.33840000  0.59480000  0.23580000  1.0 -0.1264246155
C  C70  1  0.66160000  0.09480000  0.26420000  1.0 -0.1264246155
C  C71  1  0.66160000  0.40520000  0.76420000  1.0 -0.1264246155
C  C72  1  0.33840000  0.90520000  0.73580000  1.0 -0.1264246155
C  C73  1  0.42200000  0.67160000  0.22140000  1.0 0.0900360595
C  C74  1  0.57800000  0.17160000  0.27860000  1.0 0.0900360595
C  C75  1  0.57800000  0.32840000  0.77860000  1.0 0.0900360595
C  C76  1  0.42200000  0.82840000  0.72140000  1.0 0.0900360595
C  C77  1  0.36910000  0.71670000  0.17350000  1.0 -0.0396444623
C  C78  1  0.63090000  0.21670000  0.32650000  1.0 -0.0396444623
C  C79  1  0.63090000  0.28330000  0.82650000  1.0 -0.0396444623
C  C80  1  0.36910000  0.78330000  0.67350000  1.0 -0.0396444623
C  C81  1  0.23260000  0.68490000  0.14010000  1.0 -0.110304897
C  C82  1  0.76740000  0.18490000  0.35990000  1.0 -0.110304897
C  C83  1  0.76740000  0.31510000  0.85990000  1.0 -0.110304897
C  C84  1  0.23260000  0.81510000  0.64010000  1.0 -0.110304897
C  C85  1  0.43520000  0.87190000  0.34110000  1.0 -0.0396444623
C  C86  1  0.56480000  0.37190000  0.15890000  1.0 -0.0396444623
C  C87  1  0.56480000  0.12810000  0.65890000  1.0 -0.0396444623
C  C88  1  0.43520000  0.62810000  0.84110000  1.0 -0.0396444623
C  C89  1  0.56880000  0.88420000  0.37950000  1.0 0.0038164488
C  C90  1  0.43120000  0.38420000  0.12050000  1.0 0.0038164488
C  C91  1  0.43120000  0.11580000  0.62050000  1.0 0.0038164488
C  C92  1  0.56880000  0.61580000  0.87950000  1.0 0.0038164488
C  C93  1  0.69570000  0.83820000  0.37540000  1.0 -0.1408651669
C  C94  1  0.30430000  0.33820000  0.12460000  1.0 -0.1408651669
C  C95  1  0.30430000  0.16180000  0.62460000  1.0 -0.1408651669
C  C96  1  0.69570000  0.66180000  0.87540000  1.0 -0.1408651669
C  C97  1  0.68900000  0.78000000  0.33290000  1.0 -0.0995455688
C  C98  1  0.31100000  0.28000000  0.16710000  1.0 -0.0995455688
C  C99  1  0.31100000  0.22000000  0.66710000  1.0 -0.0995455688
C  C100  1  0.68900000  0.72000000  0.83290000  1.0 -0.0995455688
C  C101  1  0.55540000  0.76770000  0.29450000  1.0 0.1012911501
C  C102  1  0.44460000  0.26770000  0.20550000  1.0 0.1012911501
C  C103  1  0.44460000  0.23230000  0.70550000  1.0 0.1012911501
C  C104  1  0.55540000  0.73230000  0.79450000  1.0 0.1012911501
C  C105  1  0.42850000  0.81360000  0.29860000  1.0 -0.078332729
C  C106  1  0.57150000  0.31360000  0.20140000  1.0 -0.078332729
C  C107  1  0.57150000  0.18640000  0.70140000  1.0 -0.078332729
C  C108  1  0.42850000  0.68640000  0.79860000  1.0 -0.078332729
C  C109  1  0.57590000  0.93210000  0.43230000  1.0 0.4359593324
C  C110  1  0.42410000  0.43210000  0.06770000  1.0 0.4359593324
C  C111  1  0.42410000  0.06790000  0.56770000  1.0 0.4359593324
C  C112  1  0.57590000  0.56790000  0.93230000  1.0 0.4359593324
C  C113  1  0.13700000  0.63710000  0.15100000  1.0 0.0038164488
C  C114  1  0.86300000  0.13710000  0.34900000  1.0 0.0038164488
C  C115  1  0.86300000  0.36290000  0.84900000  1.0 0.0038164488
C  C116  1  0.13700000  0.86290000  0.65100000  1.0 0.0038164488
C  C117  1  0.19170000  0.61060000  0.20170000  1.0 -0.0300755755
C  C118  1  0.80830000  0.11060000  0.29830000  1.0 -0.0300755755
C  C119  1  0.80830000  0.38940000  0.79830000  1.0 -0.0300755755
C  C120  1  0.19170000  0.88940000  0.70170000  1.0 -0.0300755755
C  C121  1  0.32670000  0.65250000  0.23190000  1.0 -0.0541123909
C  C122  1  0.67330000  0.15250000  0.26810000  1.0 -0.0541123909
C  C123  1  0.67330000  0.34750000  0.76810000  1.0 -0.0541123909
C  C124  1  0.32670000  0.84750000  0.73190000  1.0 -0.0541123909
C  C125  1  0.40600000  0.72080000  0.21130000  1.0 0.0900360595
C  C126  1  0.59400000  0.22080000  0.28870000  1.0 0.0900360595
C  C127  1  0.59400000  0.27920000  0.78870000  1.0 0.0900360595
C  C128  1  0.40600000  0.77920000  0.71130000  1.0 0.0900360595
C  C129  1  0.35060000  0.74730000  0.16060000  1.0 -0.0995455688
C  C130  1  0.64940000  0.24730000  0.33940000  1.0 -0.0995455688
C  C131  1  0.64940000  0.25270000  0.83940000  1.0 -0.0995455688
C  C132  1  0.35060000  0.75270000  0.66060000  1.0 -0.0995455688
C  C133  1  0.21640000  0.70540000  0.13040000  1.0 -0.0995455688
C  C134  1  0.78360000  0.20540000  0.36960000  1.0 -0.0995455688
C  C135  1  0.78360000  0.29460000  0.86960000  1.0 -0.0995455688
C  C136  1  0.21640000  0.79460000  0.63040000  1.0 -0.0995455688
C  C137  1  0.43800000  0.90420000  0.34500000  1.0 -0.0680688492
C  C138  1  0.56200000  0.40420000  0.15500000  1.0 -0.0680688492
C  C139  1  0.56200000  0.09580000  0.65500000  1.0 -0.0680688492
C  C140  1  0.43800000  0.59580000  0.84500000  1.0 -0.0680688492
C  C141  1  0.57320000  0.89300000  0.38320000  1.0 -0.0003003132
C  C142  1  0.42680000  0.39300000  0.11680000  1.0 -0.0003003132
C  C143  1  0.42680000  0.10700000  0.61680000  1.0 -0.0003003132
C  C144  1  0.57320000  0.60700000  0.88320000  1.0 -0.0003003132
C  C145  1  0.69140000  0.84500000  0.37340000  1.0 -0.1408651669
C  C146  1  0.30860000  0.34500000  0.12660000  1.0 -0.1408651669
C  C147  1  0.30860000  0.15500000  0.62660000  1.0 -0.1408651669
C  C148  1  0.69140000  0.65500000  0.87340000  1.0 -0.1408651669
C  C149  1  0.67440000  0.80730000  0.32540000  1.0 -0.110304897
C  C150  1  0.32560000  0.30730000  0.17460000  1.0 -0.110304897
C  C151  1  0.32560000  0.19270000  0.67460000  1.0 -0.110304897
C  C152  1  0.67440000  0.69270000  0.82540000  1.0 -0.110304897
C  C153  1  0.53920000  0.81850000  0.28720000  1.0 0.0900360595
C  C154  1  0.46080000  0.31850000  0.21280000  1.0 0.0900360595
C  C155  1  0.46080000  0.18150000  0.71280000  1.0 0.0900360595
C  C156  1  0.53920000  0.68150000  0.78720000  1.0 0.0900360595
C  C157  1  0.42100000  0.86690000  0.29700000  1.0 -0.078332729
C  C158  1  0.57900000  0.36690000  0.20300000  1.0 -0.078332729
C  C159  1  0.57900000  0.13310000  0.70300000  1.0 -0.078332729
C  C160  1  0.42100000  0.63310000  0.79700000  1.0 -0.078332729
N  N1  1  0.62760000  0.70260000  0.05470000  1.0 -0.234803892
N  N2  1  0.37240000  0.20260000  0.44530000  1.0 -0.234803892
N  N3  1  0.37240000  0.29740000  0.94530000  1.0 -0.234803892
N  N4  1  0.62760000  0.79740000  0.55470000  1.0 -0.234803892
N  N5  1  0.26640000  0.99390000  0.03990000  1.0 -0.2050503262
N  N6  1  0.73360000  0.49390000  0.46010000  1.0 -0.2050503262
N  N7  1  0.73360000  0.00610000  0.96010000  1.0 -0.2050503262
N  N8  1  0.26640000  0.50610000  0.53990000  1.0 -0.2050503262
N  N9  1  0.18740000  0.08800000  0.03700000  1.0 -0.2218880125
N  N10  1  0.81260000  0.58800000  0.46300000  1.0 -0.2218880125
N  N11  1  0.81260000  0.91200000  0.96300000  1.0 -0.2218880125
N  N12  1  0.18740000  0.41200000  0.53700000  1.0 -0.2218880125
N  N13  1  0.82880000  0.36980000  0.04410000  1.0 -0.2579655715
N  N14  1  0.17120000  0.86980000  0.45590000  1.0 -0.2579655715
N  N15  1  0.17120000  0.63020000  0.95590000  1.0 -0.2579655715
N  N16  1  0.82880000  0.13020000  0.54410000  1.0 -0.2579655715
O  O1  1  0.55930000  0.70830000  0.25240000  1.0 -0.0928795257
O  O2  1  0.44070000  0.20830000  0.24760000  1.0 -0.0928795257
O  O3  1  0.44070000  0.29170000  0.74760000  1.0 -0.0928795257
O  O4  1  0.55930000  0.79170000  0.75240000  1.0 -0.0928795257
O  O5  1  0.91180000  0.53370000  0.13550000  1.0 -0.4962249466
O  O6  1  0.08820000  0.03370000  0.36450000  1.0 -0.4962249466
O  O7  1  0.08820000  0.46630000  0.86450000  1.0 -0.4962249466
O  O8  1  0.91180000  0.96630000  0.63550000  1.0 -0.4962249466
O  O9  1  0.96000000  0.61650000  0.07330000  1.0 -0.4829084941
O  O10  1  0.04000000  0.11650000  0.42670000  1.0 -0.4829084941
O  O11  1  0.04000000  0.38350000  0.92670000  1.0 -0.4829084941
O  O12  1  0.96000000  0.88350000  0.57330000  1.0 -0.4829084941
O  O13  1  0.45820000  0.95430000  0.43950000  1.0 -0.5116056719
O  O14  1  0.54180000  0.45430000  0.06050000  1.0 -0.5116056719
O  O15  1  0.54180000  0.04570000  0.56050000  1.0 -0.5116056719
O  O16  1  0.45820000  0.54570000  0.93950000  1.0 -0.5116056719
O  O17  1  0.70430000  0.93930000  0.46470000  1.0 -0.5424525955
O  O18  1  0.29570000  0.43930000  0.03530000  1.0 -0.5424525955
O  O19  1  0.29570000  0.06070000  0.53530000  1.0 -0.5424525955
O  O20  1  0.70430000  0.56070000  0.96470000  1.0 -0.5424525955
O  O21  1  0.54150000  0.76400000  0.24250000  1.0 -0.0680688492
O  O22  1  0.45850000  0.26400000  0.25750000  1.0 -0.0680688492
O  O23  1  0.45850000  0.23600000  0.75750000  1.0 -0.0680688492
O  O24  1  0.54150000  0.73600000  0.74250000  1.0 -0.0680688492
