# DDEC6 charges by PACMAN v1.1 (https://github.com/mtap-research/PACMAN-charge/)
data_OLOPIQ_FSR_pacman
_symmetry_space_group_name_H-M   'P 1'
_cell_length_a   14.20090000
_cell_length_b   14.20090000
_cell_length_c   23.53700000
_cell_angle_alpha   81.46710000
_cell_angle_beta   98.53290000
_cell_angle_gamma   146.84200000
_symmetry_Int_Tables_number   1
_chemical_formula_structural   ZnCdH15C21N2O5
_chemical_formula_sum   'Zn4 Cd4 H60 C84 N8 O20'
_cell_volume   2564.85280293
_cell_formula_units_Z   4
loop_
 _symmetry_equiv_pos_site_id
 _symmetry_equiv_pos_as_xyz
  1  'x, y, z'
loop_
 _atom_site_type_symbol
 _atom_site_label
 _atom_site_symmetry_multiplicity
 _atom_site_fract_x
 _atom_site_fract_y
 _atom_site_fract_z
 _atom_site_occupancy
 _atom_site_charge
Zn  Zn1  1  0.33469000  0.41391000  0.49812000  1.0 0.8229826713
Zn  Zn2  1  0.41391000  0.33469000  0.00188000  1.0 0.8229826713
Zn  Zn3  1  0.66531000  0.58609000  0.50188000  1.0 0.8229826713
Zn  Zn4  1  0.58609000  0.66531000  0.99812000  1.0 0.8229826713
Cd  Cd1  1  0.33522000  0.41538000  0.49886000  1.0 0.8553295161
Cd  Cd2  1  0.41538000  0.33522000  0.00114000  1.0 0.8553295161
Cd  Cd3  1  0.66478000  0.58462000  0.50114000  1.0 0.8553295161
Cd  Cd4  1  0.58462000  0.66478000  0.99886000  1.0 0.8553295161
H  H1  1  0.04210000  0.97190000  0.41320000  1.0 0.1080358824
H  H2  1  0.97190000  0.04210000  0.08680000  1.0 0.1080358824
H  H3  1  0.95790000  0.02810000  0.58680000  1.0 0.1080358824
H  H4  1  0.02810000  0.95790000  0.91320000  1.0 0.1080358824
H  H5  1  0.90602000  0.76062000  0.35550000  1.0 0.1232471839
H  H6  1  0.76062000  0.90602000  0.14450000  1.0 0.1232471839
H  H7  1  0.09398000  0.23938000  0.64450000  1.0 0.1232471839
H  H8  1  0.23938000  0.09398000  0.85550000  1.0 0.1232471839
H  H9  1  0.35130000  0.00890000  0.33530000  1.0 0.1377523567
H  H10  1  0.00890000  0.35130000  0.16470000  1.0 0.1377523567
H  H11  1  0.64870000  0.99110000  0.66470000  1.0 0.1377523567
H  H12  1  0.99110000  0.64870000  0.83530000  1.0 0.1377523567
H  H13  1  0.48720000  0.21540000  0.39410000  1.0 0.1291273142
H  H14  1  0.21540000  0.48720000  0.10590000  1.0 0.1291273142
H  H15  1  0.51280000  0.78460000  0.60590000  1.0 0.1291273142
H  H16  1  0.78460000  0.51280000  0.89410000  1.0 0.1291273142
H  H17  1  0.06100000  0.93100000  0.24400000  1.0 0.1291273142
H  H18  1  0.93100000  0.06100000  0.25600000  1.0 0.1291273142
H  H19  1  0.93900000  0.06900000  0.75600000  1.0 0.1291273142
H  H20  1  0.06900000  0.93900000  0.74400000  1.0 0.1291273142
H  H21  1  0.91010000  0.86430000  0.15840000  1.0 0.1080358824
H  H22  1  0.86430000  0.91010000  0.34160000  1.0 0.1080358824
H  H23  1  0.08990000  0.13570000  0.84160000  1.0 0.1080358824
H  H24  1  0.13570000  0.08990000  0.65840000  1.0 0.1080358824
H  H25  1  0.64840000  0.40220000  0.16660000  1.0 0.1232471839
H  H26  1  0.40220000  0.64840000  0.33340000  1.0 0.1232471839
H  H27  1  0.35160000  0.59780000  0.83340000  1.0 0.1232471839
H  H28  1  0.59780000  0.35160000  0.66666667  1.0 0.1232471839
H  H29  1  0.79400000  0.46560000  0.25040000  1.0 0.1377523567
H  H30  1  0.46560000  0.79400000  0.24960000  1.0 0.1377523567
H  H31  1  0.20600000  0.53440000  0.74960000  1.0 0.1377523567
H  H32  1  0.53440000  0.20600000  0.75040000  1.0 0.1377523567
H  H33  1  0.16200000  0.44140000  0.53030000  1.0 0.1080358824
H  H34  1  0.44140000  0.16200000  0.96970000  1.0 0.1080358824
H  H35  1  0.83800000  0.55860000  0.46970000  1.0 0.1080358824
H  H36  1  0.55860000  0.83800000  0.03030000  1.0 0.1080358824
H  H37  1  0.89790000  0.29570000  0.52280000  1.0 0.1291273142
H  H38  1  0.29570000  0.89790000  0.97720000  1.0 0.1291273142
H  H39  1  0.10210000  0.70430000  0.47720000  1.0 0.1291273142
H  H40  1  0.70430000  0.10210000  0.02280000  1.0 0.1291273142
H  H41  1  0.72320000  0.95380000  0.42780000  1.0 0.1232471839
H  H42  1  0.95380000  0.72320000  0.07220000  1.0 0.1232471839
H  H43  1  0.27680000  0.04620000  0.57220000  1.0 0.1232471839
H  H44  1  0.04620000  0.27680000  0.92780000  1.0 0.1232471839
H  H45  1  0.99340000  0.11300000  0.43820000  1.0 0.1039028788
H  H46  1  0.11300000  0.99340000  0.06180000  1.0 0.1039028788
H  H47  1  0.00660000  0.88700000  0.56180000  1.0 0.1039028788
H  H48  1  0.88700000  0.00660000  0.93820000  1.0 0.1039028788
H  H49  1  0.46430000  0.87030000  0.39900000  1.0 0.1483383502
H  H50  1  0.87030000  0.46430000  0.10100000  1.0 0.1483383502
H  H51  1  0.53570000  0.12970000  0.60100000  1.0 0.1483383502
H  H52  1  0.12970000  0.53570000  0.89900000  1.0 0.1483383502
H  H53  1  0.47270000  0.78270000  0.44290000  1.0 0.1291273142
H  H54  1  0.78270000  0.47270000  0.05710000  1.0 0.1377523567
H  H55  1  0.52730000  0.21730000  0.55710000  1.0 0.1291273142
H  H56  1  0.21730000  0.52730000  0.94290000  1.0 0.1291273142
H  H57  1  0.35000000  0.76300000  0.45280000  1.0 0.1377523567
H  H58  1  0.76300000  0.35000000  0.04720000  1.0 0.1377523567
H  H59  1  0.65000000  0.23700000  0.54720000  1.0 0.1377523567
H  H60  1  0.23700000  0.65000000  0.95280000  1.0 0.1377523567
C  C1  1  0.36963000  0.26117000  0.44448000  1.0 0.3960988695
C  C2  1  0.26117000  0.36963000  0.05552000  1.0 0.3960988695
C  C3  1  0.63037000  0.73883000  0.55552000  1.0 0.3960988695
C  C4  1  0.73883000  0.63037000  0.94448000  1.0 0.3960988695
C  C5  1  0.28011000  0.11969000  0.40838000  1.0 -0.0297380652
C  C6  1  0.11969000  0.28011000  0.09162000  1.0 -0.0297380652
C  C7  1  0.71989000  0.88031000  0.59162000  1.0 -0.0297380652
C  C8  1  0.88031000  0.71989000  0.90838000  1.0 -0.0297380652
C  C9  1  0.10583000  0.98117000  0.39725000  1.0 -0.1078055197
C  C10  1  0.98117000  0.10583000  0.10275000  1.0 -0.1078055197
C  C11  1  0.89417000  0.01883000  0.60275000  1.0 -0.1078055197
C  C12  1  0.01883000  0.89417000  0.89725000  1.0 -0.1078055197
C  C13  1  0.02476000  0.85564000  0.36245000  1.0 -0.2229882472
C  C14  1  0.85564000  0.02476000  0.13755000  1.0 -0.2229882472
C  C15  1  0.97524000  0.14436000  0.63755000  1.0 -0.2229882472
C  C16  1  0.14436000  0.97524000  0.86245000  1.0 -0.2229882472
C  C17  1  0.11885000  0.87015000  0.33792000  1.0 0.2270085427
C  C18  1  0.87015000  0.11885000  0.16208000  1.0 0.2270085427
C  C19  1  0.88115000  0.12985000  0.66208000  1.0 0.2270085427
C  C20  1  0.12985000  0.88115000  0.83792000  1.0 0.2270085427
C  C21  1  0.28889000  0.00211000  0.35050000  1.0 -0.1912117128
C  C22  1  0.00211000  0.28889000  0.14950000  1.0 -0.1912117128
C  C23  1  0.71111000  0.99789000  0.64950000  1.0 -0.1912117128
C  C24  1  0.99789000  0.71111000  0.85050000  1.0 -0.1912117128
C  C25  1  0.36978000  0.12542000  0.38540000  1.0 -0.1012741371
C  C26  1  0.12542000  0.36978000  0.11460000  1.0 -0.1012741371
C  C27  1  0.63022000  0.87458000  0.61460000  1.0 -0.1012741371
C  C28  1  0.87458000  0.63022000  0.88540000  1.0 -0.1012741371
C  C29  1  0.94347000  0.70613000  0.25448000  1.0 0.239950652
C  C30  1  0.70613000  0.94347000  0.24552000  1.0 0.239950652
C  C31  1  0.05653000  0.29387000  0.74552000  1.0 0.239950652
C  C32  1  0.29387000  0.05653000  0.75448000  1.0 0.239950652
C  C33  1  0.97798000  0.82462000  0.22819000  1.0 -0.2229882472
C  C34  1  0.82462000  0.97798000  0.27181000  1.0 -0.2229882472
C  C35  1  0.02202000  0.17538000  0.77181000  1.0 -0.2229882472
C  C36  1  0.17538000  0.02202000  0.72819000  1.0 -0.2229882472
C  C37  1  0.88613000  0.78347000  0.17696000  1.0 -0.1012741371
C  C38  1  0.78347000  0.88613000  0.32304000  1.0 -0.1012741371
C  C39  1  0.11387000  0.21653000  0.82304000  1.0 -0.1012741371
C  C40  1  0.21653000  0.11387000  0.67696000  1.0 -0.1012741371
C  C41  1  0.76011000  0.62429000  0.15347000  1.0 -0.046853972
C  C42  1  0.62429000  0.76011000  0.34653000  1.0 -0.046853972
C  C43  1  0.23989000  0.37571000  0.84653000  1.0 -0.046853972
C  C44  1  0.37571000  0.23989000  0.65347000  1.0 -0.046853972
C  C45  1  0.73064000  0.50876000  0.18201000  1.0 -0.1012741371
C  C46  1  0.50876000  0.73064000  0.31799000  1.0 -0.1012741371
C  C47  1  0.26936000  0.49124000  0.81799000  1.0 -0.1012741371
C  C48  1  0.49124000  0.26936000  0.68201000  1.0 -0.1012741371
C  C49  1  0.81811000  0.54649000  0.23180000  1.0 -0.1979672232
C  C50  1  0.54649000  0.81811000  0.26820000  1.0 -0.1979672232
C  C51  1  0.18189000  0.45351000  0.76820000  1.0 -0.1979672232
C  C52  1  0.45351000  0.18189000  0.73180000  1.0 -0.1979672232
C  C53  1  0.66627000  0.58353000  0.09820000  1.0 0.3941354181
C  C54  1  0.58353000  0.66627000  0.40180000  1.0 0.3941354181
C  C55  1  0.33373000  0.41647000  0.90180000  1.0 0.3941354181
C  C56  1  0.41647000  0.33373000  0.59820000  1.0 0.3941354181
C  C57  1  0.07212000  0.34188000  0.50951000  1.0 0.0369969277
C  C58  1  0.34188000  0.07212000  0.99049000  1.0 0.0369969277
C  C59  1  0.92788000  0.65812000  0.49049000  1.0 0.0369969277
C  C60  1  0.65812000  0.92788000  0.00951000  1.0 0.0369969277
C  C61  1  0.91341000  0.25479000  0.50540000  1.0 -0.1739703839
C  C62  1  0.25479000  0.91341000  0.99460000  1.0 -0.1739703839
C  C63  1  0.08659000  0.74521000  0.49460000  1.0 -0.1739703839
C  C64  1  0.74521000  0.08659000  0.00540000  1.0 -0.1739703839
C  C65  1  0.77710000  0.10430000  0.47469000  1.0 0.0802066351
C  C66  1  0.10430000  0.77710000  0.02531000  1.0 0.0802066351
C  C67  1  0.22290000  0.89570000  0.52531000  1.0 0.0802066351
C  C68  1  0.89570000  0.22290000  0.97469000  1.0 0.0802066351
C  C69  1  0.80968000  0.05232000  0.44907000  1.0 -0.1979672232
C  C70  1  0.05232000  0.80968000  0.05093000  1.0 -0.1979672232
C  C71  1  0.19032000  0.94768000  0.55093000  1.0 -0.1979672232
C  C72  1  0.94768000  0.19032000  0.94907000  1.0 -0.1979672232
C  C73  1  0.97299000  0.14921000  0.45563000  1.0 0.0155602681
C  C74  1  0.14921000  0.97299000  0.04437000  1.0 0.0155602681
C  C75  1  0.02701000  0.85079000  0.54437000  1.0 0.0155602681
C  C76  1  0.85079000  0.02701000  0.95563000  1.0 0.0155602681
C  C77  1  0.60041000  0.99799000  0.47273000  1.0 0.239950652
C  C78  1  0.99799000  0.60041000  0.02727000  1.0 0.239950652
C  C79  1  0.39959000  0.00201000  0.52727000  1.0 0.239950652
C  C80  1  0.00201000  0.39959000  0.97273000  1.0 0.239950652
C  C81  1  0.45930000  0.83930000  0.43890000  1.0 -0.5288368167
C  C82  1  0.83930000  0.45930000  0.06110000  1.0 -0.5288368167
C  C83  1  0.54070000  0.16070000  0.56110000  1.0 -0.5288368167
C  C84  1  0.16070000  0.54070000  0.93890000  1.0 -0.5288368167
N  N1  1  0.10188000  0.29032000  0.48529000  1.0 -0.3166859721
N  N2  1  0.29032000  0.10188000  0.01471000  1.0 -0.3166859721
N  N3  1  0.89812000  0.70968000  0.51471000  1.0 -0.3166859721
N  N4  1  0.70968000  0.89812000  0.98529000  1.0 -0.3166859721
N  N5  1  0.58308000  0.05052000  0.50166000  1.0 -0.2499270898
N  N6  1  0.05052000  0.58308000  0.99834000  1.0 -0.2499270898
N  N7  1  0.41692000  0.94948000  0.49834000  1.0 -0.2499270898
N  N8  1  0.94948000  0.41692000  0.00166000  1.0 -0.2499270898
O  O1  1  0.28096000  0.25224000  0.45840000  1.0 -0.5504124363
O  O2  1  0.25224000  0.28096000  0.04160000  1.0 -0.5504124363
O  O3  1  0.71904000  0.74776000  0.54160000  1.0 -0.5504124363
O  O4  1  0.74776000  0.71904000  0.95840000  1.0 -0.5504124363
O  O5  1  0.52583000  0.37677000  0.45769000  1.0 -0.5288368167
O  O6  1  0.37677000  0.52583000  0.04231000  1.0 -0.5288368167
O  O7  1  0.47417000  0.62323000  0.54231000  1.0 -0.5288368167
O  O8  1  0.62323000  0.47417000  0.95769000  1.0 -0.5288368167
O  O9  1  0.03592000  0.74128000  0.30375000  1.0 -0.2355629926
O  O10  1  0.74128000  0.03592000  0.19625000  1.0 -0.2348571246
O  O11  1  0.96408000  0.25872000  0.69625000  1.0 -0.2355629926
O  O12  1  0.25872000  0.96408000  0.80375000  1.0 -0.2355629926
O  O13  1  0.56698000  0.44402000  0.07643000  1.0 -0.5504124363
O  O14  1  0.44402000  0.56698000  0.42357000  1.0 -0.5504124363
O  O15  1  0.43302000  0.55598000  0.92357000  1.0 -0.5504124363
O  O16  1  0.55598000  0.43302000  0.57643000  1.0 -0.5504124363
O  O17  1  0.69470000  0.69190000  0.07638000  1.0 -0.5351778244
O  O18  1  0.69190000  0.69470000  0.42362000  1.0 -0.5288368167
O  O19  1  0.30530000  0.30810000  0.92362000  1.0 -0.5288368167
O  O20  1  0.30810000  0.30530000  0.57638000  1.0 -0.5288368167
