# DDEC6 charges by PACMAN v1.1 (https://github.com/mtap-research/PACMAN-charge/)
data_OLOYOF_ASR_pacman
_symmetry_space_group_name_H-M   'P 1'
_cell_length_a   18.63110000
_cell_length_b   18.63110000
_cell_length_c   23.51200000
_cell_angle_alpha   66.65950000
_cell_angle_beta   113.34100000
_cell_angle_gamma   120.00000000
_symmetry_Int_Tables_number   1
_chemical_formula_structural   Cu3H13C26NO15
_chemical_formula_sum   'Cu12 H52 C104 N4 O60'
_cell_volume   6284.97671343
_cell_formula_units_Z   4
loop_
 _symmetry_equiv_pos_site_id
 _symmetry_equiv_pos_as_xyz
  1  'x, y, z'
loop_
 _atom_site_type_symbol
 _atom_site_label
 _atom_site_symmetry_multiplicity
 _atom_site_fract_x
 _atom_site_fract_y
 _atom_site_fract_z
 _atom_site_occupancy
 _atom_site_charge
Cu  Cu1  1  0.30101000  0.80343000  0.70213000  1.0 0.8470834575
Cu  Cu2  1  0.80343000  0.30101000  0.79787000  1.0 0.8470834575
Cu  Cu3  1  0.69899000  0.19657000  0.29787000  1.0 0.8470834575
Cu  Cu4  1  0.19657000  0.69899000  0.20213000  1.0 0.8470834575
Cu  Cu5  1  0.24210000  0.72184000  0.80605000  1.0 0.8787130944
Cu  Cu6  1  0.72184000  0.24210000  0.69395000  1.0 0.8787130944
Cu  Cu7  1  0.75790000  0.27816000  0.19395000  1.0 0.8787130944
Cu  Cu8  1  0.27816000  0.75790000  0.30605000  1.0 0.8787130944
Cu  Cu9  1  0.72811000  0.80965000  0.69783000  1.0 0.8287186406
Cu  Cu10  1  0.80965000  0.72811000  0.80217000  1.0 0.8287186406
Cu  Cu11  1  0.27189000  0.19035000  0.30217000  1.0 0.8287186406
Cu  Cu12  1  0.19035000  0.27189000  0.19783000  1.0 0.8287186406
H  H1  1  0.41100000  0.91060000  0.91300000  1.0 0.1389834683
H  H2  1  0.91060000  0.41100000  0.58700000  1.0 0.1389834683
H  H3  1  0.58900000  0.08940000  0.08700000  1.0 0.1389834683
H  H4  1  0.08940000  0.58900000  0.41300000  1.0 0.1389834683
H  H5  1  0.61810000  0.13410000  0.90720000  1.0 0.1320959085
H  H6  1  0.13410000  0.61810000  0.59280000  1.0 0.1320959085
H  H7  1  0.38190000  0.86590000  0.09280000  1.0 0.1320959085
H  H8  1  0.86590000  0.38190000  0.40720000  1.0 0.1320959085
H  H9  1  0.50320000  0.03060000  0.75640000  1.0 0.1389834683
H  H10  1  0.03060000  0.50320000  0.74360000  1.0 0.1389834683
H  H11  1  0.49680000  0.96940000  0.24360000  1.0 0.1389834683
H  H12  1  0.96940000  0.49680000  0.25640000  1.0 0.1389834683
H  H13  1  0.03670000  0.79330000  0.74620000  1.0 0.1511777088
H  H14  1  0.79330000  0.03670000  0.75380000  1.0 0.1511777088
H  H15  1  0.96330000  0.20670000  0.25380000  1.0 0.1511777088
H  H16  1  0.20670000  0.96330000  0.24620000  1.0 0.1511777088
H  H17  1  0.91720000  0.92540000  0.59240000  1.0 0.1320959085
H  H18  1  0.92540000  0.91720000  0.90760000  1.0 0.1320959085
H  H19  1  0.08280000  0.07460000  0.40760000  1.0 0.1320959085
H  H20  1  0.07460000  0.08280000  0.09240000  1.0 0.1320959085
H  H21  1  0.13340000  0.92700000  0.59190000  1.0 0.1389834683
H  H22  1  0.92700000  0.13340000  0.90810000  1.0 0.1389834683
H  H23  1  0.86660000  0.07300000  0.40810000  1.0 0.1389834683
H  H24  1  0.07300000  0.86660000  0.09190000  1.0 0.1389834683
H  H25  1  0.86350000  0.76830000  0.68960000  1.0 0.1109500758
H  H26  1  0.76830000  0.86350000  0.81040000  1.0 0.1109500758
H  H27  1  0.13650000  0.23170000  0.31040000  1.0 0.1109500758
H  H28  1  0.23170000  0.13650000  0.18960000  1.0 0.1109500758
H  H29  1  0.51320000  0.73140000  0.76170000  1.0 0.1389834683
H  H30  1  0.73140000  0.51320000  0.73830000  1.0 0.1389834683
H  H31  1  0.48680000  0.26860000  0.23830000  1.0 0.1389834683
H  H32  1  0.26860000  0.48680000  0.26170000  1.0 0.1389834683
H  H33  1  0.62280000  0.58580000  0.91080000  1.0 0.1320959085
H  H34  1  0.58580000  0.62280000  0.58920000  1.0 0.1320959085
H  H35  1  0.37720000  0.41420000  0.08920000  1.0 0.1320959085
H  H36  1  0.41420000  0.37720000  0.41080000  1.0 0.1320959085
H  H37  1  0.40520000  0.58300000  0.90960000  1.0 0.1320959085
H  H38  1  0.58300000  0.40520000  0.59040000  1.0 0.1320959085
H  H39  1  0.59480000  0.41700000  0.09040000  1.0 0.1320959085
H  H40  1  0.41700000  0.59480000  0.40960000  1.0 0.1320959085
H  H41  1  0.07190000  0.01150000  0.50400000  1.0 0.2411689467
H  H42  1  0.01150000  0.07190000  0.99600000  1.0 0.2411689467
H  H43  1  0.92810000  0.98850000  0.49600000  1.0 0.2411689467
H  H44  1  0.98850000  0.92810000  0.00400000  1.0 0.2411689467
H  H45  1  0.55820000  0.07240000  0.99440000  1.0 0.2211292914
H  H46  1  0.07240000  0.55820000  0.50560000  1.0 0.2211292914
H  H47  1  0.44180000  0.92760000  0.00560000  1.0 0.2211292914
H  H48  1  0.92760000  0.44180000  0.49440000  1.0 0.2211292914
H  H49  1  0.57080000  0.50960000  0.99810000  1.0 0.2211292914
H  H50  1  0.50960000  0.57080000  0.50190000  1.0 0.2211292914
H  H51  1  0.42920000  0.49040000  0.00190000  1.0 0.2211292914
H  H52  1  0.49040000  0.42920000  0.49810000  1.0 0.2211292914
C  C1  1  0.37950000  0.88450000  0.80090000  1.0 0.5797095827
C  C2  1  0.88450000  0.37950000  0.69910000  1.0 0.5797095827
C  C3  1  0.62050000  0.11550000  0.19910000  1.0 0.5797095827
C  C4  1  0.11550000  0.62050000  0.30090000  1.0 0.5797095827
C  C5  1  0.44640000  0.95980000  0.82990000  1.0 -0.0128591838
C  C6  1  0.95980000  0.44640000  0.67010000  1.0 -0.0167046238
C  C7  1  0.55360000  0.04020000  0.17010000  1.0 -0.0167046238
C  C8  1  0.04020000  0.55360000  0.32990000  1.0 -0.0128591838
C  C9  1  0.45100000  0.95640000  0.89130000  1.0 -0.1603836708
C  C10  1  0.95640000  0.45100000  0.60870000  1.0 -0.1603836708
C  C11  1  0.54900000  0.04360000  0.10870000  1.0 -0.1603836708
C  C12  1  0.04360000  0.54900000  0.39130000  1.0 -0.1603836708
C  C13  1  0.51540000  0.02180000  0.92020000  1.0 -0.001550838
C  C14  1  0.02180000  0.51540000  0.57980000  1.0 -0.001550838
C  C15  1  0.48460000  0.97820000  0.07980000  1.0 -0.001550838
C  C16  1  0.97820000  0.48460000  0.42020000  1.0 -0.001550838
C  C17  1  0.57510000  0.09030000  0.88780000  1.0 -0.1201004938
C  C18  1  0.09030000  0.57510000  0.61220000  1.0 -0.1201004938
C  C19  1  0.42490000  0.90970000  0.11220000  1.0 -0.1201004938
C  C20  1  0.90970000  0.42490000  0.38780000  1.0 -0.1201004938
C  C21  1  0.57050000  0.09370000  0.82640000  1.0 -0.0490068666
C  C22  1  0.09370000  0.57050000  0.67360000  1.0 -0.0490068666
C  C23  1  0.42950000  0.90630000  0.17360000  1.0 -0.0490068666
C  C24  1  0.90630000  0.42950000  0.32640000  1.0 -0.0490068666
C  C25  1  0.50620000  0.02840000  0.79740000  1.0 -0.0892820407
C  C26  1  0.02840000  0.50620000  0.70260000  1.0 -0.0892820407
C  C27  1  0.49380000  0.97160000  0.20260000  1.0 -0.0892820407
C  C28  1  0.97160000  0.49380000  0.29740000  1.0 -0.0892820407
C  C29  1  0.63850000  0.16370000  0.79720000  1.0 0.5688985444
C  C30  1  0.16370000  0.63850000  0.70280000  1.0 0.5688985444
C  C31  1  0.36150000  0.83630000  0.20280000  1.0 0.5688985444
C  C32  1  0.83630000  0.36150000  0.29720000  1.0 0.5688985444
C  C33  1  0.16320000  0.82520000  0.70510000  1.0 0.5688985444
C  C34  1  0.82520000  0.16320000  0.79490000  1.0 0.5688985444
C  C35  1  0.83680000  0.17480000  0.29490000  1.0 0.5688985444
C  C36  1  0.17480000  0.83680000  0.20510000  1.0 0.5688985444
C  C37  1  0.09613000  0.85587000  0.67410000  1.0 -0.0609086633
C  C38  1  0.85587000  0.09613000  0.82590000  1.0 -0.0609086633
C  C39  1  0.90387000  0.14413000  0.32590000  1.0 -0.0609086633
C  C40  1  0.14413000  0.90387000  0.17410000  1.0 -0.0609086633
C  C41  1  0.03361000  0.82879000  0.70500000  1.0 -0.1100565499
C  C42  1  0.82879000  0.03361000  0.79500000  1.0 -0.1100565499
C  C43  1  0.96639000  0.17121000  0.29500000  1.0 -0.1100565499
C  C44  1  0.17121000  0.96639000  0.20500000  1.0 -0.1100565499
C  C45  1  0.96650000  0.85490000  0.67440000  1.0 -0.0167046238
C  C46  1  0.85490000  0.96650000  0.82560000  1.0 -0.0167046238
C  C47  1  0.03350000  0.14510000  0.32560000  1.0 -0.0167046238
C  C48  1  0.14510000  0.03350000  0.17440000  1.0 -0.0167046238
C  C49  1  0.96201000  0.90799000  0.61290000  1.0 -0.1509669621
C  C50  1  0.90799000  0.96201000  0.88710000  1.0 -0.1509669621
C  C51  1  0.03799000  0.09201000  0.38710000  1.0 -0.1509669621
C  C52  1  0.09201000  0.03799000  0.11290000  1.0 -0.1509669621
C  C53  1  0.02450000  0.93510000  0.58200000  1.0 0.0778526112
C  C54  1  0.93510000  0.02450000  0.91800000  1.0 0.0778526112
C  C55  1  0.97550000  0.06490000  0.41800000  1.0 0.0778526112
C  C56  1  0.06490000  0.97550000  0.08200000  1.0 0.0778526112
C  C57  1  0.09160000  0.90900000  0.61260000  1.0 -0.1201004938
C  C58  1  0.90900000  0.09160000  0.88740000  1.0 -0.1201004938
C  C59  1  0.90840000  0.09100000  0.38740000  1.0 -0.1201004938
C  C60  1  0.09100000  0.90840000  0.11260000  1.0 -0.1201004938
C  C61  1  0.89380000  0.82140000  0.70380000  1.0 0.3894201598
C  C62  1  0.82140000  0.89380000  0.79620000  1.0 0.3894201598
C  C63  1  0.10620000  0.17860000  0.29620000  1.0 0.3894201598
C  C64  1  0.17860000  0.10620000  0.20380000  1.0 0.3894201598
C  C65  1  0.38520000  0.69980000  0.80300000  1.0 0.5902395926
C  C66  1  0.69980000  0.38520000  0.69700000  1.0 0.5902395926
C  C67  1  0.61480000  0.30020000  0.19700000  1.0 0.5902395926
C  C68  1  0.30020000  0.61480000  0.30300000  1.0 0.5902395926
C  C69  1  0.44841000  0.66199000  0.83070000  1.0 -0.0360843446
C  C70  1  0.66199000  0.44841000  0.66930000  1.0 -0.0360843446
C  C71  1  0.55159000  0.33801000  0.16930000  1.0 -0.0360843446
C  C72  1  0.33801000  0.55159000  0.33070000  1.0 -0.0345067766
C  C73  1  0.51344000  0.69216000  0.80140000  1.0 -0.1042513021
C  C74  1  0.69216000  0.51344000  0.69860000  1.0 -0.1042513021
C  C75  1  0.48656000  0.30784000  0.19860000  1.0 -0.1100565499
C  C76  1  0.30784000  0.48656000  0.30140000  1.0 -0.1100565499
C  C77  1  0.57878000  0.66362000  0.83140000  1.0 0.0069530012
C  C78  1  0.66362000  0.57878000  0.66860000  1.0 0.0069530012
C  C79  1  0.42122000  0.33638000  0.16860000  1.0 0.0069530012
C  C80  1  0.33638000  0.42122000  0.33140000  1.0 0.0069530012
C  C81  1  0.57910000  0.60490000  0.89070000  1.0 -0.1509669621
C  C82  1  0.60490000  0.57910000  0.60930000  1.0 -0.1509669621
C  C83  1  0.42090000  0.39510000  0.10930000  1.0 -0.1509669621
C  C84  1  0.39510000  0.42090000  0.39070000  1.0 -0.1509669621
C  C85  1  0.51410000  0.57470000  0.92000000  1.0 0.0069530012
C  C86  1  0.57470000  0.51410000  0.58000000  1.0 0.0069530012
C  C87  1  0.48590000  0.42530000  0.08000000  1.0 0.0069530012
C  C88  1  0.42530000  0.48590000  0.42000000  1.0 0.0069530012
C  C89  1  0.44870000  0.60330000  0.89000000  1.0 -0.1341491372
C  C90  1  0.60330000  0.44870000  0.61000000  1.0 -0.1341491372
C  C91  1  0.55130000  0.39670000  0.11000000  1.0 -0.1341491372
C  C92  1  0.39670000  0.55130000  0.39000000  1.0 -0.1341491372
C  C93  1  0.65380000  0.69480000  0.80080000  1.0 0.5557104132
C  C94  1  0.69480000  0.65380000  0.69920000  1.0 0.5557104132
C  C95  1  0.34620000  0.30520000  0.19920000  1.0 0.5557104132
C  C96  1  0.30520000  0.34620000  0.30080000  1.0 0.5557104132
C  C97  1  0.52060000  0.02620000  0.98260000  1.0 0.0778526112
C  C98  1  0.02620000  0.52060000  0.51740000  1.0 0.0778526112
C  C99  1  0.47940000  0.97380000  0.01740000  1.0 0.0778526112
C  C100  1  0.97380000  0.47940000  0.48260000  1.0 0.0778526112
C  C101  1  0.52470000  0.51830000  0.98300000  1.0 0.0695707228
C  C102  1  0.51830000  0.52470000  0.51700000  1.0 0.0695707228
C  C103  1  0.47530000  0.48170000  0.01700000  1.0 0.0695707228
C  C104  1  0.48170000  0.47530000  0.48300000  1.0 0.0695707228
N  N1  1  0.02630000  0.99130000  0.51660000  1.0 -0.0167046238
N  N2  1  0.99130000  0.02630000  0.98340000  1.0 -0.0128591838
N  N3  1  0.97370000  0.00870000  0.48340000  1.0 -0.0167046238
N  N4  1  0.00870000  0.97370000  0.01660000  1.0 -0.0167046238
O  O1  1  0.38020000  0.89520000  0.74730000  1.0 -0.471619881
O  O2  1  0.89520000  0.38020000  0.75270000  1.0 -0.471619881
O  O3  1  0.61980000  0.10480000  0.25270000  1.0 -0.471619881
O  O4  1  0.10480000  0.61980000  0.24730000  1.0 -0.471619881
O  O5  1  0.33230000  0.82270000  0.83600000  1.0 -0.5165287771
O  O6  1  0.82270000  0.33230000  0.66400000  1.0 -0.5165287771
O  O7  1  0.66770000  0.17730000  0.16400000  1.0 -0.5165287771
O  O8  1  0.17730000  0.66770000  0.33600000  1.0 -0.5165287771
O  O9  1  0.63260000  0.16700000  0.73820000  1.0 -0.5422946431
O  O10  1  0.16700000  0.63260000  0.76180000  1.0 -0.5422946431
O  O11  1  0.36740000  0.83300000  0.26180000  1.0 -0.5422946431
O  O12  1  0.83300000  0.36740000  0.23820000  1.0 -0.5422946431
O  O13  1  0.69930000  0.21690000  0.82480000  1.0 -0.4760655531
O  O14  1  0.21690000  0.69930000  0.67520000  1.0 -0.4760655531
O  O15  1  0.30070000  0.78310000  0.17520000  1.0 -0.4760655531
O  O16  1  0.78310000  0.30070000  0.32480000  1.0 -0.4760655531
O  O17  1  0.21059000  0.84561000  0.67580000  1.0 -0.4417717227
O  O18  1  0.84561000  0.21059000  0.82420000  1.0 -0.4417717227
O  O19  1  0.78941000  0.15439000  0.32420000  1.0 -0.4417717227
O  O20  1  0.15439000  0.78941000  0.17580000  1.0 -0.4417717227
O  O21  1  0.16200000  0.77640000  0.76190000  1.0 -0.5165287771
O  O22  1  0.77640000  0.16200000  0.73810000  1.0 -0.5165287771
O  O23  1  0.83800000  0.22360000  0.23810000  1.0 -0.5165287771
O  O24  1  0.22360000  0.83800000  0.26190000  1.0 -0.5165287771
O  O25  1  0.83340000  0.84800000  0.66960000  1.0 -0.4983251908
O  O26  1  0.84800000  0.83340000  0.83040000  1.0 -0.4983251908
O  O27  1  0.16660000  0.15200000  0.33040000  1.0 -0.4983251908
O  O28  1  0.15200000  0.16660000  0.16960000  1.0 -0.4983251908
O  O29  1  0.90210000  0.78390000  0.76070000  1.0 -0.4313225963
O  O30  1  0.78390000  0.90210000  0.73930000  1.0 -0.4313225963
O  O31  1  0.09790000  0.21610000  0.23930000  1.0 -0.4313225963
O  O32  1  0.21610000  0.09790000  0.26070000  1.0 -0.4313225963
O  O33  1  0.37730000  0.74630000  0.74680000  1.0 -0.5110973188
O  O34  1  0.74630000  0.37730000  0.75320000  1.0 -0.5110973188
O  O35  1  0.62270000  0.25370000  0.25320000  1.0 -0.5110973188
O  O36  1  0.25370000  0.62270000  0.24680000  1.0 -0.5110973188
O  O37  1  0.32980000  0.67440000  0.83420000  1.0 -0.5311379054
O  O38  1  0.67440000  0.32980000  0.66580000  1.0 -0.5311379054
O  O39  1  0.67020000  0.32560000  0.16580000  1.0 -0.5311379054
O  O40  1  0.32560000  0.67020000  0.33420000  1.0 -0.5311379054
O  O41  1  0.64246000  0.75074000  0.74300000  1.0 -0.5843940594
O  O42  1  0.75074000  0.64246000  0.75700000  1.0 -0.5843940594
O  O43  1  0.35754000  0.24926000  0.25700000  1.0 -0.5843940594
O  O44  1  0.24926000  0.35754000  0.24300000  1.0 -0.5843940594
O  O45  1  0.72269000  0.68831000  0.82500000  1.0 -0.3758481958
O  O46  1  0.68831000  0.72269000  0.67500000  1.0 -0.3758481958
O  O47  1  0.27731000  0.31169000  0.17500000  1.0 -0.3758481958
O  O48  1  0.31169000  0.27731000  0.32500000  1.0 -0.3758481958
O  O49  1  0.54300000  0.09500000  0.99290000  1.0 -0.2896966928
O  O50  1  0.09500000  0.54300000  0.50710000  1.0 -0.296235583
O  O51  1  0.45700000  0.90500000  0.00710000  1.0 -0.2896966928
O  O52  1  0.90500000  0.45700000  0.49290000  1.0 -0.2896966928
O  O53  1  0.59560000  0.52640000  0.01820000  1.0 -0.2819550751
O  O54  1  0.52640000  0.59560000  0.48180000  1.0 -0.2819550751
O  O55  1  0.40440000  0.47360000  0.98180000  1.0 -0.2896966928
O  O56  1  0.47360000  0.40440000  0.51820000  1.0 -0.2819550751
O  O57  1  0.09860000  0.04360000  0.50650000  1.0 -0.266743935
O  O58  1  0.04360000  0.09860000  0.99350000  1.0 -0.266743935
O  O59  1  0.90140000  0.95640000  0.49350000  1.0 -0.266743935
O  O60  1  0.95640000  0.90140000  0.00650000  1.0 -0.266743935
