# DDEC6 charges by PACMAN v1.1 (https://github.com/mtap-research/PACMAN-charge/)
data_OMEHIZ_ion_pacman
_symmetry_space_group_name_H-M   'P 1'
_cell_length_a   8.29880000
_cell_length_b   23.51440000
_cell_length_c   9.67300000
_cell_angle_alpha   90.00000000
_cell_angle_beta   101.61000000
_cell_angle_gamma   90.00000000
_symmetry_Int_Tables_number   1
_chemical_formula_structural   Ag2P3H24C30N11O12
_chemical_formula_sum   'Ag4 P6 H48 C60 N22 O24'
_cell_volume   1848.98175214
_cell_formula_units_Z   2
loop_
 _symmetry_equiv_pos_site_id
 _symmetry_equiv_pos_as_xyz
  1  'x, y, z'
loop_
 _atom_site_type_symbol
 _atom_site_label
 _atom_site_symmetry_multiplicity
 _atom_site_fract_x
 _atom_site_fract_y
 _atom_site_fract_z
 _atom_site_occupancy
 _atom_site_charge
Ag  Ag1  1  0.65979000  0.67962000  0.77436000  1.0 0.4019026532
Ag  Ag2  1  0.34021000  0.17962000  0.22564000  1.0 0.4019026532
Ag  Ag3  1  0.79411000  0.89399000  0.43842000  1.0 0.2822091355
Ag  Ag4  1  0.20589000  0.39399000  0.56158000  1.0 0.2822091355
P  P1  1  0.32784000  0.72569000  0.48100000  1.0 1.2890637889
P  P2  1  0.67216000  0.22569000  0.51900000  1.0 1.2890637889
P  P3  1  0.22685000  0.66361000  0.23901000  1.0 1.2780812159
P  P4  1  0.77315000  0.16361000  0.76099000  1.0 1.2780812159
P  P5  1  0.53039000  0.64190000  0.40768000  1.0 1.2890637889
P  P6  1  0.46961000  0.14190000  0.59232000  1.0 1.2890637889
H  H1  1  0.12600000  0.83100000  0.54510000  1.0 0.1205861717
H  H2  1  0.87400000  0.33100000  0.45490000  1.0 0.1205861717
H  H3  1  0.45190000  0.85280000  0.29050000  1.0 0.1276763106
H  H4  1  0.54810000  0.35280000  0.70950000  1.0 0.1276763106
H  H5  1  0.29990000  0.93360000  0.19550000  1.0 0.1276763106
H  H6  1  0.70010000  0.43360000  0.80450000  1.0 0.1276763106
H  H7  1  0.06210000  0.95710000  0.27130000  1.0 0.097981245
H  H8  1  0.93790000  0.45710000  0.72870000  1.0 0.097981245
H  H9  1  0.95780000  0.73210000  0.67120000  1.0 0.1137297377
H  H10  1  0.04220000  0.23210000  0.32880000  1.0 0.1137297377
H  H11  1  0.29480000  0.61390000  0.62500000  1.0 0.136796611
H  H12  1  0.70520000  0.11390000  0.37500000  1.0 0.136796611
H  H13  1  0.12190000  0.54460000  0.69170000  1.0 0.1205861717
H  H14  1  0.87810000  0.04460000  0.30830000  1.0 0.1205861717
H  H15  1  0.87360000  0.57170000  0.74810000  1.0 0.097981245
H  H16  1  0.12640000  0.07170000  0.25190000  1.0 0.097981245
H  H17  1  0.71990000  0.75750000  0.47840000  1.0 0.1205861717
H  H18  1  0.28010000  0.25750000  0.52160000  1.0 0.1205861717
H  H19  1  0.77360000  0.66770000  0.13460000  1.0 0.1457825303
H  H20  1  0.22640000  0.16770000  0.86540000  1.0 0.1457825303
H  H21  1  0.83660000  0.75270000  0.03070000  1.0 0.1137297377
H  H22  1  0.16340000  0.25270000  0.96930000  1.0 0.1137297377
H  H23  1  0.83090000  0.83790000  0.15070000  1.0 0.097981245
H  H24  1  0.16910000  0.33790000  0.84930000  1.0 0.097981245
H  H25  1  0.53230000  0.80170000  0.83330000  1.0 0.097981245
H  H26  1  0.46770000  0.30170000  0.16670000  1.0 0.097981245
H  H27  1  0.33550000  0.84640000  0.93300000  1.0 0.1205861717
H  H28  1  0.66450000  0.34640000  0.06700000  1.0 0.1205861717
H  H29  1  0.16550000  0.79110000  0.05130000  1.0 0.136796611
H  H30  1  0.83450000  0.29110000  0.94870000  1.0 0.136796611
H  H31  1  0.40860000  0.65180000  0.96160000  1.0 0.1205861717
H  H32  1  0.59140000  0.15180000  0.03840000  1.0 0.1205861717
H  H33  1  0.40330000  0.51010000  0.58750000  1.0 0.1205861717
H  H34  1  0.59670000  0.01010000  0.41250000  1.0 0.1205861717
H  H35  1  0.60880000  0.53560000  0.24720000  1.0 0.1457825303
H  H36  1  0.39120000  0.03560000  0.75280000  1.0 0.1457825303
H  H37  1  0.51050000  0.44500000  0.16570000  1.0 0.1276763106
H  H38  1  0.48950000  0.94500000  0.83430000  1.0 0.1276763106
H  H39  1  0.37120000  0.39020000  0.29850000  1.0 0.097981245
H  H40  1  0.62880000  0.89020000  0.70150000  1.0 0.097981245
H  H41  1  0.17020000  0.57570000  0.02430000  1.0 0.1205861717
H  H42  1  0.82980000  0.07570000  0.97570000  1.0 0.1205861717
H  H43  1  0.95820000  0.53630000  0.35120000  1.0 0.136796611
H  H44  1  0.04180000  0.03630000  0.64880000  1.0 0.136796611
H  H45  1  0.90690000  0.44550000  0.25770000  1.0 0.1205861717
H  H46  1  0.09310000  0.94550000  0.74230000  1.0 0.1205861717
H  H47  1  0.98240000  0.42290000  0.04680000  1.0 0.0923987999
H  H48  1  0.01760000  0.92290000  0.95320000  1.0 0.0923987999
C  C1  1  0.16050000  0.85172000  0.47180000  1.0 -0.0504256394
C  C2  1  0.83950000  0.35172000  0.52820000  1.0 -0.0504256394
C  C3  1  0.30070000  0.83507000  0.42770000  1.0 0.2492020353
C  C4  1  0.69930000  0.33507000  0.57230000  1.0 0.2492020353
C  C5  1  0.35600000  0.86433000  0.32260000  1.0 -0.1538151279
C  C6  1  0.64400000  0.36433000  0.67740000  1.0 -0.1538151279
C  C7  1  0.26520000  0.91133000  0.26600000  1.0 -0.1118163095
C  C8  1  0.73480000  0.41133000  0.73400000  1.0 -0.1118163095
C  C9  1  0.12470000  0.92535000  0.31270000  1.0 0.0300475796
C  C10  1  0.87530000  0.42535000  0.68730000  1.0 0.0300475796
C  C11  1  0.99190000  0.69344000  0.67580000  1.0 -0.0597031539
C  C12  1  0.00810000  0.19344000  0.32420000  1.0 -0.0597031539
C  C13  1  0.13910000  0.67975000  0.63980000  1.0 0.2580975107
C  C14  1  0.86090000  0.17975000  0.36020000  1.0 0.2580975107
C  C15  1  0.19200000  0.62404000  0.64700000  1.0 -0.157599222
C  C16  1  0.80800000  0.12404000  0.35300000  1.0 -0.157599222
C  C17  1  0.09070000  0.58357000  0.68720000  1.0 -0.1169079617
C  C18  1  0.90930000  0.08357000  0.31280000  1.0 -0.1169079617
C  C19  1  0.94290000  0.60001000  0.72110000  1.0 0.0578628554
C  C20  1  0.05710000  0.10001000  0.27890000  1.0 0.0578628554
C  C21  1  0.74210000  0.75692000  0.38580000  1.0 -0.0597031539
C  C22  1  0.25790000  0.25692000  0.61420000  1.0 -0.0597031539
C  C23  1  0.74040000  0.70539000  0.31490000  1.0 0.2580975107
C  C24  1  0.25960000  0.20539000  0.68510000  1.0 0.2580975107
C  C25  1  0.77460000  0.70287000  0.18290000  1.0 -0.1433778145
C  C26  1  0.22540000  0.20287000  0.81710000  1.0 -0.1433778145
C  C27  1  0.81040000  0.75289000  0.12190000  1.0 -0.102721084
C  C28  1  0.18960000  0.25289000  0.87810000  1.0 -0.102721084
C  C29  1  0.80800000  0.80350000  0.19470000  1.0 0.0524618253
C  C30  1  0.19200000  0.30350000  0.80530000  1.0 0.0524618253
C  C31  1  0.46480000  0.77926000  0.88050000  1.0 0.0524618253
C  C32  1  0.53520000  0.27926000  0.11950000  1.0 0.0524618253
C  C33  1  0.34790000  0.80627000  0.93980000  1.0 -0.1169079617
C  C34  1  0.65210000  0.30627000  0.06020000  1.0 -0.1169079617
C  C35  1  0.24800000  0.77406000  0.00980000  1.0 -0.1538151279
C  C36  1  0.75200000  0.27406000  0.99020000  1.0 -0.1538151279
C  C37  1  0.27490000  0.71674000  0.01580000  1.0 0.2492020353
C  C38  1  0.72510000  0.21674000  0.98420000  1.0 0.2492020353
C  C39  1  0.39340000  0.69183000  0.95490000  1.0 -0.0504256394
C  C40  1  0.60660000  0.19183000  0.04510000  1.0 -0.0504256394
C  C41  1  0.42590000  0.49651000  0.50080000  1.0 -0.0597031539
C  C42  1  0.57410000  0.99651000  0.49920000  1.0 -0.0597031539
C  C43  1  0.51440000  0.53035000  0.42620000  1.0 0.2580975107
C  C44  1  0.48560000  0.03035000  0.57380000  1.0 0.2580975107
C  C45  1  0.54870000  0.51252000  0.29970000  1.0 -0.1433778145
C  C46  1  0.45130000  0.01252000  0.70030000  1.0 -0.1433778145
C  C47  1  0.49110000  0.45921000  0.25280000  1.0 -0.1118163095
C  C48  1  0.50890000  0.95921000  0.74720000  1.0 -0.1118163095
C  C49  1  0.40660000  0.42704000  0.33160000  1.0 0.0300475796
C  C50  1  0.59340000  0.92704000  0.66840000  1.0 0.0300475796
C  C51  1  0.11390000  0.54905000  0.07110000  1.0 -0.0504256394
C  C52  1  0.88610000  0.04905000  0.92890000  1.0 -0.0504256394
C  C53  1  0.06580000  0.56461000  0.19430000  1.0 0.2580975107
C  C54  1  0.93420000  0.06461000  0.80570000  1.0 0.2580975107
C  C55  1  0.98960000  0.52617000  0.26530000  1.0 -0.157599222
C  C56  1  0.01040000  0.02617000  0.73470000  1.0 -0.157599222
C  C57  1  0.95950000  0.47313000  0.21030000  1.0 -0.1118163095
C  C58  1  0.04050000  0.97313000  0.78970000  1.0 -0.1118163095
C  C59  1  0.00600000  0.45983000  0.08530000  1.0 0.0524618253
C  C60  1  0.99400000  0.95983000  0.91470000  1.0 0.0524618253
N  N1  1  0.48450000  0.68565000  0.51870000  1.0 -0.8562174961
N  N2  1  0.51550000  0.18565000  0.48130000  1.0 -0.8562174961
N  N3  1  0.20360000  0.71525000  0.33660000  1.0 -0.8217579946
N  N4  1  0.79640000  0.21525000  0.66340000  1.0 -0.8217579946
N  N5  1  0.40330000  0.63501000  0.26350000  1.0 -0.8296003566
N  N6  1  0.59670000  0.13501000  0.73650000  1.0 -0.8296003566
N  N7  1  0.48780000  0.72283000  0.88620000  1.0 -0.1712164935
N  N8  1  0.51220000  0.22283000  0.11380000  1.0 -0.1712164935
N  N9  1  0.08240000  0.49657000  0.01620000  1.0 -0.240454346
N  N10  1  0.91760000  0.99657000  0.98380000  1.0 -0.240454346
N  N11  1  0.37110000  0.44498000  0.45390000  1.0 -0.1712164935
N  N12  1  0.62890000  0.94498000  0.54610000  1.0 -0.1712164935
N  N13  1  0.89480000  0.65410000  0.71720000  1.0 -0.1712164935
N  N14  1  0.10520000  0.15410000  0.28280000  1.0 -0.1712164935
N  N15  1  0.07150000  0.89619000  0.41460000  1.0 -0.1712164935
N  N16  1  0.92850000  0.39619000  0.58540000  1.0 -0.1712164935
N  N17  1  0.77480000  0.80616000  0.32480000  1.0 -0.1789778099
N  N18  1  0.22520000  0.30616000  0.67520000  1.0 -0.1789778099
N  N19  1  0.39570000  0.05231000  0.08050000  1.0 0.6816611662
N  N20  1  0.60430000  0.55231000  0.91950000  1.0 0.6816611662
N  N21  1  0.12560000  0.32430000  0.22250000  1.0 0.6749134436
N  N22  1  0.87440000  0.82430000  0.77750000  1.0 0.6749134436
O  O1  1  0.39350000  0.78891000  0.49170000  1.0 -0.4106539882
O  O2  1  0.60650000  0.28891000  0.50830000  1.0 -0.4106539882
O  O3  1  0.23150000  0.72578000  0.60730000  1.0 -0.4191630641
O  O4  1  0.76850000  0.22578000  0.39270000  1.0 -0.4191630641
O  O5  1  0.70910000  0.65450000  0.38190000  1.0 -0.4191630641
O  O6  1  0.29090000  0.15450000  0.61810000  1.0 -0.4191630641
O  O7  1  0.56700000  0.58274000  0.48700000  1.0 -0.4191630641
O  O8  1  0.43300000  0.08274000  0.51300000  1.0 -0.4191630641
O  O9  1  0.08690000  0.61942000  0.25100000  1.0 -0.398293458
O  O10  1  0.91310000  0.11942000  0.74900000  1.0 -0.398293458
O  O11  1  0.17230000  0.68085000  0.07790000  1.0 -0.4191630641
O  O12  1  0.82770000  0.18085000  0.92210000  1.0 -0.4191630641
O  O13  1  0.45450000  0.07178000  0.19960000  1.0 -0.4372679517
O  O14  1  0.42100000  0.00225000  0.05150000  1.0 -0.4268007502
O  O15  1  0.31170000  0.08408000  0.99390000  1.0 -0.4106539882
O  O16  1  0.54550000  0.57178000  0.80040000  1.0 -0.4372679517
O  O17  1  0.57900000  0.50225000  0.94850000  1.0 -0.4268007502
O  O18  1  0.68830000  0.58408000  0.00610000  1.0 -0.4106539882
O  O19  1  0.12320000  0.33492000  0.09840000  1.0 -0.4191630641
O  O20  1  0.01520000  0.33987000  0.28020000  1.0 -0.4106539882
O  O21  1  0.24640000  0.29779000  0.29330000  1.0 -0.452754967
O  O22  1  0.87680000  0.83492000  0.90160000  1.0 -0.4106539882
O  O23  1  0.98480000  0.83987000  0.71980000  1.0 -0.4106539882
O  O24  1  0.75360000  0.79779000  0.70670000  1.0 -0.452754967
