# DDEC6 charges by PACMAN v1.1 (https://github.com/mtap-research/PACMAN-charge/)
data_ONOCEC_ASR_pacman
_symmetry_space_group_name_H-M   'P 1'
_cell_length_a   16.11640000
_cell_length_b   16.11640000
_cell_length_c   24.80060000
_cell_angle_alpha   86.66560000
_cell_angle_beta   93.33440000
_cell_angle_gamma   88.11480000
_symmetry_Int_Tables_number   1
_chemical_formula_structural   Cd2C54I(NO)6
_chemical_formula_sum   'Cd8 C216 I4 N24 O24'
_cell_volume   6415.61966543
_cell_formula_units_Z   4
loop_
 _symmetry_equiv_pos_site_id
 _symmetry_equiv_pos_as_xyz
  1  'x, y, z'
loop_
 _atom_site_type_symbol
 _atom_site_label
 _atom_site_symmetry_multiplicity
 _atom_site_fract_x
 _atom_site_fract_y
 _atom_site_fract_z
 _atom_site_occupancy
 _atom_site_charge
Cd  Cd1  1  0.08513000  0.57395000  0.73948000  1.0 1.0085546268
Cd  Cd2  1  0.88813000  0.59113000  0.67107000  1.0 0.8962698472
Cd  Cd3  1  0.57395000  0.08513000  0.76052000  1.0 1.0085546268
Cd  Cd4  1  0.59113000  0.88813000  0.82893000  1.0 0.8962698472
Cd  Cd5  1  0.91487000  0.42605000  0.26052000  1.0 1.0085546268
Cd  Cd6  1  0.11187000  0.40887000  0.32893000  1.0 0.8962698472
Cd  Cd7  1  0.42605000  0.91487000  0.23948000  1.0 1.0085546268
Cd  Cd8  1  0.40887000  0.11187000  0.17107000  1.0 0.8962698472
C  C1  1  0.44670000  0.19470000  0.67730000  1.0 0.1097130424
C  C2  1  0.32860000  0.33920000  0.63590000  1.0 -0.2430010358
C  C3  1  0.35170000  0.26470000  0.60610000  1.0 0.2456638856
C  C4  1  0.15650000  0.17750000  0.49130000  1.0 -0.1444666641
C  C5  1  0.06250000  0.33010000  0.52850000  1.0 -0.0145534887
C  C6  1  0.10320000  0.26760000  0.61760000  1.0 -0.0492741251
C  C7  1  0.17950000  0.09910000  0.46880000  1.0 0.0981399253
C  C8  1  0.37250000  0.11050000  0.62650000  1.0 0.1306763157
C  C9  1  0.28590000  0.41230000  0.55040000  1.0 -0.2269178586
C  C10  1  0.34390000  0.26950000  0.54810000  1.0 -0.2899439591
C  C11  1  0.98940000  0.47400000  0.63010000  1.0 0.6083216859
C  C12  1  0.11660000  0.17720000  0.53870000  1.0 0.0490663937
C  C13  1  0.02990000  0.39030000  0.55050000  1.0 -0.0289907847
C  C14  1  0.21610000  0.09830000  0.41500000  1.0 0.0729084728
C  C15  1  0.29660000  0.40080000  0.60730000  1.0 0.184093569
C  C16  1  0.05340000  0.79900000  0.62900000  1.0 -0.0558951305
C  C17  1  0.09520000  0.25900000  0.56250000  1.0 0.1097130424
C  C18  1  0.29800000  0.09040000  0.32140000  1.0 -0.0492741251
C  C19  1  0.23940000  0.60440000  0.65620000  1.0 0.1306763157
C  C20  1  0.33080000  0.04740000  0.36560000  1.0 0.0066871151
C  C21  1  0.30640000  0.34200000  0.52120000  1.0 0.2157332306
C  C22  1  0.28800000  0.04240000  0.41530000  1.0 0.031332137
C  C23  1  0.28370000  0.56070000  0.61610000  1.0 0.1227174146
C  C24  1  0.03330000  0.39810000  0.60620000  1.0 -0.0289907847
C  C25  1  0.09920000  0.10340000  0.56910000  1.0 -0.0420138642
C  C26  1  0.34370000  0.31650000  0.42430000  1.0 0.0934447484
C  C27  1  0.34440000  0.09760000  0.27130000  1.0 0.6083216859
C  C28  1  0.22380000  0.37740000  0.43650000  1.0 0.0981399253
C  C29  1  0.15510000  0.02370000  0.49680000  1.0 -0.0289907847
C  C30  1  0.29910000  0.34050000  0.37490000  1.0 0.1463501123
C  C31  1  0.42250000  0.06090000  0.66830000  1.0 0.1306763157
C  C32  1  0.02650000  0.72370000  0.66140000  1.0 0.6083216859
C  C33  1  0.22110000  0.47170000  0.67750000  1.0 0.1306763157
C  C34  1  0.23090000  0.14830000  0.32680000  1.0 0.07966328
C  C35  1  0.07170000  0.33350000  0.64060000  1.0 -0.0028665373
C  C36  1  0.28000000  0.73000000  0.60700000  1.0 -0.0202937655
C  C37  1  0.24000000  0.69200000  0.65350000  1.0 -0.0028665373
C  C38  1  0.31980000  0.07300000  0.58870000  1.0 -0.1291422504
C  C39  1  0.05990000  0.88530000  0.54820000  1.0 -0.0702860592
C  C40  1  0.09570000  0.94930000  0.57480000  1.0 0.07966328
C  C41  1  0.11820000  0.02700000  0.54460000  1.0 0.0729084728
C  C42  1  0.08690000  0.86410000  0.65930000  1.0 0.0729084728
C  C43  1  0.19030000  0.14730000  0.37340000  1.0 -0.0883124223
C  C44  1  0.11490000  0.93550000  0.63180000  1.0 0.0043214854
C  C45  1  0.03810000  0.81550000  0.57400000  1.0 0.0066871151
C  C46  1  0.33490000  0.31730000  0.32790000  1.0 -0.0202937655
C  C47  1  0.43100000  0.28900000  0.43300000  1.0 -0.0492741251
C  C48  1  0.30920000  0.68480000  0.57500000  1.0 0.031332137
C  C49  1  0.42140000  0.97800000  0.66750000  1.0 -0.0420138642
C  C50  1  0.37700000  0.94100000  0.62900000  1.0 0.0066871151
C  C51  1  0.32790000  0.59890000  0.57440000  1.0 -0.0492741251
C  C52  1  0.46000000  0.25200000  0.38300000  1.0 0.0490663937
C  C53  1  0.31500000  0.99100000  0.60100000  1.0 0.031332137
C  C54  1  0.41570000  0.28230000  0.33200000  1.0 0.0578919002
C  C55  1  0.19470000  0.44670000  0.82270000  1.0 0.1097130424
C  C56  1  0.33920000  0.32860000  0.86410000  1.0 -0.2430010358
C  C57  1  0.26470000  0.35170000  0.89390000  1.0 0.2437783671
C  C58  1  0.17750000  0.15650000  0.00870000  1.0 -0.147612637
C  C59  1  0.33010000  0.06250000  0.97150000  1.0 -0.0145534887
C  C60  1  0.26760000  0.10320000  0.88240000  1.0 -0.0420138642
C  C61  1  0.09910000  0.17950000  0.03120000  1.0 0.0981399253
C  C62  1  0.11050000  0.37250000  0.87350000  1.0 0.1306763157
C  C63  1  0.41230000  0.28590000  0.94960000  1.0 -0.2269178586
C  C64  1  0.26950000  0.34390000  0.95190000  1.0 -0.2899439591
C  C65  1  0.47400000  0.98940000  0.86990000  1.0 0.6083216859
C  C66  1  0.17720000  0.11660000  0.96130000  1.0 0.0490663937
C  C67  1  0.39030000  0.02990000  0.94950000  1.0 -0.0289907847
C  C68  1  0.09830000  0.21610000  0.08500000  1.0 0.0729084728
C  C69  1  0.40080000  0.29660000  0.89270000  1.0 0.184093569
C  C70  1  0.79900000  0.05340000  0.87100000  1.0 -0.0492741251
C  C71  1  0.25900000  0.09520000  0.93750000  1.0 0.1097130424
C  C72  1  0.09040000  0.29800000  0.17860000  1.0 -0.0492741251
C  C73  1  0.60440000  0.23940000  0.84380000  1.0 0.1306763157
C  C74  1  0.04740000  0.33080000  0.13440000  1.0 0.0066871151
C  C75  1  0.34200000  0.30640000  0.97880000  1.0 0.2157332306
C  C76  1  0.04240000  0.28800000  0.08470000  1.0 0.031332137
C  C77  1  0.56070000  0.28370000  0.88390000  1.0 0.1227174146
C  C78  1  0.39810000  0.03330000  0.89380000  1.0 -0.0289907847
C  C79  1  0.10340000  0.09920000  0.93090000  1.0 -0.0420138642
C  C80  1  0.31650000  0.34370000  0.07570000  1.0 0.0934447484
C  C81  1  0.09760000  0.34440000  0.22870000  1.0 0.6083216859
C  C82  1  0.37740000  0.22380000  0.06350000  1.0 0.0981399253
C  C83  1  0.02370000  0.15510000  0.00320000  1.0 -0.0289907847
C  C84  1  0.34050000  0.29910000  0.12510000  1.0 0.1463501123
C  C85  1  0.06090000  0.42250000  0.83170000  1.0 0.1306763157
C  C86  1  0.72370000  0.02650000  0.83860000  1.0 0.6083216859
C  C87  1  0.47170000  0.22110000  0.82250000  1.0 0.1306763157
C  C88  1  0.14830000  0.23090000  0.17320000  1.0 0.07966328
C  C89  1  0.33350000  0.07170000  0.85940000  1.0 -0.0028665373
C  C90  1  0.73000000  0.28000000  0.89300000  1.0 -0.0202937655
C  C91  1  0.69200000  0.24000000  0.84650000  1.0 -0.0028665373
C  C92  1  0.07300000  0.31980000  0.91130000  1.0 -0.1291422504
C  C93  1  0.88530000  0.05990000  0.95180000  1.0 -0.0702860592
C  C94  1  0.94930000  0.09570000  0.92520000  1.0 0.07966328
C  C95  1  0.02700000  0.11820000  0.95540000  1.0 0.0729084728
C  C96  1  0.86410000  0.08690000  0.84070000  1.0 0.0729084728
C  C97  1  0.14730000  0.19030000  0.12660000  1.0 -0.0883124223
C  C98  1  0.93550000  0.11490000  0.86820000  1.0 0.0043214854
C  C99  1  0.81550000  0.03810000  0.92600000  1.0 0.0066871151
C  C100  1  0.31730000  0.33490000  0.17210000  1.0 -0.0202937655
C  C101  1  0.28900000  0.43100000  0.06700000  1.0 -0.0492741251
C  C102  1  0.68480000  0.30920000  0.92500000  1.0 0.031332137
C  C103  1  0.97800000  0.42140000  0.83250000  1.0 -0.0420138642
C  C104  1  0.94100000  0.37700000  0.87100000  1.0 0.0066871151
C  C105  1  0.59890000  0.32790000  0.92560000  1.0 -0.0420138642
C  C106  1  0.25200000  0.46000000  0.11700000  1.0 0.0490663937
C  C107  1  0.99100000  0.31500000  0.89900000  1.0 0.031332137
C  C108  1  0.28230000  0.41570000  0.16800000  1.0 0.0578919002
C  C109  1  0.55330000  0.80530000  0.32270000  1.0 0.1097130424
C  C110  1  0.67140000  0.66080000  0.36410000  1.0 -0.2430010358
C  C111  1  0.64830000  0.73530000  0.39390000  1.0 0.2456638856
C  C112  1  0.84350000  0.82250000  0.50870000  1.0 -0.147612637
C  C113  1  0.93750000  0.66990000  0.47150000  1.0 -0.0145534887
C  C114  1  0.89680000  0.73240000  0.38240000  1.0 -0.0420138642
C  C115  1  0.82050000  0.90090000  0.53120000  1.0 0.0981399253
C  C116  1  0.62750000  0.88950000  0.37350000  1.0 0.1306763157
C  C117  1  0.71410000  0.58770000  0.44960000  1.0 -0.2269178586
C  C118  1  0.65610000  0.73050000  0.45190000  1.0 -0.2899439591
C  C119  1  0.01060000  0.52600000  0.36990000  1.0 0.6083216859
C  C120  1  0.88340000  0.82280000  0.46130000  1.0 0.0490663937
C  C121  1  0.97010000  0.60970000  0.44950000  1.0 -0.0289907847
C  C122  1  0.78390000  0.90170000  0.58500000  1.0 0.0729084728
C  C123  1  0.70340000  0.59920000  0.39270000  1.0 0.184093569
C  C124  1  0.94660000  0.20100000  0.37100000  1.0 -0.0492741251
C  C125  1  0.90480000  0.74100000  0.43750000  1.0 0.0981399253
C  C126  1  0.70200000  0.90960000  0.67860000  1.0 -0.0492741251
C  C127  1  0.76060000  0.39560000  0.34380000  1.0 0.1306763157
C  C128  1  0.66920000  0.95260000  0.63440000  1.0 0.0066871151
C  C129  1  0.69360000  0.65800000  0.47880000  1.0 0.2157332306
C  C130  1  0.71200000  0.95760000  0.58470000  1.0 0.031332137
C  C131  1  0.71630000  0.43930000  0.38390000  1.0 0.1227174146
C  C132  1  0.96670000  0.60190000  0.39380000  1.0 -0.0289907847
C  C133  1  0.90080000  0.89660000  0.43090000  1.0 -0.0420138642
C  C134  1  0.65630000  0.68350000  0.57570000  1.0 0.0934447484
C  C135  1  0.65560000  0.90240000  0.72870000  1.0 0.6083216859
C  C136  1  0.77620000  0.62260000  0.56350000  1.0 0.0981399253
C  C137  1  0.84490000  0.97630000  0.50320000  1.0 -0.0289907847
C  C138  1  0.70090000  0.65950000  0.62510000  1.0 0.1463501123
C  C139  1  0.57750000  0.93910000  0.33170000  1.0 0.1306763157
C  C140  1  0.97350000  0.27630000  0.33860000  1.0 0.6083216859
C  C141  1  0.77890000  0.52830000  0.32250000  1.0 0.1306763157
C  C142  1  0.76910000  0.85170000  0.67320000  1.0 0.07966328
C  C143  1  0.92830000  0.66650000  0.35940000  1.0 -0.0028665373
C  C144  1  0.72000000  0.27000000  0.39300000  1.0 -0.0202937655
C  C145  1  0.76000000  0.30800000  0.34650000  1.0 -0.0028665373
C  C146  1  0.68020000  0.92700000  0.41130000  1.0 -0.1291422504
C  C147  1  0.94010000  0.11470000  0.45180000  1.0 -0.0702860592
C  C148  1  0.90430000  0.05070000  0.42520000  1.0 0.07966328
C  C149  1  0.88180000  0.97300000  0.45540000  1.0 0.0729084728
C  C150  1  0.91310000  0.13590000  0.34070000  1.0 0.0729084728
C  C151  1  0.80970000  0.85270000  0.62660000  1.0 -0.0883124223
C  C152  1  0.88510000  0.06450000  0.36820000  1.0 0.0043214854
C  C153  1  0.96190000  0.18450000  0.42600000  1.0 0.0066871151
C  C154  1  0.66510000  0.68270000  0.67210000  1.0 -0.0202937655
C  C155  1  0.56900000  0.71100000  0.56700000  1.0 -0.0492741251
C  C156  1  0.69080000  0.31520000  0.42500000  1.0 0.031332137
C  C157  1  0.57860000  0.02200000  0.33250000  1.0 -0.0420138642
C  C158  1  0.62300000  0.05900000  0.37100000  1.0 0.0066871151
C  C159  1  0.67210000  0.40110000  0.42560000  1.0 -0.0492741251
C  C160  1  0.54000000  0.74800000  0.61700000  1.0 0.0490663937
C  C161  1  0.68500000  0.00900000  0.39900000  1.0 0.031332137
C  C162  1  0.58430000  0.71770000  0.66800000  1.0 0.0578919002
C  C163  1  0.80530000  0.55330000  0.17730000  1.0 0.1097130424
C  C164  1  0.66080000  0.67140000  0.13590000  1.0 -0.2430010358
C  C165  1  0.73530000  0.64830000  0.10610000  1.0 0.2456638856
C  C166  1  0.82250000  0.84350000  0.99130000  1.0 -0.147612637
C  C167  1  0.66990000  0.93750000  0.02850000  1.0 -0.0145534887
C  C168  1  0.73240000  0.89680000  0.11760000  1.0 -0.0492741251
C  C169  1  0.90090000  0.82050000  0.96880000  1.0 0.0981399253
C  C170  1  0.88950000  0.62750000  0.12650000  1.0 0.1306763157
C  C171  1  0.58770000  0.71410000  0.05040000  1.0 -0.2197819409
C  C172  1  0.73050000  0.65610000  0.04810000  1.0 -0.2899439591
C  C173  1  0.52600000  0.01060000  0.13010000  1.0 0.6083216859
C  C174  1  0.82280000  0.88340000  0.03870000  1.0 0.0490663937
C  C175  1  0.60970000  0.97010000  0.05050000  1.0 -0.0289907847
C  C176  1  0.90170000  0.78390000  0.91500000  1.0 0.0729084728
C  C177  1  0.59920000  0.70340000  0.10730000  1.0 0.184093569
C  C178  1  0.20100000  0.94660000  0.12900000  1.0 -0.0492741251
C  C179  1  0.74100000  0.90480000  0.06250000  1.0 0.1097130424
C  C180  1  0.90960000  0.70200000  0.82140000  1.0 -0.0492741251
C  C181  1  0.39560000  0.76060000  0.15620000  1.0 0.1306763157
C  C182  1  0.95260000  0.66920000  0.86560000  1.0 0.0066871151
C  C183  1  0.65800000  0.69360000  0.02120000  1.0 0.2157332306
C  C184  1  0.95760000  0.71200000  0.91530000  1.0 0.031332137
C  C185  1  0.43930000  0.71630000  0.11610000  1.0 0.1227174146
C  C186  1  0.60190000  0.96670000  0.10620000  1.0 -0.0289907847
C  C187  1  0.89660000  0.90080000  0.06910000  1.0 -0.0420138642
C  C188  1  0.68350000  0.65630000  0.92430000  1.0 0.0934447484
C  C189  1  0.90240000  0.65560000  0.77130000  1.0 0.6083216859
C  C190  1  0.62260000  0.77620000  0.93650000  1.0 0.0981399253
C  C191  1  0.97630000  0.84490000  0.99680000  1.0 -0.0289907847
C  C192  1  0.65950000  0.70090000  0.87490000  1.0 0.1463501123
C  C193  1  0.93910000  0.57750000  0.16830000  1.0 0.1306763157
C  C194  1  0.27630000  0.97350000  0.16140000  1.0 0.6083216859
C  C195  1  0.52830000  0.77890000  0.17750000  1.0 0.1306763157
C  C196  1  0.85170000  0.76910000  0.82680000  1.0 0.07966328
C  C197  1  0.66650000  0.92830000  0.14060000  1.0 -0.0028665373
C  C198  1  0.27000000  0.72000000  0.10700000  1.0 -0.0202937655
C  C199  1  0.30800000  0.76000000  0.15350000  1.0 -0.0028665373
C  C200  1  0.92700000  0.68020000  0.08870000  1.0 -0.1291422504
C  C201  1  0.11470000  0.94010000  0.04820000  1.0 -0.0702860592
C  C202  1  0.05070000  0.90430000  0.07480000  1.0 0.07966328
C  C203  1  0.97300000  0.88180000  0.04460000  1.0 0.0729084728
C  C204  1  0.13590000  0.91310000  0.15930000  1.0 0.0729084728
C  C205  1  0.85270000  0.80970000  0.87340000  1.0 -0.0883124223
C  C206  1  0.06450000  0.88510000  0.13180000  1.0 0.0066871151
C  C207  1  0.18450000  0.96190000  0.07400000  1.0 0.0066871151
C  C208  1  0.68270000  0.66510000  0.82790000  1.0 -0.0202937655
C  C209  1  0.71100000  0.56900000  0.93300000  1.0 -0.0492741251
C  C210  1  0.31520000  0.69080000  0.07500000  1.0 0.031332137
C  C211  1  0.02200000  0.57860000  0.16750000  1.0 -0.0420138642
C  C212  1  0.05900000  0.62300000  0.12900000  1.0 0.0066871151
C  C213  1  0.40110000  0.67210000  0.07440000  1.0 -0.0492741251
C  C214  1  0.74800000  0.54000000  0.88300000  1.0 0.0490663937
C  C215  1  0.00900000  0.68500000  0.10100000  1.0 0.031332137
C  C216  1  0.71770000  0.58430000  0.83200000  1.0 0.0578919002
I  I1  1  0.79590000  0.44450000  0.72000000  1.0 -0.4524312275
I  I2  1  0.44450000  0.79590000  0.78000000  1.0 -0.4524312275
I  I3  1  0.20410000  0.55550000  0.28000000  1.0 -0.4552723276
I  I4  1  0.55550000  0.20410000  0.22000000  1.0 -0.4552723276
N  N1  1  0.38950000  0.19550000  0.63360000  1.0 -0.0702860592
N  N2  1  0.29500000  0.34260000  0.46300000  1.0 -0.0202937655
N  N3  1  0.27190000  0.47610000  0.63430000  1.0 -0.0420138642
N  N4  1  0.19830000  0.54810000  0.69210000  1.0 -0.3602382498
N  N5  1  0.46790000  0.12170000  0.69660000  1.0 -0.3201630818
N  N6  1  0.23360000  0.38200000  0.38680000  1.0 -0.2143971504
N  N7  1  0.19550000  0.38950000  0.86640000  1.0 -0.0702860592
N  N8  1  0.34260000  0.29500000  0.03700000  1.0 -0.0202937655
N  N9  1  0.47610000  0.27190000  0.86570000  1.0 -0.0420138642
N  N10  1  0.54810000  0.19830000  0.80790000  1.0 -0.3602382498
N  N11  1  0.12170000  0.46790000  0.80340000  1.0 -0.3201630818
N  N12  1  0.38200000  0.23360000  0.11320000  1.0 -0.2197819409
N  N13  1  0.61050000  0.80450000  0.36640000  1.0 -0.0702860592
N  N14  1  0.70500000  0.65740000  0.53700000  1.0 -0.0202937655
N  N15  1  0.72810000  0.52390000  0.36570000  1.0 -0.0420138642
N  N16  1  0.80170000  0.45190000  0.30790000  1.0 -0.3602382498
N  N17  1  0.53210000  0.87830000  0.30340000  1.0 -0.3201630818
N  N18  1  0.76640000  0.61800000  0.61320000  1.0 -0.2197819409
N  N19  1  0.80450000  0.61050000  0.13360000  1.0 -0.0702860592
N  N20  1  0.65740000  0.70500000  0.96300000  1.0 -0.0202937655
N  N21  1  0.52390000  0.72810000  0.13430000  1.0 -0.0420138642
N  N22  1  0.45190000  0.80170000  0.19210000  1.0 -0.3602382498
N  N23  1  0.87830000  0.53210000  0.19660000  1.0 -0.3201630818
N  N24  1  0.61800000  0.76640000  0.88680000  1.0 -0.2143971504
O  O1  1  0.40880000  0.04680000  0.26710000  1.0 -0.5812857034
O  O2  1  0.93290000  0.51190000  0.60460000  1.0 -0.4667596625
O  O3  1  0.32130000  0.15330000  0.23530000  1.0 -0.5096519248
O  O4  1  0.00950000  0.48830000  0.67950000  1.0 -0.5812857034
O  O5  1  0.06330000  0.70590000  0.70500000  1.0 -0.5179332005
O  O6  1  0.97670000  0.68250000  0.63390000  1.0 -0.5179332005
O  O7  1  0.04680000  0.40880000  0.23290000  1.0 -0.5812857034
O  O8  1  0.51190000  0.93290000  0.89540000  1.0 -0.4667596625
O  O9  1  0.15330000  0.32130000  0.26470000  1.0 -0.5096519248
O  O10  1  0.48830000  0.00950000  0.82050000  1.0 -0.5812857034
O  O11  1  0.70590000  0.06330000  0.79500000  1.0 -0.5179332005
O  O12  1  0.68250000  0.97670000  0.86610000  1.0 -0.5179332005
O  O13  1  0.59120000  0.95320000  0.73290000  1.0 -0.5812857034
O  O14  1  0.06710000  0.48810000  0.39540000  1.0 -0.4667596625
O  O15  1  0.67870000  0.84670000  0.76470000  1.0 -0.5096519248
O  O16  1  0.99050000  0.51170000  0.32050000  1.0 -0.5812857034
O  O17  1  0.93670000  0.29410000  0.29500000  1.0 -0.5179332005
O  O18  1  0.02330000  0.31750000  0.36610000  1.0 -0.5179332005
O  O19  1  0.95320000  0.59120000  0.76710000  1.0 -0.5812857034
O  O20  1  0.48810000  0.06710000  0.10460000  1.0 -0.4667596625
O  O21  1  0.84670000  0.67870000  0.73530000  1.0 -0.5096519248
O  O22  1  0.51170000  0.99050000  0.17950000  1.0 -0.5812857034
O  O23  1  0.29410000  0.93670000  0.20500000  1.0 -0.5179332005
O  O24  1  0.31750000  0.02330000  0.13390000  1.0 -0.5179332005
