# DDEC6 charges by PACMAN v1.1 (https://github.com/mtap-research/PACMAN-charge/)
data_ONODOM_FSR_pacman
_symmetry_space_group_name_H-M   'P 1'
_cell_length_a   12.83280000
_cell_length_b   16.14390000
_cell_length_c   16.27380000
_cell_angle_alpha   84.64500000
_cell_angle_beta   79.83700000
_cell_angle_gamma   69.37200000
_symmetry_Int_Tables_number   1
_chemical_formula_structural   Ni3H38C60O19
_chemical_formula_sum   'Ni6 H76 C120 O38'
_cell_volume   3104.02807232
_cell_formula_units_Z   2
loop_
 _symmetry_equiv_pos_site_id
 _symmetry_equiv_pos_as_xyz
  1  'x, y, z'
loop_
 _atom_site_type_symbol
 _atom_site_label
 _atom_site_symmetry_multiplicity
 _atom_site_fract_x
 _atom_site_fract_y
 _atom_site_fract_z
 _atom_site_occupancy
 _atom_site_charge
Ni  Ni1  1  0.43663000  0.28215000  0.95583000  1.0 0.9307494142
Ni  Ni2  1  0.56337000  0.71785000  0.04417000  1.0 0.9307494142
Ni  Ni3  1  0.50235000  0.73982000  0.44236000  1.0 0.9590766856
Ni  Ni4  1  0.49765000  0.26018000  0.55764000  1.0 0.9590766856
Ni  Ni5  1  0.50530000  0.76551000  0.24832000  1.0 0.9590766856
Ni  Ni6  1  0.49470000  0.23449000  0.75168000  1.0 0.9590766856
H  H1  1  0.57800000  0.67300000  0.57250000  1.0 0.4165109673
H  H2  1  0.42200000  0.32700000  0.42750000  1.0 0.4165109673
H  H3  1  0.68200000  0.67700000  0.51200000  1.0 0.3846954236
H  H4  1  0.31800000  0.32300000  0.48800000  1.0 0.3846954236
H  H5  1  0.33090000  0.77630000  0.36130000  1.0 0.4079681018
H  H6  1  0.66910000  0.22370000  0.63870000  1.0 0.4079681018
H  H7  1  0.35850000  0.86460000  0.36250000  1.0 0.425043104
H  H8  1  0.64150000  0.13540000  0.63750000  1.0 0.425043104
H  H9  1  0.32960000  0.35250000  0.83490000  1.0 0.4079681018
H  H10  1  0.67040000  0.64750000  0.16510000  1.0 0.4079681018
H  H11  1  0.31390000  0.26050000  0.85820000  1.0 0.3989216069
H  H12  1  0.68610000  0.73950000  0.14180000  1.0 0.3989216069
H  H13  1  0.76580000  0.89230000  0.22300000  1.0 0.1285005196
H  H14  1  0.23420000  0.10770000  0.77700000  1.0 0.1285005196
H  H15  1  0.86150000  0.98940000  0.21960000  1.0 0.1112620611
H  H16  1  0.13850000  0.01060000  0.78040000  1.0 0.1112620611
H  H17  1  0.59440000  0.98070000  0.44550000  1.0 0.1362839917
H  H18  1  0.40560000  0.01930000  0.55450000  1.0 0.1362839917
H  H19  1  0.73030000  0.22040000  0.36330000  1.0 0.1285005196
H  H20  1  0.26970000  0.77960000  0.63670000  1.0 0.1285005196
H  H21  1  0.99720000  0.01550000  0.27770000  1.0 0.1112620611
H  H22  1  0.00280000  0.98450000  0.72230000  1.0 0.1112620611
H  H23  1  0.10490000  0.10450000  0.25420000  1.0 0.1285005196
H  H24  1  0.89510000  0.89550000  0.74580000  1.0 0.1199393868
H  H25  1  0.84010000  0.30760000  0.34070000  1.0 0.1199393868
H  H26  1  0.15990000  0.69240000  0.65930000  1.0 0.1199393868
H  H27  1  0.96220000  0.36710000  0.35120000  1.0 0.1007480079
H  H28  1  0.03780000  0.63290000  0.64880000  1.0 0.1007480079
H  H29  1  0.06720000  0.45660000  0.31910000  1.0 0.1007480079
H  H30  1  0.93280000  0.54340000  0.68090000  1.0 0.1007480079
H  H31  1  0.30330000  0.27690000  0.18020000  1.0 0.1199393868
H  H32  1  0.69670000  0.72310000  0.81980000  1.0 0.1199393868
H  H33  1  0.19600000  0.18390000  0.20690000  1.0 0.1112620611
H  H34  1  0.80400000  0.81610000  0.79310000  1.0 0.1112620611
H  H35  1  0.18710000  0.51550000  0.32370000  1.0 0.1007480079
H  H36  1  0.81290000  0.48450000  0.67630000  1.0 0.1007480079
H  H37  1  0.28510000  0.61150000  0.30070000  1.0 0.1199393868
H  H38  1  0.71490000  0.38850000  0.69930000  1.0 0.1199393868
H  H39  1  0.44280000  0.49980000  0.08380000  1.0 0.1460867305
H  H40  1  0.55720000  0.50020000  0.91620000  1.0 0.1460867305
H  H41  1  0.07770000  0.16310000  0.01810000  1.0 0.1199393868
H  H42  1  0.92230000  0.83690000  0.98190000  1.0 0.1199393868
H  H43  1  0.02140000  0.04940000  0.08350000  1.0 0.1199393868
H  H44  1  0.97860000  0.95060000  0.91650000  1.0 0.1199393868
H  H45  1  0.39400000  0.02670000  0.05050000  1.0 0.1460867305
H  H46  1  0.60600000  0.97330000  0.94950000  1.0 0.1460867305
H  H47  1  0.21640000  0.86640000  0.24320000  1.0 0.1285005196
H  H48  1  0.78360000  0.13360000  0.75680000  1.0 0.1285005196
H  H49  1  0.13660000  0.76760000  0.31210000  1.0 0.1285005196
H  H50  1  0.86340000  0.23240000  0.68790000  1.0 0.1199393868
H  H51  1  0.95620000  0.79700000  0.12690000  1.0 0.1199393868
H  H52  1  0.04380000  0.20300000  0.87310000  1.0 0.1199393868
H  H53  1  0.03230000  0.89920000  0.06160000  1.0 0.1199393868
H  H54  1  0.96770000  0.10080000  0.93840000  1.0 0.1199393868
H  H55  1  0.96720000  0.74940000  0.39000000  1.0 0.1285005196
H  H56  1  0.03280000  0.25060000  0.61000000  1.0 0.1285005196
H  H57  1  0.87700000  0.65670000  0.45910000  1.0 0.1112620611
H  H58  1  0.12300000  0.34330000  0.54090000  1.0 0.1112620611
H  H59  1  0.87960000  0.55930000  0.24120000  1.0 0.1285005196
H  H60  1  0.12040000  0.44070000  0.75880000  1.0 0.1285005196
H  H61  1  0.96830000  0.65400000  0.17260000  1.0 0.1285005196
H  H62  1  0.03170000  0.34600000  0.82740000  1.0 0.1285005196
H  H63  1  0.92580000  0.48280000  0.48130000  1.0 0.1112620611
H  H64  1  0.07420000  0.51720000  0.51870000  1.0 0.1112620611
H  H65  1  0.84910000  0.38240000  0.54950000  1.0 0.1199393868
H  H66  1  0.15090000  0.61760000  0.45050000  1.0 0.1199393868
H  H67  1  0.59750000  0.47200000  0.41380000  1.0 0.1460867305
H  H68  1  0.40250000  0.52800000  0.58620000  1.0 0.1460867305
H  H69  1  0.06370000  0.29670000  0.39120000  1.0 0.1112620611
H  H70  1  0.93630000  0.70330000  0.60880000  1.0 0.1112620611
H  H71  1  0.17840000  0.38030000  0.36000000  1.0 0.1007480079
H  H72  1  0.82160000  0.61970000  0.64000000  1.0 0.1007480079
H  H73  1  0.14830000  0.38730000  0.12100000  1.0 0.1199393868
H  H74  1  0.85170000  0.61270000  0.87900000  1.0 0.1199393868
H  H75  1  0.04990000  0.29210000  0.15060000  1.0 0.1199393868
H  H76  1  0.95010000  0.70790000  0.84940000  1.0 0.1199393868
C  C1  1  0.61000000  0.86020000  0.33860000  1.0 0.6013428747
C  C2  1  0.39000000  0.13980000  0.66140000  1.0 0.6013428747
C  C3  1  0.67020000  0.92560000  0.33430000  1.0 -0.0097263891
C  C4  1  0.32980000  0.07440000  0.66570000  1.0 -0.0097263891
C  C5  1  0.74960000  0.92960000  0.26720000  1.0 -0.1010800993
C  C6  1  0.25040000  0.07040000  0.73280000  1.0 -0.1010800993
C  C7  1  0.80620000  0.98920000  0.26490000  1.0 -0.1400145685
C  C8  1  0.19380000  0.01080000  0.73510000  1.0 -0.1400145685
C  C9  1  0.78340000  0.04810000  0.32760000  1.0 0.0604318695
C  C10  1  0.21660000  0.95190000  0.67240000  1.0 0.0604318695
C  C11  1  0.70120000  0.04430000  0.39690000  1.0 -0.0384070177
C  C12  1  0.29880000  0.95570000  0.60310000  1.0 -0.0384070177
C  C13  1  0.64740000  0.98330000  0.39930000  1.0 -0.1187772532
C  C14  1  0.35260000  0.01670000  0.60070000  1.0 -0.1187772532
C  C15  1  0.66530000  0.10420000  0.46960000  1.0 0.5882527509
C  C16  1  0.33470000  0.89580000  0.53040000  1.0 0.5882527509
C  C17  1  0.80590000  0.19600000  0.34040000  1.0 -0.1092912855
C  C18  1  0.19410000  0.80400000  0.65960000  1.0 -0.1092912855
C  C19  1  0.85040000  0.10780000  0.32120000  1.0 0.0789820251
C  C20  1  0.14960000  0.89220000  0.67880000  1.0 0.0789820251
C  C21  1  0.96370000  0.07520000  0.28970000  1.0 -0.1309326709
C  C22  1  0.03630000  0.92480000  0.71030000  1.0 -0.1309326709
C  C23  1  0.02870000  0.12910000  0.27550000  1.0 -0.1400145685
C  C24  1  0.97130000  0.87090000  0.72450000  1.0 -0.1400145685
C  C25  1  0.98400000  0.21850000  0.29200000  1.0 0.0604318695
C  C26  1  0.01600000  0.78150000  0.70800000  1.0 0.0604318695
C  C27  1  0.87280000  0.24860000  0.32620000  1.0 -0.1488002559
C  C28  1  0.12720000  0.75140000  0.67380000  1.0 -0.1488002559
C  C29  1  0.02650000  0.34990000  0.31120000  1.0 -0.0606167486
C  C30  1  0.97350000  0.65010000  0.68880000  1.0 -0.0606167486
C  C31  1  0.09180000  0.40350000  0.29160000  1.0 -0.0384070177
C  C32  1  0.90820000  0.59650000  0.70840000  1.0 -0.0384070177
C  C33  1  0.23060000  0.29800000  0.20970000  1.0 -0.0686316772
C  C34  1  0.76940000  0.70200000  0.79030000  1.0 -0.0686316772
C  C35  1  0.16720000  0.24140000  0.22600000  1.0 -0.0935139975
C  C36  1  0.83280000  0.75860000  0.77400000  1.0 -0.0935139975
C  C37  1  0.05460000  0.27580000  0.27390000  1.0 0.0472956223
C  C38  1  0.94540000  0.72420000  0.72610000  1.0 0.0472956223
C  C39  1  0.18740000  0.38560000  0.23660000  1.0 0.0409411389
C  C40  1  0.81260000  0.61440000  0.76340000  1.0 0.0409411389
C  C41  1  0.25370000  0.44720000  0.21800000  1.0 0.0409411389
C  C42  1  0.74630000  0.55280000  0.78200000  1.0 0.0409411389
C  C43  1  0.23840000  0.51180000  0.27480000  1.0 -0.1794581136
C  C44  1  0.76160000  0.48820000  0.72520000  1.0 -0.1794581136
C  C45  1  0.29660000  0.57000000  0.26090000  1.0 -0.0935139975
C  C46  1  0.70340000  0.43000000  0.73910000  1.0 -0.0935139975
C  C47  1  0.37230000  0.56750000  0.18840000  1.0 0.0006561184
C  C48  1  0.62770000  0.43250000  0.81160000  1.0 0.0006561184
C  C49  1  0.39070000  0.50320000  0.13210000  1.0 -0.1092912855
C  C50  1  0.60930000  0.49680000  0.86790000  1.0 -0.1092912855
C  C51  1  0.33340000  0.44330000  0.14560000  1.0 -0.0384070177
C  C52  1  0.66666667  0.55670000  0.85440000  1.0 -0.0384070177
C  C53  1  0.43400000  0.63260000  0.16950000  1.0 0.6013428747
C  C54  1  0.56600000  0.36740000  0.83050000  1.0 0.6013428747
C  C55  1  0.36510000  0.37650000  0.07830000  1.0 0.5519191006
C  C56  1  0.63490000  0.62350000  0.92170000  1.0 0.5519191006
C  C57  1  0.27670000  0.18190000  0.98650000  1.0 0.5740951279
C  C58  1  0.72330000  0.81810000  0.01350000  1.0 0.5740951279
C  C59  1  0.24140000  0.10710000  0.02840000  1.0 -0.0097263891
C  C60  1  0.75860000  0.89290000  0.97160000  1.0 -0.0097263891
C  C61  1  0.13070000  0.11270000  0.03770000  1.0 -0.1187772532
C  C62  1  0.86930000  0.88730000  0.96230000  1.0 -0.1187772532
C  C63  1  0.09710000  0.04350000  0.07620000  1.0 -0.1488002559
C  C64  1  0.90290000  0.95650000  0.92380000  1.0 -0.1488002559
C  C65  1  0.17420000  0.96580000  0.10410000  1.0 0.0472956223
C  C66  1  0.82580000  0.03420000  0.89590000  1.0 0.0472956223
C  C67  1  0.28850000  0.95960000  0.09330000  1.0 -0.0384070177
C  C68  1  0.71150000  0.04040000  0.90670000  1.0 -0.0384070177
C  C69  1  0.31900000  0.03070000  0.05640000  1.0 -0.1187772532
C  C70  1  0.68100000  0.96930000  0.94360000  1.0 -0.1187772532
C  C71  1  0.38030000  0.87560000  0.11390000  1.0 0.6013428747
C  C72  1  0.61970000  0.12440000  0.88610000  1.0 0.6013428747
C  C73  1  0.13210000  0.89570000  0.14540000  1.0 0.0713281313
C  C74  1  0.86790000  0.10430000  0.85460000  1.0 0.0713281313
C  C75  1  0.16240000  0.85390000  0.22020000  1.0 -0.1187772532
C  C76  1  0.83760000  0.14610000  0.77980000  1.0 -0.1187772532
C  C77  1  0.11480000  0.79410000  0.26170000  1.0 -0.1187772532
C  C78  1  0.88520000  0.20590000  0.73830000  1.0 -0.1187772532
C  C79  1  0.03470000  0.77300000  0.22890000  1.0 0.0713281313
C  C80  1  0.96530000  0.22700000  0.77110000  1.0 0.0713281313
C  C81  1  0.00670000  0.81210000  0.15170000  1.0 -0.1309326709
C  C82  1  0.99330000  0.18790000  0.84830000  1.0 -0.1309326709
C  C83  1  0.05370000  0.87270000  0.11210000  1.0 -0.1400145685
C  C84  1  0.94630000  0.12730000  0.88790000  1.0 -0.1400145685
C  C85  1  0.97930000  0.71220000  0.27320000  1.0 0.0789820251
C  C86  1  0.02070000  0.28780000  0.72680000  1.0 0.0789820251
C  C87  1  0.95000000  0.71150000  0.35940000  1.0 -0.1187772532
C  C88  1  0.05000000  0.28850000  0.64060000  1.0 -0.1187772532
C  C89  1  0.89560000  0.65550000  0.40120000  1.0 -0.1488002559
C  C90  1  0.10440000  0.34450000  0.59880000  1.0 -0.1488002559
C  C91  1  0.86880000  0.59830000  0.35810000  1.0 0.0604318695
C  C92  1  0.13120000  0.40170000  0.64190000  1.0 0.0604318695
C  C93  1  0.89680000  0.59760000  0.27150000  1.0 -0.1309326709
C  C94  1  0.10320000  0.40240000  0.72850000  1.0 -0.1309326709
C  C95  1  0.95080000  0.65450000  0.23060000  1.0 -0.1092912855
C  C96  1  0.04920000  0.34550000  0.76940000  1.0 -0.1092912855
C  C97  1  0.81290000  0.53650000  0.40320000  1.0 0.0409411389
C  C98  1  0.18710000  0.46350000  0.59680000  1.0 0.0409411389
C  C99  1  0.86040000  0.48010000  0.46640000  1.0 -0.1794581136
C  C100  1  0.13960000  0.51990000  0.53360000  1.0 -0.1794581136
C  C101  1  0.81410000  0.42000000  0.50800000  1.0 -0.1187772532
C  C102  1  0.18590000  0.58000000  0.49200000  1.0 -0.1187772532
C  C103  1  0.71590000  0.41520000  0.48850000  1.0 -0.0097263891
C  C104  1  0.28410000  0.58480000  0.51150000  1.0 -0.0097263891
C  C105  1  0.66480000  0.47320000  0.42660000  1.0 -0.1092912855
C  C106  1  0.33520000  0.52680000  0.57340000  1.0 -0.1092912855
C  C107  1  0.71270000  0.53250000  0.38380000  1.0 -0.0491810676
C  C108  1  0.28730000  0.46750000  0.61620000  1.0 -0.0491810676
C  C109  1  0.65590000  0.59210000  0.31600000  1.0 0.6077108362
C  C110  1  0.34410000  0.40790000  0.68400000  1.0 0.6077108362
C  C111  1  0.66860000  0.34730000  0.53190000  1.0 0.5882527509
C  C112  1  0.33140000  0.65270000  0.46810000  1.0 0.5882527509
C  C113  1  0.08730000  0.30920000  0.33560000  1.0 -0.0491810676
C  C114  1  0.91270000  0.69080000  0.66440000  1.0 -0.0491810676
C  C115  1  0.15470000  0.36130000  0.31670000  1.0 -0.0686316772
C  C116  1  0.84530000  0.63870000  0.68330000  1.0 -0.0686316772
C  C117  1  0.13880000  0.36380000  0.17500000  1.0 -0.0785024597
C  C118  1  0.86120000  0.63620000  0.82500000  1.0 -0.0785024597
C  C119  1  0.07730000  0.30840000  0.19340000  1.0 -0.0785024597
C  C120  1  0.92270000  0.69160000  0.80660000  1.0 -0.0785024597
O  O1  1  0.58210000  0.82970000  0.41030000  1.0 -0.5587739766
O  O2  1  0.41790000  0.17030000  0.58970000  1.0 -0.5587739766
O  O3  1  0.59130000  0.84216000  0.27052000  1.0 -0.5334870538
O  O4  1  0.40870000  0.15784000  0.72948000  1.0 -0.5334870538
O  O5  1  0.70660000  0.07160000  0.53620000  1.0 -0.5587739766
O  O6  1  0.29340000  0.92840000  0.46380000  1.0 -0.5587739766
O  O7  1  0.59230000  0.17750000  0.46301000  1.0 -0.5419727188
O  O8  1  0.40770000  0.82250000  0.53699000  1.0 -0.5419727188
O  O9  1  0.42240000  0.68497000  0.22639000  1.0 -0.5538131019
O  O10  1  0.57760000  0.31503000  0.77361000  1.0 -0.5538131019
O  O11  1  0.48990000  0.63080000  0.09735000  1.0 -0.5234929195
O  O12  1  0.51010000  0.36920000  0.90265000  1.0 -0.5234929195
O  O13  1  0.45360000  0.31135000  0.07724000  1.0 -0.4847272655
O  O14  1  0.54640000  0.68865000  0.92276000  1.0 -0.4847272655
O  O15  1  0.30680000  0.39190000  0.01977000  1.0 -0.5234929195
O  O16  1  0.69320000  0.60810000  0.98023000  1.0 -0.5234929195
O  O17  1  0.36190000  0.19153000  0.00760000  1.0 -0.5334870538
O  O18  1  0.63810000  0.80847000  0.99240000  1.0 -0.5334870538
O  O19  1  0.22250000  0.22710000  0.93200000  1.0 -0.5419727188
O  O20  1  0.77750000  0.77290000  0.06800000  1.0 -0.5419727188
O  O21  1  0.41500000  0.87165000  0.18195000  1.0 -0.5419727188
O  O22  1  0.58500000  0.12835000  0.81805000  1.0 -0.5419727188
O  O23  1  0.41570000  0.81917000  0.06015000  1.0 -0.4912245294
O  O24  1  0.58430000  0.18083000  0.93985000  1.0 -0.4912245294
O  O25  1  0.58960000  0.66979000  0.33379000  1.0 -0.5743305704
O  O26  1  0.41040000  0.33021000  0.66621000  1.0 -0.5743305704
O  O27  1  0.67840000  0.56323000  0.24337000  1.0 -0.5115207454
O  O28  1  0.32160000  0.43677000  0.75663000  1.0 -0.5115207454
O  O29  1  0.72690000  0.29160000  0.57965000  1.0 -0.5334870538
O  O30  1  0.27310000  0.70840000  0.42035000  1.0 -0.5334870538
O  O31  1  0.57420000  0.35012000  0.51682000  1.0 -0.5587739766
O  O32  1  0.42580000  0.64988000  0.48318000  1.0 -0.5587739766
O  O33  1  0.61580000  0.67500000  0.52350000  1.0 -0.6731303951
O  O34  1  0.38420000  0.32500000  0.47650000  1.0 -0.6731303951
O  O35  1  0.39070000  0.80092000  0.35697000  1.0 -0.7669729015
O  O36  1  0.60930000  0.19908000  0.64303000  1.0 -0.7669729015
O  O37  1  0.36840000  0.29084000  0.84911000  1.0 -0.7518677435
O  O38  1  0.63160000  0.70916000  0.15089000  1.0 -0.7518677435
