# DDEC6 charges by PACMAN v1.1 (https://github.com/mtap-research/PACMAN-charge/)
data_ONUJUE_ASR_pacman
_symmetry_space_group_name_H-M   'P 1'
_cell_length_a   14.74100000
_cell_length_b   14.74100000
_cell_length_c   17.13500000
_cell_angle_alpha   90.00000000
_cell_angle_beta   90.00000000
_cell_angle_gamma   120.00000000
_symmetry_Int_Tables_number   1
_chemical_formula_structural   Fe3H72C60O13
_chemical_formula_sum   'Fe6 H144 C120 O26'
_cell_volume   3224.54641630
_cell_formula_units_Z   2
loop_
 _symmetry_equiv_pos_site_id
 _symmetry_equiv_pos_as_xyz
  1  'x, y, z'
loop_
 _atom_site_type_symbol
 _atom_site_label
 _atom_site_symmetry_multiplicity
 _atom_site_fract_x
 _atom_site_fract_y
 _atom_site_fract_z
 _atom_site_occupancy
 _atom_site_charge
Fe  Fe1  1  0.51660000  0.25830000  0.25000000  1.0 1.1174567331
Fe  Fe2  1  0.74170000  0.25830000  0.25000000  1.0 1.1174567331
Fe  Fe3  1  0.74170000  0.48340000  0.25000000  1.0 1.1174567331
Fe  Fe4  1  0.48340000  0.74170000  0.75000000  1.0 1.1174567331
Fe  Fe5  1  0.25830000  0.74170000  0.75000000  1.0 1.1174567331
Fe  Fe6  1  0.25830000  0.51660000  0.75000000  1.0 1.1174567331
H  H1  1  0.37150000  0.86650000  0.16050000  1.0 0.1304651653
H  H2  1  0.13350000  0.50500000  0.16050000  1.0 0.1304651653
H  H3  1  0.49500000  0.62850000  0.16050000  1.0 0.1304651653
H  H4  1  0.62850000  0.13350000  0.66050000  1.0 0.1304651653
H  H5  1  0.86650000  0.49500000  0.66050000  1.0 0.1304651653
H  H6  1  0.50500000  0.37150000  0.66050000  1.0 0.1304651653
H  H7  1  0.86650000  0.37150000  0.83950000  1.0 0.1304651653
H  H8  1  0.50500000  0.13350000  0.83950000  1.0 0.1304651653
H  H9  1  0.62850000  0.49500000  0.83950000  1.0 0.1304651653
H  H10  1  0.13350000  0.62850000  0.33950000  1.0 0.1304651653
H  H11  1  0.49500000  0.86650000  0.33950000  1.0 0.1304651653
H  H12  1  0.37150000  0.50500000  0.33950000  1.0 0.1304651653
H  H13  1  0.62850000  0.13350000  0.83950000  1.0 0.1304651653
H  H14  1  0.86650000  0.49500000  0.83950000  1.0 0.1304651653
H  H15  1  0.50500000  0.37150000  0.83950000  1.0 0.1304651653
H  H16  1  0.37150000  0.86650000  0.33950000  1.0 0.1304651653
H  H17  1  0.13350000  0.50500000  0.33950000  1.0 0.1304651653
H  H18  1  0.49500000  0.62850000  0.33950000  1.0 0.1304651653
H  H19  1  0.13350000  0.62850000  0.16050000  1.0 0.1304651653
H  H20  1  0.49500000  0.86650000  0.16050000  1.0 0.1304651653
H  H21  1  0.37150000  0.50500000  0.16050000  1.0 0.1304651653
H  H22  1  0.86650000  0.37150000  0.66050000  1.0 0.1304651653
H  H23  1  0.50500000  0.13350000  0.66050000  1.0 0.1304651653
H  H24  1  0.62850000  0.49500000  0.66050000  1.0 0.1304651653
H  H25  1  0.30380000  0.91560000  0.13350000  1.0 0.1396347299
H  H26  1  0.08440000  0.38820000  0.13350000  1.0 0.1396347299
H  H27  1  0.61180000  0.69620000  0.13350000  1.0 0.1396347299
H  H28  1  0.69620000  0.08440000  0.63350000  1.0 0.1396347299
H  H29  1  0.91560000  0.61180000  0.63350000  1.0 0.1396347299
H  H30  1  0.38820000  0.30380000  0.63350000  1.0 0.1396347299
H  H31  1  0.91560000  0.30380000  0.86650000  1.0 0.1396347299
H  H32  1  0.38820000  0.08440000  0.86650000  1.0 0.1396347299
H  H33  1  0.69620000  0.61180000  0.86650000  1.0 0.1396347299
H  H34  1  0.08440000  0.69620000  0.36650000  1.0 0.1396347299
H  H35  1  0.61180000  0.91560000  0.36650000  1.0 0.1396347299
H  H36  1  0.30380000  0.38820000  0.36650000  1.0 0.1396347299
H  H37  1  0.69620000  0.08440000  0.86650000  1.0 0.1396347299
H  H38  1  0.91560000  0.61180000  0.86650000  1.0 0.1396347299
H  H39  1  0.38820000  0.30380000  0.86650000  1.0 0.1396347299
H  H40  1  0.30380000  0.91560000  0.36650000  1.0 0.1396347299
H  H41  1  0.08440000  0.38820000  0.36650000  1.0 0.1396347299
H  H42  1  0.61180000  0.69620000  0.36650000  1.0 0.1396347299
H  H43  1  0.08440000  0.69620000  0.13350000  1.0 0.1396347299
H  H44  1  0.61180000  0.91560000  0.13350000  1.0 0.1396347299
H  H45  1  0.30380000  0.38820000  0.13350000  1.0 0.1396347299
H  H46  1  0.91560000  0.30380000  0.63350000  1.0 0.1396347299
H  H47  1  0.38820000  0.08440000  0.63350000  1.0 0.1396347299
H  H48  1  0.69620000  0.61180000  0.63350000  1.0 0.1396347299
H  H49  1  0.40620000  0.98270000  0.18210000  1.0 0.1304651653
H  H50  1  0.01730000  0.42350000  0.18210000  1.0 0.1304651653
H  H51  1  0.57650000  0.59380000  0.18210000  1.0 0.1304651653
H  H52  1  0.59380000  0.01730000  0.68210000  1.0 0.1304651653
H  H53  1  0.98270000  0.57650000  0.68210000  1.0 0.1304651653
H  H54  1  0.42350000  0.40620000  0.68210000  1.0 0.1304651653
H  H55  1  0.98270000  0.40620000  0.81790000  1.0 0.1304651653
H  H56  1  0.42350000  0.01730000  0.81790000  1.0 0.1304651653
H  H57  1  0.59380000  0.57650000  0.81790000  1.0 0.1304651653
H  H58  1  0.01730000  0.59380000  0.31790000  1.0 0.1304651653
H  H59  1  0.57650000  0.98270000  0.31790000  1.0 0.1304651653
H  H60  1  0.40620000  0.42350000  0.31790000  1.0 0.1304651653
H  H61  1  0.59380000  0.01730000  0.81790000  1.0 0.1304651653
H  H62  1  0.98270000  0.57650000  0.81790000  1.0 0.1304651653
H  H63  1  0.42350000  0.40620000  0.81790000  1.0 0.1304651653
H  H64  1  0.40620000  0.98270000  0.31790000  1.0 0.1304651653
H  H65  1  0.01730000  0.42350000  0.31790000  1.0 0.1304651653
H  H66  1  0.57650000  0.59380000  0.31790000  1.0 0.1304651653
H  H67  1  0.01730000  0.59380000  0.18210000  1.0 0.1304651653
H  H68  1  0.57650000  0.98270000  0.18210000  1.0 0.1304651653
H  H69  1  0.40620000  0.42350000  0.18210000  1.0 0.1304651653
H  H70  1  0.98270000  0.40620000  0.68210000  1.0 0.1304651653
H  H71  1  0.42350000  0.01730000  0.68210000  1.0 0.1304651653
H  H72  1  0.59380000  0.57650000  0.68210000  1.0 0.1304651653
H  H73  1  0.70300000  0.23700000  0.04790000  1.0 0.0735508994
H  H74  1  0.76300000  0.46600000  0.04790000  1.0 0.0735508994
H  H75  1  0.53400000  0.29700000  0.04790000  1.0 0.0735508994
H  H76  1  0.29700000  0.76300000  0.54790000  1.0 0.0735508994
H  H77  1  0.23700000  0.53400000  0.54790000  1.0 0.0735508994
H  H78  1  0.46600000  0.70300000  0.54790000  1.0 0.0735508994
H  H79  1  0.23700000  0.70300000  0.95210000  1.0 0.0735508994
H  H80  1  0.46600000  0.76300000  0.95210000  1.0 0.0735508994
H  H81  1  0.29700000  0.53400000  0.95210000  1.0 0.0735508994
H  H82  1  0.76300000  0.29700000  0.45210000  1.0 0.0735508994
H  H83  1  0.53400000  0.23700000  0.45210000  1.0 0.0735508994
H  H84  1  0.70300000  0.46600000  0.45210000  1.0 0.0735508994
H  H85  1  0.29700000  0.76300000  0.95210000  1.0 0.0735508994
H  H86  1  0.23700000  0.53400000  0.95210000  1.0 0.0735508994
H  H87  1  0.46600000  0.70300000  0.95210000  1.0 0.0735508994
H  H88  1  0.70300000  0.23700000  0.45210000  1.0 0.0735508994
H  H89  1  0.76300000  0.46600000  0.45210000  1.0 0.0735508994
H  H90  1  0.53400000  0.29700000  0.45210000  1.0 0.0735508994
H  H91  1  0.76300000  0.29700000  0.04790000  1.0 0.0735508994
H  H92  1  0.53400000  0.23700000  0.04790000  1.0 0.0735508994
H  H93  1  0.70300000  0.46600000  0.04790000  1.0 0.0735508994
H  H94  1  0.23700000  0.70300000  0.54790000  1.0 0.0735508994
H  H95  1  0.46600000  0.76300000  0.54790000  1.0 0.0735508994
H  H96  1  0.29700000  0.53400000  0.54790000  1.0 0.0735508994
H  H97  1  0.75200000  0.18970000  0.99110000  1.0 0.0735508994
H  H98  1  0.81030000  0.56230000  0.99110000  1.0 0.0735508994
H  H99  1  0.43770000  0.24800000  0.99110000  1.0 0.0735508994
H  H100  1  0.24800000  0.81030000  0.49110000  1.0 0.0735508994
H  H101  1  0.18970000  0.43770000  0.49110000  1.0 0.0735508994
H  H102  1  0.56230000  0.75200000  0.49110000  1.0 0.0735508994
H  H103  1  0.18970000  0.75200000  0.00890000  1.0 0.0735508994
H  H104  1  0.56230000  0.81030000  0.00890000  1.0 0.0735508994
H  H105  1  0.24800000  0.43770000  0.00890000  1.0 0.0735508994
H  H106  1  0.81030000  0.24800000  0.50890000  1.0 0.0735508994
H  H107  1  0.43770000  0.18970000  0.50890000  1.0 0.0735508994
H  H108  1  0.75200000  0.56230000  0.50890000  1.0 0.0735508994
H  H109  1  0.24800000  0.81030000  0.00890000  1.0 0.0735508994
H  H110  1  0.18970000  0.43770000  0.00890000  1.0 0.0735508994
H  H111  1  0.56230000  0.75200000  0.00890000  1.0 0.0735508994
H  H112  1  0.75200000  0.18970000  0.50890000  1.0 0.0735508994
H  H113  1  0.81030000  0.56230000  0.50890000  1.0 0.0735508994
H  H114  1  0.43770000  0.24800000  0.50890000  1.0 0.0735508994
H  H115  1  0.81030000  0.24800000  0.99110000  1.0 0.0735508994
H  H116  1  0.43770000  0.18970000  0.99110000  1.0 0.0735508994
H  H117  1  0.75200000  0.56230000  0.99110000  1.0 0.0735508994
H  H118  1  0.18970000  0.75200000  0.49110000  1.0 0.0735508994
H  H119  1  0.56230000  0.81030000  0.49110000  1.0 0.0735508994
H  H120  1  0.24800000  0.43770000  0.49110000  1.0 0.0735508994
H  H121  1  0.69450000  0.24630000  0.95740000  1.0 0.0735508994
H  H122  1  0.75370000  0.44820000  0.95740000  1.0 0.0735508994
H  H123  1  0.55180000  0.30550000  0.95740000  1.0 0.0735508994
H  H124  1  0.30550000  0.75370000  0.45740000  1.0 0.0735508994
H  H125  1  0.24630000  0.55180000  0.45740000  1.0 0.0735508994
H  H126  1  0.44820000  0.69450000  0.45740000  1.0 0.0735508994
H  H127  1  0.24630000  0.69450000  0.04260000  1.0 0.0735508994
H  H128  1  0.44820000  0.75370000  0.04260000  1.0 0.0735508994
H  H129  1  0.30550000  0.55180000  0.04260000  1.0 0.0735508994
H  H130  1  0.75370000  0.30550000  0.54260000  1.0 0.0735508994
H  H131  1  0.55180000  0.24630000  0.54260000  1.0 0.0735508994
H  H132  1  0.69450000  0.44820000  0.54260000  1.0 0.0735508994
H  H133  1  0.30550000  0.75370000  0.04260000  1.0 0.0735508994
H  H134  1  0.24630000  0.55180000  0.04260000  1.0 0.0735508994
H  H135  1  0.44820000  0.69450000  0.04260000  1.0 0.0735508994
H  H136  1  0.69450000  0.24630000  0.54260000  1.0 0.0735508994
H  H137  1  0.75370000  0.44820000  0.54260000  1.0 0.0735508994
H  H138  1  0.55180000  0.30550000  0.54260000  1.0 0.0735508994
H  H139  1  0.75370000  0.30550000  0.95740000  1.0 0.0735508994
H  H140  1  0.55180000  0.24630000  0.95740000  1.0 0.0735508994
H  H141  1  0.69450000  0.44820000  0.95740000  1.0 0.0735508994
H  H142  1  0.24630000  0.69450000  0.45740000  1.0 0.0735508994
H  H143  1  0.44820000  0.75370000  0.45740000  1.0 0.0735508994
H  H144  1  0.30550000  0.55180000  0.45740000  1.0 0.0735508994
C  C1  1  0.56545000  0.13090000  0.13920000  1.0 0.5590990721
C  C2  1  0.86910000  0.43455000  0.13920000  1.0 0.5590990721
C  C3  1  0.56545000  0.43455000  0.13920000  1.0 0.5590990721
C  C4  1  0.43455000  0.86910000  0.63920000  1.0 0.5590990721
C  C5  1  0.13090000  0.56545000  0.63920000  1.0 0.5590990721
C  C6  1  0.43455000  0.56545000  0.63920000  1.0 0.5590990721
C  C7  1  0.13090000  0.56545000  0.86080000  1.0 0.5590990721
C  C8  1  0.43455000  0.86910000  0.86080000  1.0 0.5590990721
C  C9  1  0.43455000  0.56545000  0.86080000  1.0 0.5590990721
C  C10  1  0.86910000  0.43455000  0.36080000  1.0 0.5590990721
C  C11  1  0.56545000  0.13090000  0.36080000  1.0 0.5590990721
C  C12  1  0.56545000  0.43455000  0.36080000  1.0 0.5590990721
C  C13  1  0.53150000  0.06300000  0.06570000  1.0 -0.044632806
C  C14  1  0.93700000  0.46850000  0.06570000  1.0 -0.0457304628
C  C15  1  0.53150000  0.46850000  0.06570000  1.0 -0.0457304628
C  C16  1  0.46850000  0.93700000  0.56570000  1.0 -0.0457304628
C  C17  1  0.06300000  0.53150000  0.56570000  1.0 -0.0457304628
C  C18  1  0.46850000  0.53150000  0.56570000  1.0 -0.0457304628
C  C19  1  0.06300000  0.53150000  0.93430000  1.0 -0.0457304628
C  C20  1  0.46850000  0.93700000  0.93430000  1.0 -0.0457304628
C  C21  1  0.46850000  0.53150000  0.93430000  1.0 -0.0457304628
C  C22  1  0.93700000  0.46850000  0.43430000  1.0 -0.0457304628
C  C23  1  0.53150000  0.06300000  0.43430000  1.0 -0.044632806
C  C24  1  0.53150000  0.46850000  0.43430000  1.0 -0.0457304628
C  C25  1  0.37400000  0.92900000  0.14300000  1.0 -0.4419565708
C  C26  1  0.07100000  0.44500000  0.14300000  1.0 -0.4419565708
C  C27  1  0.55500000  0.62600000  0.14300000  1.0 -0.4419565708
C  C28  1  0.62600000  0.07100000  0.64300000  1.0 -0.4419565708
C  C29  1  0.92900000  0.55500000  0.64300000  1.0 -0.4419565708
C  C30  1  0.44500000  0.37400000  0.64300000  1.0 -0.4419565708
C  C31  1  0.92900000  0.37400000  0.85700000  1.0 -0.4419565708
C  C32  1  0.44500000  0.07100000  0.85700000  1.0 -0.4419565708
C  C33  1  0.62600000  0.55500000  0.85700000  1.0 -0.4419565708
C  C34  1  0.07100000  0.62600000  0.35700000  1.0 -0.4419565708
C  C35  1  0.55500000  0.92900000  0.35700000  1.0 -0.4419565708
C  C36  1  0.37400000  0.44500000  0.35700000  1.0 -0.4419565708
C  C37  1  0.62600000  0.07100000  0.85700000  1.0 -0.4419565708
C  C38  1  0.92900000  0.55500000  0.85700000  1.0 -0.4419565708
C  C39  1  0.44500000  0.37400000  0.85700000  1.0 -0.4419565708
C  C40  1  0.37400000  0.92900000  0.35700000  1.0 -0.4419565708
C  C41  1  0.07100000  0.44500000  0.35700000  1.0 -0.4419565708
C  C42  1  0.55500000  0.62600000  0.35700000  1.0 -0.4419565708
C  C43  1  0.07100000  0.62600000  0.14300000  1.0 -0.4419565708
C  C44  1  0.55500000  0.92900000  0.14300000  1.0 -0.4419565708
C  C45  1  0.37400000  0.44500000  0.14300000  1.0 -0.4419565708
C  C46  1  0.92900000  0.37400000  0.64300000  1.0 -0.4419565708
C  C47  1  0.44500000  0.07100000  0.64300000  1.0 -0.4419565708
C  C48  1  0.62600000  0.55500000  0.64300000  1.0 -0.4419565708
C  C49  1  0.59050000  0.09700000  0.99830000  1.0 0.0159705792
C  C50  1  0.90300000  0.49350000  0.99830000  1.0 0.0159705792
C  C51  1  0.50650000  0.40950000  0.99830000  1.0 0.0159705792
C  C52  1  0.40950000  0.90300000  0.49830000  1.0 0.0159705792
C  C53  1  0.09700000  0.50650000  0.49830000  1.0 0.0159705792
C  C54  1  0.49350000  0.59050000  0.49830000  1.0 0.0159705792
C  C55  1  0.09700000  0.59050000  0.00170000  1.0 0.0159705792
C  C56  1  0.49350000  0.90300000  0.00170000  1.0 0.0159705792
C  C57  1  0.40950000  0.50650000  0.00170000  1.0 0.0159705792
C  C58  1  0.90300000  0.40950000  0.50170000  1.0 0.0159705792
C  C59  1  0.50650000  0.09700000  0.50170000  1.0 0.0159705792
C  C60  1  0.59050000  0.49350000  0.50170000  1.0 0.0159705792
C  C61  1  0.40950000  0.90300000  0.00170000  1.0 0.0159705792
C  C62  1  0.09700000  0.50650000  0.00170000  1.0 0.0159705792
C  C63  1  0.49350000  0.59050000  0.00170000  1.0 0.0159705792
C  C64  1  0.59050000  0.09700000  0.50170000  1.0 0.0159705792
C  C65  1  0.90300000  0.49350000  0.50170000  1.0 0.0159705792
C  C66  1  0.50650000  0.40950000  0.50170000  1.0 0.0159705792
C  C67  1  0.90300000  0.40950000  0.99830000  1.0 0.0159705792
C  C68  1  0.50650000  0.09700000  0.99830000  1.0 0.0159705792
C  C69  1  0.59050000  0.49350000  0.99830000  1.0 0.0159705792
C  C70  1  0.09700000  0.59050000  0.49830000  1.0 0.0159705792
C  C71  1  0.49350000  0.90300000  0.49830000  1.0 0.0159705792
C  C72  1  0.40950000  0.50650000  0.49830000  1.0 0.0159705792
C  C73  1  0.43800000  0.96700000  0.06680000  1.0 0.06114524
C  C74  1  0.03300000  0.47100000  0.06680000  1.0 0.06114524
C  C75  1  0.52900000  0.56200000  0.06680000  1.0 0.06114524
C  C76  1  0.56200000  0.03300000  0.56680000  1.0 0.06114524
C  C77  1  0.96700000  0.52900000  0.56680000  1.0 0.06114524
C  C78  1  0.47100000  0.43800000  0.56680000  1.0 0.06114524
C  C79  1  0.96700000  0.43800000  0.93320000  1.0 0.06114524
C  C80  1  0.47100000  0.03300000  0.93320000  1.0 0.06114524
C  C81  1  0.56200000  0.52900000  0.93320000  1.0 0.06114524
C  C82  1  0.03300000  0.56200000  0.43320000  1.0 0.06114524
C  C83  1  0.52900000  0.96700000  0.43320000  1.0 0.06114524
C  C84  1  0.43800000  0.47100000  0.43320000  1.0 0.06114524
C  C85  1  0.56200000  0.03300000  0.93320000  1.0 0.06114524
C  C86  1  0.96700000  0.52900000  0.93320000  1.0 0.06114524
C  C87  1  0.47100000  0.43800000  0.93320000  1.0 0.06114524
C  C88  1  0.43800000  0.96700000  0.43320000  1.0 0.06114524
C  C89  1  0.03300000  0.47100000  0.43320000  1.0 0.06114524
C  C90  1  0.52900000  0.56200000  0.43320000  1.0 0.06114524
C  C91  1  0.03300000  0.56200000  0.06680000  1.0 0.06114524
C  C92  1  0.52900000  0.96700000  0.06680000  1.0 0.06114524
C  C93  1  0.43800000  0.47100000  0.06680000  1.0 0.06114524
C  C94  1  0.96700000  0.43800000  0.56680000  1.0 0.06114524
C  C95  1  0.47100000  0.03300000  0.56680000  1.0 0.06114524
C  C96  1  0.56200000  0.52900000  0.56680000  1.0 0.06114524
C  C97  1  0.69500000  0.20300000  0.99900000  1.0 -0.1816241212
C  C98  1  0.79700000  0.49200000  0.99900000  1.0 -0.1816241212
C  C99  1  0.50800000  0.30500000  0.99900000  1.0 -0.1816241212
C  C100  1  0.30500000  0.79700000  0.49900000  1.0 -0.1816241212
C  C101  1  0.20300000  0.50800000  0.49900000  1.0 -0.1816241212
C  C102  1  0.49200000  0.69500000  0.49900000  1.0 -0.1816241212
C  C103  1  0.20300000  0.69500000  0.00100000  1.0 -0.1816241212
C  C104  1  0.49200000  0.79700000  0.00100000  1.0 -0.1816241212
C  C105  1  0.30500000  0.50800000  0.00100000  1.0 -0.1816241212
C  C106  1  0.79700000  0.30500000  0.50100000  1.0 -0.1816241212
C  C107  1  0.50800000  0.20300000  0.50100000  1.0 -0.1816241212
C  C108  1  0.69500000  0.49200000  0.50100000  1.0 -0.1816241212
C  C109  1  0.30500000  0.79700000  0.00100000  1.0 -0.1816241212
C  C110  1  0.20300000  0.50800000  0.00100000  1.0 -0.1816241212
C  C111  1  0.49200000  0.69500000  0.00100000  1.0 -0.1816241212
C  C112  1  0.69500000  0.20300000  0.50100000  1.0 -0.1816241212
C  C113  1  0.79700000  0.49200000  0.50100000  1.0 -0.1816241212
C  C114  1  0.50800000  0.30500000  0.50100000  1.0 -0.1816241212
C  C115  1  0.79700000  0.30500000  0.99900000  1.0 -0.1816241212
C  C116  1  0.50800000  0.20300000  0.99900000  1.0 -0.1816241212
C  C117  1  0.69500000  0.49200000  0.99900000  1.0 -0.1816241212
C  C118  1  0.20300000  0.69500000  0.49900000  1.0 -0.1816241212
C  C119  1  0.49200000  0.79700000  0.49900000  1.0 -0.1816241212
C  C120  1  0.30500000  0.50800000  0.49900000  1.0 -0.1816241212
O  O1  1  0.50340000  0.15720000  0.16620000  1.0 -0.5373458973
O  O2  1  0.84280000  0.34620000  0.16620000  1.0 -0.5373458973
O  O3  1  0.65380000  0.49660000  0.16620000  1.0 -0.5373458973
O  O4  1  0.49660000  0.84280000  0.66620000  1.0 -0.5373458973
O  O5  1  0.15720000  0.65380000  0.66620000  1.0 -0.5373458973
O  O6  1  0.34620000  0.50340000  0.66620000  1.0 -0.5373458973
O  O7  1  0.15720000  0.50340000  0.83380000  1.0 -0.5373458973
O  O8  1  0.34620000  0.84280000  0.83380000  1.0 -0.5373458973
O  O9  1  0.49660000  0.65380000  0.83380000  1.0 -0.5373458973
O  O10  1  0.84280000  0.49660000  0.33380000  1.0 -0.5373458973
O  O11  1  0.65380000  0.15720000  0.33380000  1.0 -0.5373458973
O  O12  1  0.50340000  0.34620000  0.33380000  1.0 -0.5373458973
O  O13  1  0.49660000  0.84280000  0.83380000  1.0 -0.5373458973
O  O14  1  0.15720000  0.65380000  0.83380000  1.0 -0.5373458973
O  O15  1  0.34620000  0.50340000  0.83380000  1.0 -0.5373458973
O  O16  1  0.50340000  0.15720000  0.33380000  1.0 -0.5373458973
O  O17  1  0.84280000  0.34620000  0.33380000  1.0 -0.5373458973
O  O18  1  0.65380000  0.49660000  0.33380000  1.0 -0.5373458973
O  O19  1  0.84280000  0.49660000  0.16620000  1.0 -0.5373458973
O  O20  1  0.65380000  0.15720000  0.16620000  1.0 -0.5373458973
O  O21  1  0.50340000  0.34620000  0.16620000  1.0 -0.5373458973
O  O22  1  0.15720000  0.50340000  0.66620000  1.0 -0.5373458973
O  O23  1  0.34620000  0.84280000  0.66620000  1.0 -0.5373458973
O  O24  1  0.49660000  0.65380000  0.66620000  1.0 -0.5373458973
O  O25  1  0.66666667  0.33333333  0.25000000  1.0 -0.8825633735
O  O26  1  0.33333333  0.66666667  0.75000000  1.0 -0.8825633735
