# DDEC6 charges by PACMAN v1.1 (https://github.com/mtap-research/PACMAN-charge/)
data_OPAGIX_FSR_pacman
_symmetry_space_group_name_H-M   'P 1'
_cell_length_a   15.10980000
_cell_length_b   15.10980000
_cell_length_c   15.10980000
_cell_angle_alpha   117.71900000
_cell_angle_beta   117.71900000
_cell_angle_gamma   117.71900000
_symmetry_Int_Tables_number   1
_chemical_formula_structural   MgH15C10NO4
_chemical_formula_sum   'Mg6 H90 C60 N6 O24'
_cell_volume   1334.62697771
_cell_formula_units_Z   6
loop_
 _symmetry_equiv_pos_site_id
 _symmetry_equiv_pos_as_xyz
  1  'x, y, z'
loop_
 _atom_site_type_symbol
 _atom_site_label
 _atom_site_symmetry_multiplicity
 _atom_site_fract_x
 _atom_site_fract_y
 _atom_site_fract_z
 _atom_site_occupancy
 _atom_site_charge
Mg  Mg1  1  0.70841000  0.39184000  0.97268000  1.0 1.3219299549
Mg  Mg2  1  0.39184000  0.97268000  0.70841000  1.0 1.3219299549
Mg  Mg3  1  0.97268000  0.70841000  0.39184000  1.0 1.3219299549
Mg  Mg4  1  0.29159000  0.60816000  0.02732000  1.0 1.3219299549
Mg  Mg5  1  0.60816000  0.02732000  0.29159000  1.0 1.3219299549
Mg  Mg6  1  0.02732000  0.29159000  0.60816000  1.0 1.3219299549
H  H1  1  0.15620000  0.17190000  0.70140000  1.0 0.1400053287
H  H2  1  0.17190000  0.70140000  0.15620000  1.0 0.1400053287
H  H3  1  0.70140000  0.15620000  0.17190000  1.0 0.1400053287
H  H4  1  0.84380000  0.82810000  0.29860000  1.0 0.1400053287
H  H5  1  0.82810000  0.29860000  0.84380000  1.0 0.1400053287
H  H6  1  0.29860000  0.84380000  0.82810000  1.0 0.1400053287
H  H7  1  0.30410000  0.12100000  0.57440000  1.0 0.080373707
H  H8  1  0.12100000  0.57440000  0.30410000  1.0 0.080373707
H  H9  1  0.57440000  0.30410000  0.12100000  1.0 0.080373707
H  H10  1  0.69590000  0.87900000  0.42560000  1.0 0.080373707
H  H11  1  0.87900000  0.42560000  0.69590000  1.0 0.080373707
H  H12  1  0.42560000  0.69590000  0.87900000  1.0 0.080373707
H  H13  1  0.06700000  0.95620000  0.20530000  1.0 0.080373707
H  H14  1  0.95620000  0.20530000  0.06700000  1.0 0.080373707
H  H15  1  0.20530000  0.06700000  0.95620000  1.0 0.080373707
H  H16  1  0.93300000  0.04380000  0.79470000  1.0 0.080373707
H  H17  1  0.04380000  0.79470000  0.93300000  1.0 0.080373707
H  H18  1  0.79470000  0.93300000  0.04380000  1.0 0.080373707
H  H19  1  0.05170000  0.82500000  0.15380000  1.0 0.0974866844
H  H20  1  0.82500000  0.15380000  0.05170000  1.0 0.0974866844
H  H21  1  0.15380000  0.05170000  0.82500000  1.0 0.0974866844
H  H22  1  0.94830000  0.17500000  0.84620000  1.0 0.0974866844
H  H23  1  0.17500000  0.84620000  0.94830000  1.0 0.0974866844
H  H24  1  0.84620000  0.94830000  0.17500000  1.0 0.0974866844
H  H25  1  0.02680000  0.87920000  0.24840000  1.0 0.080373707
H  H26  1  0.87920000  0.24840000  0.02680000  1.0 0.080373707
H  H27  1  0.24840000  0.02680000  0.87920000  1.0 0.080373707
H  H28  1  0.97320000  0.12080000  0.75160000  1.0 0.080373707
H  H29  1  0.12080000  0.75160000  0.97320000  1.0 0.080373707
H  H30  1  0.75160000  0.97320000  0.12080000  1.0 0.080373707
H  H31  1  0.39920000  0.10280000  0.37570000  1.0 0.080373707
H  H32  1  0.10280000  0.37570000  0.39920000  1.0 0.080373707
H  H33  1  0.37570000  0.39920000  0.10280000  1.0 0.080373707
H  H34  1  0.60080000  0.89720000  0.62430000  1.0 0.080373707
H  H35  1  0.89720000  0.62430000  0.60080000  1.0 0.080373707
H  H36  1  0.62430000  0.60080000  0.89720000  1.0 0.080373707
H  H37  1  0.46940000  0.27800000  0.48280000  1.0 0.0501775899
H  H38  1  0.27800000  0.48280000  0.46940000  1.0 0.0501775899
H  H39  1  0.48280000  0.46940000  0.27800000  1.0 0.0501775899
H  H40  1  0.53060000  0.72200000  0.51720000  1.0 0.0501775899
H  H41  1  0.72200000  0.51720000  0.53060000  1.0 0.0501775899
H  H42  1  0.51720000  0.53060000  0.72200000  1.0 0.0501775899
H  H43  1  0.58870000  0.30620000  0.61490000  1.0 0.0596125954
H  H44  1  0.30620000  0.61490000  0.58870000  1.0 0.0596125954
H  H45  1  0.61490000  0.58870000  0.30620000  1.0 0.0596125954
H  H46  1  0.41130000  0.69380000  0.38510000  1.0 0.0596125954
H  H47  1  0.69380000  0.38510000  0.41130000  1.0 0.0596125954
H  H48  1  0.38510000  0.41130000  0.69380000  1.0 0.0596125954
H  H49  1  0.57610000  0.27600000  0.63790000  1.0 0.080373707
H  H50  1  0.27600000  0.63790000  0.57610000  1.0 0.080373707
H  H51  1  0.63790000  0.57610000  0.27600000  1.0 0.080373707
H  H52  1  0.42390000  0.72400000  0.36210000  1.0 0.080373707
H  H53  1  0.72400000  0.36210000  0.42390000  1.0 0.080373707
H  H54  1  0.36210000  0.42390000  0.72400000  1.0 0.080373707
H  H55  1  0.22850000  0.09890000  0.53050000  1.0 0.0684017762
H  H56  1  0.09890000  0.53050000  0.22850000  1.0 0.0684017762
H  H57  1  0.53050000  0.22850000  0.09890000  1.0 0.0684017762
H  H58  1  0.77150000  0.90110000  0.46950000  1.0 0.0684017762
H  H59  1  0.90110000  0.46950000  0.77150000  1.0 0.0684017762
H  H60  1  0.46950000  0.77150000  0.90110000  1.0 0.0684017762
H  H61  1  0.13390000  0.07980000  0.39760000  1.0 0.0684017762
H  H62  1  0.07980000  0.39760000  0.13390000  1.0 0.0684017762
H  H63  1  0.39760000  0.13390000  0.07980000  1.0 0.0684017762
H  H64  1  0.86610000  0.92020000  0.60240000  1.0 0.0684017762
H  H65  1  0.92020000  0.60240000  0.86610000  1.0 0.0684017762
H  H66  1  0.60240000  0.86610000  0.92020000  1.0 0.0684017762
H  H67  1  0.03680000  0.89000000  0.29120000  1.0 0.0974866844
H  H68  1  0.89000000  0.29120000  0.03680000  1.0 0.0974866844
H  H69  1  0.29120000  0.03680000  0.89000000  1.0 0.0974866844
H  H70  1  0.96320000  0.11000000  0.70880000  1.0 0.0974866844
H  H71  1  0.11000000  0.70880000  0.96320000  1.0 0.0974866844
H  H72  1  0.70880000  0.96320000  0.11000000  1.0 0.0974866844
H  H73  1  0.29260000  0.01390000  0.28500000  1.0 0.080373707
H  H74  1  0.01390000  0.28500000  0.29260000  1.0 0.080373707
H  H75  1  0.28500000  0.29260000  0.01390000  1.0 0.080373707
H  H76  1  0.70740000  0.98610000  0.71500000  1.0 0.080373707
H  H77  1  0.98610000  0.71500000  0.70740000  1.0 0.080373707
H  H78  1  0.71500000  0.70740000  0.98610000  1.0 0.080373707
H  H79  1  0.09250000  0.83740000  0.16960000  1.0 0.0974866844
H  H80  1  0.83740000  0.16960000  0.09250000  1.0 0.0974866844
H  H81  1  0.16960000  0.09250000  0.83740000  1.0 0.0974866844
H  H82  1  0.90750000  0.16260000  0.83040000  1.0 0.0974866844
H  H83  1  0.16260000  0.83040000  0.90750000  1.0 0.0974866844
H  H84  1  0.83040000  0.90750000  0.16260000  1.0 0.0974866844
H  H85  1  0.14410000  0.97930000  0.20200000  1.0 0.0684017762
H  H86  1  0.97930000  0.20200000  0.14410000  1.0 0.0684017762
H  H87  1  0.20200000  0.14410000  0.97930000  1.0 0.0684017762
H  H88  1  0.85590000  0.02070000  0.79800000  1.0 0.0684017762
H  H89  1  0.02070000  0.79800000  0.85590000  1.0 0.0684017762
H  H90  1  0.79800000  0.85590000  0.02070000  1.0 0.0684017762
C  C1  1  0.33100000  0.15271000  0.76629000  1.0 0.4926127726
C  C2  1  0.15271000  0.76629000  0.33100000  1.0 0.4926127726
C  C3  1  0.76629000  0.33100000  0.15271000  1.0 0.4926127726
C  C4  1  0.66900000  0.84729000  0.23371000  1.0 0.4926127726
C  C5  1  0.84729000  0.23371000  0.66900000  1.0 0.4926127726
C  C6  1  0.23371000  0.66900000  0.84729000  1.0 0.4926127726
C  C7  1  0.42588000  0.33731000  0.89061000  1.0 -0.177589731
C  C8  1  0.33731000  0.89061000  0.42588000  1.0 -0.177589731
C  C9  1  0.89061000  0.42588000  0.33731000  1.0 -0.177589731
C  C10  1  0.57412000  0.66269000  0.10939000  1.0 -0.177589731
C  C11  1  0.66269000  0.10939000  0.57412000  1.0 -0.177589731
C  C12  1  0.10939000  0.57412000  0.66269000  1.0 -0.177589731
C  C13  1  0.29727000  0.30714000  0.82469000  1.0 -0.2910488016
C  C14  1  0.30714000  0.82469000  0.29727000  1.0 -0.2910488016
C  C15  1  0.82469000  0.29727000  0.30714000  1.0 -0.2910488016
C  C16  1  0.70273000  0.69286000  0.17531000  1.0 -0.2910488016
C  C17  1  0.69286000  0.17531000  0.70273000  1.0 -0.2910488016
C  C18  1  0.17531000  0.70273000  0.69286000  1.0 -0.2910488016
C  C19  1  0.36180000  0.46233000  0.92777000  1.0 0.1858986153
C  C20  1  0.46233000  0.92777000  0.36180000  1.0 0.1858986153
C  C21  1  0.92777000  0.36180000  0.46233000  1.0 0.1858986153
C  C22  1  0.63820000  0.53767000  0.07223000  1.0 0.1858986153
C  C23  1  0.53767000  0.07223000  0.63820000  1.0 0.1858986153
C  C24  1  0.07223000  0.63820000  0.53767000  1.0 0.1858986153
C  C25  1  0.39480000  0.18880000  0.60040000  1.0 0.1811472708
C  C26  1  0.18880000  0.60040000  0.39480000  1.0 0.1811472708
C  C27  1  0.60040000  0.39480000  0.18880000  1.0 0.1811472708
C  C28  1  0.60520000  0.81120000  0.39960000  1.0 0.1811472708
C  C29  1  0.81120000  0.39960000  0.60520000  1.0 0.1811472708
C  C30  1  0.39960000  0.60520000  0.81120000  1.0 0.1811472708
C  C31  1  0.09720000  0.92830000  0.24800000  1.0 -0.1726193121
C  C32  1  0.92830000  0.24800000  0.09720000  1.0 -0.1726193121
C  C33  1  0.24800000  0.09720000  0.92830000  1.0 -0.1726193121
C  C34  1  0.90280000  0.07170000  0.75200000  1.0 -0.1726193121
C  C35  1  0.07170000  0.75200000  0.90280000  1.0 -0.1726193121
C  C36  1  0.75200000  0.90280000  0.07170000  1.0 -0.1726193121
C  C37  1  0.45540000  0.20850000  0.48380000  1.0 -0.2202541447
C  C38  1  0.20850000  0.48380000  0.45540000  1.0 -0.2202541447
C  C39  1  0.48380000  0.45540000  0.20850000  1.0 -0.2202541447
C  C40  1  0.54460000  0.79150000  0.51620000  1.0 -0.2202541447
C  C41  1  0.79150000  0.51620000  0.54460000  1.0 -0.2202541447
C  C42  1  0.51620000  0.54460000  0.79150000  1.0 -0.2202541447
C  C43  1  0.49730000  0.24770000  0.62680000  1.0 0.1722240879
C  C44  1  0.24770000  0.62680000  0.49730000  1.0 0.1722240879
C  C45  1  0.62680000  0.49730000  0.24770000  1.0 0.1722240879
C  C46  1  0.50270000  0.75230000  0.37320000  1.0 0.1722240879
C  C47  1  0.75230000  0.37320000  0.50270000  1.0 0.1722240879
C  C48  1  0.37320000  0.50270000  0.75230000  1.0 0.1722240879
C  C49  1  0.16310000  0.03760000  0.41330000  1.0 -0.2289335048
C  C50  1  0.03760000  0.41330000  0.16310000  1.0 -0.2289335048
C  C51  1  0.41330000  0.16310000  0.03760000  1.0 -0.2289335048
C  C52  1  0.83690000  0.96240000  0.58670000  1.0 -0.2289335048
C  C53  1  0.96240000  0.58670000  0.83690000  1.0 -0.2289335048
C  C54  1  0.58670000  0.83690000  0.96240000  1.0 -0.2289335048
C  C55  1  0.20220000  0.97540000  0.26240000  1.0 -0.1580593652
C  C56  1  0.97540000  0.26240000  0.20220000  1.0 -0.1580593652
C  C57  1  0.26240000  0.20220000  0.97540000  1.0 -0.1580593652
C  C58  1  0.79780000  0.02460000  0.73760000  1.0 -0.1580593652
C  C59  1  0.02460000  0.73760000  0.79780000  1.0 -0.1580593652
C  C60  1  0.73760000  0.79780000  0.02460000  1.0 -0.1580593652
N  N1  1  0.31250000  0.11160000  0.44910000  1.0 0.0684017762
N  N2  1  0.11160000  0.44910000  0.31250000  1.0 0.0684017762
N  N3  1  0.44910000  0.31250000  0.11160000  1.0 0.0684017762
N  N4  1  0.68750000  0.88840000  0.55090000  1.0 0.0684017762
N  N5  1  0.88840000  0.55090000  0.68750000  1.0 0.0684017762
N  N6  1  0.55090000  0.68750000  0.88840000  1.0 0.0684017762
O  O1  1  0.44510000  0.17544000  0.82536000  1.0 -0.677736428
O  O2  1  0.17544000  0.82536000  0.44510000  1.0 -0.677736428
O  O3  1  0.82536000  0.44510000  0.17544000  1.0 -0.677736428
O  O4  1  0.55490000  0.82456000  0.17464000  1.0 -0.677736428
O  O5  1  0.82456000  0.17464000  0.55490000  1.0 -0.677736428
O  O6  1  0.17464000  0.55490000  0.82456000  1.0 -0.677736428
O  O7  1  0.22304000  0.41396000  0.85150000  1.0 -0.7454326318
O  O8  1  0.41396000  0.85150000  0.22304000  1.0 -0.7454326318
O  O9  1  0.85150000  0.22304000  0.41396000  1.0 -0.7454326318
O  O10  1  0.77696000  0.58604000  0.14850000  1.0 -0.7454326318
O  O11  1  0.58604000  0.14850000  0.77696000  1.0 -0.7454326318
O  O12  1  0.14850000  0.77696000  0.58604000  1.0 -0.7454326318
O  O13  1  0.14284000  0.98242000  0.60934000  1.0 -0.6141670114
O  O14  1  0.98242000  0.60934000  0.14284000  1.0 -0.6141670114
O  O15  1  0.60934000  0.14284000  0.98242000  1.0 -0.6141670114
O  O16  1  0.85716000  0.01758000  0.39066000  1.0 -0.6141670114
O  O17  1  0.01758000  0.39066000  0.85716000  1.0 -0.6141670114
O  O18  1  0.39066000  0.85716000  0.01758000  1.0 -0.6141670114
O  O19  1  0.57592000  0.33914000  0.77504000  1.0 -0.3660766846
O  O20  1  0.33914000  0.77504000  0.57592000  1.0 -0.3660766846
O  O21  1  0.77504000  0.57592000  0.33914000  1.0 -0.3660766846
O  O22  1  0.42408000  0.66086000  0.22496000  1.0 -0.3660766846
O  O23  1  0.66086000  0.22496000  0.42408000  1.0 -0.3660766846
O  O24  1  0.22496000  0.42408000  0.66086000  1.0 -0.3660766846
