# DDEC6 charges by PACMAN v1.1 (https://github.com/mtap-research/PACMAN-charge/)
data_OPAPIF_ASR_pacman
_symmetry_space_group_name_H-M   'P 1'
_cell_length_a   9.48290000
_cell_length_b   11.50500000
_cell_length_c   14.58200000
_cell_angle_alpha   69.48000000
_cell_angle_beta   85.36000000
_cell_angle_gamma   86.32000000
_symmetry_Int_Tables_number   1
_chemical_formula_structural   EuH18C15S3(N2O)6
_chemical_formula_sum   'Eu2 H36 C30 S6 N24 O12'
_cell_volume   1483.98673783
_cell_formula_units_Z   2
loop_
 _symmetry_equiv_pos_site_id
 _symmetry_equiv_pos_as_xyz
  1  'x, y, z'
loop_
 _atom_site_type_symbol
 _atom_site_label
 _atom_site_symmetry_multiplicity
 _atom_site_fract_x
 _atom_site_fract_y
 _atom_site_fract_z
 _atom_site_occupancy
 _atom_site_charge
Eu  Eu1  1  0.20338000  0.04494000  0.99761000  1.0 2.0616460693
Eu  Eu2  1  0.79662000  0.95506000  0.00239000  1.0 2.0616460693
H  H1  1  0.13500000  0.63150000  0.16010000  1.0 0.1706363958
H  H2  1  0.86500000  0.36850000  0.83990000  1.0 0.1706363958
H  H3  1  0.03000000  0.62830000  0.24940000  1.0 0.160662537
H  H4  1  0.97000000  0.37170000  0.75060000  1.0 0.160662537
H  H5  1  0.66800000  0.61400000  0.11000000  1.0 0.2796124135
H  H6  1  0.33200000  0.38600000  0.89000000  1.0 0.2796124135
H  H7  1  0.73600000  0.51800000  0.19800000  1.0 0.2721863043
H  H8  1  0.26400000  0.48200000  0.80200000  1.0 0.2721863043
H  H9  1  0.12190000  0.05660000  0.44390000  1.0 0.1030916822
H  H10  1  0.87810000  0.94340000  0.55610000  1.0 0.1030916822
H  H11  1  0.12670000  0.93430000  0.53600000  1.0 0.1209700209
H  H12  1  0.87330000  0.06570000  0.46400000  1.0 0.1209700209
H  H13  1  0.72510000  0.65410000  0.60550000  1.0 0.2796124135
H  H14  1  0.27490000  0.34590000  0.39450000  1.0 0.2796124135
H  H15  1  0.73960000  0.71760000  0.67730000  1.0 0.2328787585
H  H16  1  0.26040000  0.28240000  0.32270000  1.0 0.2328787585
H  H17  1  0.14810000  0.89790000  0.71780000  1.0 0.160662537
H  H18  1  0.85190000  0.10210000  0.28220000  1.0 0.160662537
H  H19  1  0.18430000  0.77280000  0.80270000  1.0 0.1490762682
H  H20  1  0.81570000  0.22720000  0.19730000  1.0 0.1490762682
H  H21  1  0.87930000  0.46850000  0.56500000  1.0 0.1113945179
H  H22  1  0.12070000  0.53150000  0.43500000  1.0 0.1113945179
H  H23  1  0.89000000  0.59110000  0.47340000  1.0 0.130707438
H  H24  1  0.11000000  0.40890000  0.52660000  1.0 0.130707438
H  H25  1  0.33040000  0.95190000  0.39410000  1.0 0.2796124135
H  H26  1  0.66960000  0.04810000  0.60590000  1.0 0.2796124135
H  H27  1  0.37250000  0.87980000  0.32840000  1.0 0.2796124135
H  H28  1  0.62750000  0.12020000  0.67160000  1.0 0.2796124135
H  H29  1  0.51730000  0.16340000  0.19350000  1.0 0.160662537
H  H30  1  0.48270000  0.83660000  0.80650000  1.0 0.160662537
H  H31  1  0.36650000  0.16860000  0.24380000  1.0 0.130707438
H  H32  1  0.63350000  0.83140000  0.75620000  1.0 0.130707438
H  H33  1  0.96960000  0.51920000  0.09120000  1.0 0.1113945179
H  H34  1  0.03040000  0.48080000  0.90880000  1.0 0.1113945179
H  H35  1  0.92050000  0.61270000  0.99050000  1.0 0.130707438
H  H36  1  0.07950000  0.38730000  0.00950000  1.0 0.130707438
C  C1  1  0.07640000  0.90140000  0.85440000  1.0 0.6995261562
C  C2  1  0.92360000  0.09860000  0.14560000  1.0 0.6995261562
C  C3  1  0.11360000  0.80530000  0.31880000  1.0 0.1430235308
C  C4  1  0.88640000  0.19470000  0.68120000  1.0 0.1430235308
C  C5  1  0.99620000  0.78140000  0.12810000  1.0 0.6995261562
C  C6  1  0.00380000  0.21860000  0.87190000  1.0 0.6995261562
C  C7  1  0.08950000  0.68190000  0.19610000  1.0 -0.3620686281
C  C8  1  0.91050000  0.31810000  0.80390000  1.0 -0.3620686281
C  C9  1  0.07160000  0.98210000  0.48100000  1.0 -0.2698836573
C  C10  1  0.92840000  0.01790000  0.51900000  1.0 -0.2698836573
C  C11  1  0.01600000  0.69640000  0.68410000  1.0 0.130707438
C  C12  1  0.98400000  0.30360000  0.31590000  1.0 0.130707438
C  C13  1  0.11240000  0.83830000  0.77940000  1.0 -0.3620686281
C  C14  1  0.88760000  0.16170000  0.22060000  1.0 -0.3620686281
C  C15  1  0.05710000  0.90710000  0.41710000  1.0 0.2328787585
C  C16  1  0.94290000  0.09290000  0.58290000  1.0 0.2328787585
C  C17  1  0.00330000  0.59400000  0.58480000  1.0 0.249437387
C  C18  1  0.99670000  0.40600000  0.41520000  1.0 0.249437387
C  C19  1  0.94380000  0.53060000  0.52380000  1.0 -0.2698836573
C  C20  1  0.05620000  0.46940000  0.47620000  1.0 -0.2698836573
C  C21  1  0.42240000  0.19980000  0.18200000  1.0 -0.3703945923
C  C22  1  0.57760000  0.80020000  0.81800000  1.0 -0.3703945923
C  C23  1  0.36050000  0.15230000  0.10910000  1.0 0.6439166319
C  C24  1  0.63950000  0.84770000  0.89090000  1.0 0.6439166319
C  C25  1  0.59900000  0.38450000  0.08860000  1.0 0.1490762682
C  C26  1  0.40100000  0.61550000  0.91140000  1.0 0.1430235308
C  C27  1  0.81030000  0.45420000  0.03940000  1.0 0.2208050069
C  C28  1  0.18970000  0.54580000  0.96060000  1.0 0.2208050069
C  C29  1  0.94030000  0.52570000  0.02730000  1.0 -0.2517608353
C  C30  1  0.05970000  0.47430000  0.97270000  1.0 -0.2517608353
S  S1  1  0.95187000  0.77444000  0.76241000  1.0 0.0378251848
S  S2  1  0.04813000  0.22556000  0.23759000  1.0 0.030790684
S  S3  1  0.43233000  0.36577000  0.14980000  1.0 0.030790684
S  S4  1  0.56767000  0.63423000  0.85020000  1.0 0.030790684
S  S5  1  0.22345000  0.73932000  0.24717000  1.0 0.0659651262
S  S6  1  0.77655000  0.26068000  0.75283000  1.0 0.0659651262
N  N1  1  0.69100000  0.46800000  0.09430000  1.0 0.030790684
N  N2  1  0.30900000  0.53200000  0.90570000  1.0 0.030790684
N  N3  1  0.79310000  0.37000000  0.00120000  1.0 -0.2597574304
N  N4  1  0.20690000  0.63000000  0.99880000  1.0 -0.2597574304
N  N5  1  0.92450000  0.65360000  0.63720000  1.0 0.0483090457
N  N6  1  0.07550000  0.34640000  0.36280000  1.0 0.0483090457
N  N7  1  0.97750000  0.79680000  0.33840000  1.0 -0.2517608353
N  N8  1  0.02250000  0.20320000  0.66160000  1.0 -0.2517608353
N  N9  1  0.65700000  0.32590000  0.03250000  1.0 -0.2517608353
N  N10  1  0.34300000  0.67410000  0.96750000  1.0 -0.2517608353
N  N11  1  0.16840000  0.87300000  0.36650000  1.0 0.0581922819
N  N12  1  0.83160000  0.12700000  0.63350000  1.0 0.0581922819
N  N13  1  0.66300000  0.54650000  0.15010000  1.0 -0.460616504
N  N14  1  0.33700000  0.45350000  0.84990000  1.0 -0.460616504
N  N15  1  0.77730000  0.67830000  0.64040000  1.0 -0.4693971771
N  N16  1  0.22270000  0.32170000  0.35960000  1.0 -0.4693971771
N  N17  1  0.94130000  0.86370000  0.40210000  1.0 -0.2597574304
N  N18  1  0.05870000  0.13630000  0.59790000  1.0 -0.2597574304
N  N19  1  0.13600000  0.59940000  0.59710000  1.0 -0.2698836573
N  N20  1  0.86400000  0.40060000  0.40290000  1.0 -0.2698836573
N  N21  1  0.14550000  0.66650000  0.66210000  1.0 -0.2895085859
N  N22  1  0.85450000  0.33350000  0.33790000  1.0 -0.2895085859
N  N23  1  0.30830000  0.90580000  0.36250000  1.0 -0.4513318885
N  N24  1  0.69170000  0.09420000  0.63750000  1.0 -0.4513318885
O  O1  1  0.17350000  0.95630000  0.87330000  1.0 -0.6479533511
O  O2  1  0.82650000  0.04370000  0.12670000  1.0 -0.6479533511
O  O3  1  0.04670000  0.88280000  0.07460000  1.0 -0.7220923054
O  O4  1  0.95330000  0.11720000  0.92540000  1.0 -0.7220923054
O  O5  1  0.87040000  0.75710000  0.12650000  1.0 -0.5930343318
O  O6  1  0.12960000  0.24290000  0.87350000  1.0 -0.5930343318
O  O7  1  0.94980000  0.89560000  0.88880000  1.0 -0.6479533511
O  O8  1  0.05020000  0.10440000  0.11120000  1.0 -0.6479533511
O  O9  1  0.31410000  0.22250000  0.03090000  1.0 -0.6099092114
O  O10  1  0.68590000  0.77750000  0.96910000  1.0 -0.6099092114
O  O11  1  0.35590000  0.03480000  0.13500000  1.0 -0.689283942
O  O12  1  0.64410000  0.96520000  0.86500000  1.0 -0.689283942
