# DDEC6 charges by PACMAN v1.1 (https://github.com/mtap-research/PACMAN-charge/)
data_OPEGOG_ASR_pacman
_symmetry_space_group_name_H-M   'P 1'
_cell_length_a   9.84590000
_cell_length_b   18.54410000
_cell_length_c   26.79740000
_cell_angle_alpha   90.00000000
_cell_angle_beta   90.00000000
_cell_angle_gamma   90.00000000
_symmetry_Int_Tables_number   1
_chemical_formula_structural   In6P14H20O43
_chemical_formula_sum   'In24 P56 H80 O172'
_cell_volume   4892.75917557
_cell_formula_units_Z   4
loop_
 _symmetry_equiv_pos_site_id
 _symmetry_equiv_pos_as_xyz
  1  'x, y, z'
loop_
 _atom_site_type_symbol
 _atom_site_label
 _atom_site_symmetry_multiplicity
 _atom_site_fract_x
 _atom_site_fract_y
 _atom_site_fract_z
 _atom_site_occupancy
 _atom_site_charge
In  In1  1  0.23682000  0.80539000  0.40038000  1.0 1.6009064327
In  In2  1  0.76318000  0.30539000  0.59962000  1.0 1.6009064327
In  In3  1  0.73682000  0.30539000  0.09962000  1.0 1.6009064327
In  In4  1  0.26318000  0.80539000  0.90038000  1.0 1.6009064327
In  In5  1  0.73078000  0.56957000  0.40107000  1.0 1.6212224077
In  In6  1  0.26922000  0.06957000  0.59893000  1.0 1.6212224077
In  In7  1  0.23078000  0.06957000  0.09893000  1.0 1.6212224077
In  In8  1  0.76922000  0.56957000  0.90107000  1.0 1.6212224077
In  In9  1  0.24873000  0.80811000  0.65009000  1.0 1.6539497982
In  In10  1  0.75127000  0.30811000  0.34991000  1.0 1.6539497982
In  In11  1  0.74873000  0.30811000  0.84991000  1.0 1.6552277218
In  In12  1  0.25127000  0.80811000  0.15009000  1.0 1.6539497982
In  In13  1  0.25515000  0.07099000  0.34876000  1.0 1.629689307
In  In14  1  0.74485000  0.57099000  0.65124000  1.0 1.629689307
In  In15  1  0.75515000  0.57099000  0.15124000  1.0 1.629689307
In  In16  1  0.24485000  0.07099000  0.84876000  1.0 1.629689307
In  In17  1  0.24232000  0.54460000  0.35529000  1.0 1.6109988103
In  In18  1  0.75768000  0.04460000  0.64471000  1.0 1.6109988103
In  In19  1  0.74232000  0.04460000  0.14471000  1.0 1.6109988103
In  In20  1  0.25768000  0.54460000  0.85529000  1.0 1.6109988103
In  In21  1  0.75311000  0.03502000  0.39443000  1.0 1.629689307
In  In22  1  0.24689000  0.53502000  0.60557000  1.0 1.629689307
In  In23  1  0.25311000  0.53502000  0.10557000  1.0 1.629689307
In  In24  1  0.74689000  0.03502000  0.89443000  1.0 1.629689307
P  P1  1  0.02944000  0.93787000  0.36312000  1.0 1.1482902776
P  P2  1  0.97056000  0.43787000  0.63688000  1.0 1.1482902776
P  P3  1  0.52944000  0.43787000  0.13688000  1.0 1.1482902776
P  P4  1  0.47056000  0.93787000  0.86312000  1.0 1.1482902776
P  P5  1  0.02140000  0.66696000  0.40311000  1.0 1.1645076881
P  P6  1  0.97860000  0.16696000  0.59689000  1.0 1.1645076881
P  P7  1  0.52140000  0.16696000  0.09689000  1.0 1.1663797508
P  P8  1  0.47860000  0.66696000  0.90311000  1.0 1.1663797508
P  P9  1  0.45910000  0.93986000  0.39188000  1.0 1.1048640619
P  P10  1  0.54090000  0.43986000  0.60812000  1.0 1.1048640619
P  P11  1  0.95910000  0.43986000  0.10812000  1.0 1.1057750593
P  P12  1  0.04090000  0.93986000  0.89188000  1.0 1.1057750593
P  P13  1  0.78200000  0.59599000  0.52317000  1.0 1.4606379281
P  P14  1  0.21800000  0.09599000  0.47683000  1.0 1.4606379281
P  P15  1  0.28200000  0.09599000  0.97683000  1.0 1.4606379281
P  P16  1  0.71800000  0.59599000  0.02317000  1.0 1.4606379281
P  P17  1  0.46329000  0.67702000  0.38394000  1.0 1.1799773286
P  P18  1  0.53671000  0.17702000  0.61606000  1.0 1.1799773286
P  P19  1  0.96329000  0.17702000  0.11606000  1.0 1.1799773286
P  P20  1  0.03671000  0.67702000  0.88394000  1.0 1.1799773286
P  P21  1  0.27380000  0.78372000  0.52407000  1.0 1.386082084
P  P22  1  0.72620000  0.28372000  0.47593000  1.0 1.386082084
P  P23  1  0.77380000  0.28372000  0.97593000  1.0 1.386082084
P  P24  1  0.22620000  0.78372000  0.02407000  1.0 1.386082084
P  P25  1  0.03250000  0.66544000  0.64311000  1.0 1.2049762617
P  P26  1  0.96750000  0.16544000  0.35689000  1.0 1.206117333
P  P27  1  0.53250000  0.16544000  0.85689000  1.0 1.206117333
P  P28  1  0.46750000  0.66544000  0.14311000  1.0 1.2049762617
P  P29  1  0.50587000  0.43069000  0.37085000  1.0 1.2572442899
P  P30  1  0.49413000  0.93069000  0.62915000  1.0 1.2572442899
P  P31  1  0.00587000  0.93069000  0.12915000  1.0 1.2572442899
P  P32  1  0.99413000  0.43069000  0.87085000  1.0 1.2572442899
P  P33  1  0.47230000  0.66932000  0.61959000  1.0 1.2912213898
P  P34  1  0.52770000  0.16932000  0.38041000  1.0 1.2952862392
P  P35  1  0.97230000  0.16932000  0.88041000  1.0 1.2912213898
P  P36  1  0.02770000  0.66932000  0.11959000  1.0 1.2912213898
P  P37  1  0.30000000  0.81801000  0.27516000  1.0 1.4271047126
P  P38  1  0.70000000  0.31801000  0.72484000  1.0 1.4271047126
P  P39  1  0.80000000  0.31801000  0.22484000  1.0 1.4271047126
P  P40  1  0.20000000  0.81801000  0.77516000  1.0 1.4271047126
P  P41  1  0.21910000  0.51228000  0.23161000  1.0 1.2912213898
P  P42  1  0.78090000  0.01228000  0.76839000  1.0 1.2912213898
P  P43  1  0.71910000  0.01228000  0.26839000  1.0 1.2912213898
P  P44  1  0.28090000  0.51228000  0.73161000  1.0 1.2912213898
P  P45  1  0.95280000  0.45988000  0.34749000  1.0 1.1482902776
P  P46  1  0.04720000  0.95988000  0.65251000  1.0 1.1482902776
P  P47  1  0.45280000  0.95988000  0.15251000  1.0 1.1482902776
P  P48  1  0.54720000  0.45988000  0.84749000  1.0 1.1482902776
P  P49  1  0.66610000  0.56601000  0.27258000  1.0 1.1799773286
P  P50  1  0.33390000  0.06601000  0.72742000  1.0 1.1799773286
P  P51  1  0.16610000  0.06601000  0.22742000  1.0 1.1799773286
P  P52  1  0.83390000  0.56601000  0.77258000  1.0 1.1799773286
P  P53  1  0.31820000  0.54195000  0.48378000  1.0 1.1663797508
P  P54  1  0.68180000  0.04195000  0.51622000  1.0 1.1663797508
P  P55  1  0.81820000  0.04195000  0.01622000  1.0 1.1663797508
P  P56  1  0.18180000  0.54195000  0.98378000  1.0 1.1663797508
H  H1  1  0.07300000  0.64800000  0.43700000  1.0 0.0014796592
H  H2  1  0.92700000  0.14800000  0.56300000  1.0 0.0014796592
H  H3  1  0.57300000  0.14800000  0.06300000  1.0 0.0014796592
H  H4  1  0.42700000  0.64800000  0.93700000  1.0 0.0014796592
H  H5  1  0.41200000  0.96000000  0.42200000  1.0 0.075330631
H  H6  1  0.58800000  0.46000000  0.57800000  1.0 0.075330631
H  H7  1  0.91200000  0.46000000  0.07800000  1.0 0.075330631
H  H8  1  0.08800000  0.96000000  0.92200000  1.0 0.0745553236
H  H9  1  0.50800000  0.72900000  0.35500000  1.0 -0.0800754434
H  H10  1  0.49200000  0.22900000  0.64500000  1.0 -0.0800754434
H  H11  1  0.00800000  0.22900000  0.14500000  1.0 -0.0800754434
H  H12  1  0.99200000  0.72900000  0.85500000  1.0 -0.0800754434
H  H13  1  0.08000000  0.64600000  0.68800000  1.0 -0.0697523579
H  H14  1  0.92000000  0.14600000  0.31200000  1.0 -0.0697523579
H  H15  1  0.58000000  0.14600000  0.81200000  1.0 -0.0697523579
H  H16  1  0.42000000  0.64600000  0.18800000  1.0 -0.0697523579
H  H17  1  0.44500000  0.39000000  0.40800000  1.0 -0.097156898
H  H18  1  0.55500000  0.89000000  0.59200000  1.0 -0.097156898
H  H19  1  0.94500000  0.89000000  0.09200000  1.0 -0.097156898
H  H20  1  0.05500000  0.39000000  0.90800000  1.0 -0.097156898
H  H21  1  0.52900000  0.71700000  0.58400000  1.0 -0.127681353
H  H22  1  0.47100000  0.21700000  0.41600000  1.0 -0.127681353
H  H23  1  0.02900000  0.21700000  0.91600000  1.0 -0.127681353
H  H24  1  0.97100000  0.71700000  0.08400000  1.0 -0.127681353
H  H25  1  0.92300000  0.49200000  0.31300000  1.0 -0.0206310739
H  H26  1  0.07700000  0.99200000  0.68700000  1.0 -0.0206310739
H  H27  1  0.42300000  0.99200000  0.18700000  1.0 -0.0206310739
H  H28  1  0.57700000  0.49200000  0.81300000  1.0 -0.0206310739
H  H29  1  0.62300000  0.49600000  0.27200000  1.0 -0.0697523579
H  H30  1  0.37700000  0.99600000  0.72800000  1.0 -0.0697523579
H  H31  1  0.12300000  0.99600000  0.22800000  1.0 -0.0697523579
H  H32  1  0.87700000  0.49600000  0.77200000  1.0 -0.0800754434
H  H33  1  0.37300000  0.60700000  0.49200000  1.0 -0.0800754434
H  H34  1  0.62700000  0.10700000  0.50800000  1.0 -0.0800754434
H  H35  1  0.87300000  0.10700000  0.00800000  1.0 -0.0800754434
H  H36  1  0.12700000  0.60700000  0.99200000  1.0 -0.0800754434
H  H37  1  0.34140000  0.91530000  0.29940000  1.0 0.3604966599
H  H38  1  0.65860000  0.41530000  0.70060000  1.0 0.3604966599
H  H39  1  0.84140000  0.41530000  0.20060000  1.0 0.3604966599
H  H40  1  0.15860000  0.91530000  0.79940000  1.0 0.3604966599
H  H41  1  0.47860000  0.60100000  0.28430000  1.0 0.3890421699
H  H42  1  0.52140000  0.10100000  0.71570000  1.0 0.3890421699
H  H43  1  0.97860000  0.10100000  0.21570000  1.0 0.3890421699
H  H44  1  0.02140000  0.60100000  0.78430000  1.0 0.3890421699
H  H45  1  0.50370000  0.50780000  0.46920000  1.0 0.3890421699
H  H46  1  0.49630000  0.00780000  0.53080000  1.0 0.3890421699
H  H47  1  0.00370000  0.00780000  0.03080000  1.0 0.3890421699
H  H48  1  0.99630000  0.50780000  0.96920000  1.0 0.3890421699
H  H49  1  0.29850000  0.43040000  0.26750000  1.0 0.3839139353
H  H50  1  0.70150000  0.93040000  0.73250000  1.0 0.3839139353
H  H51  1  0.79850000  0.93040000  0.23250000  1.0 0.3839139353
H  H52  1  0.20150000  0.43040000  0.76750000  1.0 0.3839139353
H  H53  1  0.96580000  0.62570000  0.54520000  1.0 0.3976687203
H  H54  1  0.03420000  0.12570000  0.45480000  1.0 0.3976687203
H  H55  1  0.46580000  0.12570000  0.95480000  1.0 0.3976687203
H  H56  1  0.53420000  0.62570000  0.04520000  1.0 0.3976687203
H  H57  1  0.20240000  0.68830000  0.54780000  1.0 0.3976687203
H  H58  1  0.79760000  0.18830000  0.45220000  1.0 0.3976687203
H  H59  1  0.70240000  0.18830000  0.95220000  1.0 0.3976687203
H  H60  1  0.29760000  0.68830000  0.04780000  1.0 0.3976687203
H  H61  1  0.46500000  0.84440000  0.30610000  1.0 0.3604966599
H  H62  1  0.53500000  0.34440000  0.69390000  1.0 0.3604966599
H  H63  1  0.96500000  0.34440000  0.19390000  1.0 0.3604966599
H  H64  1  0.03500000  0.84440000  0.80610000  1.0 0.3604966599
H  H65  1  0.01050000  0.90500000  0.32890000  1.0 0.0141750855
H  H66  1  0.98950000  0.40500000  0.67110000  1.0 0.0141750855
H  H67  1  0.51050000  0.40500000  0.17110000  1.0 0.0141750855
H  H68  1  0.48950000  0.90500000  0.82890000  1.0 0.0141750855
H  H69  1  0.66340000  0.66340000  0.51180000  1.0 -0.188860177
H  H70  1  0.33660000  0.16340000  0.48820000  1.0 -0.188860177
H  H71  1  0.16340000  0.16340000  0.98820000  1.0 -0.188860177
H  H72  1  0.83660000  0.66340000  0.01180000  1.0 -0.188860177
H  H73  1  0.42350000  0.76020000  0.51020000  1.0 -0.127681353
H  H74  1  0.57650000  0.26020000  0.48980000  1.0 -0.127681353
H  H75  1  0.92350000  0.26020000  0.98980000  1.0 -0.127681353
H  H76  1  0.07650000  0.76020000  0.01020000  1.0 -0.127681353
H  H77  1  0.10270000  0.46340000  0.22900000  1.0 -0.1189789296
H  H78  1  0.89730000  0.96340000  0.77100000  1.0 -0.1189789296
H  H79  1  0.60270000  0.96340000  0.27100000  1.0 -0.1189789296
H  H80  1  0.39730000  0.46340000  0.72900000  1.0 -0.1189789296
O  O1  1  0.26730000  0.82610000  0.57190000  1.0 -0.7409590313
O  O2  1  0.73270000  0.32610000  0.42810000  1.0 -0.7464889278
O  O3  1  0.76730000  0.32610000  0.92810000  1.0 -0.7409590313
O  O4  1  0.23270000  0.82610000  0.07190000  1.0 -0.7409590313
O  O5  1  0.31300000  0.90010000  0.27260000  1.0 -0.3813658719
O  O6  1  0.68700000  0.40010000  0.72740000  1.0 -0.3813658719
O  O7  1  0.81300000  0.40010000  0.22740000  1.0 -0.3813658719
O  O8  1  0.18700000  0.90010000  0.77260000  1.0 -0.3813658719
O  O9  1  0.35640000  0.71360000  0.41600000  1.0 -0.7302357494
O  O10  1  0.64360000  0.21360000  0.58400000  1.0 -0.7302357494
O  O11  1  0.85640000  0.21360000  0.08400000  1.0 -0.7302357494
O  O12  1  0.14360000  0.71360000  0.91600000  1.0 -0.7302357494
O  O13  1  0.89390000  0.94990000  0.38870000  1.0 -0.6526950141
O  O14  1  0.10610000  0.44990000  0.61130000  1.0 -0.6526950141
O  O15  1  0.39390000  0.44990000  0.11130000  1.0 -0.6526950141
O  O16  1  0.60610000  0.94990000  0.88870000  1.0 -0.6526950141
O  O17  1  0.08440000  0.00480000  0.33880000  1.0 -0.721499334
O  O18  1  0.91560000  0.50480000  0.66120000  1.0 -0.721499334
O  O19  1  0.58440000  0.50480000  0.16120000  1.0 -0.721499334
O  O20  1  0.41560000  0.00480000  0.83880000  1.0 -0.721499334
O  O21  1  0.88520000  0.49230000  0.39370000  1.0 -0.7002633005
O  O22  1  0.11480000  0.99230000  0.60630000  1.0 -0.7002633005
O  O23  1  0.38520000  0.99230000  0.10630000  1.0 -0.7002633005
O  O24  1  0.61480000  0.49230000  0.89370000  1.0 -0.7002633005
O  O25  1  0.71830000  0.58710000  0.32350000  1.0 -0.721499334
O  O26  1  0.28170000  0.08710000  0.67650000  1.0 -0.721499334
O  O27  1  0.21830000  0.08710000  0.17650000  1.0 -0.721499334
O  O28  1  0.78170000  0.58710000  0.82350000  1.0 -0.721499334
O  O29  1  0.08480000  0.62400000  0.36070000  1.0 -0.6815180068
O  O30  1  0.91520000  0.12400000  0.63930000  1.0 -0.6815180068
O  O31  1  0.58480000  0.12400000  0.13930000  1.0 -0.6815180068
O  O32  1  0.41520000  0.62400000  0.86070000  1.0 -0.6815180068
O  O33  1  0.76330000  0.58250000  0.23100000  1.0 -0.6615940869
O  O34  1  0.23670000  0.08250000  0.76900000  1.0 -0.6615940869
O  O35  1  0.26330000  0.08250000  0.26900000  1.0 -0.6615940869
O  O36  1  0.73670000  0.58250000  0.73100000  1.0 -0.6615940869
O  O37  1  0.57720000  0.48740000  0.40210000  1.0 -0.7409590313
O  O38  1  0.42280000  0.98740000  0.59790000  1.0 -0.7409590313
O  O39  1  0.07720000  0.98740000  0.09790000  1.0 -0.7409590313
O  O40  1  0.92280000  0.48740000  0.90210000  1.0 -0.7409590313
O  O41  1  0.38680000  0.97720000  0.34823000  1.0 -0.7302357494
O  O42  1  0.61320000  0.47720000  0.65177000  1.0 -0.7302357494
O  O43  1  0.88680000  0.47720000  0.15177000  1.0 -0.7302357494
O  O44  1  0.11320000  0.97720000  0.84823000  1.0 -0.7302357494
O  O45  1  0.86750000  0.65980000  0.40550000  1.0 -0.6815180068
O  O46  1  0.13250000  0.15980000  0.59450000  1.0 -0.6815180068
O  O47  1  0.36750000  0.15980000  0.09450000  1.0 -0.6815180068
O  O48  1  0.63250000  0.65980000  0.90550000  1.0 -0.6815180068
O  O49  1  0.40180000  0.62070000  0.34880000  1.0 -0.7302357494
O  O50  1  0.59820000  0.12070000  0.65120000  1.0 -0.7302357494
O  O51  1  0.90180000  0.12070000  0.15120000  1.0 -0.7302357494
O  O52  1  0.09820000  0.62070000  0.84880000  1.0 -0.7302357494
O  O53  1  0.87590000  0.66260000  0.64310000  1.0 -0.7101791623
O  O54  1  0.12410000  0.16260000  0.35690000  1.0 -0.7101791623
O  O55  1  0.37590000  0.16260000  0.85690000  1.0 -0.7101791623
O  O56  1  0.62410000  0.66260000  0.14310000  1.0 -0.7101791623
O  O57  1  0.25640000  0.53090000  0.43340000  1.0 -0.7101791623
O  O58  1  0.74360000  0.03090000  0.56660000  1.0 -0.7101791623
O  O59  1  0.75640000  0.03090000  0.06660000  1.0 -0.7101791623
O  O60  1  0.24360000  0.53090000  0.93340000  1.0 -0.7101791623
O  O61  1  0.09320000  0.61830000  0.60120000  1.0 -0.7409590313
O  O62  1  0.90680000  0.11830000  0.39880000  1.0 -0.7409590313
O  O63  1  0.59320000  0.11830000  0.89880000  1.0 -0.7409590313
O  O64  1  0.40680000  0.61830000  0.10120000  1.0 -0.7409590313
O  O65  1  0.22430000  0.82460000  0.47960000  1.0 -0.6815180068
O  O66  1  0.77570000  0.32460000  0.52040000  1.0 -0.6815180068
O  O67  1  0.72430000  0.32460000  0.02040000  1.0 -0.6815180068
O  O68  1  0.27570000  0.82460000  0.97960000  1.0 -0.6899713818
O  O69  1  0.21500000  0.56110000  0.27638000  1.0 -0.6899713818
O  O70  1  0.78500000  0.06110000  0.72362000  1.0 -0.6899713818
O  O71  1  0.71500000  0.06110000  0.22362000  1.0 -0.6899713818
O  O72  1  0.28500000  0.56110000  0.77638000  1.0 -0.6899713818
O  O73  1  0.24820000  0.78490000  0.22930000  1.0 -0.7101791623
O  O74  1  0.75180000  0.28490000  0.77070000  1.0 -0.7101791623
O  O75  1  0.74820000  0.28490000  0.27070000  1.0 -0.7101791623
O  O76  1  0.25180000  0.78490000  0.72930000  1.0 -0.7101791623
O  O77  1  0.23740000  0.78900000  0.32130000  1.0 -0.7666477849
O  O78  1  0.76260000  0.28900000  0.67870000  1.0 -0.7666477849
O  O79  1  0.73740000  0.28900000  0.17870000  1.0 -0.7666477849
O  O80  1  0.26260000  0.78900000  0.82130000  1.0 -0.7666477849
O  O81  1  0.39020000  0.46250000  0.33920000  1.0 -0.721499334
O  O82  1  0.60980000  0.96250000  0.66080000  1.0 -0.721499334
O  O83  1  0.89020000  0.96250000  0.16080000  1.0 -0.721499334
O  O84  1  0.10980000  0.46250000  0.83920000  1.0 -0.721499334
O  O85  1  0.22360000  0.52240000  0.52559000  1.0 -0.6615940869
O  O86  1  0.77640000  0.02240000  0.47441000  1.0 -0.6615940869
O  O87  1  0.72360000  0.02240000  0.97441000  1.0 -0.6615940869
O  O88  1  0.27640000  0.52240000  0.02559000  1.0 -0.6615940869
O  O89  1  0.59780000  0.38570000  0.33740000  1.0 -0.7409590313
O  O90  1  0.40220000  0.88570000  0.66260000  1.0 -0.7409590313
O  O91  1  0.09780000  0.88570000  0.16260000  1.0 -0.7409590313
O  O92  1  0.90220000  0.38570000  0.83740000  1.0 -0.7409590313
O  O93  1  0.74730000  0.55030000  0.47930000  1.0 -0.721499334
O  O94  1  0.25270000  0.05030000  0.52070000  1.0 -0.721499334
O  O95  1  0.24730000  0.05030000  0.02070000  1.0 -0.721499334
O  O96  1  0.75270000  0.55030000  0.97930000  1.0 -0.721499334
O  O97  1  0.05170000  0.74700000  0.39980000  1.0 -0.6615940869
O  O98  1  0.94830000  0.24700000  0.60020000  1.0 -0.6615940869
O  O99  1  0.55170000  0.24700000  0.10020000  1.0 -0.6615940869
O  O100  1  0.44830000  0.74700000  0.89980000  1.0 -0.6615940869
O  O101  1  0.57460000  0.63800000  0.65630000  1.0 -0.6815180068
O  O102  1  0.42540000  0.13800000  0.34370000  1.0 -0.6815180068
O  O103  1  0.07460000  0.13800000  0.84370000  1.0 -0.6815180068
O  O104  1  0.92540000  0.63800000  0.15630000  1.0 -0.6815180068
O  O105  1  0.07430000  0.74400000  0.63720000  1.0 -0.7101791623
O  O106  1  0.92570000  0.24400000  0.36280000  1.0 -0.7101791623
O  O107  1  0.57430000  0.24400000  0.86280000  1.0 -0.7101791623
O  O108  1  0.42570000  0.74400000  0.13720000  1.0 -0.7101791623
O  O109  1  0.57670000  0.64790000  0.41640000  1.0 -0.6899713818
O  O110  1  0.42330000  0.14790000  0.58360000  1.0 -0.6899713818
O  O111  1  0.07670000  0.14790000  0.08360000  1.0 -0.6899713818
O  O112  1  0.92330000  0.64790000  0.91640000  1.0 -0.6899713818
O  O113  1  0.42910000  0.85900000  0.39200000  1.0 -0.7302357494
O  O114  1  0.57090000  0.35900000  0.60800000  1.0 -0.7302357494
O  O115  1  0.92910000  0.35900000  0.10800000  1.0 -0.7302357494
O  O116  1  0.07090000  0.85900000  0.89200000  1.0 -0.7302357494
O  O117  1  0.73600000  0.56840000  0.57250000  1.0 -0.7666477849
O  O118  1  0.26400000  0.06840000  0.42750000  1.0 -0.7666477849
O  O119  1  0.23600000  0.06840000  0.92750000  1.0 -0.7666477849
O  O120  1  0.76400000  0.56840000  0.07250000  1.0 -0.7666477849
O  O121  1  0.12960000  0.90300000  0.39840000  1.0 -0.7002633005
O  O122  1  0.87040000  0.40300000  0.60160000  1.0 -0.7101791623
O  O123  1  0.62960000  0.40300000  0.10160000  1.0 -0.7002633005
O  O124  1  0.37040000  0.90300000  0.89840000  1.0 -0.7101791623
O  O125  1  0.90390000  0.38440000  0.33540000  1.0 -0.6815180068
O  O126  1  0.09610000  0.88440000  0.66460000  1.0 -0.6815180068
O  O127  1  0.40390000  0.88440000  0.16460000  1.0 -0.6815180068
O  O128  1  0.59610000  0.38440000  0.83540000  1.0 -0.6815180068
O  O129  1  0.23620000  0.55210000  0.18310000  1.0 -0.7302357494
O  O130  1  0.76380000  0.05210000  0.81690000  1.0 -0.7302357494
O  O131  1  0.73620000  0.05210000  0.31690000  1.0 -0.7302357494
O  O132  1  0.26380000  0.55210000  0.68310000  1.0 -0.7302357494
O  O133  1  0.10680000  0.45730000  0.35210000  1.0 -0.6899713818
O  O134  1  0.89320000  0.95730000  0.64790000  1.0 -0.6899713818
O  O135  1  0.60680000  0.95730000  0.14790000  1.0 -0.6899713818
O  O136  1  0.39320000  0.45730000  0.85210000  1.0 -0.6899713818
O  O137  1  0.38150000  0.72070000  0.64800000  1.0 -0.7302357494
O  O138  1  0.61850000  0.22070000  0.35200000  1.0 -0.7302357494
O  O139  1  0.88150000  0.22070000  0.85200000  1.0 -0.7302357494
O  O140  1  0.11850000  0.72070000  0.14800000  1.0 -0.7302357494
O  O141  1  0.61230000  0.94940000  0.39000000  1.0 -0.6815180068
O  O142  1  0.38770000  0.44940000  0.61000000  1.0 -0.6815180068
O  O143  1  0.11230000  0.44940000  0.11000000  1.0 -0.6815180068
O  O144  1  0.88770000  0.94940000  0.89000000  1.0 -0.6815180068
O  O145  1  0.39700000  0.61300000  0.58990000  1.0 -0.7599165429
O  O146  1  0.60300000  0.11300000  0.41010000  1.0 -0.7599165429
O  O147  1  0.89700000  0.11300000  0.91010000  1.0 -0.7599165429
O  O148  1  0.10300000  0.61300000  0.08990000  1.0 -0.7599165429
O  O149  1  0.53400000  0.60890000  0.26210000  1.0 -0.5156701197
O  O150  1  0.46600000  0.10890000  0.73790000  1.0 -0.5086770762
O  O151  1  0.03400000  0.10890000  0.23790000  1.0 -0.5156701197
O  O152  1  0.96600000  0.60890000  0.76210000  1.0 -0.5156701197
O  O153  1  0.44750000  0.49620000  0.49030000  1.0 -0.5086770762
O  O154  1  0.55250000  0.99620000  0.50970000  1.0 -0.5086770762
O  O155  1  0.94750000  0.99620000  0.00970000  1.0 -0.5086770762
O  O156  1  0.05250000  0.49620000  0.99030000  1.0 -0.5086770762
O  O157  1  0.32090000  0.45190000  0.24210000  1.0 -0.5316801806
O  O158  1  0.67910000  0.95190000  0.75790000  1.0 -0.5316801806
O  O159  1  0.82090000  0.95190000  0.25790000  1.0 -0.5316801806
O  O160  1  0.17910000  0.45190000  0.74210000  1.0 -0.5316801806
O  O161  1  0.93920000  0.60110000  0.52170000  1.0 -0.5444834222
O  O162  1  0.06080000  0.10110000  0.47830000  1.0 -0.5516346921
O  O163  1  0.43920000  0.10110000  0.97830000  1.0 -0.5444834222
O  O164  1  0.56080000  0.60110000  0.02170000  1.0 -0.5444834222
O  O165  1  0.17930000  0.71490000  0.52490000  1.0 -0.5516346921
O  O166  1  0.82070000  0.21490000  0.47510000  1.0 -0.5516346921
O  O167  1  0.67930000  0.21490000  0.97510000  1.0 -0.5516346921
O  O168  1  0.32070000  0.71490000  0.02490000  1.0 -0.5516346921
O  O169  1  0.44610000  0.82510000  0.27940000  1.0 -0.3422155668
O  O170  1  0.55390000  0.32510000  0.72060000  1.0 -0.3422155668
O  O171  1  0.94610000  0.32510000  0.22060000  1.0 -0.3422155668
O  O172  1  0.05390000  0.82510000  0.77940000  1.0 -0.3422155668
