# DDEC6 charges by PACMAN v1.1 (https://github.com/mtap-research/PACMAN-charge/)
data_OPOYUO_ASR_pacman
_symmetry_space_group_name_H-M   'P 1'
_cell_length_a   8.77130000
_cell_length_b   18.16470000
_cell_length_c   15.89940000
_cell_angle_alpha   90.00000000
_cell_angle_beta   90.00410000
_cell_angle_gamma   90.00000000
_symmetry_Int_Tables_number   1
_chemical_formula_structural   ZnH17C23(NO2)2
_chemical_formula_sum   'Zn4 H68 C92 N8 O16'
_cell_volume   2533.22012314
_cell_formula_units_Z   4
loop_
 _symmetry_equiv_pos_site_id
 _symmetry_equiv_pos_as_xyz
  1  'x, y, z'
loop_
 _atom_site_type_symbol
 _atom_site_label
 _atom_site_symmetry_multiplicity
 _atom_site_fract_x
 _atom_site_fract_y
 _atom_site_fract_z
 _atom_site_occupancy
 _atom_site_charge
Zn  Zn1  1  0.61324000  0.48077000  0.56708000  1.0 0.84482824
Zn  Zn2  1  0.38676000  0.98077000  0.93292000  1.0 0.84482824
Zn  Zn3  1  0.38676000  0.51923000  0.43292000  1.0 0.84482824
Zn  Zn4  1  0.61324000  0.01923000  0.06708000  1.0 0.84482824
H  H1  1  0.09830000  0.66620000  0.58050000  1.0 0.1212961824
H  H2  1  0.90170000  0.16620000  0.91950000  1.0 0.1212961824
H  H3  1  0.90170000  0.33380000  0.41950000  1.0 0.1212961824
H  H4  1  0.09830000  0.83380000  0.08050000  1.0 0.1212961824
H  H5  1  0.45490000  0.64450000  0.74030000  1.0 0.1212961824
H  H6  1  0.54510000  0.14450000  0.75970000  1.0 0.1212961824
H  H7  1  0.54510000  0.35550000  0.25970000  1.0 0.1212961824
H  H8  1  0.45490000  0.85550000  0.24030000  1.0 0.1212961824
H  H9  1  0.33400000  0.72170000  0.83660000  1.0 0.1307014511
H  H10  1  0.66600000  0.22170000  0.66340000  1.0 0.1307014511
H  H11  1  0.66600000  0.27830000  0.16340000  1.0 0.1307014511
H  H12  1  0.33400000  0.77830000  0.33660000  1.0 0.1307014511
H  H13  1  0.15160000  0.80840000  0.92740000  1.0 0.1212961824
H  H14  1  0.84840000  0.30840000  0.57260000  1.0 0.1212961824
H  H15  1  0.84840000  0.19160000  0.07260000  1.0 0.1212961824
H  H16  1  0.15160000  0.69160000  0.42740000  1.0 0.1212961824
H  H17  1  0.95420000  0.87930000  0.98250000  1.0 0.1212961824
H  H18  1  0.04580000  0.37930000  0.51750000  1.0 0.1212961824
H  H19  1  0.04580000  0.12070000  0.01750000  1.0 0.1212961824
H  H20  1  0.95420000  0.62070000  0.48250000  1.0 0.1212961824
H  H21  1  0.69380000  0.84060000  0.77610000  1.0 0.1307014511
H  H22  1  0.30620000  0.34060000  0.72390000  1.0 0.1307014511
H  H23  1  0.30620000  0.15940000  0.22390000  1.0 0.1307014511
H  H24  1  0.69380000  0.65940000  0.27610000  1.0 0.1307014511
H  H25  1  0.98690000  0.84620000  0.62230000  1.0 0.1212961824
H  H26  1  0.01310000  0.34620000  0.87770000  1.0 0.1212961824
H  H27  1  0.01310000  0.15380000  0.37770000  1.0 0.1212961824
H  H28  1  0.98690000  0.65380000  0.12230000  1.0 0.1212961824
H  H29  1  0.91820000  0.78410000  0.56190000  1.0 0.1416615667
H  H30  1  0.08180000  0.28410000  0.93810000  1.0 0.1416615667
H  H31  1  0.08180000  0.21590000  0.43810000  1.0 0.1416615667
H  H32  1  0.91820000  0.71590000  0.06190000  1.0 0.1416615667
H  H33  1  0.80630000  0.83480000  0.61630000  1.0 0.1307014511
H  H34  1  0.19370000  0.33480000  0.88370000  1.0 0.1307014511
H  H35  1  0.19370000  0.16520000  0.38370000  1.0 0.1307014511
H  H36  1  0.80630000  0.66520000  0.11630000  1.0 0.1307014511
H  H37  1  0.79340000  0.66160000  0.72630000  1.0 0.1307014511
H  H38  1  0.20660000  0.16160000  0.77370000  1.0 0.1307014511
H  H39  1  0.20660000  0.33840000  0.27370000  1.0 0.1307014511
H  H40  1  0.79340000  0.83840000  0.22630000  1.0 0.1307014511
H  H41  1  0.68650000  0.72080000  0.68060000  1.0 0.1416615667
H  H42  1  0.31350000  0.22080000  0.81940000  1.0 0.1416615667
H  H43  1  0.31350000  0.27920000  0.31940000  1.0 0.1416615667
H  H44  1  0.68650000  0.77920000  0.18060000  1.0 0.1416615667
H  H45  1  0.79810000  0.66990000  0.62610000  1.0 0.1416615667
H  H46  1  0.20190000  0.16990000  0.87390000  1.0 0.1416615667
H  H47  1  0.20190000  0.33010000  0.37390000  1.0 0.1416615667
H  H48  1  0.79810000  0.83010000  0.12610000  1.0 0.1416615667
H  H49  1  0.94610000  0.51390000  0.61470000  1.0 0.1212961824
H  H50  1  0.05390000  0.01390000  0.88530000  1.0 0.1212961824
H  H51  1  0.05390000  0.48610000  0.38530000  1.0 0.1212961824
H  H52  1  0.94610000  0.98610000  0.11470000  1.0 0.1212961824
H  H53  1  0.09200000  0.52630000  0.73610000  1.0 0.1416615667
H  H54  1  0.90800000  0.02630000  0.76390000  1.0 0.1416615667
H  H55  1  0.90800000  0.47370000  0.26390000  1.0 0.1416615667
H  H56  1  0.09200000  0.97370000  0.23610000  1.0 0.1416615667
H  H57  1  0.72630000  0.46030000  0.87040000  1.0 0.1416615667
H  H58  1  0.27370000  0.96030000  0.62960000  1.0 0.1416615667
H  H59  1  0.27370000  0.53970000  0.12960000  1.0 0.1416615667
H  H60  1  0.72630000  0.03970000  0.37040000  1.0 0.1416615667
H  H61  1  0.59270000  0.44860000  0.74640000  1.0 0.1212961824
H  H62  1  0.40730000  0.94860000  0.75360000  1.0 0.1212961824
H  H63  1  0.40730000  0.55140000  0.25360000  1.0 0.1212961824
H  H64  1  0.59270000  0.05140000  0.24640000  1.0 0.1212961824
H  H65  1  0.11490000  0.52080000  0.89240000  1.0 0.1212961824
H  H66  1  0.88510000  0.02080000  0.60760000  1.0 0.1212961824
H  H67  1  0.88510000  0.47920000  0.10760000  1.0 0.1212961824
H  H68  1  0.11490000  0.97920000  0.39240000  1.0 0.1212961824
C  C1  1  0.14500000  0.67640000  0.63320000  1.0 -0.1642002395
C  C2  1  0.85500000  0.17640000  0.86680000  1.0 -0.1642002395
C  C3  1  0.85500000  0.32360000  0.36680000  1.0 -0.1642002395
C  C4  1  0.14500000  0.82360000  0.13320000  1.0 -0.1642002395
C  C5  1  0.28830000  0.64820000  0.65110000  1.0 -0.038324732
C  C6  1  0.71170000  0.14820000  0.84890000  1.0 -0.038324732
C  C7  1  0.71170000  0.35180000  0.34890000  1.0 -0.038324732
C  C8  1  0.28830000  0.85180000  0.15110000  1.0 -0.038324732
C  C9  1  0.35740000  0.66440000  0.72760000  1.0 -0.1239385499
C  C10  1  0.64260000  0.16440000  0.77240000  1.0 -0.1239385499
C  C11  1  0.64260000  0.33560000  0.27240000  1.0 -0.1239385499
C  C12  1  0.35740000  0.83560000  0.22760000  1.0 -0.1239385499
C  C13  1  0.28490000  0.70930000  0.78520000  1.0 -0.1484016633
C  C14  1  0.71510000  0.20930000  0.71480000  1.0 -0.1484016633
C  C15  1  0.71510000  0.29070000  0.21480000  1.0 -0.1484016633
C  C16  1  0.28490000  0.79070000  0.28520000  1.0 -0.1484016633
C  C17  1  0.05930000  0.81480000  0.89700000  1.0 -0.1415008312
C  C18  1  0.94070000  0.31480000  0.60300000  1.0 -0.1415008312
C  C19  1  0.94070000  0.18520000  0.10300000  1.0 -0.1415008312
C  C20  1  0.05930000  0.68520000  0.39700000  1.0 -0.1415008312
C  C21  1  0.94150000  0.85610000  0.92930000  1.0 -0.1272128044
C  C22  1  0.05850000  0.35610000  0.57070000  1.0 -0.1272128044
C  C23  1  0.05850000  0.14390000  0.07070000  1.0 -0.1272128044
C  C24  1  0.94150000  0.64390000  0.42930000  1.0 -0.1272128044
C  C25  1  0.80460000  0.86500000  0.88660000  1.0 -0.038324732
C  C26  1  0.19540000  0.36500000  0.61340000  1.0 -0.038324732
C  C27  1  0.19540000  0.13500000  0.11340000  1.0 -0.038324732
C  C28  1  0.80460000  0.63500000  0.38660000  1.0 -0.038324732
C  C29  1  0.78590000  0.83380000  0.80650000  1.0 -0.1716365199
C  C30  1  0.21410000  0.33380000  0.69350000  1.0 -0.1716365199
C  C31  1  0.21410000  0.16620000  0.19350000  1.0 -0.1716365199
C  C32  1  0.78590000  0.66620000  0.30650000  1.0 -0.1716365199
C  C33  1  0.91230000  0.75440000  0.68750000  1.0 0.1839105854
C  C34  1  0.08770000  0.25440000  0.81250000  1.0 0.1839105854
C  C35  1  0.08770000  0.24560000  0.31250000  1.0 0.1839105854
C  C36  1  0.91230000  0.74560000  0.18750000  1.0 0.1839105854
C  C37  1  0.06950000  0.71970000  0.69200000  1.0 0.0257200812
C  C38  1  0.93050000  0.21970000  0.80800000  1.0 0.0257200812
C  C39  1  0.93050000  0.28030000  0.30800000  1.0 0.0257200812
C  C40  1  0.06950000  0.78030000  0.19200000  1.0 0.0257200812
C  C41  1  0.14140000  0.73600000  0.76810000  1.0 0.0193444048
C  C42  1  0.85860000  0.23600000  0.73190000  1.0 0.0193444048
C  C43  1  0.85860000  0.26400000  0.23190000  1.0 0.0193444048
C  C44  1  0.14140000  0.76400000  0.26810000  1.0 0.0193444048
C  C45  1  0.03850000  0.78260000  0.81760000  1.0 0.0193444048
C  C46  1  0.96150000  0.28260000  0.68240000  1.0 0.0193444048
C  C47  1  0.96150000  0.21740000  0.18240000  1.0 0.0193444048
C  C48  1  0.03850000  0.71740000  0.31760000  1.0 0.0193444048
C  C49  1  0.90340000  0.79310000  0.77280000  1.0 0.0193444048
C  C50  1  0.09660000  0.29310000  0.72720000  1.0 0.0193444048
C  C51  1  0.09660000  0.20690000  0.22720000  1.0 0.0193444048
C  C52  1  0.90340000  0.70690000  0.27280000  1.0 0.0193444048
C  C53  1  0.90530000  0.80980000  0.61560000  1.0 -0.4558690568
C  C54  1  0.09470000  0.30980000  0.88440000  1.0 -0.4558690568
C  C55  1  0.09470000  0.19020000  0.38440000  1.0 -0.4558690568
C  C56  1  0.90530000  0.69020000  0.11560000  1.0 -0.4558690568
C  C57  1  0.78620000  0.69650000  0.67940000  1.0 -0.4545398286
C  C58  1  0.21380000  0.19650000  0.82060000  1.0 -0.4545398286
C  C59  1  0.21380000  0.30350000  0.32060000  1.0 -0.4545398286
C  C60  1  0.78620000  0.80350000  0.17940000  1.0 -0.4545398286
C  C61  1  0.36690000  0.59950000  0.58940000  1.0 0.5816025579
C  C62  1  0.63310000  0.09950000  0.91060000  1.0 0.5816025579
C  C63  1  0.63310000  0.40050000  0.41060000  1.0 0.5816025579
C  C64  1  0.36690000  0.90050000  0.08940000  1.0 0.5816025579
C  C65  1  0.68160000  0.90970000  0.92620000  1.0 0.5816025579
C  C66  1  0.31840000  0.40970000  0.57380000  1.0 0.5816025579
C  C67  1  0.31840000  0.09030000  0.07380000  1.0 0.5816025579
C  C68  1  0.68160000  0.59030000  0.42620000  1.0 0.5816025579
C  C69  1  0.90090000  0.50280000  0.66750000  1.0 0.0976242734
C  C70  1  0.09910000  0.00280000  0.83250000  1.0 0.0976242734
C  C71  1  0.09910000  0.49720000  0.33250000  1.0 0.0976242734
C  C72  1  0.90090000  0.99720000  0.16750000  1.0 0.0976242734
C  C73  1  0.98880000  0.51070000  0.73980000  1.0 -0.1925535953
C  C74  1  0.01120000  0.01070000  0.76020000  1.0 -0.1925535953
C  C75  1  0.01120000  0.48930000  0.26020000  1.0 -0.1925535953
C  C76  1  0.98880000  0.98930000  0.23980000  1.0 -0.1925535953
C  C77  1  0.92360000  0.49570000  0.81700000  1.0 0.1307014511
C  C78  1  0.07640000  0.99570000  0.68300000  1.0 0.1212961824
C  C79  1  0.07640000  0.50430000  0.18300000  1.0 0.1212961824
C  C80  1  0.92360000  0.00430000  0.31700000  1.0 0.1307014511
C  C81  1  0.77420000  0.47190000  0.81840000  1.0 -0.1716365199
C  C82  1  0.22580000  0.97190000  0.68160000  1.0 -0.1716365199
C  C83  1  0.22580000  0.52810000  0.18160000  1.0 -0.1716365199
C  C84  1  0.77420000  0.02810000  0.31840000  1.0 -0.1716365199
C  C85  1  0.69540000  0.46500000  0.74430000  1.0 0.0806301957
C  C86  1  0.30460000  0.96500000  0.75570000  1.0 0.0806301957
C  C87  1  0.30460000  0.53500000  0.25570000  1.0 0.0806301957
C  C88  1  0.69540000  0.03500000  0.24430000  1.0 0.0806301957
C  C89  1  0.01140000  0.50560000  0.89520000  1.0 0.0193444048
C  C90  1  0.98860000  0.00560000  0.60480000  1.0 0.0193444048
C  C91  1  0.98860000  0.49440000  0.10480000  1.0 0.0193444048
C  C92  1  0.01140000  0.99440000  0.39520000  1.0 0.0193444048
N  N1  1  0.75650000  0.48046000  0.66893000  1.0 -0.2207626631
N  N2  1  0.24350000  0.98046000  0.83107000  1.0 -0.2207626631
N  N3  1  0.24350000  0.51954000  0.33107000  1.0 -0.2207626631
N  N4  1  0.75650000  0.01954000  0.16893000  1.0 -0.2207626631
N  N5  1  0.94980000  0.49400000  0.96620000  1.0 -0.1716365199
N  N6  1  0.05020000  0.99400000  0.53380000  1.0 -0.1716365199
N  N7  1  0.05020000  0.50600000  0.03380000  1.0 -0.1716365199
N  N8  1  0.94980000  0.00600000  0.46620000  1.0 -0.1716365199
O  O1  1  0.31190000  0.59555000  0.51599000  1.0 -0.5353240302
O  O2  1  0.68810000  0.09555000  0.98401000  1.0 -0.5353240302
O  O3  1  0.68810000  0.40445000  0.48401000  1.0 -0.5353240302
O  O4  1  0.31190000  0.90445000  0.01599000  1.0 -0.5353240302
O  O5  1  0.48110000  0.56422000  0.61525000  1.0 -0.5523352107
O  O6  1  0.51890000  0.06422000  0.88475000  1.0 -0.5523352107
O  O7  1  0.51890000  0.43578000  0.38475000  1.0 -0.5523352107
O  O8  1  0.48110000  0.93578000  0.11525000  1.0 -0.5523352107
O  O9  1  0.71700000  0.94334000  0.99287000  1.0 -0.557256498
O  O10  1  0.28300000  0.44334000  0.50713000  1.0 -0.557256498
O  O11  1  0.28300000  0.05666000  0.00713000  1.0 -0.557256498
O  O12  1  0.71700000  0.55666000  0.49287000  1.0 -0.557256498
O  O13  1  0.55330000  0.91183000  0.89144000  1.0 -0.5353240302
O  O14  1  0.44670000  0.41183000  0.60856000  1.0 -0.5353240302
O  O15  1  0.44670000  0.08817000  0.10856000  1.0 -0.5353240302
O  O16  1  0.55330000  0.58817000  0.39144000  1.0 -0.5353240302
