# DDEC6 charges by PACMAN v1.1 (https://github.com/mtap-research/PACMAN-charge/)
data_OPUDOT_FSR_pacman
_symmetry_space_group_name_H-M   'P 1'
_cell_length_a   10.23000000
_cell_length_b   11.05900000
_cell_length_c   13.81800000
_cell_angle_alpha   69.01000000
_cell_angle_beta   78.31000000
_cell_angle_gamma   72.15000000
_symmetry_Int_Tables_number   1
_chemical_formula_structural   Zn3P2H2C4O13
_chemical_formula_sum   'Zn12 P8 H8 C16 O52'
_cell_volume   1381.68788109
_cell_formula_units_Z   4
loop_
 _symmetry_equiv_pos_site_id
 _symmetry_equiv_pos_as_xyz
  1  'x, y, z'
loop_
 _atom_site_type_symbol
 _atom_site_label
 _atom_site_symmetry_multiplicity
 _atom_site_fract_x
 _atom_site_fract_y
 _atom_site_fract_z
 _atom_site_occupancy
 _atom_site_charge
Zn  Zn1  1  0.92146000  0.14906000  0.08523000  1.0 1.0595209774
Zn  Zn2  1  0.07854000  0.85094000  0.91477000  1.0 1.0595209774
Zn  Zn3  1  0.07750000  0.35239000  0.91430000  1.0 1.0595209774
Zn  Zn4  1  0.92250000  0.64761000  0.08570000  1.0 1.0595209774
Zn  Zn5  1  0.38253000  0.01446000  0.17298000  1.0 1.1326884207
Zn  Zn6  1  0.61747000  0.98554000  0.82702000  1.0 1.1326884207
Zn  Zn7  1  0.37969000  0.51497000  0.17448000  1.0 1.1326884207
Zn  Zn8  1  0.62031000  0.48503000  0.82552000  1.0 1.1326884207
Zn  Zn9  1  0.02136000  0.72416000  0.49037000  1.0 0.7270832833
Zn  Zn10  1  0.97864000  0.27584000  0.50963000  1.0 0.7270832833
Zn  Zn11  1  0.01660000  0.23150000  0.49360000  1.0 0.7198011156
Zn  Zn12  1  0.98340000  0.76850000  0.50640000  1.0 0.7198011156
P  P1  1  0.22299000  0.03104000  0.98165000  1.0 1.2868103263
P  P2  1  0.77701000  0.96896000  0.01835000  1.0 1.2868103263
P  P3  1  0.22296000  0.53098000  0.98146000  1.0 1.2844822284
P  P4  1  0.77704000  0.46902000  0.01854000  1.0 1.2844822284
P  P5  1  0.15649000  0.97881000  0.38131000  1.0 1.2655519124
P  P6  1  0.84351000  0.02119000  0.61869000  1.0 1.2655519124
P  P7  1  0.15654000  0.48571000  0.38395000  1.0 1.2629775878
P  P8  1  0.84346000  0.51429000  0.61605000  1.0 1.2629775878
H  H1  1  0.23620000  0.10290000  0.79950000  1.0 0.1788328298
H  H2  1  0.76380000  0.89710000  0.20050000  1.0 0.1788328298
H  H3  1  0.23940000  0.60030000  0.80010000  1.0 0.1788328298
H  H4  1  0.76060000  0.39970000  0.19990000  1.0 0.1788328298
H  H5  1  0.92320000  0.08440000  0.36120000  1.0 0.1788328298
H  H6  1  0.07680000  0.91560000  0.63880000  1.0 0.1788328298
H  H7  1  0.92270000  0.58690000  0.35780000  1.0 0.1788328298
H  H8  1  0.07730000  0.41310000  0.64220000  1.0 0.1788328298
C  C1  1  0.30520000  0.08030000  0.84740000  1.0 -0.2827912046
C  C2  1  0.69480000  0.91970000  0.15260000  1.0 -0.2827912046
C  C3  1  0.63850000  0.79900000  0.17660000  1.0 0.6241061267
C  C4  1  0.36150000  0.20100000  0.82340000  1.0 0.6241061267
C  C5  1  0.30750000  0.57780000  0.84860000  1.0 -0.2827912046
C  C6  1  0.69250000  0.42220000  0.15140000  1.0 -0.2827912046
C  C7  1  0.63580000  0.30100000  0.17580000  1.0 0.6264579173
C  C8  1  0.36420000  0.69900000  0.82420000  1.0 0.6264579173
C  C9  1  0.00020000  0.05130000  0.31430000  1.0 -0.2911450166
C  C10  1  0.99980000  0.94870000  0.68570000  1.0 -0.2911450166
C  C11  1  0.96590000  0.94600000  0.28370000  1.0 0.6090768602
C  C12  1  0.03410000  0.05400000  0.71630000  1.0 0.6090768602
C  C13  1  0.00160000  0.55240000  0.31290000  1.0 -0.2911450166
C  C14  1  0.99840000  0.44760000  0.68710000  1.0 -0.2911450166
C  C15  1  0.03040000  0.55460000  0.71590000  1.0 0.6090768602
C  C16  1  0.96960000  0.44540000  0.28410000  1.0 0.6090768602
O  O1  1  0.10060000  0.15190000  0.98620000  1.0 -0.7589834157
O  O2  1  0.89940000  0.84810000  0.01380000  1.0 -0.7589834157
O  O3  1  0.82120000  0.09450000  0.00210000  1.0 -0.6509578201
O  O4  1  0.17880000  0.90550000  0.99790000  1.0 -0.6509578201
O  O5  1  0.33140000  0.00460000  0.04980000  1.0 -0.7092391673
O  O6  1  0.66860000  0.99540000  0.95020000  1.0 -0.7092391673
O  O7  1  0.58410000  0.02700000  0.17070000  1.0 -0.3181731749
O  O8  1  0.41590000  0.97300000  0.82930000  1.0 -0.3181731749
O  O9  1  0.51050000  0.81460000  0.19750000  1.0 -0.4463778857
O  O10  1  0.48950000  0.18540000  0.80250000  1.0 -0.4463778857
O  O11  1  0.27900000  0.30950000  0.82530000  1.0 -0.5071293834
O  O12  1  0.72100000  0.69050000  0.17470000  1.0 -0.5071293834
O  O13  1  0.17940000  0.40580000  0.99700000  1.0 -0.6509578201
O  O14  1  0.82060000  0.59420000  0.00300000  1.0 -0.6509578201
O  O15  1  0.89980000  0.34910000  0.01440000  1.0 -0.7589834157
O  O16  1  0.10020000  0.65090000  0.98560000  1.0 -0.7589834157
O  O17  1  0.33000000  0.50560000  0.05080000  1.0 -0.7092391673
O  O18  1  0.67000000  0.49440000  0.94920000  1.0 -0.7092391673
O  O19  1  0.58210000  0.52850000  0.16910000  1.0 -0.3181731749
O  O20  1  0.41790000  0.47150000  0.83090000  1.0 -0.3181731749
O  O21  1  0.71930000  0.19160000  0.17390000  1.0 -0.5263458613
O  O22  1  0.28070000  0.80840000  0.82610000  1.0 -0.5263458613
O  O23  1  0.50780000  0.31690000  0.19720000  1.0 -0.4445377711
O  O24  1  0.49220000  0.68310000  0.80280000  1.0 -0.4463778857
O  O25  1  0.27970000  0.94450000  0.30700000  1.0 -0.6939007166
O  O26  1  0.72030000  0.05550000  0.69300000  1.0 -0.6939007166
O  O27  1  0.16760000  0.08940000  0.42110000  1.0 -0.6600031975
O  O28  1  0.83240000  0.91060000  0.57890000  1.0 -0.6600031975
O  O29  1  0.13380000  0.85840000  0.47150000  1.0 -0.6404563907
O  O30  1  0.86620000  0.14160000  0.52850000  1.0 -0.6404563907
O  O31  1  0.01480000  0.16010000  0.22000000  1.0 -0.2827912046
O  O32  1  0.98520000  0.83990000  0.78000000  1.0 -0.2827912046
O  O33  1  0.96600000  0.96310000  0.18840000  1.0 -0.5034149412
O  O34  1  0.03400000  0.03690000  0.81160000  1.0 -0.5034149412
O  O35  1  0.93930000  0.84330000  0.35380000  1.0 -0.4586380843
O  O36  1  0.06070000  0.15670000  0.64620000  1.0 -0.4586380843
O  O37  1  0.28090000  0.45010000  0.30990000  1.0 -0.6954379204
O  O38  1  0.71910000  0.54990000  0.69010000  1.0 -0.6954379204
O  O39  1  0.16660000  0.59570000  0.42220000  1.0 -0.6509578201
O  O40  1  0.83340000  0.40430000  0.57780000  1.0 -0.6509578201
O  O41  1  0.86730000  0.63580000  0.52550000  1.0 -0.6509578201
O  O42  1  0.13270000  0.36420000  0.47450000  1.0 -0.6509578201
O  O43  1  0.01820000  0.66030000  0.21770000  1.0 -0.2977384004
O  O44  1  0.98180000  0.33970000  0.78230000  1.0 -0.2977384004
O  O45  1  0.03060000  0.53950000  0.81020000  1.0 -0.4807965878
O  O46  1  0.96940000  0.46050000  0.18980000  1.0 -0.4807965878
O  O47  1  0.05620000  0.65670000  0.64650000  1.0 -0.4463778857
O  O48  1  0.94380000  0.34330000  0.35350000  1.0 -0.4463778857
O  O49  1  0.31650000  0.21120000  0.15420000  1.0 0.1336689469
O  O50  1  0.68350000  0.78880000  0.84580000  1.0 0.1361055252
O  O51  1  0.31700000  0.71370000  0.15370000  1.0 0.1592999574
O  O52  1  0.68300000  0.28630000  0.84630000  1.0 0.1592999574
