# DDEC6 charges by PACMAN v1.1 (https://github.com/mtap-research/PACMAN-charge/)
data_OQEPEG_ASR_pacman
_symmetry_space_group_name_H-M   'P 1'
_cell_length_a   11.26440000
_cell_length_b   12.70250000
_cell_length_c   13.23650000
_cell_angle_alpha   97.92200000
_cell_angle_beta   112.93900000
_cell_angle_gamma   109.08800000
_symmetry_Int_Tables_number   1
_chemical_formula_structural   MnH4C12(NO4)2
_chemical_formula_sum   'Mn3 H12 C36 N6 O24'
_cell_volume   1569.84265789
_cell_formula_units_Z   3
loop_
 _symmetry_equiv_pos_site_id
 _symmetry_equiv_pos_as_xyz
  1  'x, y, z'
loop_
 _atom_site_type_symbol
 _atom_site_label
 _atom_site_symmetry_multiplicity
 _atom_site_fract_x
 _atom_site_fract_y
 _atom_site_fract_z
 _atom_site_occupancy
 _atom_site_charge
Mn  Mn1  1  0.00000000  0.00000000  0.00000000  1.0 1.04227311
Mn  Mn2  1  0.92479000  0.06373000  0.19587000  1.0 0.9276593684
Mn  Mn3  1  0.07521000  0.93627000  0.80413000  1.0 0.9276593684
H  H1  1  0.02158000  0.45038000  0.20585000  1.0 0.1377807392
H  H2  1  0.97842000  0.54962000  0.79415000  1.0 0.1377807392
H  H3  1  0.93678000  0.19624000  0.90322000  1.0 0.1242026819
H  H4  1  0.06322000  0.80376000  0.09678000  1.0 0.1242026819
H  H5  1  0.29280000  0.08129000  0.49133000  1.0 0.1453686116
H  H6  1  0.70720000  0.91871000  0.50867000  1.0 0.1453686116
H  H7  1  0.31936000  0.93700000  0.19033000  1.0 0.1377807392
H  H8  1  0.68064000  0.06300000  0.80967000  1.0 0.1377807392
H  H9  1  0.62691000  0.72490000  0.16053000  1.0 0.1377807392
H  H10  1  0.37309000  0.27510000  0.83947000  1.0 0.1377807392
H  H11  1  0.71169000  0.64795000  0.87258000  1.0 0.1330976991
H  H12  1  0.28831000  0.35205000  0.12742000  1.0 0.1330976991
C  C1  1  0.97104000  0.22271000  0.11853000  1.0 0.5468403457
C  C2  1  0.02896000  0.77729000  0.88147000  1.0 0.5468403457
C  C3  1  0.97717000  0.31231000  0.06107000  1.0 -0.0357733609
C  C4  1  0.02283000  0.68769000  0.93893000  1.0 -0.0347105095
C  C5  1  0.00280000  0.42674000  0.11624000  1.0 -0.10432622
C  C6  1  0.99720000  0.57326000  0.88376000  1.0 -0.10432622
C  C7  1  0.00701000  0.51230000  0.05781000  1.0 0.0686974447
C  C8  1  0.99299000  0.48770000  0.94219000  1.0 0.0686974447
C  C9  1  0.03200000  0.63016000  0.10847000  1.0 0.0295658396
C  C10  1  0.96800000  0.36984000  0.89153000  1.0 0.0295658396
C  C11  1  0.95625000  0.28451000  0.94588000  1.0 -0.1302752809
C  C12  1  0.04375000  0.71549000  0.05412000  1.0 -0.1302752809
C  C13  1  0.16870000  0.02582000  0.25237000  1.0 0.5890651404
C  C14  1  0.83130000  0.97418000  0.74763000  1.0 0.5890651404
C  C15  1  0.29469000  0.01295000  0.33389000  1.0 -0.0118558898
C  C16  1  0.70531000  0.98705000  0.66611000  1.0 -0.0118558898
C  C17  1  0.34474000  0.04298000  0.45248000  1.0 -0.0887487398
C  C18  1  0.65526000  0.95702000  0.54752000  1.0 -0.0887487398
C  C19  1  0.52420000  0.05606000  0.64768000  1.0 0.0295658396
C  C20  1  0.47580000  0.94394000  0.35232000  1.0 0.0295658396
C  C21  1  0.46544000  0.02644000  0.52468000  1.0 0.0686974447
C  C22  1  0.53456000  0.97356000  0.47532000  1.0 0.0686974447
C  C23  1  0.36254000  0.96399000  0.28405000  1.0 -0.1207440512
C  C24  1  0.63746000  0.03601000  0.71595000  1.0 -0.1207440512
C  C25  1  0.78715000  0.82719000  0.05390000  1.0 0.5977051912
C  C26  1  0.21285000  0.17281000  0.94610000  1.0 0.5977051912
C  C27  1  0.68430000  0.70202000  0.02304000  1.0 -0.0162184665
C  C28  1  0.31570000  0.29798000  0.97696000  1.0 -0.0162184665
C  C29  1  0.61180000  0.66241000  0.08530000  1.0 -0.0887487398
C  C30  1  0.38820000  0.33759000  0.91470000  1.0 -0.0887487398
C  C31  1  0.51687000  0.54160000  0.05201000  1.0 0.0686974447
C  C32  1  0.48313000  0.45840000  0.94799000  1.0 0.0686974447
C  C33  1  0.65719000  0.61977000  0.92333000  1.0 -0.1302752809
C  C34  1  0.34281000  0.38023000  0.07667000  1.0 -0.1302752809
C  C35  1  0.55678000  0.50649000  0.88643000  1.0 0.0295658396
C  C36  1  0.44322000  0.49351000  0.11357000  1.0 0.0295658396
N  N1  1  0.03882000  0.66354000  0.22256000  1.0 0.5095253645
N  N2  1  0.96118000  0.33646000  0.77744000  1.0 0.5095253645
N  N3  1  0.47100000  0.11699000  0.71015000  1.0 0.520732945
N  N4  1  0.52900000  0.88301000  0.28985000  1.0 0.520732945
N  N5  1  0.51432000  0.43981000  0.76810000  1.0 0.5095253645
N  N6  1  0.48568000  0.56019000  0.23190000  1.0 0.5095253645
O  O1  1  0.97528000  0.23331000  0.21892000  1.0 -0.4508038254
O  O2  1  0.02472000  0.76669000  0.78108000  1.0 -0.4508038254
O  O3  1  0.94859000  0.11170000  0.07230000  1.0 -0.5415276231
O  O4  1  0.05141000  0.88830000  0.92770000  1.0 -0.5415276231
O  O5  1  0.09123000  0.05690000  0.29116000  1.0 -0.4932109954
O  O6  1  0.90877000  0.94310000  0.70884000  1.0 -0.4932109954
O  O7  1  0.14168000  0.00224000  0.14591000  1.0 -0.5181156637
O  O8  1  0.85832000  0.99776000  0.85409000  1.0 -0.5181156637
O  O9  1  0.81038000  0.90284000  0.14487000  1.0 -0.5060584189
O  O10  1  0.18962000  0.09716000  0.85513000  1.0 -0.5060584189
O  O11  1  0.84814000  0.85469000  0.99080000  1.0 -0.5415276231
O  O12  1  0.15186000  0.14531000  0.00920000  1.0 -0.5415276231
O  O13  1  0.94957000  0.59271000  0.24236000  1.0 -0.3278398754
O  O14  1  0.05043000  0.40729000  0.75764000  1.0 -0.3278398754
O  O15  1  0.13112000  0.76165000  0.29139000  1.0 -0.3376621993
O  O16  1  0.86888000  0.23835000  0.70861000  1.0 -0.3376621993
O  O17  1  0.42275000  0.18595000  0.66903000  1.0 -0.3481253179
O  O18  1  0.57725000  0.81405000  0.33097000  1.0 -0.3481253179
O  O19  1  0.47893000  0.09800000  0.80254000  1.0 -0.3666893782
O  O20  1  0.52107000  0.90200000  0.19746000  1.0 -0.3666893782
O  O21  1  0.38422000  0.38486000  0.70297000  1.0 -0.3083064349
O  O22  1  0.61578000  0.61514000  0.29703000  1.0 -0.3083064349
O  O23  1  0.61035000  0.44813000  0.74026000  1.0 -0.3666893782
O  O24  1  0.38965000  0.55187000  0.25974000  1.0 -0.3666893782
