# DDEC6 charges by PACMAN v1.1 (https://github.com/mtap-research/PACMAN-charge/)
data_OQEROS_ASR_pacman
_symmetry_space_group_name_H-M   'P 1'
_cell_length_a   13.29810000
_cell_length_b   13.29810000
_cell_length_c   30.75970000
_cell_angle_alpha   88.25850000
_cell_angle_beta   91.74150000
_cell_angle_gamma   31.84040000
_symmetry_Int_Tables_number   1
_chemical_formula_structural   Cd2H24PdC48(NO2)4
_chemical_formula_sum   'Cd4 H48 Pd2 C96 N8 O16'
_cell_volume   2851.98341357
_cell_formula_units_Z   2
loop_
 _symmetry_equiv_pos_site_id
 _symmetry_equiv_pos_as_xyz
  1  'x, y, z'
loop_
 _atom_site_type_symbol
 _atom_site_label
 _atom_site_symmetry_multiplicity
 _atom_site_fract_x
 _atom_site_fract_y
 _atom_site_fract_z
 _atom_site_occupancy
 _atom_site_charge
Cd  Cd1  1  0.70910000  0.70910000  0.75000000  1.0 0.9011181956
Cd  Cd2  1  0.29090000  0.29090000  0.25000000  1.0 0.9011181956
Cd  Cd3  1  0.15524000  0.15524000  0.75000000  1.0 0.9551318054
Cd  Cd4  1  0.84476000  0.84476000  0.25000000  1.0 0.9551318054
H  H1  1  0.90320000  0.89800000  0.85570000  1.0 0.1370730036
H  H2  1  0.89800000  0.90320000  0.64430000  1.0 0.1370730036
H  H3  1  0.09680000  0.10200000  0.14430000  1.0 0.1370730036
H  H4  1  0.10200000  0.09680000  0.35570000  1.0 0.1370730036
H  H5  1  0.21220000  0.71200000  0.85520000  1.0 0.1370730036
H  H6  1  0.71200000  0.21220000  0.64480000  1.0 0.1370730036
H  H7  1  0.78780000  0.28800000  0.14480000  1.0 0.1370730036
H  H8  1  0.28800000  0.78780000  0.35520000  1.0 0.1370730036
H  H9  1  0.65360000  0.55920000  0.96360000  1.0 0.1370730036
H  H10  1  0.55920000  0.65360000  0.53640000  1.0 0.1370730036
H  H11  1  0.34640000  0.44080000  0.03640000  1.0 0.1370730036
H  H12  1  0.44080000  0.34640000  0.46360000  1.0 0.1370730036
H  H13  1  0.61990000  0.66650000  0.03330000  1.0 0.1317294976
H  H14  1  0.66650000  0.61990000  0.46670000  1.0 0.1317294976
H  H15  1  0.38010000  0.33350000  0.96670000  1.0 0.1317294976
H  H16  1  0.33350000  0.38010000  0.53330000  1.0 0.1317294976
H  H17  1  0.31660000  0.84080000  0.85420000  1.0 0.1370730036
H  H18  1  0.84080000  0.31660000  0.64580000  1.0 0.1370730036
H  H19  1  0.68340000  0.15920000  0.14580000  1.0 0.1370730036
H  H20  1  0.15920000  0.68340000  0.35420000  1.0 0.1370730036
H  H21  1  0.52880000  0.68340000  0.80340000  1.0 0.1317294976
H  H22  1  0.68340000  0.52880000  0.69660000  1.0 0.1317294976
H  H23  1  0.47120000  0.31660000  0.19660000  1.0 0.1317294976
H  H24  1  0.31660000  0.47120000  0.30340000  1.0 0.1317294976
H  H25  1  0.90570000  0.18310000  0.87330000  1.0 0.1208475185
H  H26  1  0.18310000  0.90570000  0.62670000  1.0 0.1208475185
H  H27  1  0.09430000  0.81690000  0.12670000  1.0 0.1208475185
H  H28  1  0.81690000  0.09430000  0.37330000  1.0 0.1208475185
H  H29  1  0.69490000  0.33990000  0.92440000  1.0 0.1128238281
H  H30  1  0.33990000  0.69490000  0.57560000  1.0 0.1128238281
H  H31  1  0.30510000  0.66010000  0.07560000  1.0 0.1128238281
H  H32  1  0.66010000  0.30510000  0.42440000  1.0 0.1128238281
H  H33  1  0.38770000  0.39330000  0.88190000  1.0 0.1208475185
H  H34  1  0.39330000  0.38770000  0.61810000  1.0 0.1208475185
H  H35  1  0.61230000  0.60670000  0.11810000  1.0 0.1208475185
H  H36  1  0.60670000  0.61230000  0.38190000  1.0 0.1208475185
H  H37  1  0.21980000  0.42740000  0.83410000  1.0 0.1208475185
H  H38  1  0.42740000  0.21980000  0.66590000  1.0 0.1208475185
H  H39  1  0.78020000  0.57260000  0.16590000  1.0 0.1208475185
H  H40  1  0.57260000  0.78020000  0.33410000  1.0 0.1208475185
H  H41  1  0.62370000  0.87210000  0.86460000  1.0 0.1208475185
H  H42  1  0.87210000  0.62370000  0.63540000  1.0 0.1208475185
H  H43  1  0.37630000  0.12790000  0.13540000  1.0 0.1208475185
H  H44  1  0.12790000  0.37630000  0.36460000  1.0 0.1208475185
H  H45  1  0.79140000  0.83800000  0.91240000  1.0 0.1208475185
H  H46  1  0.83800000  0.79140000  0.58760000  1.0 0.1208475185
H  H47  1  0.20860000  0.16200000  0.08760000  1.0 0.1208475185
H  H48  1  0.16200000  0.20860000  0.41240000  1.0 0.1208475185
Pd  Pd1  1  0.00000000  0.00000000  0.00000000  1.0 0.3133701896
Pd  Pd2  1  0.00000000  0.00000000  0.50000000  1.0 0.3133701896
C  C1  1  0.89440000  0.96720000  0.91840000  1.0 0.1502762753
C  C2  1  0.96720000  0.89440000  0.58160000  1.0 0.1502762753
C  C3  1  0.10560000  0.03280000  0.08160000  1.0 0.1502762753
C  C4  1  0.03280000  0.10560000  0.41840000  1.0 0.1502762753
C  C5  1  0.96530000  0.88350000  0.87770000  1.0 -0.1786270617
C  C6  1  0.88350000  0.96530000  0.62230000  1.0 -0.1786270617
C  C7  1  0.03470000  0.11650000  0.12230000  1.0 -0.1786270617
C  C8  1  0.11650000  0.03470000  0.37770000  1.0 -0.1786270617
C  C9  1  0.13370000  0.78290000  0.87760000  1.0 -0.1732327762
C  C10  1  0.78290000  0.13370000  0.62240000  1.0 -0.1732327762
C  C11  1  0.86630000  0.21710000  0.12240000  1.0 -0.1732327762
C  C12  1  0.21710000  0.86630000  0.37760000  1.0 -0.1732327762
C  C13  1  0.17930000  0.79790000  0.91680000  1.0 0.1502762753
C  C14  1  0.79790000  0.17930000  0.58320000  1.0 0.1502762753
C  C15  1  0.82070000  0.20210000  0.08320000  1.0 0.1502762753
C  C16  1  0.20210000  0.82070000  0.41680000  1.0 0.1502762753
C  C17  1  0.34360000  0.71140000  0.92870000  1.0 -0.0387677672
C  C18  1  0.71140000  0.34360000  0.57130000  1.0 -0.0387677672
C  C19  1  0.65640000  0.28860000  0.07130000  1.0 -0.0387677672
C  C20  1  0.28860000  0.65640000  0.42870000  1.0 -0.0387677672
C  C21  1  0.38440000  0.72620000  0.96800000  1.0 0.1502762753
C  C22  1  0.72620000  0.38440000  0.53200000  1.0 0.1502762753
C  C23  1  0.61560000  0.27380000  0.03200000  1.0 0.1502762753
C  C24  1  0.27380000  0.61560000  0.46800000  1.0 0.1502762753
C  C25  1  0.54900000  0.64160000  0.97970000  1.0 -0.1786270617
C  C26  1  0.64160000  0.54900000  0.52030000  1.0 -0.1786270617
C  C27  1  0.45100000  0.35840000  0.02030000  1.0 -0.1786270617
C  C28  1  0.35840000  0.45100000  0.47970000  1.0 -0.1786270617
C  C29  1  0.53200000  0.69900000  0.01820000  1.0 -0.1900733309
C  C30  1  0.69900000  0.53200000  0.48180000  1.0 -0.1900733309
C  C31  1  0.46800000  0.30100000  0.98180000  1.0 -0.1900733309
C  C32  1  0.30100000  0.46800000  0.51820000  1.0 -0.1900733309
C  C33  1  0.35470000  0.81790000  0.03090000  1.0 0.1502762753
C  C34  1  0.81790000  0.35470000  0.46910000  1.0 0.1502762753
C  C35  1  0.64530000  0.18210000  0.96910000  1.0 0.1502762753
C  C36  1  0.18210000  0.64530000  0.53090000  1.0 0.1502762753
C  C37  1  0.72070000  0.08590000  0.93050000  1.0 -0.0387677672
C  C38  1  0.08590000  0.72070000  0.56950000  1.0 -0.0387677672
C  C39  1  0.27930000  0.91410000  0.06950000  1.0 -0.0387677672
C  C40  1  0.91410000  0.27930000  0.43050000  1.0 -0.0387677672
C  C41  1  0.48230000  0.60710000  0.89500000  1.0 0.0811517834
C  C42  1  0.60710000  0.48230000  0.60500000  1.0 0.0811517834
C  C43  1  0.51770000  0.39290000  0.10500000  1.0 0.0811517834
C  C44  1  0.39290000  0.51770000  0.39500000  1.0 0.0811517834
C  C45  1  0.43550000  0.70810000  0.85830000  1.0 -0.1263265247
C  C46  1  0.70810000  0.43550000  0.64170000  1.0 -0.1263265247
C  C47  1  0.56450000  0.29190000  0.14170000  1.0 -0.1263265247
C  C48  1  0.29190000  0.56450000  0.35830000  1.0 -0.1263265247
C  C49  1  0.56320000  0.61360000  0.82810000  1.0 -0.0986260813
C  C50  1  0.61360000  0.56320000  0.67190000  1.0 -0.0986260813
C  C51  1  0.43680000  0.38640000  0.17190000  1.0 -0.0986260813
C  C52  1  0.38640000  0.43680000  0.32810000  1.0 -0.0986260813
C  C53  1  0.74230000  0.41690000  0.83360000  1.0 -0.0152678257
C  C54  1  0.41690000  0.74230000  0.66640000  1.0 -0.0152678257
C  C55  1  0.25770000  0.58310000  0.16640000  1.0 -0.0152678257
C  C56  1  0.58310000  0.25770000  0.33360000  1.0 -0.0152678257
C  C57  1  0.78770000  0.31610000  0.86950000  1.0 -0.0986260813
C  C58  1  0.31610000  0.78770000  0.63050000  1.0 -0.0986260813
C  C59  1  0.21230000  0.68390000  0.13050000  1.0 -0.0986260813
C  C60  1  0.68390000  0.21230000  0.36950000  1.0 -0.0986260813
C  C61  1  0.66050000  0.41030000  0.89980000  1.0 -0.15262591
C  C62  1  0.41030000  0.66050000  0.60020000  1.0 -0.15262591
C  C63  1  0.33950000  0.58970000  0.10020000  1.0 -0.15262591
C  C64  1  0.58970000  0.33950000  0.39980000  1.0 -0.15262591
C  C65  1  0.88720000  0.31780000  0.80130000  1.0 0.5566219901
C  C66  1  0.31780000  0.88720000  0.69870000  1.0 0.5566219901
C  C67  1  0.11280000  0.68220000  0.19870000  1.0 0.5566219901
C  C68  1  0.68220000  0.11280000  0.30130000  1.0 0.5566219901
C  C69  1  0.60620000  0.11220000  0.90190000  1.0 0.0811517834
C  C70  1  0.11220000  0.60620000  0.59810000  1.0 0.0811517834
C  C71  1  0.39380000  0.88780000  0.09810000  1.0 0.0811517834
C  C72  1  0.88780000  0.39380000  0.40190000  1.0 0.0811517834
C  C73  1  0.43500000  0.28880000  0.87840000  1.0 -0.159836256
C  C74  1  0.28880000  0.43500000  0.62160000  1.0 -0.159836256
C  C75  1  0.56500000  0.71120000  0.12160000  1.0 -0.159836256
C  C76  1  0.71120000  0.56500000  0.37840000  1.0 -0.159836256
C  C77  1  0.33440000  0.30920000  0.84980000  1.0 -0.092412361
C  C78  1  0.30920000  0.33440000  0.65020000  1.0 -0.092412361
C  C79  1  0.66560000  0.69080000  0.15020000  1.0 -0.092412361
C  C80  1  0.69080000  0.66560000  0.34980000  1.0 -0.092412361
C  C81  1  0.40510000  0.15310000  0.84460000  1.0 -0.0101256082
C  C82  1  0.15310000  0.40510000  0.65540000  1.0 -0.0101256082
C  C83  1  0.59490000  0.84690000  0.15540000  1.0 -0.0101256082
C  C84  1  0.84690000  0.59490000  0.34460000  1.0 -0.0101256082
C  C85  1  0.57650000  0.97650000  0.86810000  1.0 -0.0986260813
C  C86  1  0.97650000  0.57650000  0.63190000  1.0 -0.0986260813
C  C87  1  0.42350000  0.02350000  0.13190000  1.0 -0.0986260813
C  C88  1  0.02350000  0.42350000  0.36810000  1.0 -0.0986260813
C  C89  1  0.67690000  0.95610000  0.89670000  1.0 -0.15262591
C  C90  1  0.95610000  0.67690000  0.60330000  1.0 -0.15262591
C  C91  1  0.32310000  0.04390000  0.10330000  1.0 -0.15262591
C  C92  1  0.04390000  0.32310000  0.39670000  1.0 -0.15262591
C  C93  1  0.30830000  0.16430000  0.81120000  1.0 0.5526528721
C  C94  1  0.16430000  0.30830000  0.68880000  1.0 0.5526528721
C  C95  1  0.69170000  0.83570000  0.18880000  1.0 0.5526528721
C  C96  1  0.83570000  0.69170000  0.31120000  1.0 0.5526528721
N  N1  1  0.02580000  0.91520000  0.94150000  1.0 -0.266338558
N  N2  1  0.91520000  0.02580000  0.55850000  1.0 -0.266338558
N  N3  1  0.97420000  0.08480000  0.05850000  1.0 -0.266338558
N  N4  1  0.08480000  0.97420000  0.44150000  1.0 -0.266338558
N  N5  1  0.26310000  0.83650000  0.00030000  1.0 -0.2608049298
N  N6  1  0.83650000  0.26310000  0.49970000  1.0 -0.2608049298
N  N7  1  0.73690000  0.16350000  0.99970000  1.0 -0.2608049298
N  N8  1  0.16350000  0.73690000  0.50030000  1.0 -0.2608049298
O  O1  1  0.84630000  0.41650000  0.77192000  1.0 -0.5303773219
O  O2  1  0.41650000  0.84630000  0.72808000  1.0 -0.5303773219
O  O3  1  0.15370000  0.58350000  0.22808000  1.0 -0.5303773219
O  O4  1  0.58350000  0.15370000  0.27192000  1.0 -0.5303773219
O  O5  1  0.04340000  0.14040000  0.80570000  1.0 -0.5168037201
O  O6  1  0.14040000  0.04340000  0.69430000  1.0 -0.5168037201
O  O7  1  0.95660000  0.85960000  0.19430000  1.0 -0.5168037201
O  O8  1  0.85960000  0.95660000  0.30570000  1.0 -0.5168037201
O  O9  1  0.14900000  0.32300000  0.79780000  1.0 -0.5168037201
O  O10  1  0.32300000  0.14900000  0.70220000  1.0 -0.5168037201
O  O11  1  0.85100000  0.67700000  0.20220000  1.0 -0.5168037201
O  O12  1  0.67700000  0.85100000  0.29780000  1.0 -0.5168037201
O  O13  1  0.39970000  0.00570000  0.80390000  1.0 -0.5919834013
O  O14  1  0.00570000  0.39970000  0.69610000  1.0 -0.5919834013
O  O15  1  0.60030000  0.99430000  0.19610000  1.0 -0.5919834013
O  O16  1  0.99430000  0.60030000  0.30390000  1.0 -0.5919834013
