# DDEC6 charges by PACMAN v1.1 (https://github.com/mtap-research/PACMAN-charge/)
data_OQESEJ_ASR_pacman
_symmetry_space_group_name_H-M   'P 1'
_cell_length_a   13.30230000
_cell_length_b   13.30230000
_cell_length_c   30.77490000
_cell_angle_alpha   88.23210000
_cell_angle_beta   91.76790000
_cell_angle_gamma   31.73970000
_symmetry_Int_Tables_number   1
_chemical_formula_structural   Cd2H24PdC48(NO2)4
_chemical_formula_sum   'Cd4 H48 Pd2 C96 N8 O16'
_cell_volume   2846.45708878
_cell_formula_units_Z   2
loop_
 _symmetry_equiv_pos_site_id
 _symmetry_equiv_pos_as_xyz
  1  'x, y, z'
loop_
 _atom_site_type_symbol
 _atom_site_label
 _atom_site_symmetry_multiplicity
 _atom_site_fract_x
 _atom_site_fract_y
 _atom_site_fract_z
 _atom_site_occupancy
 _atom_site_charge
Cd  Cd1  1  0.71090000  0.71090000  0.75000000  1.0 0.9029611275
Cd  Cd2  1  0.28910000  0.28910000  0.25000000  1.0 0.9029611275
Cd  Cd3  1  0.15573000  0.15573000  0.75000000  1.0 0.9461495503
Cd  Cd4  1  0.84427000  0.84427000  0.25000000  1.0 0.9461495503
H  H1  1  0.89750000  0.90490000  0.85570000  1.0 0.1380797307
H  H2  1  0.90490000  0.89750000  0.64430000  1.0 0.1380797307
H  H3  1  0.10250000  0.09510000  0.14430000  1.0 0.1380797307
H  H4  1  0.09510000  0.10250000  0.35570000  1.0 0.1380797307
H  H5  1  0.20380000  0.72160000  0.85440000  1.0 0.1380797307
H  H6  1  0.72160000  0.20380000  0.64560000  1.0 0.1380797307
H  H7  1  0.79620000  0.27840000  0.14560000  1.0 0.1380797307
H  H8  1  0.27840000  0.79620000  0.35440000  1.0 0.1380797307
H  H9  1  0.65130000  0.56630000  0.96180000  1.0 0.1380797307
H  H10  1  0.56630000  0.65130000  0.53820000  1.0 0.1380797307
H  H11  1  0.34870000  0.43370000  0.03820000  1.0 0.1380797307
H  H12  1  0.43370000  0.34870000  0.46180000  1.0 0.1380797307
H  H13  1  0.62280000  0.66220000  0.03570000  1.0 0.1277400925
H  H14  1  0.66220000  0.62280000  0.46430000  1.0 0.1277400925
H  H15  1  0.37720000  0.33780000  0.96430000  1.0 0.1277400925
H  H16  1  0.33780000  0.37720000  0.53570000  1.0 0.1277400925
H  H17  1  0.31730000  0.84710000  0.85560000  1.0 0.1380797307
H  H18  1  0.84710000  0.31730000  0.64440000  1.0 0.1380797307
H  H19  1  0.68270000  0.15290000  0.14440000  1.0 0.1380797307
H  H20  1  0.15290000  0.68270000  0.35560000  1.0 0.1380797307
H  H21  1  0.53120000  0.68880000  0.80420000  1.0 0.1277400925
H  H22  1  0.68880000  0.53120000  0.69580000  1.0 0.1277400925
H  H23  1  0.46880000  0.31120000  0.19580000  1.0 0.1277400925
H  H24  1  0.31120000  0.46880000  0.30420000  1.0 0.1277400925
H  H25  1  0.90050000  0.18330000  0.87150000  1.0 0.1174784111
H  H26  1  0.18330000  0.90050000  0.62850000  1.0 0.1174784111
H  H27  1  0.09950000  0.81670000  0.12850000  1.0 0.1174784111
H  H28  1  0.81670000  0.09950000  0.37150000  1.0 0.1174784111
H  H29  1  0.69450000  0.33670000  0.92400000  1.0 0.1114862486
H  H30  1  0.33670000  0.69450000  0.57600000  1.0 0.1114862486
H  H31  1  0.30550000  0.66330000  0.07600000  1.0 0.1114862486
H  H32  1  0.66330000  0.30550000  0.42400000  1.0 0.1114862486
H  H33  1  0.38850000  0.39750000  0.88040000  1.0 0.1174784111
H  H34  1  0.39750000  0.38850000  0.61960000  1.0 0.1174784111
H  H35  1  0.61150000  0.60250000  0.11960000  1.0 0.1174784111
H  H36  1  0.60250000  0.61150000  0.38040000  1.0 0.1174784111
H  H37  1  0.21090000  0.44150000  0.83360000  1.0 0.1174784111
H  H38  1  0.44150000  0.21090000  0.66640000  1.0 0.1174784111
H  H39  1  0.78910000  0.55850000  0.16640000  1.0 0.1174784111
H  H40  1  0.55850000  0.78910000  0.33360000  1.0 0.1174784111
H  H41  1  0.60140000  0.89040000  0.86510000  1.0 0.1277400925
H  H42  1  0.89040000  0.60140000  0.63490000  1.0 0.1277400925
H  H43  1  0.39860000  0.10960000  0.13490000  1.0 0.1277400925
H  H44  1  0.10960000  0.39860000  0.36510000  1.0 0.1277400925
H  H45  1  0.77890000  0.84630000  0.91190000  1.0 0.1174784111
H  H46  1  0.84630000  0.77890000  0.58810000  1.0 0.1174784111
H  H47  1  0.22110000  0.15370000  0.08810000  1.0 0.1174784111
H  H48  1  0.15370000  0.22110000  0.41190000  1.0 0.1174784111
Pd  Pd1  1  0.00000000  0.00000000  0.00000000  1.0 0.3248984739
Pd  Pd2  1  0.00000000  0.00000000  0.50000000  1.0 0.3259496912
C  C1  1  0.89440000  0.97060000  0.91840000  1.0 0.1639082386
C  C2  1  0.97060000  0.89440000  0.58160000  1.0 0.1653202548
C  C3  1  0.10560000  0.02940000  0.08160000  1.0 0.1653202548
C  C4  1  0.02940000  0.10560000  0.41840000  1.0 0.1653202548
C  C5  1  0.96120000  0.88920000  0.87750000  1.0 -0.1675854698
C  C6  1  0.88920000  0.96120000  0.62250000  1.0 -0.1675854698
C  C7  1  0.03880000  0.11080000  0.12250000  1.0 -0.1675854698
C  C8  1  0.11080000  0.03880000  0.37750000  1.0 -0.1675854698
C  C9  1  0.12700000  0.79100000  0.87710000  1.0 -0.1675854698
C  C10  1  0.79100000  0.12700000  0.62290000  1.0 -0.1675854698
C  C11  1  0.87300000  0.20900000  0.12290000  1.0 -0.1675854698
C  C12  1  0.20900000  0.87300000  0.37710000  1.0 -0.1675854698
C  C13  1  0.17890000  0.80230000  0.91670000  1.0 0.1653202548
C  C14  1  0.80230000  0.17890000  0.58330000  1.0 0.1653202548
C  C15  1  0.82110000  0.19770000  0.08330000  1.0 0.1653202548
C  C16  1  0.19770000  0.82110000  0.41670000  1.0 0.1653202548
C  C17  1  0.34330000  0.71570000  0.92860000  1.0 -0.0698883608
C  C18  1  0.71570000  0.34330000  0.57140000  1.0 -0.0698883608
C  C19  1  0.65670000  0.28430000  0.07140000  1.0 -0.0698883608
C  C20  1  0.28430000  0.65670000  0.42860000  1.0 -0.0698883608
C  C21  1  0.38270000  0.72830000  0.96680000  1.0 0.1639082386
C  C22  1  0.72830000  0.38270000  0.53320000  1.0 0.1639082386
C  C23  1  0.61730000  0.27170000  0.03320000  1.0 0.1639082386
C  C24  1  0.27170000  0.61730000  0.46680000  1.0 0.1639082386
C  C25  1  0.54860000  0.64460000  0.97840000  1.0 -0.1819071993
C  C26  1  0.64460000  0.54860000  0.52160000  1.0 -0.1819071993
C  C27  1  0.45140000  0.35540000  0.02160000  1.0 -0.1819071993
C  C28  1  0.35540000  0.45140000  0.47840000  1.0 -0.1819071993
C  C29  1  0.53220000  0.70020000  0.01960000  1.0 -0.1819071993
C  C30  1  0.70020000  0.53220000  0.48040000  1.0 -0.1819071993
C  C31  1  0.46780000  0.29980000  0.98040000  1.0 -0.1819071993
C  C32  1  0.29980000  0.46780000  0.51960000  1.0 -0.1819071993
C  C33  1  0.35280000  0.82300000  0.03120000  1.0 0.153884165
C  C34  1  0.82300000  0.35280000  0.46880000  1.0 0.153884165
C  C35  1  0.64720000  0.17700000  0.96880000  1.0 0.153884165
C  C36  1  0.17700000  0.64720000  0.53120000  1.0 0.153884165
C  C37  1  0.71970000  0.08670000  0.93120000  1.0 -0.0585163115
C  C38  1  0.08670000  0.71970000  0.56880000  1.0 -0.0585163115
C  C39  1  0.28030000  0.91330000  0.06880000  1.0 -0.0585163115
C  C40  1  0.91330000  0.28030000  0.43120000  1.0 -0.0585163115
C  C41  1  0.48190000  0.60750000  0.89460000  1.0 0.0908930935
C  C42  1  0.60750000  0.48190000  0.60540000  1.0 0.0908930935
C  C43  1  0.51810000  0.39250000  0.10540000  1.0 0.0908930935
C  C44  1  0.39250000  0.51810000  0.39460000  1.0 0.0908930935
C  C45  1  0.43470000  0.71350000  0.85880000  1.0 -0.1362728402
C  C46  1  0.71350000  0.43470000  0.64120000  1.0 -0.1362728402
C  C47  1  0.56530000  0.28650000  0.14120000  1.0 -0.1362728402
C  C48  1  0.28650000  0.56530000  0.35880000  1.0 -0.1362728402
C  C49  1  0.56340000  0.61860000  0.82840000  1.0 -0.0915235101
C  C50  1  0.61860000  0.56340000  0.67160000  1.0 -0.0915235101
C  C51  1  0.43660000  0.38140000  0.17160000  1.0 -0.0915235101
C  C52  1  0.38140000  0.43660000  0.32840000  1.0 -0.0915235101
C  C53  1  0.74170000  0.41830000  0.83340000  1.0 -0.0230583465
C  C54  1  0.41830000  0.74170000  0.66666667  1.0 -0.0230583465
C  C55  1  0.25830000  0.58170000  0.16660000  1.0 -0.0230583465
C  C56  1  0.58170000  0.25830000  0.33340000  1.0 -0.0230583465
C  C57  1  0.78450000  0.31690000  0.86870000  1.0 -0.0956494585
C  C58  1  0.31690000  0.78450000  0.63130000  1.0 -0.0956494585
C  C59  1  0.21550000  0.68310000  0.13130000  1.0 -0.0956494585
C  C60  1  0.68310000  0.21550000  0.36870000  1.0 -0.0956494585
C  C61  1  0.66010000  0.40790000  0.89970000  1.0 -0.160898
C  C62  1  0.40790000  0.66010000  0.60030000  1.0 -0.160898
C  C63  1  0.33990000  0.59210000  0.10030000  1.0 -0.160898
C  C64  1  0.59210000  0.33990000  0.39970000  1.0 -0.160898
C  C65  1  0.88380000  0.32280000  0.80130000  1.0 0.5602765306
C  C66  1  0.32280000  0.88380000  0.69870000  1.0 0.5602765306
C  C67  1  0.11620000  0.67720000  0.19870000  1.0 0.5602765306
C  C68  1  0.67720000  0.11620000  0.30130000  1.0 0.5602765306
C  C69  1  0.60140000  0.11740000  0.90080000  1.0 0.0908930935
C  C70  1  0.11740000  0.60140000  0.59920000  1.0 0.0908930935
C  C71  1  0.39860000  0.88260000  0.09920000  1.0 0.0908930935
C  C72  1  0.88260000  0.39860000  0.40080000  1.0 0.0908930935
C  C73  1  0.43110000  0.29590000  0.87730000  1.0 -0.160898
C  C74  1  0.29590000  0.43110000  0.62270000  1.0 -0.160898
C  C75  1  0.56890000  0.70410000  0.12270000  1.0 -0.160898
C  C76  1  0.70410000  0.56890000  0.37730000  1.0 -0.160898
C  C77  1  0.32450000  0.32250000  0.84930000  1.0 -0.0915235101
C  C78  1  0.32250000  0.32450000  0.65070000  1.0 -0.0915235101
C  C79  1  0.67550000  0.67750000  0.15070000  1.0 -0.0915235101
C  C80  1  0.67750000  0.67550000  0.34930000  1.0 -0.0915235101
C  C81  1  0.38840000  0.17040000  0.84470000  1.0 -0.0060015224
C  C82  1  0.17040000  0.38840000  0.65530000  1.0 -0.0060015224
C  C83  1  0.61160000  0.82960000  0.15530000  1.0 -0.0060015224
C  C84  1  0.82960000  0.61160000  0.34470000  1.0 -0.0046448843
C  C85  1  0.55830000  0.99230000  0.86820000  1.0 -0.0915235101
C  C86  1  0.99230000  0.55830000  0.63180000  1.0 -0.0915235101
C  C87  1  0.44170000  0.00770000  0.13180000  1.0 -0.0915235101
C  C88  1  0.00770000  0.44170000  0.36820000  1.0 -0.0915235101
C  C89  1  0.66540000  0.96540000  0.89620000  1.0 -0.1540687718
C  C90  1  0.96540000  0.66540000  0.60380000  1.0 -0.1540687718
C  C91  1  0.33460000  0.03460000  0.10380000  1.0 -0.1540687718
C  C92  1  0.03460000  0.33460000  0.39620000  1.0 -0.1540687718
C  C93  1  0.28560000  0.18760000  0.81090000  1.0 0.551695399
C  C94  1  0.18760000  0.28560000  0.68910000  1.0 0.551695399
C  C95  1  0.71440000  0.81240000  0.18910000  1.0 0.551695399
C  C96  1  0.81240000  0.71440000  0.31090000  1.0 0.551695399
N  N1  1  0.02480000  0.91840000  0.94120000  1.0 -0.2543781773
N  N2  1  0.91840000  0.02480000  0.55880000  1.0 -0.2608051524
N  N3  1  0.97520000  0.08160000  0.05880000  1.0 -0.2543781773
N  N4  1  0.08160000  0.97520000  0.44120000  1.0 -0.2608051524
N  N5  1  0.25910000  0.84010000  0.00010000  1.0 -0.2608051524
N  N6  1  0.84010000  0.25910000  0.49990000  1.0 -0.2608051524
N  N7  1  0.74090000  0.15990000  0.99990000  1.0 -0.2608051524
N  N8  1  0.15990000  0.74090000  0.50010000  1.0 -0.2608051524
O  O1  1  0.42030000  0.84590000  0.72780000  1.0 -0.5415897593
O  O2  1  0.84590000  0.42030000  0.77220000  1.0 -0.5415897593
O  O3  1  0.57970000  0.15410000  0.27220000  1.0 -0.5415897593
O  O4  1  0.15410000  0.57970000  0.22780000  1.0 -0.5415897593
O  O5  1  0.04200000  0.14220000  0.80590000  1.0 -0.5326262936
O  O6  1  0.14220000  0.04200000  0.69410000  1.0 -0.5326262936
O  O7  1  0.95800000  0.85780000  0.19410000  1.0 -0.5326262936
O  O8  1  0.85780000  0.95800000  0.30590000  1.0 -0.5326262936
O  O9  1  0.12990000  0.35190000  0.79730000  1.0 -0.5326262936
O  O10  1  0.35190000  0.12990000  0.70270000  1.0 -0.5326262936
O  O11  1  0.87010000  0.64810000  0.20270000  1.0 -0.5326262936
O  O12  1  0.64810000  0.87010000  0.29730000  1.0 -0.5326262936
O  O13  1  0.38800000  0.02200000  0.80660000  1.0 -0.5823370144
O  O14  1  0.02200000  0.38800000  0.69340000  1.0 -0.5823370144
O  O15  1  0.61200000  0.97800000  0.19340000  1.0 -0.5823370144
O  O16  1  0.97800000  0.61200000  0.30660000  1.0 -0.5823370144
