# DDEC6 charges by PACMAN v1.1 (https://github.com/mtap-research/PACMAN-charge/)
data_OQETUC_ASR_pacman
_symmetry_space_group_name_H-M   'P 1'
_cell_length_a   8.31000000
_cell_length_b   22.61880000
_cell_length_c   22.61880000
_cell_angle_alpha   118.52200000
_cell_angle_beta   97.03440000
_cell_angle_gamma   97.03440000
_symmetry_Int_Tables_number   1
_chemical_formula_structural   V3H6C18N9Cl8O3
_chemical_formula_sum   'V6 H12 C36 N18 Cl16 O6'
_cell_volume   3626.68746398
_cell_formula_units_Z   2
loop_
 _symmetry_equiv_pos_site_id
 _symmetry_equiv_pos_as_xyz
  1  'x, y, z'
loop_
 _atom_site_type_symbol
 _atom_site_label
 _atom_site_symmetry_multiplicity
 _atom_site_fract_x
 _atom_site_fract_y
 _atom_site_fract_z
 _atom_site_occupancy
 _atom_site_charge
V  V1  1  0.80172000  0.60344000  0.30172000  1.0 1.1772269803
V  V2  1  0.19828000  0.69828000  0.39656000  1.0 1.2246406275
V  V3  1  0.50000000  0.69828000  0.30172000  1.0 1.2258468467
V  V4  1  0.19828000  0.39656000  0.69828000  1.0 1.1772269803
V  V5  1  0.80172000  0.30172000  0.60344000  1.0 1.2258468467
V  V6  1  0.50000000  0.30172000  0.69828000  1.0 1.2246406275
H  H1  1  0.75700000  0.52000000  0.12400000  1.0 0.1553524854
H  H2  1  0.23700000  0.60400000  0.48000000  1.0 0.1553524854
H  H3  1  0.63300000  0.87600000  0.39600000  1.0 0.1553524854
H  H4  1  0.76300000  0.52000000  0.39600000  1.0 0.1553524854
H  H5  1  0.36700000  0.60400000  0.12400000  1.0 0.1553524854
H  H6  1  0.24300000  0.87600000  0.48000000  1.0 0.1553524854
H  H7  1  0.24300000  0.48000000  0.87600000  1.0 0.1553524854
H  H8  1  0.76300000  0.39600000  0.52000000  1.0 0.1553524854
H  H9  1  0.36700000  0.12400000  0.60400000  1.0 0.1553524854
H  H10  1  0.23700000  0.48000000  0.60400000  1.0 0.1553524854
H  H11  1  0.63300000  0.39600000  0.87600000  1.0 0.1553524854
H  H12  1  0.75700000  0.12400000  0.52000000  1.0 0.1553524854
C  C1  1  0.00860000  0.57160000  0.17320000  1.0 0.1794504623
C  C2  1  0.89270000  0.53360000  0.11850000  1.0 -0.1876137097
C  C3  1  0.95260000  0.50950000  0.05830000  1.0 0.1794504623
C  C4  1  0.43700000  0.60160000  0.42840000  1.0 0.1707120883
C  C5  1  0.35910000  0.58490000  0.46640000  1.0 -0.1876137097
C  C6  1  0.44310000  0.54880000  0.49050000  1.0 0.1794504623
C  C7  1  0.83540000  0.82680000  0.39840000  1.0 0.1794504623
C  C8  1  0.77420000  0.88150000  0.41510000  1.0 -0.1876137097
C  C9  1  0.89430000  0.94170000  0.45120000  1.0 0.1794504623
C  C10  1  0.56300000  0.57160000  0.39840000  1.0 0.1794504623
C  C11  1  0.64090000  0.53360000  0.41510000  1.0 -0.1876137097
C  C12  1  0.55690000  0.50950000  0.45120000  1.0 0.1794504623
C  C13  1  0.16460000  0.60160000  0.17320000  1.0 0.1707120883
C  C14  1  0.22580000  0.58490000  0.11850000  1.0 -0.1876137097
C  C15  1  0.10570000  0.54880000  0.05830000  1.0 0.1794504623
C  C16  1  0.99140000  0.82680000  0.42840000  1.0 0.1794504623
C  C17  1  0.10730000  0.88150000  0.46640000  1.0 -0.1876137097
C  C18  1  0.04740000  0.94170000  0.49050000  1.0 0.1794504623
C  C19  1  0.99140000  0.42840000  0.82680000  1.0 0.1794504623
C  C20  1  0.10730000  0.46640000  0.88150000  1.0 -0.1876137097
C  C21  1  0.04740000  0.49050000  0.94170000  1.0 0.1794504623
C  C22  1  0.56300000  0.39840000  0.57160000  1.0 0.1707120883
C  C23  1  0.64090000  0.41510000  0.53360000  1.0 -0.1876137097
C  C24  1  0.55690000  0.45120000  0.50950000  1.0 0.1794504623
C  C25  1  0.16460000  0.17320000  0.60160000  1.0 0.1794504623
C  C26  1  0.22580000  0.11850000  0.58490000  1.0 -0.1876137097
C  C27  1  0.10570000  0.05830000  0.54880000  1.0 0.1794504623
C  C28  1  0.43700000  0.42840000  0.60160000  1.0 0.1794504623
C  C29  1  0.35910000  0.46640000  0.58490000  1.0 -0.1876137097
C  C30  1  0.44310000  0.49050000  0.54880000  1.0 0.1794504623
C  C31  1  0.83540000  0.39840000  0.82680000  1.0 0.1707120883
C  C32  1  0.77420000  0.41510000  0.88150000  1.0 -0.1876137097
C  C33  1  0.89430000  0.45120000  0.94170000  1.0 0.1794504623
C  C34  1  0.00860000  0.17320000  0.57160000  1.0 0.1794504623
C  C35  1  0.89270000  0.11850000  0.53360000  1.0 -0.1876137097
C  C36  1  0.95260000  0.05830000  0.50950000  1.0 0.1794504623
N  N1  1  0.98930000  0.60100000  0.24490000  1.0 -0.301950815
N  N2  1  0.38830000  0.64390000  0.39900000  1.0 -0.301950815
N  N3  1  0.74440000  0.75510000  0.35610000  1.0 -0.294819395
N  N4  1  0.61170000  0.60100000  0.35610000  1.0 -0.301950815
N  N5  1  0.25560000  0.64390000  0.24490000  1.0 -0.301950815
N  N6  1  0.01070000  0.75510000  0.39900000  1.0 -0.294819395
N  N7  1  0.01070000  0.39900000  0.75510000  1.0 -0.301950815
N  N8  1  0.61170000  0.35610000  0.60100000  1.0 -0.301950815
N  N9  1  0.25560000  0.24490000  0.64390000  1.0 -0.294819395
N  N10  1  0.38830000  0.39900000  0.64390000  1.0 -0.301950815
N  N11  1  0.74440000  0.35610000  0.75510000  1.0 -0.301950815
N  N12  1  0.98930000  0.24490000  0.60100000  1.0 -0.294819395
N  N13  1  0.14190000  0.64190000  0.28380000  1.0 -0.1303166302
N  N14  1  0.50000000  0.64190000  0.35810000  1.0 -0.1303166302
N  N15  1  0.85810000  0.71620000  0.35810000  1.0 -0.1303166302
N  N16  1  0.85810000  0.35810000  0.71620000  1.0 -0.1303166302
N  N17  1  0.50000000  0.35810000  0.64190000  1.0 -0.1303166302
N  N18  1  0.14190000  0.28380000  0.64190000  1.0 -0.1303166302
Cl  Cl1  1  0.74267000  0.48600000  0.24200000  1.0 -0.3480450851
Cl  Cl2  1  0.25667000  0.75600000  0.51400000  1.0 -0.3480450851
Cl  Cl3  1  0.50067000  0.75800000  0.24400000  1.0 -0.3480450851
Cl  Cl4  1  0.49933000  0.75600000  0.24200000  1.0 -0.3480450851
Cl  Cl5  1  0.25733000  0.75800000  0.51400000  1.0 -0.3480450851
Cl  Cl6  1  0.25733000  0.51400000  0.75800000  1.0 -0.3480450851
Cl  Cl7  1  0.74333000  0.24400000  0.48600000  1.0 -0.3480450851
Cl  Cl8  1  0.49933000  0.24200000  0.75600000  1.0 -0.3480450851
Cl  Cl9  1  0.50067000  0.24400000  0.75800000  1.0 -0.3480450851
Cl  Cl10  1  0.74267000  0.24200000  0.48600000  1.0 -0.3480450851
Cl  Cl11  1  0.60800000  0.60800000  0.21600000  1.0 -0.4368018759
Cl  Cl12  1  0.00000000  0.60800000  0.39200000  1.0 -0.4368018759
Cl  Cl13  1  0.39200000  0.78400000  0.39200000  1.0 -0.4293185872
Cl  Cl14  1  0.39200000  0.39200000  0.78400000  1.0 -0.4368018759
Cl  Cl15  1  0.00000000  0.39200000  0.60800000  1.0 -0.4368018759
Cl  Cl16  1  0.60800000  0.21600000  0.60800000  1.0 -0.4293185872
O  O1  1  0.84800000  0.47900000  0.00000000  1.0 -0.1128454012
O  O2  1  0.36900000  0.52100000  0.52100000  1.0 -0.1128454012
O  O3  1  0.84800000  0.00000000  0.47900000  1.0 -0.1128454012
O  O4  1  0.63100000  0.47900000  0.47900000  1.0 -0.1128454012
O  O5  1  0.15200000  0.52100000  0.00000000  1.0 -0.1128454012
O  O6  1  0.15200000  0.00000000  0.52100000  1.0 -0.1128454012
