# DDEC6 charges by PACMAN v1.1 (https://github.com/mtap-research/PACMAN-charge/)
data_OQIQUB01_ion_pacman
_symmetry_space_group_name_H-M   'P 1'
_cell_length_a   19.12990000
_cell_length_b   19.12990000
_cell_length_c   19.12990000
_cell_angle_alpha   105.85200000
_cell_angle_beta   105.85200000
_cell_angle_gamma   116.98100000
_symmetry_Int_Tables_number   1
_chemical_formula_structural   Cu3H76C72(N19O5)2
_chemical_formula_sum   'Cu6 H152 C144 N76 O20'
_cell_volume   5318.79725811
_cell_formula_units_Z   2
loop_
 _symmetry_equiv_pos_site_id
 _symmetry_equiv_pos_as_xyz
  1  'x, y, z'
loop_
 _atom_site_type_symbol
 _atom_site_label
 _atom_site_symmetry_multiplicity
 _atom_site_fract_x
 _atom_site_fract_y
 _atom_site_fract_z
 _atom_site_occupancy
 _atom_site_charge
Cu  Cu1  1  0.15834000  0.15834000  0.00000000  1.0 0.471465301
Cu  Cu2  1  0.84166000  0.84166000  0.00000000  1.0 0.471465301
Cu  Cu3  1  0.25815000  0.48215000  0.74030000  1.0 0.7134952957
Cu  Cu4  1  0.51785000  0.25815000  0.77600000  1.0 0.7134952957
Cu  Cu5  1  0.74185000  0.51785000  0.25970000  1.0 0.7134952957
Cu  Cu6  1  0.48215000  0.74185000  0.22400000  1.0 0.7134952957
H  H1  1  0.11170000  0.20560000  0.14750000  1.0 0.1187119289
H  H2  1  0.96420000  0.11170000  0.90610000  1.0 0.1187119289
H  H3  1  0.05810000  0.96420000  0.85250000  1.0 0.1187119289
H  H4  1  0.20560000  0.05810000  0.09390000  1.0 0.1187119289
H  H5  1  0.88830000  0.79440000  0.85250000  1.0 0.1187119289
H  H6  1  0.03580000  0.88830000  0.09390000  1.0 0.1187119289
H  H7  1  0.94190000  0.03580000  0.14750000  1.0 0.1187119289
H  H8  1  0.79440000  0.94190000  0.90610000  1.0 0.1187119289
H  H9  1  0.53200000  0.56750000  0.61790000  1.0 0.1187119289
H  H10  1  0.91410000  0.53200000  0.96450000  1.0 0.1187119289
H  H11  1  0.94960000  0.91410000  0.38210000  1.0 0.1187119289
H  H12  1  0.56750000  0.94960000  0.03550000  1.0 0.1187119289
H  H13  1  0.46800000  0.43250000  0.38210000  1.0 0.1187119289
H  H14  1  0.08590000  0.46800000  0.03550000  1.0 0.1187119289
H  H15  1  0.05040000  0.08590000  0.61790000  1.0 0.1187119289
H  H16  1  0.43250000  0.05040000  0.96450000  1.0 0.1187119289
H  H17  1  0.48700000  0.46510000  0.58430000  1.0 0.1187119289
H  H18  1  0.90270000  0.48700000  0.02190000  1.0 0.1187119289
H  H19  1  0.88080000  0.90270000  0.41570000  1.0 0.1187119289
H  H20  1  0.46510000  0.88080000  0.97810000  1.0 0.1187119289
H  H21  1  0.51300000  0.53490000  0.41570000  1.0 0.1187119289
H  H22  1  0.09730000  0.51300000  0.97810000  1.0 0.1187119289
H  H23  1  0.11920000  0.09730000  0.58430000  1.0 0.1187119289
H  H24  1  0.53490000  0.11920000  0.02190000  1.0 0.1187119289
H  H25  1  0.15780000  0.29070000  0.29910000  1.0 0.1284246022
H  H26  1  0.85870000  0.15780000  0.86710000  1.0 0.1284246022
H  H27  1  0.99160000  0.85870000  0.70090000  1.0 0.1284246022
H  H28  1  0.29070000  0.99160000  0.13290000  1.0 0.1284246022
H  H29  1  0.84220000  0.70930000  0.70090000  1.0 0.1284246022
H  H30  1  0.14130000  0.84220000  0.13290000  1.0 0.1284246022
H  H31  1  0.00840000  0.14130000  0.29910000  1.0 0.1284246022
H  H32  1  0.70930000  0.00840000  0.86710000  1.0 0.1284246022
H  H33  1  0.21110000  0.25740000  0.33910000  1.0 0.1187119289
H  H34  1  0.87200000  0.21110000  0.95370000  1.0 0.1187119289
H  H35  1  0.91830000  0.87200000  0.66090000  1.0 0.1187119289
H  H36  1  0.25740000  0.91830000  0.04630000  1.0 0.1187119289
H  H37  1  0.78890000  0.74260000  0.66090000  1.0 0.1187119289
H  H38  1  0.12800000  0.78890000  0.04630000  1.0 0.1187119289
H  H39  1  0.08170000  0.12800000  0.33910000  1.0 0.1187119289
H  H40  1  0.74260000  0.08170000  0.95370000  1.0 0.1187119289
H  H41  1  0.33980000  0.26530000  0.16470000  1.0 0.1187119289
H  H42  1  0.17510000  0.33980000  0.07450000  1.0 0.1187119289
H  H43  1  0.10060000  0.17510000  0.83530000  1.0 0.1187119289
H  H44  1  0.26530000  0.10060000  0.92550000  1.0 0.1187119289
H  H45  1  0.66020000  0.73470000  0.83530000  1.0 0.1187119289
H  H46  1  0.82490000  0.66020000  0.92550000  1.0 0.1187119289
H  H47  1  0.89940000  0.82490000  0.16470000  1.0 0.1187119289
H  H48  1  0.73470000  0.89940000  0.07450000  1.0 0.1187119289
H  H49  1  0.44510000  0.67290000  0.60400000  1.0 0.1284246022
H  H50  1  0.84110000  0.44510000  0.77220000  1.0 0.1284246022
H  H51  1  0.06890000  0.84110000  0.39600000  1.0 0.1284246022
H  H52  1  0.67290000  0.06890000  0.22780000  1.0 0.1284246022
H  H53  1  0.55490000  0.32710000  0.39600000  1.0 0.1284246022
H  H54  1  0.15890000  0.55490000  0.22780000  1.0 0.1284246022
H  H55  1  0.93110000  0.15890000  0.60400000  1.0 0.1284246022
H  H56  1  0.32710000  0.93110000  0.77220000  1.0 0.1284246022
H  H57  1  0.52300000  0.66120000  0.61940000  1.0 0.1398731636
H  H58  1  0.90360000  0.52300000  0.86180000  1.0 0.1398731636
H  H59  1  0.04180000  0.90360000  0.38060000  1.0 0.1398731636
H  H60  1  0.66120000  0.04180000  0.13820000  1.0 0.1398731636
H  H61  1  0.47700000  0.33880000  0.38060000  1.0 0.1398731636
H  H62  1  0.09640000  0.47700000  0.13820000  1.0 0.1398731636
H  H63  1  0.95820000  0.09640000  0.61940000  1.0 0.1398731636
H  H64  1  0.33880000  0.95820000  0.86180000  1.0 0.1398731636
H  H65  1  0.50220000  0.69780000  0.55840000  1.0 0.1398731636
H  H66  1  0.94380000  0.50220000  0.80440000  1.0 0.1398731636
H  H67  1  0.13940000  0.94380000  0.44160000  1.0 0.1398731636
H  H68  1  0.69780000  0.13940000  0.19560000  1.0 0.1398731636
H  H69  1  0.49780000  0.30220000  0.44160000  1.0 0.1398731636
H  H70  1  0.05620000  0.49780000  0.19560000  1.0 0.1398731636
H  H71  1  0.86060000  0.05620000  0.55840000  1.0 0.1398731636
H  H72  1  0.30220000  0.86060000  0.80440000  1.0 0.1398731636
H  H73  1  0.29840000  0.27620000  0.41640000  1.0 0.1398731636
H  H74  1  0.88200000  0.29840000  0.02220000  1.0 0.1398731636
H  H75  1  0.85980000  0.88200000  0.58360000  1.0 0.1398731636
H  H76  1  0.27620000  0.85980000  0.97780000  1.0 0.1398731636
H  H77  1  0.70160000  0.72380000  0.58360000  1.0 0.1398731636
H  H78  1  0.11800000  0.70160000  0.97780000  1.0 0.1398731636
H  H79  1  0.14020000  0.11800000  0.41640000  1.0 0.1398731636
H  H80  1  0.72380000  0.14020000  0.02220000  1.0 0.1398731636
H  H81  1  0.39720000  0.33930000  0.48490000  1.0 0.1398731636
H  H82  1  0.91230000  0.39720000  0.05790000  1.0 0.1398731636
H  H83  1  0.85440000  0.91230000  0.51510000  1.0 0.1398731636
H  H84  1  0.33930000  0.85440000  0.94210000  1.0 0.1398731636
H  H85  1  0.60280000  0.66070000  0.51510000  1.0 0.1398731636
H  H86  1  0.08770000  0.60280000  0.94210000  1.0 0.1398731636
H  H87  1  0.14560000  0.08770000  0.48490000  1.0 0.1398731636
H  H88  1  0.66070000  0.14560000  0.05790000  1.0 0.1398731636
H  H89  1  0.32080000  0.32430000  0.50810000  1.0 0.1398731636
H  H90  1  0.81270000  0.32080000  0.99650000  1.0 0.1398731636
H  H91  1  0.81620000  0.81270000  0.49190000  1.0 0.1398731636
H  H92  1  0.32430000  0.81620000  0.00350000  1.0 0.1398731636
H  H93  1  0.67920000  0.67570000  0.49190000  1.0 0.1398731636
H  H94  1  0.18730000  0.67920000  0.00350000  1.0 0.1398731636
H  H95  1  0.18380000  0.18730000  0.50810000  1.0 0.1398731636
H  H96  1  0.67570000  0.18380000  0.99650000  1.0 0.1398731636
H  H97  1  0.29850000  0.60860000  0.39430000  1.0 0.1187119289
H  H98  1  0.90420000  0.29850000  0.68990000  1.0 0.1187119289
H  H99  1  0.21430000  0.90420000  0.60570000  1.0 0.1187119289
H  H100  1  0.60860000  0.21430000  0.31010000  1.0 0.1187119289
H  H101  1  0.70150000  0.39140000  0.60570000  1.0 0.1187119289
H  H102  1  0.09580000  0.70150000  0.31010000  1.0 0.1187119289
H  H103  1  0.78570000  0.09580000  0.39430000  1.0 0.1187119289
H  H104  1  0.39140000  0.78570000  0.68990000  1.0 0.1187119289
H  H105  1  0.38560000  0.67540000  0.47820000  1.0 0.1187119289
H  H106  1  0.90740000  0.38560000  0.71020000  1.0 0.1187119289
H  H107  1  0.19720000  0.90740000  0.52180000  1.0 0.1187119289
H  H108  1  0.67540000  0.19720000  0.28980000  1.0 0.1187119289
H  H109  1  0.61440000  0.32460000  0.52180000  1.0 0.1187119289
H  H110  1  0.09260000  0.61440000  0.28980000  1.0 0.1187119289
H  H111  1  0.80280000  0.09260000  0.47820000  1.0 0.1187119289
H  H112  1  0.32460000  0.80280000  0.71020000  1.0 0.1187119289
H  H113  1  0.36300000  0.69210000  0.31250000  1.0 0.1284246022
H  H114  1  0.05050000  0.36300000  0.67090000  1.0 0.1284246022
H  H115  1  0.37960000  0.05050000  0.68750000  1.0 0.1284246022
H  H116  1  0.69210000  0.37960000  0.32910000  1.0 0.1284246022
H  H117  1  0.63700000  0.30790000  0.68750000  1.0 0.1284246022
H  H118  1  0.94950000  0.63700000  0.32910000  1.0 0.1284246022
H  H119  1  0.62040000  0.94950000  0.31250000  1.0 0.1284246022
H  H120  1  0.30790000  0.62040000  0.67090000  1.0 0.1284246022
H  H121  1  0.25520000  0.49310000  0.27790000  1.0 0.1284246022
H  H122  1  0.97730000  0.25520000  0.76210000  1.0 0.1284246022
H  H123  1  0.21520000  0.97730000  0.72210000  1.0 0.1284246022
H  H124  1  0.49310000  0.21520000  0.23790000  1.0 0.1284246022
H  H125  1  0.74480000  0.50690000  0.72210000  1.0 0.1284246022
H  H126  1  0.02270000  0.74480000  0.23790000  1.0 0.1284246022
H  H127  1  0.78480000  0.02270000  0.27790000  1.0 0.1284246022
H  H128  1  0.50690000  0.78480000  0.76210000  1.0 0.1284246022
H  H129  1  0.20810000  0.39100000  0.24730000  1.0 0.1187119289
H  H130  1  0.96080000  0.20810000  0.81710000  1.0 0.1187119289
H  H131  1  0.14370000  0.96080000  0.75270000  1.0 0.1187119289
H  H132  1  0.39100000  0.14370000  0.18290000  1.0 0.1187119289
H  H133  1  0.79190000  0.60900000  0.75270000  1.0 0.1187119289
H  H134  1  0.03920000  0.79190000  0.18290000  1.0 0.1187119289
H  H135  1  0.85630000  0.03920000  0.24730000  1.0 0.1187119289
H  H136  1  0.60900000  0.85630000  0.81710000  1.0 0.1187119289
H  H137  1  0.17520000  0.44040000  0.29340000  1.0 0.1530176217
H  H138  1  0.88180000  0.17520000  0.73480000  1.0 0.1530176217
H  H139  1  0.14700000  0.88180000  0.70660000  1.0 0.1530176217
H  H140  1  0.44040000  0.14700000  0.26520000  1.0 0.1530176217
H  H141  1  0.82480000  0.55960000  0.70660000  1.0 0.1530176217
H  H142  1  0.11820000  0.82480000  0.26520000  1.0 0.1530176217
H  H143  1  0.85300000  0.11820000  0.29340000  1.0 0.1530176217
H  H144  1  0.55960000  0.85300000  0.73480000  1.0 0.1530176217
H  H145  1  0.55020000  0.66880000  0.32740000  1.0 0.1187119289
H  H146  1  0.22280000  0.55020000  0.88140000  1.0 0.1187119289
H  H147  1  0.34140000  0.22280000  0.67260000  1.0 0.1187119289
H  H148  1  0.66880000  0.34140000  0.11860000  1.0 0.1187119289
H  H149  1  0.44980000  0.33120000  0.67260000  1.0 0.1187119289
H  H150  1  0.77720000  0.44980000  0.11860000  1.0 0.1187119289
H  H151  1  0.65860000  0.77720000  0.32740000  1.0 0.1187119289
H  H152  1  0.33120000  0.65860000  0.88140000  1.0 0.1187119289
C  C1  1  0.34611000  0.40667000  0.45560000  1.0 0.0804641832
C  C2  1  0.89051000  0.34611000  0.93944000  1.0 0.0804641832
C  C3  1  0.95107000  0.89051000  0.54440000  1.0 0.0804641832
C  C4  1  0.40667000  0.95107000  0.06056000  1.0 0.0804641832
C  C5  1  0.65389000  0.59333000  0.54440000  1.0 0.0804641832
C  C6  1  0.10949000  0.65389000  0.06056000  1.0 0.0804641832
C  C7  1  0.04893000  0.10949000  0.45560000  1.0 0.0804641832
C  C8  1  0.59333000  0.04893000  0.93944000  1.0 0.0804641832
C  C9  1  0.41076000  0.49419000  0.51833000  1.0 -0.0389179474
C  C10  1  0.89243000  0.41076000  0.91657000  1.0 -0.0389179474
C  C11  1  0.97586000  0.89243000  0.48167000  1.0 -0.0389179474
C  C12  1  0.49419000  0.97586000  0.08343000  1.0 -0.0389179474
C  C13  1  0.58924000  0.50581000  0.48167000  1.0 -0.0389179474
C  C14  1  0.10757000  0.58924000  0.08343000  1.0 -0.0389179474
C  C15  1  0.02414000  0.10757000  0.51833000  1.0 -0.0389179474
C  C16  1  0.50581000  0.02414000  0.91657000  1.0 -0.0389179474
C  C17  1  0.28568000  0.39154000  0.38326000  1.0 -0.0314759433
C  C18  1  0.90242000  0.28568000  0.89414000  1.0 -0.0314759433
C  C19  1  0.00828000  0.90242000  0.61674000  1.0 -0.0314759433
C  C20  1  0.39154000  0.00828000  0.10586000  1.0 -0.0314759433
C  C21  1  0.71432000  0.60846000  0.61674000  1.0 -0.0314759433
C  C22  1  0.09758000  0.71432000  0.10586000  1.0 -0.0314759433
C  C23  1  0.99172000  0.09758000  0.38326000  1.0 -0.0314759433
C  C24  1  0.60846000  0.99172000  0.89414000  1.0 -0.0314759433
C  C25  1  0.41450000  0.56529000  0.51035000  1.0 0.0737748707
C  C26  1  0.90415000  0.41450000  0.84921000  1.0 0.0737748707
C  C27  1  0.05494000  0.90415000  0.48965000  1.0 0.0737748707
C  C28  1  0.56529000  0.05494000  0.15079000  1.0 0.0737748707
C  C29  1  0.58550000  0.43471000  0.48965000  1.0 0.0737748707
C  C30  1  0.09585000  0.58550000  0.15079000  1.0 0.0737748707
C  C31  1  0.94506000  0.09585000  0.51035000  1.0 0.0737748707
C  C32  1  0.43471000  0.94506000  0.84921000  1.0 0.0737748707
C  C33  1  0.17149000  0.22813000  0.16764000  1.0 0.0804641832
C  C34  1  0.00385000  0.17149000  0.94336000  1.0 0.0804641832
C  C35  1  0.06049000  0.00385000  0.83236000  1.0 0.0804641832
C  C36  1  0.22813000  0.06049000  0.05664000  1.0 0.0804641832
C  C37  1  0.82851000  0.77187000  0.83236000  1.0 0.0804641832
C  C38  1  0.99615000  0.82851000  0.05664000  1.0 0.0804641832
C  C39  1  0.93951000  0.99615000  0.16764000  1.0 0.0804641832
C  C40  1  0.77187000  0.93951000  0.94336000  1.0 0.0804641832
C  C41  1  0.47631000  0.51090000  0.59567000  1.0 -0.1808644041
C  C42  1  0.88064000  0.47631000  0.96541000  1.0 -0.1808644041
C  C43  1  0.91523000  0.88064000  0.40433000  1.0 -0.1808644041
C  C44  1  0.51090000  0.91523000  0.03459000  1.0 -0.1808644041
C  C45  1  0.52369000  0.48910000  0.40433000  1.0 -0.1808644041
C  C46  1  0.11936000  0.52369000  0.03459000  1.0 -0.1808644041
C  C47  1  0.08477000  0.11936000  0.59567000  1.0 -0.1808644041
C  C48  1  0.48910000  0.08477000  0.96541000  1.0 -0.1808644041
C  C49  1  0.35415000  0.54919000  0.43632000  1.0 -0.0314759433
C  C50  1  0.91783000  0.35415000  0.80496000  1.0 -0.0314759433
C  C51  1  0.11287000  0.91783000  0.56368000  1.0 -0.0314759433
C  C52  1  0.54919000  0.11287000  0.19504000  1.0 -0.0314759433
C  C53  1  0.64585000  0.45081000  0.56368000  1.0 -0.0314759433
C  C54  1  0.08217000  0.64585000  0.19504000  1.0 -0.0314759433
C  C55  1  0.88713000  0.08217000  0.43632000  1.0 -0.0314759433
C  C56  1  0.45081000  0.88713000  0.80496000  1.0 -0.0314759433
C  C57  1  0.21440000  0.29804000  0.31678000  1.0 -0.1808644041
C  C58  1  0.89762000  0.21440000  0.91636000  1.0 -0.1808644041
C  C59  1  0.98126000  0.89762000  0.68322000  1.0 -0.1808644041
C  C60  1  0.29804000  0.98126000  0.08364000  1.0 -0.1808644041
C  C61  1  0.78560000  0.70196000  0.68322000  1.0 -0.1808644041
C  C62  1  0.10238000  0.78560000  0.08364000  1.0 -0.1808644041
C  C63  1  0.01874000  0.10238000  0.31678000  1.0 -0.1808644041
C  C64  1  0.70196000  0.01874000  0.91636000  1.0 -0.1808644041
C  C65  1  0.29563000  0.26127000  0.17846000  1.0 0.1284246022
C  C66  1  0.11717000  0.29563000  0.03436000  1.0 0.1284246022
C  C67  1  0.08281000  0.11717000  0.82154000  1.0 0.1284246022
C  C68  1  0.26127000  0.08281000  0.96564000  1.0 0.1284246022
C  C69  1  0.70437000  0.73873000  0.82154000  1.0 0.1284246022
C  C70  1  0.88283000  0.70437000  0.96564000  1.0 0.1284246022
C  C71  1  0.91719000  0.88283000  0.17846000  1.0 0.1284246022
C  C72  1  0.73873000  0.91719000  0.03436000  1.0 0.1284246022
C  C73  1  0.36427000  0.49287000  0.64940000  1.0 -0.0154335913
C  C74  1  0.71487000  0.36427000  0.87140000  1.0 -0.0154335913
C  C75  1  0.84347000  0.71487000  0.35060000  1.0 -0.0154335913
C  C76  1  0.49287000  0.84347000  0.12860000  1.0 -0.0154335913
C  C77  1  0.63573000  0.50713000  0.35060000  1.0 -0.0154335913
C  C78  1  0.28513000  0.63573000  0.12860000  1.0 -0.0154335913
C  C79  1  0.15653000  0.28513000  0.64940000  1.0 -0.0154335913
C  C80  1  0.50713000  0.15653000  0.87140000  1.0 -0.0154335913
C  C81  1  0.47676000  0.65756000  0.57920000  1.0 -0.4577741062
C  C82  1  0.89756000  0.47676000  0.81920000  1.0 -0.4577741062
C  C83  1  0.07836000  0.89756000  0.42080000  1.0 -0.4577741062
C  C84  1  0.65756000  0.07836000  0.18080000  1.0 -0.4577741062
C  C85  1  0.52324000  0.34244000  0.42080000  1.0 -0.4577741062
C  C86  1  0.10244000  0.52324000  0.18080000  1.0 -0.4577741062
C  C87  1  0.92164000  0.10244000  0.57920000  1.0 -0.4577741062
C  C88  1  0.34244000  0.92164000  0.81920000  1.0 -0.4577741062
C  C89  1  0.34009000  0.32962000  0.46729000  1.0 -0.4577741062
C  C90  1  0.87280000  0.34009000  0.01047000  1.0 -0.4577741062
C  C91  1  0.86233000  0.87280000  0.53271000  1.0 -0.4577741062
C  C92  1  0.32962000  0.86233000  0.98953000  1.0 -0.4577741062
C  C93  1  0.65991000  0.67038000  0.53271000  1.0 -0.4577741062
C  C94  1  0.12720000  0.65991000  0.98953000  1.0 -0.4577741062
C  C95  1  0.13767000  0.12720000  0.46729000  1.0 -0.4577741062
C  C96  1  0.67038000  0.13767000  0.01047000  1.0 -0.4577741062
C  C97  1  0.29146000  0.46372000  0.37338000  1.0 0.0804641832
C  C98  1  0.91808000  0.29146000  0.82774000  1.0 0.0804641832
C  C99  1  0.09034000  0.91808000  0.62662000  1.0 0.0804641832
C  C100  1  0.46372000  0.09034000  0.17226000  1.0 0.0804641832
C  C101  1  0.70854000  0.53628000  0.62662000  1.0 0.0804641832
C  C102  1  0.08192000  0.70854000  0.17226000  1.0 0.0804641832
C  C103  1  0.90966000  0.08192000  0.37338000  1.0 0.0804641832
C  C104  1  0.53628000  0.90966000  0.82774000  1.0 0.0804641832
C  C105  1  0.35789000  0.62542000  0.42527000  1.0 -0.1808644041
C  C106  1  0.93262000  0.35789000  0.73247000  1.0 -0.1808644041
C  C107  1  0.20015000  0.93262000  0.57473000  1.0 -0.1808644041
C  C108  1  0.62542000  0.20015000  0.26753000  1.0 -0.1808644041
C  C109  1  0.64211000  0.37458000  0.57473000  1.0 -0.1808644041
C  C110  1  0.06738000  0.64211000  0.26753000  1.0 -0.1808644041
C  C111  1  0.79985000  0.06738000  0.42527000  1.0 -0.1808644041
C  C112  1  0.37458000  0.79985000  0.73247000  1.0 -0.1808644041
C  C113  1  0.40697000  0.68288000  0.32993000  1.0 0.1064849386
C  C114  1  0.07704000  0.40697000  0.72409000  1.0 0.1064849386
C  C115  1  0.35295000  0.07704000  0.67007000  1.0 0.1064849386
C  C116  1  0.68288000  0.35295000  0.27591000  1.0 0.1064849386
C  C117  1  0.59303000  0.31712000  0.67007000  1.0 0.1064849386
C  C118  1  0.92296000  0.59303000  0.27591000  1.0 0.1064849386
C  C119  1  0.64705000  0.92296000  0.32993000  1.0 0.1064849386
C  C120  1  0.31712000  0.64705000  0.72409000  1.0 0.1064849386
C  C121  1  0.22622000  0.44528000  0.28998000  1.0 -0.4540051443
C  C122  1  0.93624000  0.22622000  0.78094000  1.0 -0.4540051443
C  C123  1  0.15530000  0.93624000  0.71002000  1.0 -0.4540051443
C  C124  1  0.44528000  0.15530000  0.21906000  1.0 -0.4540051443
C  C125  1  0.77378000  0.55472000  0.71002000  1.0 -0.4540051443
C  C126  1  0.06376000  0.77378000  0.21906000  1.0 -0.4540051443
C  C127  1  0.84470000  0.06376000  0.28998000  1.0 -0.4540051443
C  C128  1  0.55472000  0.84470000  0.78094000  1.0 -0.4540051443
C  C129  1  0.43652000  0.52075000  0.76649000  1.0 0.2172106619
C  C130  1  0.67003000  0.43652000  0.91577000  1.0 0.2172106619
C  C131  1  0.75426000  0.67003000  0.23351000  1.0 0.2172106619
C  C132  1  0.52075000  0.75426000  0.08423000  1.0 0.2172106619
C  C133  1  0.56348000  0.47925000  0.23351000  1.0 0.2172106619
C  C134  1  0.32997000  0.56348000  0.08423000  1.0 0.2172106619
C  C135  1  0.24574000  0.32997000  0.76649000  1.0 0.2172106619
C  C136  1  0.47925000  0.24574000  0.91577000  1.0 0.2172106619
C  C137  1  0.50584000  0.66953000  0.33811000  1.0 0.1187119289
C  C138  1  0.16773000  0.50584000  0.83631000  1.0 0.1187119289
C  C139  1  0.33142000  0.16773000  0.66189000  1.0 0.1187119289
C  C140  1  0.66953000  0.33142000  0.16369000  1.0 0.1187119289
C  C141  1  0.49416000  0.33047000  0.66189000  1.0 0.1187119289
C  C142  1  0.83227000  0.49416000  0.16369000  1.0 0.1187119289
C  C143  1  0.66858000  0.83227000  0.33811000  1.0 0.1187119289
C  C144  1  0.33047000  0.66858000  0.83631000  1.0 0.1187119289
N  N1  1  0.21108000  0.21782000  0.12170000  1.0 -0.3112035876
N  N2  1  0.08938000  0.21108000  0.99326000  1.0 -0.3112035876
N  N3  1  0.09612000  0.08938000  0.87830000  1.0 -0.3112035876
N  N4  1  0.21782000  0.09612000  0.00674000  1.0 -0.3112035876
N  N5  1  0.78892000  0.78218000  0.87830000  1.0 -0.3112035876
N  N6  1  0.91062000  0.78892000  0.00674000  1.0 -0.3112035876
N  N7  1  0.90388000  0.91062000  0.12170000  1.0 -0.3112035876
N  N8  1  0.78218000  0.90388000  0.99326000  1.0 -0.3112035876
N  N9  1  0.22981000  0.27495000  0.24552000  1.0 0.1767932886
N  N10  1  0.98429000  0.22981000  0.95486000  1.0 0.1767932886
N  N11  1  0.02943000  0.98429000  0.75448000  1.0 0.1767932886
N  N12  1  0.27495000  0.02943000  0.04514000  1.0 0.1767932886
N  N13  1  0.77019000  0.72505000  0.75448000  1.0 0.1767932886
N  N14  1  0.01571000  0.77019000  0.04514000  1.0 0.1767932886
N  N15  1  0.97057000  0.01571000  0.24552000  1.0 0.1767932886
N  N16  1  0.72505000  0.97057000  0.95486000  1.0 0.1767932886
N  N17  1  0.44152000  0.51144000  0.65662000  1.0 0.1723457391
N  N18  1  0.78490000  0.44152000  0.93008000  1.0 0.1723457391
N  N19  1  0.85482000  0.78490000  0.34338000  1.0 0.1723457391
N  N20  1  0.51144000  0.85482000  0.06992000  1.0 0.1723457391
N  N21  1  0.55848000  0.48856000  0.34338000  1.0 0.1723457391
N  N22  1  0.21510000  0.55848000  0.06992000  1.0 0.1723457391
N  N23  1  0.14518000  0.21510000  0.65662000  1.0 0.1723457391
N  N24  1  0.48856000  0.14518000  0.93008000  1.0 0.1723457391
N  N25  1  0.31103000  0.29771000  0.25506000  1.0 -0.2361147886
N  N26  1  0.05597000  0.31103000  0.01332000  1.0 -0.2361147886
N  N27  1  0.04265000  0.05597000  0.74494000  1.0 -0.2361147886
N  N28  1  0.29771000  0.04265000  0.98668000  1.0 -0.2361147886
N  N29  1  0.68897000  0.70229000  0.74494000  1.0 -0.2361147886
N  N30  1  0.94403000  0.68897000  0.98668000  1.0 -0.2361147886
N  N31  1  0.95735000  0.94403000  0.25506000  1.0 -0.2361147886
N  N32  1  0.70229000  0.95735000  0.01332000  1.0 -0.2361147886
N  N33  1  0.35918000  0.49984000  0.71652000  1.0 -0.2844836598
N  N34  1  0.64266000  0.35918000  0.85934000  1.0 -0.2844836598
N  N35  1  0.78332000  0.64266000  0.28348000  1.0 -0.2844836598
N  N36  1  0.49984000  0.78332000  0.14066000  1.0 -0.2844836598
N  N37  1  0.64082000  0.50016000  0.28348000  1.0 -0.2844836598
N  N38  1  0.35734000  0.64082000  0.14066000  1.0 -0.2844836598
N  N39  1  0.21668000  0.35734000  0.71652000  1.0 -0.2844836598
N  N40  1  0.50016000  0.21668000  0.85934000  1.0 -0.2844836598
N  N41  1  0.41205000  0.65087000  0.37888000  1.0 0.1563164781
N  N42  1  0.03317000  0.41205000  0.76118000  1.0 0.1563164781
N  N43  1  0.27199000  0.03317000  0.62112000  1.0 0.1563164781
N  N44  1  0.65087000  0.27199000  0.23882000  1.0 0.1563164781
N  N45  1  0.58795000  0.34913000  0.62112000  1.0 0.1563164781
N  N46  1  0.96683000  0.58795000  0.23882000  1.0 0.1563164781
N  N47  1  0.72801000  0.96683000  0.37888000  1.0 0.1563164781
N  N48  1  0.34913000  0.72801000  0.76118000  1.0 0.1563164781
N  N49  1  0.48894000  0.52985000  0.73167000  1.0 -0.267527066
N  N50  1  0.75727000  0.48894000  0.95909000  1.0 -0.267527066
N  N51  1  0.79818000  0.75727000  0.26833000  1.0 -0.267527066
N  N52  1  0.52985000  0.79818000  0.04091000  1.0 -0.267527066
N  N53  1  0.51106000  0.47015000  0.26833000  1.0 -0.267527066
N  N54  1  0.24273000  0.51106000  0.04091000  1.0 -0.267527066
N  N55  1  0.20182000  0.24273000  0.73167000  1.0 -0.267527066
N  N56  1  0.47015000  0.20182000  0.95909000  1.0 -0.267527066
N  N57  1  0.47842000  0.63863000  0.38645000  1.0 -0.2245780712
N  N58  1  0.09197000  0.47842000  0.83979000  1.0 -0.2245780712
N  N59  1  0.25218000  0.09197000  0.61355000  1.0 -0.2245780712
N  N60  1  0.63863000  0.25218000  0.16021000  1.0 -0.2245780712
N  N61  1  0.52158000  0.36137000  0.61355000  1.0 -0.2245780712
N  N62  1  0.90803000  0.52158000  0.16021000  1.0 -0.2245780712
N  N63  1  0.74782000  0.90803000  0.38645000  1.0 -0.2245780712
N  N64  1  0.36137000  0.74782000  0.83979000  1.0 -0.2245780712
N  N65  1  0.46430000  0.70128000  0.30642000  1.0 -0.267527066
N  N66  1  0.15788000  0.46430000  0.76302000  1.0 -0.267527066
N  N67  1  0.39486000  0.15788000  0.69358000  1.0 -0.267527066
N  N68  1  0.70128000  0.39486000  0.23698000  1.0 -0.267527066
N  N69  1  0.53570000  0.29872000  0.69358000  1.0 -0.267527066
N  N70  1  0.84212000  0.53570000  0.23698000  1.0 -0.267527066
N  N71  1  0.60514000  0.84212000  0.30642000  1.0 -0.267527066
N  N72  1  0.29872000  0.60514000  0.76302000  1.0 -0.267527066
N  N73  1  0.05923000  0.82046000  0.87969000  1.0 0.6470905061
N  N74  1  0.82046000  0.94077000  0.76123000  1.0 0.6470905061
N  N75  1  0.94077000  0.17954000  0.12031000  1.0 0.6470905061
N  N76  1  0.17954000  0.05923000  0.23877000  1.0 0.6470905061
O  O1  1  0.35053000  0.53516000  0.88569000  1.0 -0.3984296133
O  O2  1  0.46484000  0.35053000  0.81537000  1.0 -0.3984296133
O  O3  1  0.64947000  0.46484000  0.11431000  1.0 -0.3984296133
O  O4  1  0.53516000  0.64947000  0.18463000  1.0 -0.3984296133
O  O5  1  0.16434000  0.43010000  0.59444000  1.0 -0.4405479392
O  O6  1  0.56990000  0.16434000  0.73424000  1.0 -0.4405479392
O  O7  1  0.83566000  0.56990000  0.40556000  1.0 -0.4405479392
O  O8  1  0.43010000  0.83566000  0.26576000  1.0 -0.4405479392
O  O9  1  0.05631000  0.87460000  0.93091000  1.0 -0.4206322168
O  O10  1  0.10365000  0.79580000  0.89945000  1.0 -0.3657418971
O  O11  1  0.01122000  0.79967000  0.81089000  1.0 -0.3810868522
O  O12  1  0.87460000  0.94369000  0.81829000  1.0 -0.4206322168
O  O13  1  0.79580000  0.89635000  0.69215000  1.0 -0.3657418971
O  O14  1  0.79967000  0.98878000  0.78845000  1.0 -0.3810868522
O  O15  1  0.94369000  0.12540000  0.06909000  1.0 -0.4206322168
O  O16  1  0.89635000  0.20420000  0.10055000  1.0 -0.3657418971
O  O17  1  0.98878000  0.20033000  0.18911000  1.0 -0.3810868522
O  O18  1  0.12540000  0.05631000  0.18171000  1.0 -0.4206322168
O  O19  1  0.20420000  0.10365000  0.30785000  1.0 -0.3657418971
O  O20  1  0.20033000  0.01122000  0.21155000  1.0 -0.3810868522
