# DDEC6 charges by PACMAN v1.1 (https://github.com/mtap-research/PACMAN-charge/)
data_OQOBUT_FSR_pacman
_symmetry_space_group_name_H-M   'P 1'
_cell_length_a   15.98360000
_cell_length_b   15.98360000
_cell_length_c   15.98360000
_cell_angle_alpha   96.46940000
_cell_angle_beta   96.46940000
_cell_angle_gamma   140.77400000
_symmetry_Int_Tables_number   1
_chemical_formula_structural   AlC8O5
_chemical_formula_sum   'Al8 C64 O40'
_cell_volume   2432.45140107
_cell_formula_units_Z   8
loop_
 _symmetry_equiv_pos_site_id
 _symmetry_equiv_pos_as_xyz
  1  'x, y, z'
loop_
 _atom_site_type_symbol
 _atom_site_label
 _atom_site_symmetry_multiplicity
 _atom_site_fract_x
 _atom_site_fract_y
 _atom_site_fract_z
 _atom_site_occupancy
 _atom_site_charge
Al  Al1  1  0.49970000  0.55810000  0.56920000  1.0 1.6116763215
Al  Al2  1  0.98890000  0.93050000  0.43080000  1.0 1.6116763215
Al  Al3  1  0.18050000  0.24970000  0.44160000  1.0 1.6116763215
Al  Al4  1  0.80810000  0.73890000  0.55840000  1.0 1.6116763215
Al  Al5  1  0.98900000  0.56310000  0.06550000  1.0 1.5803748231
Al  Al6  1  0.49760000  0.92350000  0.93450000  1.0 1.5803748231
Al  Al7  1  0.17350000  0.73900000  0.92590000  1.0 1.5803748231
Al  Al8  1  0.81310000  0.24760000  0.07410000  1.0 1.5803748231
C  C1  1  0.31500000  0.59100000  0.38880000  1.0 -0.1255912435
C  C2  1  0.20220000  0.92620000  0.61120000  1.0 -0.1255912435
C  C3  1  0.17620000  0.06500000  0.22400000  1.0 -0.1255912435
C  C4  1  0.84100000  0.95220000  0.77600000  1.0 -0.1255912435
C  C5  1  0.28480000  0.72020000  0.31440000  1.0 0.0717701268
C  C6  1  0.40580000  0.97040000  0.68560000  1.0 0.0717701268
C  C7  1  0.22040000  0.03480000  0.06460000  1.0 0.0717701268
C  C8  1  0.97020000  0.15580000  0.93540000  1.0 0.0717701268
C  C9  1  0.32910000  0.52440000  0.43290000  1.0 0.6423822007
C  C10  1  0.09150000  0.89620000  0.56710000  1.0 0.6423822007
C  C11  1  0.14620000  0.07910000  0.30470000  1.0 0.6423822007
C  C12  1  0.77440000  0.84150000  0.69530000  1.0 0.6423822007
C  C13  1  0.41090000  0.73410000  0.42800000  1.0 0.0487568171
C  C14  1  0.30610000  0.98290000  0.57200000  1.0 0.0487568171
C  C15  1  0.23290000  0.16090000  0.17680000  1.0 0.0487568171
C  C16  1  0.98410000  0.05610000  0.82320000  1.0 0.0487568171
C  C17  1  0.20380000  0.51300000  0.31080000  1.0 0.0756932136
C  C18  1  0.20220000  0.89300000  0.68920000  1.0 0.0717701268
C  C19  1  0.14300000  0.95380000  0.19080000  1.0 0.0756932136
C  C20  1  0.76300000  0.95220000  0.80920000  1.0 0.0756932136
C  C21  1  0.06570000  0.49520000  0.19570000  1.0 0.6423822007
C  C22  1  0.29950000  0.87000000  0.80430000  1.0 0.6423822007
C  C23  1  0.12000000  0.81570000  0.07050000  1.0 0.6423822007
C  C24  1  0.74520000  0.04950000  0.92950000  1.0 0.6423822007
C  C25  1  0.18720000  0.57690000  0.27370000  1.0 -0.1381987434
C  C26  1  0.30320000  0.91350000  0.72630000  1.0 -0.1381987434
C  C27  1  0.16350000  0.93720000  0.11030000  1.0 -0.1381987434
C  C28  1  0.82690000  0.05320000  0.88970000  1.0 -0.1381987434
C  C29  1  0.39580000  0.79790000  0.39070000  1.0 0.0077345948
C  C30  1  0.40720000  0.00510000  0.60930000  1.0 0.0077345948
C  C31  1  0.25510000  0.14580000  0.09790000  1.0 0.0077345948
C  C32  1  0.04790000  0.15720000  0.90210000  1.0 0.0077345948
C  C33  1  0.76290000  0.47390000  0.82660000  1.0 -0.1381987434
C  C34  1  0.64730000  0.93630000  0.17340000  1.0 -0.1381987434
C  C35  1  0.18630000  0.51290000  0.78900000  1.0 -0.1381987434
C  C36  1  0.72390000  0.39730000  0.21100000  1.0 -0.1381987434
C  C37  1  0.51590000  0.34370000  0.71820000  1.0 0.0487568171
C  C38  1  0.62550000  0.79770000  0.28180000  1.0 0.0487568171
C  C39  1  0.04770000  0.26590000  0.67220000  1.0 0.0487568171
C  C40  1  0.59370000  0.37550000  0.32780000  1.0 0.0487568171
C  C41  1  0.89200000  0.55080000  0.89160000  1.0 0.6231639248
C  C42  1  0.65920000  0.00040000  0.10840000  1.0 0.6231639248
C  C43  1  0.25040000  0.64200000  0.84120000  1.0 0.6231639248
C  C44  1  0.80080000  0.40920000  0.15880000  1.0 0.6231639248
C  C45  1  0.63270000  0.35230000  0.83600000  1.0 0.0339150021
C  C46  1  0.51630000  0.79670000  0.16400000  1.0 0.0339150021
C  C47  1  0.04670000  0.38270000  0.78040000  1.0 0.0339150021
C  C48  1  0.60230000  0.26630000  0.21960000  1.0 0.0339150021
C  C49  1  0.76840000  0.52790000  0.76090000  1.0 0.0583867992
C  C50  1  0.76700000  0.00750000  0.23910000  1.0 0.0583867992
C  C51  1  0.25750000  0.51840000  0.74050000  1.0 0.0583867992
C  C52  1  0.77790000  0.51700000  0.25950000  1.0 0.0583867992
C  C53  1  0.65180000  0.53300000  0.64920000  1.0 0.6423822007
C  C54  1  0.88380000  0.00260000  0.35080000  1.0 0.6423822007
C  C55  1  0.25260000  0.40180000  0.61880000  1.0 0.6423822007
C  C56  1  0.78300000  0.63380000  0.38120000  1.0 0.6423822007
C  C57  1  0.64550000  0.46520000  0.70810000  1.0 -0.1195032288
C  C58  1  0.75710000  0.93740000  0.29190000  1.0 -0.1195032288
C  C59  1  0.18740000  0.39550000  0.68030000  1.0 -0.1195032288
C  C60  1  0.71520000  0.50710000  0.31970000  1.0 -0.1195032288
C  C61  1  0.50990000  0.28750000  0.78180000  1.0 -0.0283295985
C  C62  1  0.50570000  0.72810000  0.21820000  1.0 -0.0283295985
C  C63  1  0.97810000  0.25990000  0.72240000  1.0 -0.0283295985
C  C64  1  0.53750000  0.25570000  0.27760000  1.0 -0.0283295985
O  O1  1  0.62920000  0.63990000  0.50810000  1.0 -0.7225966392
O  O2  1  0.13180000  0.12110000  0.49190000  1.0 -0.7225966392
O  O3  1  0.37110000  0.37920000  0.48930000  1.0 -0.7252007264
O  O4  1  0.88990000  0.88180000  0.51070000  1.0 -0.7225966392
O  O5  1  0.42750000  0.59080000  0.50030000  1.0 -0.5102540541
O  O6  1  0.09050000  0.92720000  0.49970000  1.0 -0.5102540541
O  O7  1  0.17720000  0.17750000  0.33670000  1.0 -0.5102540541
O  O8  1  0.84080000  0.84050000  0.66330000  1.0 -0.5102540541
O  O9  1  0.08520000  0.57950000  0.16490000  1.0 -0.5400776256
O  O10  1  0.41460000  0.92030000  0.83510000  1.0 -0.5400776256
O  O11  1  0.17030000  0.83520000  0.00570000  1.0 -0.5400776256
O  O12  1  0.82950000  0.16460000  0.99430000  1.0 -0.5400776256
O  O13  1  0.99980000  0.38140000  0.15140000  1.0 -0.4927653063
O  O14  1  0.23000000  0.84840000  0.84860000  1.0 -0.4927653063
O  O15  1  0.09840000  0.74980000  0.11840000  1.0 -0.4927653063
O  O16  1  0.63140000  0.98000000  0.88160000  1.0 -0.4927653063
O  O17  1  0.23620000  0.39300000  0.39780000  1.0 -0.5179645557
O  O18  1  0.99520000  0.83840000  0.60220000  1.0 -0.5179645557
O  O19  1  0.08840000  0.98620000  0.34320000  1.0 -0.5179645557
O  O20  1  0.64300000  0.74520000  0.65680000  1.0 -0.5179645557
O  O21  1  0.89250000  0.54590000  0.96840000  1.0 -0.5179645557
O  O22  1  0.57750000  0.92410000  0.03160000  1.0 -0.5179645557
O  O23  1  0.17410000  0.64250000  0.84660000  1.0 -0.5179645557
O  O24  1  0.79590000  0.32750000  0.15340000  1.0 -0.5179645557
O  O25  1  0.56430000  0.52040000  0.64210000  1.0 -0.5102540541
O  O26  1  0.87830000  0.92220000  0.35790000  1.0 -0.5102540541
O  O27  1  0.17220000  0.31430000  0.54390000  1.0 -0.5102540541
O  O28  1  0.77040000  0.62830000  0.45610000  1.0 -0.5102540541
O  O29  1  0.74640000  0.60570000  0.61310000  1.0 -0.5400776256
O  O30  1  0.99260000  0.13330000  0.38690000  1.0 -0.5400776256
O  O31  1  0.38330000  0.49640000  0.64070000  1.0 -0.5400776256
O  O32  1  0.85570000  0.74260000  0.35930000  1.0 -0.5400776256
O  O33  1  0.97950000  0.60260000  0.85350000  1.0 -0.5031984586
O  O34  1  0.74910000  0.12600000  0.14650000  1.0 -0.5031984586
O  O35  1  0.37600000  0.72950000  0.87690000  1.0 -0.5031984586
O  O36  1  0.85260000  0.49910000  0.12310000  1.0 -0.5031984586
O  O37  1  0.12040000  0.63320000  0.00400000  1.0 -0.6807688165
O  O38  1  0.62920000  0.11640000  0.99600000  1.0 -0.6807688165
O  O39  1  0.36640000  0.87040000  0.98720000  1.0 -0.6807688165
O  O40  1  0.88320000  0.37920000  0.01280000  1.0 -0.6807688165
