# DDEC6 charges by PACMAN v1.1 (https://github.com/mtap-research/PACMAN-charge/)
data_OQOJUB_FSR_pacman
_symmetry_space_group_name_H-M   'P 1'
_cell_length_a   8.31040000
_cell_length_b   12.45460000
_cell_length_c   33.58520000
_cell_angle_alpha   90.00000000
_cell_angle_beta   90.00000000
_cell_angle_gamma   90.00000000
_symmetry_Int_Tables_number   1
_chemical_formula_structural   LiH49(C15O4)2
_chemical_formula_sum   'Li4 H196 C120 O32'
_cell_volume   3476.15914335
_cell_formula_units_Z   4
loop_
 _symmetry_equiv_pos_site_id
 _symmetry_equiv_pos_as_xyz
  1  'x, y, z'
loop_
 _atom_site_type_symbol
 _atom_site_label
 _atom_site_symmetry_multiplicity
 _atom_site_fract_x
 _atom_site_fract_y
 _atom_site_fract_z
 _atom_site_occupancy
 _atom_site_charge
Li  Li1  1  0.00980000  0.82870000  0.03130000  1.0 0.7835812485
Li  Li2  1  0.49020000  0.17130000  0.53130000  1.0 0.7835812485
Li  Li3  1  0.99020000  0.32870000  0.46870000  1.0 0.7835812485
Li  Li4  1  0.50980000  0.67130000  0.96870000  1.0 0.7835812485
H  H1  1  0.31570000  0.52070000  0.20340000  1.0 0.0792589774
H  H2  1  0.18430000  0.47930000  0.70340000  1.0 0.0792589774
H  H3  1  0.68430000  0.02070000  0.29660000  1.0 0.0792589774
H  H4  1  0.81570000  0.97930000  0.79660000  1.0 0.0792589774
H  H5  1  0.44500000  0.43090000  0.15500000  1.0 0.0915329019
H  H6  1  0.05500000  0.56910000  0.65500000  1.0 0.0915329019
H  H7  1  0.55500000  0.93090000  0.34500000  1.0 0.0915329019
H  H8  1  0.94500000  0.06910000  0.84500000  1.0 0.0915329019
H  H9  1  0.50570000  0.53820000  0.13300000  1.0 0.1094314777
H  H10  1  0.99430000  0.46180000  0.63300000  1.0 0.1094314777
H  H11  1  0.49430000  0.03820000  0.36700000  1.0 0.1094314777
H  H12  1  0.00570000  0.96180000  0.86700000  1.0 0.1094314777
H  H13  1  0.68220000  0.42250000  0.18690000  1.0 0.1005851114
H  H14  1  0.81780000  0.57750000  0.68690000  1.0 0.1005851114
H  H15  1  0.31780000  0.92250000  0.31310000  1.0 0.1005851114
H  H16  1  0.18220000  0.07750000  0.81310000  1.0 0.1005851114
H  H17  1  0.73590000  0.53620000  0.16810000  1.0 0.1094314777
H  H18  1  0.76410000  0.46380000  0.66810000  1.0 0.1094314777
H  H19  1  0.26410000  0.03620000  0.33190000  1.0 0.1094314777
H  H20  1  0.23590000  0.96380000  0.83190000  1.0 0.1094314777
H  H21  1  0.55050000  0.49960000  0.23830000  1.0 0.0792589774
H  H22  1  0.94950000  0.50040000  0.73830000  1.0 0.0792589774
H  H23  1  0.44950000  0.99960000  0.26170000  1.0 0.0792589774
H  H24  1  0.05050000  0.00040000  0.76170000  1.0 0.0792589774
H  H25  1  0.81090000  0.64750000  0.23280000  1.0 0.0792589774
H  H26  1  0.68910000  0.35250000  0.73280000  1.0 0.0792589774
H  H27  1  0.18910000  0.14750000  0.26720000  1.0 0.0792589774
H  H28  1  0.31090000  0.85250000  0.76720000  1.0 0.0792589774
H  H29  1  0.80040000  0.43780000  0.26840000  1.0 0.1005851114
H  H30  1  0.69960000  0.56220000  0.76840000  1.0 0.1005851114
H  H31  1  0.19960000  0.93780000  0.23160000  1.0 0.1005851114
H  H32  1  0.30040000  0.06220000  0.73160000  1.0 0.1005851114
H  H33  1  0.91440000  0.47280000  0.23230000  1.0 0.1005851114
H  H34  1  0.58560000  0.52720000  0.73230000  1.0 0.1005851114
H  H35  1  0.08560000  0.97280000  0.26770000  1.0 0.1005851114
H  H36  1  0.41440000  0.02720000  0.76770000  1.0 0.1005851114
H  H37  1  0.07110000  0.57910000  0.27380000  1.0 0.1005851114
H  H38  1  0.42890000  0.42090000  0.77380000  1.0 0.1005851114
H  H39  1  0.92890000  0.07910000  0.22620000  1.0 0.1005851114
H  H40  1  0.57110000  0.92090000  0.72620000  1.0 0.1005851114
H  H41  1  0.05660000  0.46340000  0.29420000  1.0 0.1005851114
H  H42  1  0.44340000  0.53660000  0.79420000  1.0 0.1005851114
H  H43  1  0.94340000  0.96340000  0.20580000  1.0 0.1005851114
H  H44  1  0.55660000  0.03660000  0.70580000  1.0 0.1005851114
H  H45  1  0.02220000  0.60940000  0.34000000  1.0 0.0792589774
H  H46  1  0.47780000  0.39060000  0.84000000  1.0 0.0792589774
H  H47  1  0.97780000  0.10940000  0.16000000  1.0 0.0792589774
H  H48  1  0.52220000  0.89060000  0.66000000  1.0 0.0792589774
H  H49  1  0.75600000  0.46440000  0.33600000  1.0 0.1179833412
H  H50  1  0.74400000  0.53560000  0.83600000  1.0 0.1179833412
H  H51  1  0.24400000  0.96440000  0.16400000  1.0 0.1179833412
H  H52  1  0.25600000  0.03560000  0.66400000  1.0 0.1179833412
H  H53  1  0.92200000  0.44180000  0.35850000  1.0 0.1094314777
H  H54  1  0.57800000  0.55820000  0.85850000  1.0 0.1094314777
H  H55  1  0.07800000  0.94180000  0.14150000  1.0 0.1094314777
H  H56  1  0.42200000  0.05820000  0.64150000  1.0 0.1094314777
H  H57  1  0.86510000  0.57530000  0.40580000  1.0 0.0693317382
H  H58  1  0.63490000  0.42470000  0.90580000  1.0 0.0693317382
H  H59  1  0.13490000  0.07530000  0.09420000  1.0 0.0693317382
H  H60  1  0.36510000  0.92470000  0.59420000  1.0 0.0693317382
H  H61  1  0.62150000  0.67210000  0.40430000  1.0 0.1094314777
H  H62  1  0.87850000  0.32790000  0.90430000  1.0 0.1094314777
H  H63  1  0.37850000  0.17210000  0.09570000  1.0 0.1094314777
H  H64  1  0.12150000  0.82790000  0.59570000  1.0 0.1094314777
H  H65  1  0.56700000  0.61130000  0.36440000  1.0 0.1094314777
H  H66  1  0.93300000  0.38870000  0.86440000  1.0 0.1094314777
H  H67  1  0.43300000  0.11130000  0.13560000  1.0 0.1094314777
H  H68  1  0.06700000  0.88870000  0.63560000  1.0 0.1094314777
H  H69  1  0.84130000  0.75040000  0.37050000  1.0 0.1005851114
H  H70  1  0.65870000  0.24960000  0.87050000  1.0 0.1005851114
H  H71  1  0.15870000  0.25040000  0.12950000  1.0 0.1005851114
H  H72  1  0.34130000  0.74960000  0.62950000  1.0 0.1005851114
H  H73  1  0.67720000  0.78210000  0.34870000  1.0 0.1005851114
H  H74  1  0.82280000  0.21790000  0.84870000  1.0 0.1005851114
H  H75  1  0.32280000  0.28210000  0.15130000  1.0 0.1005851114
H  H76  1  0.17720000  0.71790000  0.65130000  1.0 0.1005851114
H  H77  1  0.35820000  0.62930000  0.26370000  1.0 0.1005851114
H  H78  1  0.14180000  0.37070000  0.76370000  1.0 0.1005851114
H  H79  1  0.64180000  0.12930000  0.23630000  1.0 0.1005851114
H  H80  1  0.85820000  0.87070000  0.73630000  1.0 0.1005851114
H  H81  1  0.34490000  0.74590000  0.24390000  1.0 0.1094314777
H  H82  1  0.15510000  0.25410000  0.74390000  1.0 0.1094314777
H  H83  1  0.65510000  0.24590000  0.25610000  1.0 0.1094314777
H  H84  1  0.84490000  0.75410000  0.75610000  1.0 0.1094314777
H  H85  1  0.60720000  0.78940000  0.26460000  1.0 0.1005851114
H  H86  1  0.89280000  0.21060000  0.76460000  1.0 0.1005851114
H  H87  1  0.39280000  0.28940000  0.23540000  1.0 0.1005851114
H  H88  1  0.10720000  0.71060000  0.73540000  1.0 0.1005851114
H  H89  1  0.50620000  0.75150000  0.30270000  1.0 0.1005851114
H  H90  1  0.99380000  0.24850000  0.80270000  1.0 0.1005851114
H  H91  1  0.49380000  0.25150000  0.19730000  1.0 0.1005851114
H  H92  1  0.00620000  0.74850000  0.69730000  1.0 0.1005851114
H  H93  1  0.62440000  0.58190000  0.30050000  1.0 0.0792589774
H  H94  1  0.87560000  0.41810000  0.80050000  1.0 0.0792589774
H  H95  1  0.37560000  0.08190000  0.19950000  1.0 0.0792589774
H  H96  1  0.12440000  0.91810000  0.69950000  1.0 0.0792589774
H  H97  1  0.29110000  0.66420000  0.13730000  1.0 0.0792589774
H  H98  1  0.20890000  0.33580000  0.63730000  1.0 0.0792589774
H  H99  1  0.70890000  0.16420000  0.36270000  1.0 0.0792589774
H  H100  1  0.79110000  0.83580000  0.86270000  1.0 0.0792589774
H  H101  1  0.20980000  0.48430000  0.12600000  1.0 0.0915329019
H  H102  1  0.29020000  0.51570000  0.62600000  1.0 0.0915329019
H  H103  1  0.79020000  0.98430000  0.37400000  1.0 0.0915329019
H  H104  1  0.70980000  0.01570000  0.87400000  1.0 0.0915329019
H  H105  1  0.08780000  0.49070000  0.16270000  1.0 0.0915329019
H  H106  1  0.41220000  0.50930000  0.66270000  1.0 0.0915329019
H  H107  1  0.91220000  0.99070000  0.33730000  1.0 0.0915329019
H  H108  1  0.58780000  0.00930000  0.83730000  1.0 0.0915329019
H  H109  1  0.94120000  0.50400000  0.10410000  1.0 0.1294212523
H  H110  1  0.55880000  0.49600000  0.60410000  1.0 0.1294212523
H  H111  1  0.05880000  0.00400000  0.39590000  1.0 0.1294212523
H  H112  1  0.44120000  0.99600000  0.89590000  1.0 0.1294212523
H  H113  1  0.92760000  0.61570000  0.12730000  1.0 0.1179833412
H  H114  1  0.57240000  0.38430000  0.62730000  1.0 0.1179833412
H  H115  1  0.07240000  0.11570000  0.37270000  1.0 0.1179833412
H  H116  1  0.42760000  0.88430000  0.87270000  1.0 0.1179833412
H  H117  1  0.04450000  0.72680000  0.16520000  1.0 0.1294212523
H  H118  1  0.45550000  0.27320000  0.66520000  1.0 0.1294212523
H  H119  1  0.95550000  0.22680000  0.33480000  1.0 0.1294212523
H  H120  1  0.54450000  0.77320000  0.83480000  1.0 0.1294212523
H  H121  1  0.19570000  0.76220000  0.19170000  1.0 0.1179833412
H  H122  1  0.30430000  0.23780000  0.69170000  1.0 0.1179833412
H  H123  1  0.80430000  0.26220000  0.30830000  1.0 0.1179833412
H  H124  1  0.69570000  0.73780000  0.80830000  1.0 0.1179833412
H  H125  1  0.08500000  0.66400000  0.20560000  1.0 0.1179833412
H  H126  1  0.41500000  0.33600000  0.70560000  1.0 0.1179833412
H  H127  1  0.91500000  0.16400000  0.29440000  1.0 0.1179833412
H  H128  1  0.58500000  0.83600000  0.79440000  1.0 0.1179833412
H  H129  1  0.95970000  0.74610000  0.27030000  1.0 0.1294212523
H  H130  1  0.54030000  0.25390000  0.77030000  1.0 0.1294212523
H  H131  1  0.04030000  0.24610000  0.22970000  1.0 0.1294212523
H  H132  1  0.45970000  0.75390000  0.72970000  1.0 0.1294212523
H  H133  1  0.00920000  0.78660000  0.31380000  1.0 0.1294212523
H  H134  1  0.49080000  0.21340000  0.81380000  1.0 0.1294212523
H  H135  1  0.99080000  0.28660000  0.18620000  1.0 0.1294212523
H  H136  1  0.50920000  0.71340000  0.68620000  1.0 0.1294212523
H  H137  1  0.85100000  0.83310000  0.29280000  1.0 0.1294212523
H  H138  1  0.64900000  0.16690000  0.79280000  1.0 0.1294212523
H  H139  1  0.14900000  0.33310000  0.20720000  1.0 0.1294212523
H  H140  1  0.35100000  0.66690000  0.70720000  1.0 0.1294212523
H  H141  1  0.59640000  0.70180000  0.15990000  1.0 0.1294212523
H  H142  1  0.90360000  0.29820000  0.65990000  1.0 0.1294212523
H  H143  1  0.40360000  0.20180000  0.34010000  1.0 0.1294212523
H  H144  1  0.09640000  0.79820000  0.84010000  1.0 0.1294212523
H  H145  1  0.65180000  0.76290000  0.19950000  1.0 0.1294212523
H  H146  1  0.84820000  0.23710000  0.69950000  1.0 0.1294212523
H  H147  1  0.34820000  0.26290000  0.30050000  1.0 0.1294212523
H  H148  1  0.15180000  0.73710000  0.80050000  1.0 0.1294212523
H  H149  1  0.47880000  0.78690000  0.18050000  1.0 0.1353854155
H  H150  1  0.02120000  0.21310000  0.68050000  1.0 0.1353854155
H  H151  1  0.52120000  0.28690000  0.31950000  1.0 0.1353854155
H  H152  1  0.97880000  0.71310000  0.81950000  1.0 0.1353854155
H  H153  1  0.65170000  0.55010000  0.45590000  1.0 0.0792589774
H  H154  1  0.84830000  0.44990000  0.95590000  1.0 0.0792589774
H  H155  1  0.34830000  0.05010000  0.04410000  1.0 0.0792589774
H  H156  1  0.15170000  0.94990000  0.54410000  1.0 0.0792589774
H  H157  1  0.55610000  0.40510000  0.49640000  1.0 0.0915329019
H  H158  1  0.94390000  0.59490000  0.99640000  1.0 0.0915329019
H  H159  1  0.44390000  0.90510000  0.00360000  1.0 0.0915329019
H  H160  1  0.05610000  0.09490000  0.50360000  1.0 0.0915329019
H  H161  1  0.63570000  0.27420000  0.42820000  1.0 0.0915329019
H  H162  1  0.86430000  0.72580000  0.92820000  1.0 0.0915329019
H  H163  1  0.36430000  0.77420000  0.07180000  1.0 0.0915329019
H  H164  1  0.13570000  0.22580000  0.57180000  1.0 0.0915329019
H  H165  1  0.32870000  0.31180000  0.46610000  1.0 0.0693317382
H  H166  1  0.17130000  0.68820000  0.96610000  1.0 0.0693317382
H  H167  1  0.67130000  0.81180000  0.03390000  1.0 0.0693317382
H  H168  1  0.82870000  0.18820000  0.53390000  1.0 0.0693317382
H  H169  1  0.43340000  0.39030000  0.38940000  1.0 0.1005851114
H  H170  1  0.06660000  0.60970000  0.88940000  1.0 0.1005851114
H  H171  1  0.56660000  0.89030000  0.11060000  1.0 0.1005851114
H  H172  1  0.93340000  0.10970000  0.61060000  1.0 0.1005851114
H  H173  1  0.80230000  0.41940000  0.50580000  1.0 0.349578099
H  H174  1  0.69770000  0.58060000  0.00580000  1.0 0.349578099
H  H175  1  0.19770000  0.91940000  0.99420000  1.0 0.349578099
H  H176  1  0.30230000  0.08060000  0.49420000  1.0 0.349578099
H  H177  1  0.66850000  0.16130000  0.47240000  1.0 0.349578099
H  H178  1  0.83150000  0.83870000  0.97240000  1.0 0.349578099
H  H179  1  0.33150000  0.66130000  0.02760000  1.0 0.349578099
H  H180  1  0.16850000  0.33870000  0.52760000  1.0 0.349578099
H  H181  1  0.23910000  0.20400000  0.42370000  1.0 0.3331671869
H  H182  1  0.26090000  0.79600000  0.92370000  1.0 0.3331671869
H  H183  1  0.76090000  0.70400000  0.07630000  1.0 0.3331671869
H  H184  1  0.73910000  0.29600000  0.57630000  1.0 0.3331671869
H  H185  1  0.19680000  0.49580000  0.39070000  1.0 0.1005851114
H  H186  1  0.30320000  0.50420000  0.89070000  1.0 0.1005851114
H  H187  1  0.80320000  0.99580000  0.10930000  1.0 0.1005851114
H  H188  1  0.69680000  0.00420000  0.60930000  1.0 0.1005851114
H  H189  1  0.15370000  0.37050000  0.39120000  1.0 0.1094314777
H  H190  1  0.34630000  0.62950000  0.89120000  1.0 0.1094314777
H  H191  1  0.84630000  0.87050000  0.10880000  1.0 0.1094314777
H  H192  1  0.65370000  0.12950000  0.60880000  1.0 0.1094314777
H  H193  1  0.14470000  0.49980000  0.45430000  1.0 0.349578099
H  H194  1  0.35530000  0.50020000  0.95430000  1.0 0.349578099
H  H195  1  0.85530000  0.99980000  0.04570000  1.0 0.349578099
H  H196  1  0.64470000  0.00020000  0.54570000  1.0 0.349578099
C  C1  1  0.37060000  0.57172000  0.18486000  1.0 -0.0869893516
C  C2  1  0.12940000  0.42828000  0.68486000  1.0 -0.0869893516
C  C3  1  0.62940000  0.07172000  0.31514000  1.0 -0.0869893516
C  C4  1  0.87060000  0.92828000  0.81514000  1.0 -0.0869893516
C  C5  1  0.48880000  0.50387000  0.15928000  1.0 -0.2000043364
C  C6  1  0.01120000  0.49613000  0.65928000  1.0 -0.2000043364
C  C7  1  0.51120000  0.00387000  0.34072000  1.0 -0.2000043364
C  C8  1  0.98880000  0.99613000  0.84072000  1.0 -0.2000043364
C  C9  1  0.64910000  0.49798000  0.18251000  1.0 -0.2134732446
C  C10  1  0.85090000  0.50202000  0.68251000  1.0 -0.2134732446
C  C11  1  0.35090000  0.99798000  0.31749000  1.0 -0.2134732446
C  C12  1  0.14910000  0.00202000  0.81749000  1.0 -0.2134732446
C  C13  1  0.61040000  0.55351000  0.22202000  1.0 -0.0784324054
C  C14  1  0.88960000  0.44649000  0.72202000  1.0 -0.0784324054
C  C15  1  0.38960000  0.05351000  0.27798000  1.0 -0.0784324054
C  C16  1  0.11040000  0.94649000  0.77798000  1.0 -0.0784324054
C  C17  1  0.74970000  0.59120000  0.24768000  1.0 -0.0472936817
C  C18  1  0.75030000  0.40880000  0.74768000  1.0 -0.0472936817
C  C19  1  0.25030000  0.09120000  0.25232000  1.0 -0.0472936817
C  C20  1  0.24970000  0.90880000  0.75232000  1.0 -0.0472936817
C  C21  1  0.86370000  0.49803000  0.25728000  1.0 -0.2134732446
C  C22  1  0.63630000  0.50197000  0.75728000  1.0 -0.2134732446
C  C23  1  0.13630000  0.99803000  0.24272000  1.0 -0.2134732446
C  C24  1  0.36370000  0.00197000  0.74272000  1.0 -0.2134732446
C  C25  1  0.99550000  0.52864000  0.28682000  1.0 -0.2192490035
C  C26  1  0.50450000  0.47136000  0.78682000  1.0 -0.2192490035
C  C27  1  0.00450000  0.02864000  0.21318000  1.0 -0.2192490035
C  C28  1  0.49550000  0.97136000  0.71318000  1.0 -0.2192490035
C  C29  1  0.92830000  0.58106000  0.32468000  1.0 -0.0229661958
C  C30  1  0.57170000  0.41894000  0.82468000  1.0 -0.0229661958
C  C31  1  0.07170000  0.08106000  0.17532000  1.0 -0.0229661958
C  C32  1  0.42830000  0.91894000  0.67532000  1.0 -0.0229661958
C  C33  1  0.84400000  0.49860000  0.35126000  1.0 -0.309055225
C  C34  1  0.65600000  0.50140000  0.85126000  1.0 -0.309055225
C  C35  1  0.15600000  0.99860000  0.14874000  1.0 -0.309055225
C  C36  1  0.34400000  0.00140000  0.64874000  1.0 -0.309055225
C  C37  1  0.77480000  0.54705000  0.38911000  1.0 0.1742823003
C  C38  1  0.72520000  0.45295000  0.88911000  1.0 0.1742823003
C  C39  1  0.22520000  0.04705000  0.11089000  1.0 0.1742823003
C  C40  1  0.27480000  0.95295000  0.61089000  1.0 0.1742823003
C  C41  1  0.66090000  0.63873000  0.37943000  1.0 -0.2623293036
C  C42  1  0.83910000  0.36127000  0.87943000  1.0 -0.2623293036
C  C43  1  0.33910000  0.13873000  0.12057000  1.0 -0.2623293036
C  C44  1  0.16090000  0.86127000  0.62057000  1.0 -0.2623293036
C  C45  1  0.75090000  0.72167000  0.35454000  1.0 -0.2371915141
C  C46  1  0.74910000  0.27833000  0.85454000  1.0 -0.2371915141
C  C47  1  0.24910000  0.22167000  0.14546000  1.0 -0.2371915141
C  C48  1  0.25090000  0.77833000  0.64546000  1.0 -0.2371915141
C  C49  1  0.81810000  0.67825000  0.31491000  1.0 0.157450567
C  C50  1  0.68190000  0.32175000  0.81491000  1.0 0.157450567
C  C51  1  0.18190000  0.17825000  0.18509000  1.0 0.157450567
C  C52  1  0.31810000  0.82175000  0.68509000  1.0 0.157450567
C  C53  1  0.41970000  0.68613000  0.24983000  1.0 -0.2623293036
C  C54  1  0.08030000  0.31387000  0.74983000  1.0 -0.2623293036
C  C55  1  0.58030000  0.18613000  0.25017000  1.0 -0.2623293036
C  C56  1  0.91970000  0.81387000  0.75017000  1.0 -0.2623293036
C  C57  1  0.55440000  0.72685000  0.27730000  1.0 -0.2000043364
C  C58  1  0.94560000  0.27315000  0.77730000  1.0 -0.2000043364
C  C59  1  0.44560000  0.22685000  0.22270000  1.0 -0.2000043364
C  C60  1  0.05440000  0.77315000  0.72270000  1.0 -0.2000043364
C  C61  1  0.68210000  0.64123000  0.28635000  1.0 -0.0784324054
C  C62  1  0.81790000  0.35877000  0.78635000  1.0 -0.0784324054
C  C63  1  0.31790000  0.14123000  0.21365000  1.0 -0.0784324054
C  C64  1  0.18210000  0.85877000  0.71365000  1.0 -0.0784324054
C  C65  1  0.48630000  0.64130000  0.21077000  1.0 0.1742823003
C  C66  1  0.01370000  0.35870000  0.71077000  1.0 0.1742823003
C  C67  1  0.51370000  0.14130000  0.28923000  1.0 0.1742823003
C  C68  1  0.98630000  0.85870000  0.78923000  1.0 0.1742823003
C  C69  1  0.23830000  0.62348000  0.15934000  1.0 0.0516794293
C  C70  1  0.26170000  0.37652000  0.65934000  1.0 0.0516794293
C  C71  1  0.76170000  0.12348000  0.34066000  1.0 0.0516794293
C  C72  1  0.73830000  0.87652000  0.84066000  1.0 0.0516794293
C  C73  1  0.13670000  0.53284000  0.14079000  1.0 -0.1864281678
C  C74  1  0.36330000  0.46716000  0.64079000  1.0 -0.1864281678
C  C75  1  0.86330000  0.03284000  0.35921000  1.0 -0.1864281678
C  C76  1  0.63670000  0.96716000  0.85921000  1.0 -0.1864281678
C  C77  1  0.00250000  0.56820000  0.11257000  1.0 -0.3497940907
C  C78  1  0.49750000  0.43180000  0.61257000  1.0 -0.3497940907
C  C79  1  0.99750000  0.06820000  0.38743000  1.0 -0.3497940907
C  C80  1  0.50250000  0.93180000  0.88743000  1.0 -0.3497940907
C  C81  1  0.06170000  0.62693000  0.07582000  1.0 0.6495729005
C  C82  1  0.43830000  0.37307000  0.57582000  1.0 0.6495729005
C  C83  1  0.93830000  0.12693000  0.42418000  1.0 0.6495729005
C  C84  1  0.56170000  0.87307000  0.92418000  1.0 0.6495729005
C  C85  1  0.13130000  0.70100000  0.18253000  1.0 -0.4612038517
C  C86  1  0.36870000  0.29900000  0.68253000  1.0 -0.4612038517
C  C87  1  0.86870000  0.20100000  0.31747000  1.0 -0.4612038517
C  C88  1  0.63130000  0.79900000  0.81747000  1.0 -0.4612038517
C  C89  1  0.91870000  0.76931000  0.29625000  1.0 -0.4917915585
C  C90  1  0.58130000  0.23069000  0.79625000  1.0 -0.4917915585
C  C91  1  0.08130000  0.26931000  0.20375000  1.0 -0.4917915585
C  C92  1  0.41870000  0.73069000  0.70375000  1.0 -0.4917915585
C  C93  1  0.56000000  0.73139000  0.18535000  1.0 -0.4792613098
C  C94  1  0.94000000  0.26861000  0.68535000  1.0 -0.4792613098
C  C95  1  0.44000000  0.23139000  0.31465000  1.0 -0.4792613098
C  C96  1  0.06000000  0.76861000  0.81465000  1.0 -0.4792613098
C  C97  1  0.60960000  0.48272000  0.44352000  1.0 0.2148874616
C  C98  1  0.89040000  0.51728000  0.94352000  1.0 0.2148874616
C  C99  1  0.39040000  0.98272000  0.05648000  1.0 0.2148874616
C  C100  1  0.10960000  0.01728000  0.55648000  1.0 0.2148874616
C  C101  1  0.62600000  0.39065000  0.47276000  1.0 0.0516794293
C  C102  1  0.87400000  0.60935000  0.97276000  1.0 0.0516794293
C  C103  1  0.37400000  0.89065000  0.02724000  1.0 0.0516794293
C  C104  1  0.12600000  0.10935000  0.52724000  1.0 0.0516794293
C  C105  1  0.57050000  0.28689000  0.45282000  1.0 0.0915329019
C  C106  1  0.92950000  0.71311000  0.95282000  1.0 0.0915329019
C  C107  1  0.42950000  0.78689000  0.04718000  1.0 0.0915329019
C  C108  1  0.07050000  0.21311000  0.54718000  1.0 0.0915329019
C  C109  1  0.39490000  0.30308000  0.44141000  1.0 0.0516794293
C  C110  1  0.10510000  0.69692000  0.94141000  1.0 0.0516794293
C  C111  1  0.60510000  0.80308000  0.05859000  1.0 0.0516794293
C  C112  1  0.89490000  0.19692000  0.55859000  1.0 0.0516794293
C  C113  1  0.37690000  0.40309000  0.41523000  1.0 0.0583057692
C  C114  1  0.12310000  0.59691000  0.91523000  1.0 0.0583057692
C  C115  1  0.62310000  0.90309000  0.08477000  1.0 0.0583057692
C  C116  1  0.87690000  0.09691000  0.58477000  1.0 0.0583057692
C  C117  1  0.20230000  0.42950000  0.40690000  1.0 -0.0623044819
C  C118  1  0.29770000  0.57050000  0.90690000  1.0 -0.0623044819
C  C119  1  0.79770000  0.92950000  0.09310000  1.0 -0.0623044819
C  C120  1  0.70230000  0.07050000  0.59310000  1.0 -0.0623044819
O  O1  1  0.98675000  0.71048000  0.06578000  1.0 -0.6952422345
O  O2  1  0.51325000  0.28952000  0.56578000  1.0 -0.6952422345
O  O3  1  0.01325000  0.21048000  0.43422000  1.0 -0.6952422345
O  O4  1  0.48675000  0.78952000  0.93422000  1.0 -0.6952422345
O  O5  1  0.17957000  0.58872000  0.05707000  1.0 -0.6037746752
O  O6  1  0.32043000  0.41128000  0.55707000  1.0 -0.6037746752
O  O7  1  0.82043000  0.08872000  0.44293000  1.0 -0.6037746752
O  O8  1  0.67957000  0.91128000  0.94293000  1.0 -0.6037746752
O  O9  1  0.70074000  0.45826000  0.40955000  1.0 -0.3178134048
O  O10  1  0.79926000  0.54174000  0.90955000  1.0 -0.3178134048
O  O11  1  0.29926000  0.95826000  0.09045000  1.0 -0.3178134048
O  O12  1  0.20074000  0.04174000  0.59045000  1.0 -0.3178134048
O  O13  1  0.44446000  0.49645000  0.43384000  1.0 -0.2959060753
O  O14  1  0.05554000  0.50355000  0.93384000  1.0 -0.2959060753
O  O15  1  0.55554000  0.99645000  0.06616000  1.0 -0.2959060753
O  O16  1  0.94446000  0.00355000  0.56616000  1.0 -0.2959060753
O  O17  1  0.78769000  0.38071000  0.48566000  1.0 -0.5447614873
O  O18  1  0.71231000  0.61929000  0.98566000  1.0 -0.5447614873
O  O19  1  0.21231000  0.88071000  0.01434000  1.0 -0.5447614873
O  O20  1  0.28769000  0.11929000  0.51434000  1.0 -0.5447614873
O  O21  1  0.58729000  0.19728000  0.47900000  1.0 -0.5702193314
O  O22  1  0.91271000  0.80272000  0.97900000  1.0 -0.5702193314
O  O23  1  0.41271000  0.69728000  0.02100000  1.0 -0.5702193314
O  O24  1  0.08729000  0.30272000  0.52100000  1.0 -0.5702193314
O  O25  1  0.33769000  0.21276000  0.41928000  1.0 -0.4917915585
O  O26  1  0.16231000  0.78724000  0.91928000  1.0 -0.4917915585
O  O27  1  0.66231000  0.71276000  0.08072000  1.0 -0.4917915585
O  O28  1  0.83769000  0.28724000  0.58072000  1.0 -0.4917915585
O  O29  1  0.11176000  0.44461000  0.44245000  1.0 -0.4967694963
O  O30  1  0.38824000  0.55539000  0.94245000  1.0 -0.4967694963
O  O31  1  0.88824000  0.94461000  0.05755000  1.0 -0.4967694963
O  O32  1  0.61176000  0.05539000  0.55755000  1.0 -0.4967694963
