# DDEC6 charges by PACMAN v1.1 (https://github.com/mtap-research/PACMAN-charge/)
data_OQUCOU_FSR_pacman
_symmetry_space_group_name_H-M   'P 1'
_cell_length_a   14.46450000
_cell_length_b   14.46450000
_cell_length_c   15.12090000
_cell_angle_alpha   87.55990000
_cell_angle_beta   92.44010000
_cell_angle_gamma   124.85500000
_symmetry_Int_Tables_number   1
_chemical_formula_structural   Cd5H48C68(NO4)8
_chemical_formula_sum   'Cd5 H48 C68 N8 O32'
_cell_volume   2593.07464338
_cell_formula_units_Z   1
loop_
 _symmetry_equiv_pos_site_id
 _symmetry_equiv_pos_as_xyz
  1  'x, y, z'
loop_
 _atom_site_type_symbol
 _atom_site_label
 _atom_site_symmetry_multiplicity
 _atom_site_fract_x
 _atom_site_fract_y
 _atom_site_fract_z
 _atom_site_occupancy
 _atom_site_charge
Cd  Cd1  1  0.50658000  0.50658000  0.50000000  1.0 1.0091686972
Cd  Cd2  1  0.19189000  0.96733000  0.93600000  1.0 0.8468667396
Cd  Cd3  1  0.96733000  0.19189000  0.06400000  1.0 0.8468667396
Cd  Cd4  1  0.18891000  0.71163000  0.00230000  1.0 0.9986240097
Cd  Cd5  1  0.71163000  0.18891000  0.99770000  1.0 0.9986240097
H  H1  1  0.97860000  0.01080000  0.87460000  1.0 0.1313942678
H  H2  1  0.01080000  0.97860000  0.12540000  1.0 0.1313942678
H  H3  1  0.15110000  0.17690000  0.88700000  1.0 0.1313942678
H  H4  1  0.17690000  0.15110000  0.11300000  1.0 0.1313942678
H  H5  1  0.75900000  0.57880000  0.99910000  1.0 0.1393071354
H  H6  1  0.57880000  0.75900000  0.00090000  1.0 0.1393071354
H  H7  1  0.14820000  0.30820000  0.63900000  1.0 0.1519644773
H  H8  1  0.30820000  0.14820000  0.36100000  1.0 0.1519644773
H  H9  1  0.29750000  0.37750000  0.86580000  1.0 0.1313942678
H  H10  1  0.37750000  0.29750000  0.13420000  1.0 0.1313942678
H  H11  1  0.43900000  0.21420000  0.92640000  1.0 0.1313942678
H  H12  1  0.21420000  0.43900000  0.07360000  1.0 0.1313942678
H  H13  1  0.48240000  0.50000000  0.78730000  1.0 0.1519644773
H  H14  1  0.50000000  0.48240000  0.21270000  1.0 0.1519644773
H  H15  1  0.94640000  0.72680000  0.93340000  1.0 0.1313942678
H  H16  1  0.72680000  0.94640000  0.06660000  1.0 0.1313942678
H  H17  1  0.35820000  0.60560000  0.75370000  1.0 0.1313942678
H  H18  1  0.60560000  0.35820000  0.24630000  1.0 0.1313942678
H  H19  1  0.65690000  0.67470000  0.78500000  1.0 0.1519644773
H  H20  1  0.67470000  0.65690000  0.21500000  1.0 0.1519644773
H  H21  1  0.58730000  0.40270000  0.99740000  1.0 0.1393071354
H  H22  1  0.40270000  0.58730000  0.00260000  1.0 0.1393071354
H  H23  1  0.04310000  0.39210000  0.84290000  1.0 0.1313942678
H  H24  1  0.39210000  0.04310000  0.15710000  1.0 0.1313942678
H  H25  1  0.87100000  0.25100000  0.77990000  1.0 0.1089270466
H  H26  1  0.25100000  0.87100000  0.22010000  1.0 0.1089270466
H  H27  1  0.97400000  0.54660000  0.82740000  1.0 0.1393071354
H  H28  1  0.54660000  0.97400000  0.17260000  1.0 0.1393071354
H  H29  1  0.86340000  0.64880000  0.61930000  1.0 0.1519644773
H  H30  1  0.64880000  0.86340000  0.38070000  1.0 0.1519644773
H  H31  1  0.64520000  0.36860000  0.75990000  1.0 0.1313942678
H  H32  1  0.36860000  0.64520000  0.24010000  1.0 0.1313942678
H  H33  1  0.30600000  0.80100000  0.71300000  1.0 0.1393071354
H  H34  1  0.80100000  0.30600000  0.28700000  1.0 0.1393071354
H  H35  1  0.24960000  0.84280000  0.64730000  1.0 0.1313942678
H  H36  1  0.84280000  0.24960000  0.35270000  1.0 0.1313942678
H  H37  1  0.22260000  0.72200000  0.63820000  1.0 0.1313942678
H  H38  1  0.72200000  0.22260000  0.36180000  1.0 0.1313942678
H  H39  1  0.77930000  0.85970000  0.86070000  1.0 0.1313942678
H  H40  1  0.85970000  0.77930000  0.13930000  1.0 0.1313942678
H  H41  1  0.13170000  0.66630000  0.77270000  1.0 0.0913326159
H  H42  1  0.66630000  0.13170000  0.22730000  1.0 0.0913326159
H  H43  1  0.72260000  0.05660000  0.78500000  1.0 0.1313942678
H  H44  1  0.05660000  0.72260000  0.21500000  1.0 0.1313942678
H  H45  1  0.80510000  0.02790000  0.75330000  1.0 0.1181978859
H  H46  1  0.02790000  0.80510000  0.24670000  1.0 0.1181978859
H  H47  1  0.77190000  0.09350000  0.68970000  1.0 0.1313942678
H  H48  1  0.09350000  0.77190000  0.31030000  1.0 0.1313942678
C  C1  1  0.94700000  0.93440000  0.88450000  1.0 -0.0210103328
C  C2  1  0.93440000  0.94700000  0.11550000  1.0 -0.0210103328
C  C3  1  0.22300000  0.59080000  0.87790000  1.0 0.5204791256
C  C4  1  0.59080000  0.22300000  0.12210000  1.0 0.5204791256
C  C5  1  0.35760000  0.48800000  0.62360000  1.0 0.5386603825
C  C6  1  0.48800000  0.35760000  0.37640000  1.0 0.5386603825
C  C7  1  0.16880000  0.82260000  0.80610000  1.0 0.5386603825
C  C8  1  0.82260000  0.16880000  0.19390000  1.0 0.5386603825
C  C9  1  0.22830000  0.21010000  0.89130000  1.0 -0.0210103328
C  C10  1  0.21010000  0.22830000  0.10870000  1.0 -0.0210103328
C  C11  1  0.70380000  0.56300000  0.95660000  1.0 -0.1576157383
C  C12  1  0.56300000  0.70380000  0.04340000  1.0 -0.1576157383
C  C13  1  0.16260000  0.35920000  0.68220000  1.0 -0.1914251319
C  C14  1  0.35920000  0.16260000  0.31780000  1.0 -0.1914251319
C  C15  1  0.51770000  0.43790000  0.89510000  1.0 0.1519644773
C  C16  1  0.43790000  0.51770000  0.10490000  1.0 0.1519644773
C  C17  1  0.30860000  0.32140000  0.88070000  1.0 -0.1050480328
C  C18  1  0.32140000  0.30860000  0.11930000  1.0 -0.1050480328
C  C19  1  0.38590000  0.22990000  0.91340000  1.0 0.0913326159
C  C20  1  0.22990000  0.38590000  0.08660000  1.0 0.0913326159
C  C21  1  0.53770000  0.51630000  0.82990000  1.0 -0.1236166976
C  C22  1  0.51630000  0.53770000  0.17010000  1.0 -0.1236166976
C  C23  1  0.93040000  0.77880000  0.91630000  1.0 0.095417244
C  C24  1  0.77880000  0.93040000  0.08370000  1.0 0.095417244
C  C25  1  0.28800000  0.53720000  0.75020000  1.0 -0.1489017293
C  C26  1  0.53720000  0.28800000  0.24980000  1.0 -0.1489017293
C  C27  1  0.72310000  0.64330000  0.89280000  1.0 0.1519644773
C  C28  1  0.64330000  0.72310000  0.10720000  1.0 0.1519644773
C  C29  1  0.64200000  0.62080000  0.82850000  1.0 -0.1489017293
C  C30  1  0.62080000  0.64200000  0.17150000  1.0 -0.1489017293
C  C31  1  0.60050000  0.45850000  0.95640000  1.0 -0.1390871129
C  C32  1  0.45850000  0.60050000  0.04360000  1.0 -0.1390871129
C  C33  1  0.90900000  0.18020000  0.88280000  1.0 0.5204791256
C  C34  1  0.18020000  0.90900000  0.11720000  1.0 0.5204791256
C  C35  1  0.77920000  0.36300000  0.87760000  1.0 0.5386603825
C  C36  1  0.36300000  0.77920000  0.12240000  1.0 0.5386603825
C  C37  1  0.09940000  0.40860000  0.80440000  1.0 -0.2308307014
C  C38  1  0.40860000  0.09940000  0.19560000  1.0 -0.2308307014
C  C39  1  0.20560000  0.51160000  0.80910000  1.0 -0.0210103328
C  C40  1  0.51160000  0.20560000  0.19090000  1.0 -0.0210103328
C  C41  1  0.94030000  0.61250000  0.71930000  1.0 0.2624835499
C  C42  1  0.61250000  0.94030000  0.28070000  1.0 0.2624835499
C  C43  1  0.80410000  0.44650000  0.80440000  1.0 -0.004547722
C  C44  1  0.44650000  0.80410000  0.19560000  1.0 -0.004547722
C  C45  1  0.07960000  0.33120000  0.74120000  1.0 0.2451633342
C  C46  1  0.33120000  0.07960000  0.25880000  1.0 0.2451633342
C  C47  1  0.88780000  0.19440000  0.78610000  1.0 0.059759434
C  C48  1  0.19440000  0.88780000  0.21390000  1.0 0.059759434
C  C49  1  0.74200000  0.51080000  0.68220000  1.0 0.0096456793
C  C50  1  0.51080000  0.74200000  0.31780000  1.0 0.0096456793
C  C51  1  0.91630000  0.53690000  0.79020000  1.0 -0.2486509256
C  C52  1  0.53690000  0.91630000  0.20980000  1.0 -0.2486509256
C  C53  1  0.84900000  0.59820000  0.66550000  1.0 -0.1985089652
C  C54  1  0.59820000  0.84900000  0.33450000  1.0 -0.1985089652
C  C55  1  0.64870000  0.49710000  0.62330000  1.0 0.5386603825
C  C56  1  0.49710000  0.64870000  0.37670000  1.0 0.5386603825
C  C57  1  0.71860000  0.43100000  0.75120000  1.0 -0.1390871129
C  C58  1  0.43100000  0.71860000  0.24880000  1.0 -0.1390871129
C  C59  1  0.23880000  0.77860000  0.67920000  1.0 -0.3861191146
C  C60  1  0.77860000  0.23880000  0.32080000  1.0 -0.3861191146
C  C61  1  0.83710000  0.85130000  0.87590000  1.0 -0.0953786023
C  C62  1  0.85130000  0.83710000  0.12410000  1.0 -0.0953786023
C  C63  1  0.26680000  0.46120000  0.68580000  1.0 0.0096456793
C  C64  1  0.46120000  0.26680000  0.31420000  1.0 0.0096456793
C  C65  1  0.14280000  0.73200000  0.74020000  1.0 0.059759434
C  C66  1  0.73200000  0.14280000  0.25980000  1.0 0.059759434
C  C67  1  0.78750000  0.08270000  0.75020000  1.0 -0.4020175807
C  C68  1  0.08270000  0.78750000  0.24980000  1.0 -0.4020175807
N  N1  1  0.40990000  0.33510000  0.89620000  1.0 0.0096456793
N  N2  1  0.33510000  0.40990000  0.10380000  1.0 0.0096456793
N  N3  1  0.27610000  0.15430000  0.90910000  1.0 -0.2659953557
N  N4  1  0.15430000  0.27610000  0.09090000  1.0 -0.2659953557
N  N5  1  0.82600000  0.75220000  0.89360000  1.0 0.0096456793
N  N6  1  0.75220000  0.82600000  0.10640000  1.0 0.0096456793
N  N7  1  0.00540000  0.88840000  0.91050000  1.0 -0.2824626438
N  N8  1  0.88840000  0.00540000  0.08950000  1.0 -0.2824626438
O  O1  1  0.31270000  0.68530000  0.88430000  1.0 -0.5284991733
O  O2  1  0.68530000  0.31270000  0.11570000  1.0 -0.5284991733
O  O3  1  0.16400000  0.79860000  0.88690000  1.0 -0.5535891525
O  O4  1  0.79860000  0.16400000  0.11310000  1.0 -0.5535891525
O  O5  1  0.99410000  0.18510000  0.90700000  1.0 -0.5039449902
O  O6  1  0.18510000  0.99410000  0.09300000  1.0 -0.5039449902
O  O7  1  0.45170000  0.57550000  0.62970000  1.0 -0.5039449902
O  O8  1  0.57550000  0.45170000  0.37030000  1.0 -0.5039449902
O  O9  1  0.85070000  0.38890000  0.93970000  1.0 -0.4568415455
O  O10  1  0.38890000  0.85070000  0.06030000  1.0 -0.4568415455
O  O11  1  0.14370000  0.55890000  0.93070000  1.0 -0.4879396654
O  O12  1  0.55890000  0.14370000  0.06930000  1.0 -0.4879396654
O  O13  1  0.67160000  0.57460000  0.57140000  1.0 -0.4832543753
O  O14  1  0.57460000  0.67160000  0.42860000  1.0 -0.4832543753
O  O15  1  0.55070000  0.40870000  0.62880000  1.0 -0.5039449902
O  O16  1  0.40870000  0.55070000  0.37120000  1.0 -0.5039449902
O  O17  1  0.98020000  0.22680000  0.73050000  1.0 -0.1791930717
O  O18  1  0.22680000  0.98020000  0.26950000  1.0 -0.1914251319
O  O19  1  0.04420000  0.69900000  0.69040000  1.0 -0.1791930717
O  O20  1  0.69900000  0.04420000  0.30960000  1.0 -0.1791930717
O  O21  1  0.33130000  0.41470000  0.56570000  1.0 -0.4879396654
O  O22  1  0.41470000  0.33130000  0.43430000  1.0 -0.4879396654
O  O23  1  0.37810000  0.01430000  0.94520000  1.0 0.0096456793
O  O24  1  0.01430000  0.37810000  0.05480000  1.0 0.0096456793
O  O25  1  0.19010000  0.91410000  0.77910000  1.0 -0.4714692406
O  O26  1  0.91410000  0.19010000  0.22090000  1.0 -0.4714692406
O  O27  1  0.99120000  0.59640000  0.02260000  1.0 -0.1390871129
O  O28  1  0.59640000  0.99120000  0.97740000  1.0 -0.1390871129
O  O29  1  0.68630000  0.26670000  0.87400000  1.0 -0.5587351791
O  O30  1  0.26670000  0.68630000  0.12600000  1.0 -0.5587351791
O  O31  1  0.83710000  0.16470000  0.93570000  1.0 -0.5284991733
O  O32  1  0.16470000  0.83710000  0.06430000  1.0 -0.5284991733
