# DDEC6 charges by PACMAN v1.1 (https://github.com/mtap-research/PACMAN-charge/)
data_OQUFAJ04_ASR_pacman
_symmetry_space_group_name_H-M   'P 1'
_cell_length_a   24.39360000
_cell_length_b   24.39360000
_cell_length_c   14.57100000
_cell_angle_alpha   90.00000000
_cell_angle_beta   90.00000000
_cell_angle_gamma   90.00000000
_symmetry_Int_Tables_number   1
_chemical_formula_structural   Zr3H16C36(OF2)12
_chemical_formula_sum   'Zr12 H64 C144 O48 F96'
_cell_volume   8670.44034211
_cell_formula_units_Z   4
loop_
 _symmetry_equiv_pos_site_id
 _symmetry_equiv_pos_as_xyz
  1  'x, y, z'
loop_
 _atom_site_type_symbol
 _atom_site_label
 _atom_site_symmetry_multiplicity
 _atom_site_fract_x
 _atom_site_fract_y
 _atom_site_fract_z
 _atom_site_occupancy
 _atom_site_charge
Zr  Zr1  1  0.09986000  0.50000000  0.00000000  1.0 2.3599552628
Zr  Zr2  1  0.50000000  0.90014000  0.50000000  1.0 2.3599552628
Zr  Zr3  1  0.90014000  0.50000000  0.00000000  1.0 2.3599552628
Zr  Zr4  1  0.50000000  0.09986000  0.50000000  1.0 2.3599552628
Zr  Zr5  1  0.00000000  0.42764000  0.12182000  1.0 2.4889414128
Zr  Zr6  1  0.42764000  0.00000000  0.62182000  1.0 2.4889414128
Zr  Zr7  1  0.00000000  0.57236000  0.12182000  1.0 2.4889414128
Zr  Zr8  1  0.57236000  0.00000000  0.62182000  1.0 2.4889414128
Zr  Zr9  1  0.00000000  0.42764000  0.87818000  1.0 2.4889414128
Zr  Zr10  1  0.00000000  0.57236000  0.87818000  1.0 2.4889414128
Zr  Zr11  1  0.42764000  0.00000000  0.37818000  1.0 2.4889414128
Zr  Zr12  1  0.57236000  0.00000000  0.37818000  1.0 2.4889414128
H  H1  1  0.23500000  0.39890000  0.09440000  1.0 0.107875098
H  H2  1  0.39890000  0.76500000  0.59440000  1.0 0.107875098
H  H3  1  0.76500000  0.60110000  0.09440000  1.0 0.107875098
H  H4  1  0.60110000  0.23500000  0.59440000  1.0 0.107875098
H  H5  1  0.76500000  0.39890000  0.90560000  1.0 0.107875098
H  H6  1  0.23500000  0.60110000  0.90560000  1.0 0.107875098
H  H7  1  0.39890000  0.23500000  0.40560000  1.0 0.107875098
H  H8  1  0.60110000  0.76500000  0.40560000  1.0 0.107875098
H  H9  1  0.76500000  0.60110000  0.90560000  1.0 0.107875098
H  H10  1  0.60110000  0.23500000  0.40560000  1.0 0.107875098
H  H11  1  0.23500000  0.39890000  0.90560000  1.0 0.107875098
H  H12  1  0.39890000  0.76500000  0.40560000  1.0 0.107875098
H  H13  1  0.23500000  0.60110000  0.09440000  1.0 0.107875098
H  H14  1  0.76500000  0.39890000  0.09440000  1.0 0.107875098
H  H15  1  0.60110000  0.76500000  0.59440000  1.0 0.107875098
H  H16  1  0.39890000  0.23500000  0.59440000  1.0 0.107875098
H  H17  1  0.12580000  0.33100000  0.27280000  1.0 0.107875098
H  H18  1  0.33100000  0.87420000  0.77280000  1.0 0.107875098
H  H19  1  0.87420000  0.66900000  0.27280000  1.0 0.107875098
H  H20  1  0.66900000  0.12580000  0.77280000  1.0 0.107875098
H  H21  1  0.87420000  0.33100000  0.72720000  1.0 0.107875098
H  H22  1  0.12580000  0.66900000  0.72720000  1.0 0.107875098
H  H23  1  0.33100000  0.12580000  0.22720000  1.0 0.107875098
H  H24  1  0.66900000  0.87420000  0.22720000  1.0 0.107875098
H  H25  1  0.87420000  0.66900000  0.72720000  1.0 0.107875098
H  H26  1  0.66900000  0.12580000  0.22720000  1.0 0.107875098
H  H27  1  0.12580000  0.33100000  0.72720000  1.0 0.107875098
H  H28  1  0.33100000  0.87420000  0.22720000  1.0 0.107875098
H  H29  1  0.12580000  0.66900000  0.27280000  1.0 0.107875098
H  H30  1  0.87420000  0.33100000  0.27280000  1.0 0.107875098
H  H31  1  0.66900000  0.87420000  0.77280000  1.0 0.107875098
H  H32  1  0.33100000  0.12580000  0.77280000  1.0 0.107875098
H  H33  1  0.19280000  0.26880000  0.32030000  1.0 0.1707802233
H  H34  1  0.26880000  0.80720000  0.82030000  1.0 0.1707802233
H  H35  1  0.80720000  0.73120000  0.32030000  1.0 0.1707802233
H  H36  1  0.73120000  0.19280000  0.82030000  1.0 0.1707802233
H  H37  1  0.80720000  0.26880000  0.67970000  1.0 0.1707802233
H  H38  1  0.19280000  0.73120000  0.67970000  1.0 0.1707802233
H  H39  1  0.26880000  0.19280000  0.17970000  1.0 0.1707802233
H  H40  1  0.73120000  0.80720000  0.17970000  1.0 0.1707802233
H  H41  1  0.80720000  0.73120000  0.67970000  1.0 0.1707802233
H  H42  1  0.73120000  0.19280000  0.17970000  1.0 0.1707802233
H  H43  1  0.19280000  0.26880000  0.67970000  1.0 0.1707802233
H  H44  1  0.26880000  0.80720000  0.17970000  1.0 0.1707802233
H  H45  1  0.19280000  0.73120000  0.32030000  1.0 0.1707802233
H  H46  1  0.80720000  0.26880000  0.32030000  1.0 0.1707802233
H  H47  1  0.73120000  0.80720000  0.82030000  1.0 0.1707802233
H  H48  1  0.26880000  0.19280000  0.82030000  1.0 0.1707802233
H  H49  1  0.30060000  0.33610000  0.14360000  1.0 0.1592082441
H  H50  1  0.33610000  0.69940000  0.64360000  1.0 0.1592082441
H  H51  1  0.69940000  0.66390000  0.14360000  1.0 0.1592082441
H  H52  1  0.66390000  0.30060000  0.64360000  1.0 0.1592082441
H  H53  1  0.69940000  0.33610000  0.85640000  1.0 0.1592082441
H  H54  1  0.30060000  0.66390000  0.85640000  1.0 0.1592082441
H  H55  1  0.33610000  0.30060000  0.35640000  1.0 0.1592082441
H  H56  1  0.66390000  0.69940000  0.35640000  1.0 0.1592082441
H  H57  1  0.69940000  0.66390000  0.85640000  1.0 0.1592082441
H  H58  1  0.66390000  0.30060000  0.35640000  1.0 0.1592082441
H  H59  1  0.30060000  0.33610000  0.85640000  1.0 0.1592082441
H  H60  1  0.33610000  0.69940000  0.35640000  1.0 0.1592082441
H  H61  1  0.30060000  0.66390000  0.14360000  1.0 0.1592082441
H  H62  1  0.69940000  0.33610000  0.14360000  1.0 0.1592082441
H  H63  1  0.66390000  0.69940000  0.64360000  1.0 0.1592082441
H  H64  1  0.33610000  0.30060000  0.64360000  1.0 0.1592082441
C  C1  1  0.25370000  0.29600000  0.23700000  1.0 0.0339905004
C  C2  1  0.29600000  0.74630000  0.73700000  1.0 0.0362348663
C  C3  1  0.74630000  0.70400000  0.23700000  1.0 0.0362348663
C  C4  1  0.70400000  0.25370000  0.73700000  1.0 0.0362348663
C  C5  1  0.74630000  0.29600000  0.76300000  1.0 0.0339905004
C  C6  1  0.25370000  0.70400000  0.76300000  1.0 0.0339905004
C  C7  1  0.29600000  0.25370000  0.26300000  1.0 0.0362348663
C  C8  1  0.70400000  0.74630000  0.26300000  1.0 0.0362348663
C  C9  1  0.74630000  0.70400000  0.76300000  1.0 0.0339905004
C  C10  1  0.70400000  0.25370000  0.26300000  1.0 0.0362348663
C  C11  1  0.25370000  0.29600000  0.76300000  1.0 0.0339905004
C  C12  1  0.29600000  0.74630000  0.26300000  1.0 0.0362348663
C  C13  1  0.25370000  0.70400000  0.23700000  1.0 0.0339905004
C  C14  1  0.74630000  0.29600000  0.23700000  1.0 0.0339905004
C  C15  1  0.70400000  0.74630000  0.73700000  1.0 0.0362348663
C  C16  1  0.29600000  0.25370000  0.73700000  1.0 0.0339905004
C  C17  1  0.26500000  0.33510000  0.16990000  1.0 -0.1661628178
C  C18  1  0.33510000  0.73500000  0.66990000  1.0 -0.1661628178
C  C19  1  0.73500000  0.66490000  0.16990000  1.0 -0.1661628178
C  C20  1  0.66490000  0.26500000  0.66990000  1.0 -0.1661628178
C  C21  1  0.73500000  0.33510000  0.83010000  1.0 -0.1661628178
C  C22  1  0.26500000  0.66490000  0.83010000  1.0 -0.1661628178
C  C23  1  0.33510000  0.26500000  0.33010000  1.0 -0.1661628178
C  C24  1  0.66490000  0.73500000  0.33010000  1.0 -0.1661628178
C  C25  1  0.73500000  0.66490000  0.83010000  1.0 -0.1661628178
C  C26  1  0.66490000  0.26500000  0.33010000  1.0 -0.1661628178
C  C27  1  0.26500000  0.33510000  0.83010000  1.0 -0.1661628178
C  C28  1  0.33510000  0.73500000  0.33010000  1.0 -0.1661628178
C  C29  1  0.26500000  0.66490000  0.16990000  1.0 -0.1661628178
C  C30  1  0.73500000  0.33510000  0.16990000  1.0 -0.1661628178
C  C31  1  0.66490000  0.73500000  0.66990000  1.0 -0.1661628178
C  C32  1  0.33510000  0.26500000  0.66990000  1.0 -0.1661628178
C  C33  1  0.22650000  0.37250000  0.14010000  1.0 -0.0708404046
C  C34  1  0.37250000  0.77350000  0.64010000  1.0 -0.0708404046
C  C35  1  0.77350000  0.62750000  0.14010000  1.0 -0.0708404046
C  C36  1  0.62750000  0.22650000  0.64010000  1.0 -0.0708404046
C  C37  1  0.77350000  0.37250000  0.85990000  1.0 -0.0708404046
C  C38  1  0.22650000  0.62750000  0.85990000  1.0 -0.0708404046
C  C39  1  0.37250000  0.22650000  0.35990000  1.0 -0.0708404046
C  C40  1  0.62750000  0.77350000  0.35990000  1.0 -0.0708404046
C  C41  1  0.77350000  0.62750000  0.85990000  1.0 -0.0708404046
C  C42  1  0.62750000  0.22650000  0.35990000  1.0 -0.0708404046
C  C43  1  0.22650000  0.37250000  0.85990000  1.0 -0.0708404046
C  C44  1  0.37250000  0.77350000  0.35990000  1.0 -0.0708404046
C  C45  1  0.22650000  0.62750000  0.14010000  1.0 -0.0708404046
C  C46  1  0.77350000  0.37250000  0.14010000  1.0 -0.0708404046
C  C47  1  0.62750000  0.77350000  0.64010000  1.0 -0.0708404046
C  C48  1  0.37250000  0.22650000  0.64010000  1.0 -0.0708404046
C  C49  1  0.17380000  0.36980000  0.18050000  1.0 -0.0243370124
C  C50  1  0.36980000  0.82620000  0.68050000  1.0 -0.0243370124
C  C51  1  0.82620000  0.63020000  0.18050000  1.0 -0.0243370124
C  C52  1  0.63020000  0.17380000  0.68050000  1.0 -0.0243370124
C  C53  1  0.82620000  0.36980000  0.81950000  1.0 -0.0243370124
C  C54  1  0.17380000  0.63020000  0.81950000  1.0 -0.0243370124
C  C55  1  0.36980000  0.17380000  0.31950000  1.0 -0.0243370124
C  C56  1  0.63020000  0.82620000  0.31950000  1.0 -0.0243370124
C  C57  1  0.82620000  0.63020000  0.81950000  1.0 -0.0243370124
C  C58  1  0.63020000  0.17380000  0.31950000  1.0 -0.0243370124
C  C59  1  0.17380000  0.36980000  0.81950000  1.0 -0.0243370124
C  C60  1  0.36980000  0.82620000  0.31950000  1.0 -0.0243370124
C  C61  1  0.17380000  0.63020000  0.18050000  1.0 -0.0243370124
C  C62  1  0.82620000  0.36980000  0.18050000  1.0 -0.0243370124
C  C63  1  0.63020000  0.82620000  0.68050000  1.0 -0.0243370124
C  C64  1  0.36980000  0.17380000  0.68050000  1.0 -0.0243370124
C  C65  1  0.16140000  0.33210000  0.24640000  1.0 -0.0708404046
C  C66  1  0.33210000  0.83860000  0.74640000  1.0 -0.0708404046
C  C67  1  0.83860000  0.66790000  0.24640000  1.0 -0.0708404046
C  C68  1  0.66790000  0.16140000  0.74640000  1.0 -0.0708404046
C  C69  1  0.83860000  0.33210000  0.75360000  1.0 -0.0708404046
C  C70  1  0.16140000  0.66790000  0.75360000  1.0 -0.0708404046
C  C71  1  0.33210000  0.16140000  0.25360000  1.0 -0.0708404046
C  C72  1  0.66790000  0.83860000  0.25360000  1.0 -0.0708404046
C  C73  1  0.83860000  0.66790000  0.75360000  1.0 -0.0708404046
C  C74  1  0.66790000  0.16140000  0.25360000  1.0 -0.0708404046
C  C75  1  0.16140000  0.33210000  0.75360000  1.0 -0.0708404046
C  C76  1  0.33210000  0.83860000  0.25360000  1.0 -0.0708404046
C  C77  1  0.16140000  0.66790000  0.24640000  1.0 -0.0708404046
C  C78  1  0.83860000  0.33210000  0.24640000  1.0 -0.0708404046
C  C79  1  0.66790000  0.83860000  0.74640000  1.0 -0.0708404046
C  C80  1  0.33210000  0.16140000  0.74640000  1.0 -0.0708404046
C  C81  1  0.20140000  0.29510000  0.27450000  1.0 -0.1576744649
C  C82  1  0.29510000  0.79860000  0.77450000  1.0 -0.1576744649
C  C83  1  0.79860000  0.70490000  0.27450000  1.0 -0.1576744649
C  C84  1  0.70490000  0.20140000  0.77450000  1.0 -0.1576744649
C  C85  1  0.79860000  0.29510000  0.72550000  1.0 -0.1576744649
C  C86  1  0.20140000  0.70490000  0.72550000  1.0 -0.1576744649
C  C87  1  0.29510000  0.20140000  0.22550000  1.0 -0.1576744649
C  C88  1  0.70490000  0.79860000  0.22550000  1.0 -0.1576744649
C  C89  1  0.79860000  0.70490000  0.72550000  1.0 -0.1576744649
C  C90  1  0.70490000  0.20140000  0.22550000  1.0 -0.1576744649
C  C91  1  0.20140000  0.29510000  0.72550000  1.0 -0.1576744649
C  C92  1  0.29510000  0.79860000  0.22550000  1.0 -0.1576744649
C  C93  1  0.20140000  0.70490000  0.27450000  1.0 -0.1576744649
C  C94  1  0.79860000  0.29510000  0.27450000  1.0 -0.1576744649
C  C95  1  0.70490000  0.79860000  0.77450000  1.0 -0.1576744649
C  C96  1  0.29510000  0.20140000  0.77450000  1.0 -0.1576744649
C  C97  1  0.13260000  0.40760000  0.13860000  1.0 0.6228461344
C  C98  1  0.40760000  0.86740000  0.63860000  1.0 0.6228461344
C  C99  1  0.86740000  0.59240000  0.13860000  1.0 0.6228461344
C  C100  1  0.59240000  0.13260000  0.63860000  1.0 0.6228461344
C  C101  1  0.86740000  0.40760000  0.86140000  1.0 0.6228461344
C  C102  1  0.13260000  0.59240000  0.86140000  1.0 0.6228461344
C  C103  1  0.40760000  0.13260000  0.36140000  1.0 0.6228461344
C  C104  1  0.59240000  0.86740000  0.36140000  1.0 0.6228461344
C  C105  1  0.86740000  0.59240000  0.86140000  1.0 0.6228461344
C  C106  1  0.59240000  0.13260000  0.36140000  1.0 0.6228461344
C  C107  1  0.13260000  0.40760000  0.86140000  1.0 0.6228461344
C  C108  1  0.40760000  0.86740000  0.36140000  1.0 0.6228461344
C  C109  1  0.13260000  0.59240000  0.13860000  1.0 0.6228461344
C  C110  1  0.86740000  0.40760000  0.13860000  1.0 0.6228461344
C  C111  1  0.59240000  0.86740000  0.63860000  1.0 0.6228461344
C  C112  1  0.40760000  0.13260000  0.63860000  1.0 0.6228461344
C  C113  1  0.31970000  0.34060000  0.12340000  1.0 0.3506039497
C  C114  1  0.34060000  0.68030000  0.62340000  1.0 0.3506039497
C  C115  1  0.68030000  0.65940000  0.12340000  1.0 0.3506039497
C  C116  1  0.65940000  0.31970000  0.62340000  1.0 0.3506039497
C  C117  1  0.68030000  0.34060000  0.87660000  1.0 0.3506039497
C  C118  1  0.31970000  0.65940000  0.87660000  1.0 0.3506039497
C  C119  1  0.34060000  0.31970000  0.37660000  1.0 0.3506039497
C  C120  1  0.65940000  0.68030000  0.37660000  1.0 0.3506039497
C  C121  1  0.68030000  0.65940000  0.87660000  1.0 0.3506039497
C  C122  1  0.65940000  0.31970000  0.37660000  1.0 0.3506039497
C  C123  1  0.31970000  0.34060000  0.87660000  1.0 0.3506039497
C  C124  1  0.34060000  0.68030000  0.37660000  1.0 0.3506039497
C  C125  1  0.31970000  0.65940000  0.12340000  1.0 0.3506039497
C  C126  1  0.68030000  0.34060000  0.12340000  1.0 0.3506039497
C  C127  1  0.65940000  0.68030000  0.62340000  1.0 0.3506039497
C  C128  1  0.34060000  0.31970000  0.62340000  1.0 0.3506039497
C  C129  1  0.18190000  0.25620000  0.34740000  1.0 0.3721544411
C  C130  1  0.25620000  0.81810000  0.84740000  1.0 0.3721544411
C  C131  1  0.81810000  0.74380000  0.34740000  1.0 0.3721544411
C  C132  1  0.74380000  0.18190000  0.84740000  1.0 0.3721544411
C  C133  1  0.81810000  0.25620000  0.65260000  1.0 0.3721544411
C  C134  1  0.18190000  0.74380000  0.65260000  1.0 0.3721544411
C  C135  1  0.25620000  0.18190000  0.15260000  1.0 0.3721544411
C  C136  1  0.74380000  0.81810000  0.15260000  1.0 0.3721544411
C  C137  1  0.81810000  0.74380000  0.65260000  1.0 0.3721544411
C  C138  1  0.74380000  0.18190000  0.15260000  1.0 0.3721544411
C  C139  1  0.18190000  0.25620000  0.65260000  1.0 0.3721544411
C  C140  1  0.25620000  0.81810000  0.15260000  1.0 0.3721544411
C  C141  1  0.18190000  0.74380000  0.34740000  1.0 0.3721544411
C  C142  1  0.81810000  0.25620000  0.34740000  1.0 0.3721544411
C  C143  1  0.74380000  0.81810000  0.84740000  1.0 0.3721544411
C  C144  1  0.25620000  0.18190000  0.84740000  1.0 0.3721544411
O  O1  1  0.14630000  0.44580000  0.09230000  1.0 -0.5130112354
O  O2  1  0.44580000  0.85370000  0.59230000  1.0 -0.5130112354
O  O3  1  0.85370000  0.55420000  0.09230000  1.0 -0.5130112354
O  O4  1  0.55420000  0.14630000  0.59230000  1.0 -0.5130112354
O  O5  1  0.85370000  0.44580000  0.90770000  1.0 -0.5130112354
O  O6  1  0.14630000  0.55420000  0.90770000  1.0 -0.5130112354
O  O7  1  0.44580000  0.14630000  0.40770000  1.0 -0.5130112354
O  O8  1  0.55420000  0.85370000  0.40770000  1.0 -0.5130112354
O  O9  1  0.85370000  0.55420000  0.90770000  1.0 -0.5130112354
O  O10  1  0.55420000  0.14630000  0.40770000  1.0 -0.5130112354
O  O11  1  0.14630000  0.44580000  0.90770000  1.0 -0.5130112354
O  O12  1  0.44580000  0.85370000  0.40770000  1.0 -0.5130112354
O  O13  1  0.14630000  0.55420000  0.09230000  1.0 -0.5130112354
O  O14  1  0.85370000  0.44580000  0.09230000  1.0 -0.5130112354
O  O15  1  0.55420000  0.85370000  0.59230000  1.0 -0.5130112354
O  O16  1  0.44580000  0.14630000  0.59230000  1.0 -0.5130112354
O  O17  1  0.08310000  0.39780000  0.16930000  1.0 -0.6120052743
O  O18  1  0.39780000  0.91690000  0.66930000  1.0 -0.6120052743
O  O19  1  0.91690000  0.60220000  0.16930000  1.0 -0.6120052743
O  O20  1  0.60220000  0.08310000  0.66930000  1.0 -0.6120052743
O  O21  1  0.91690000  0.39780000  0.83070000  1.0 -0.6120052743
O  O22  1  0.08310000  0.60220000  0.83070000  1.0 -0.6120052743
O  O23  1  0.39780000  0.08310000  0.33070000  1.0 -0.6120052743
O  O24  1  0.60220000  0.91690000  0.33070000  1.0 -0.6120052743
O  O25  1  0.91690000  0.60220000  0.83070000  1.0 -0.6120052743
O  O26  1  0.60220000  0.08310000  0.33070000  1.0 -0.6120052743
O  O27  1  0.08310000  0.39780000  0.83070000  1.0 -0.6120052743
O  O28  1  0.39780000  0.91690000  0.33070000  1.0 -0.6120052743
O  O29  1  0.08310000  0.60220000  0.16930000  1.0 -0.6120052743
O  O30  1  0.91690000  0.39780000  0.16930000  1.0 -0.6120052743
O  O31  1  0.60220000  0.91690000  0.66930000  1.0 -0.6120052743
O  O32  1  0.39780000  0.08310000  0.66930000  1.0 -0.6120052743
O  O33  1  0.04980000  0.42860000  0.00000000  1.0 -1.1753303889
O  O34  1  0.42860000  0.95020000  0.50000000  1.0 -1.1735541407
O  O35  1  0.95020000  0.57140000  0.00000000  1.0 -1.1753303889
O  O36  1  0.57140000  0.04980000  0.50000000  1.0 -1.1735541407
O  O37  1  0.95020000  0.42860000  0.00000000  1.0 -1.1753303889
O  O38  1  0.04980000  0.57140000  0.00000000  1.0 -1.1753303889
O  O39  1  0.42860000  0.04980000  0.50000000  1.0 -1.1735541407
O  O40  1  0.57140000  0.95020000  0.50000000  1.0 -1.1735541407
O  O41  1  0.04790000  0.50000000  0.11960000  1.0 -1.1525647524
O  O42  1  0.50000000  0.95210000  0.61960000  1.0 -1.1525647524
O  O43  1  0.95210000  0.50000000  0.11960000  1.0 -1.1525647524
O  O44  1  0.50000000  0.04790000  0.61960000  1.0 -1.1525647524
O  O45  1  0.95210000  0.50000000  0.88040000  1.0 -1.1525647524
O  O46  1  0.04790000  0.50000000  0.88040000  1.0 -1.1525647524
O  O47  1  0.50000000  0.04790000  0.38040000  1.0 -1.1525647524
O  O48  1  0.50000000  0.95210000  0.38040000  1.0 -1.1525647524
F  F1  1  0.33870000  0.29130000  0.07150000  1.0 -0.222984307
F  F2  1  0.29130000  0.66130000  0.57150000  1.0 -0.222984307
F  F3  1  0.66130000  0.70870000  0.07150000  1.0 -0.222984307
F  F4  1  0.70870000  0.33870000  0.57150000  1.0 -0.222984307
F  F5  1  0.66130000  0.29130000  0.92850000  1.0 -0.222984307
F  F6  1  0.33870000  0.70870000  0.92850000  1.0 -0.222984307
F  F7  1  0.29130000  0.33870000  0.42850000  1.0 -0.222984307
F  F8  1  0.70870000  0.66130000  0.42850000  1.0 -0.222984307
F  F9  1  0.66130000  0.70870000  0.92850000  1.0 -0.222984307
F  F10  1  0.70870000  0.33870000  0.42850000  1.0 -0.222984307
F  F11  1  0.33870000  0.29130000  0.92850000  1.0 -0.222984307
F  F12  1  0.29130000  0.66130000  0.42850000  1.0 -0.222984307
F  F13  1  0.33870000  0.70870000  0.07150000  1.0 -0.222984307
F  F14  1  0.66130000  0.29130000  0.07150000  1.0 -0.222984307
F  F15  1  0.70870000  0.66130000  0.57150000  1.0 -0.222984307
F  F16  1  0.29130000  0.33870000  0.57150000  1.0 -0.222984307
F  F17  1  0.36690000  0.34940000  0.18440000  1.0 -0.1661628178
F  F18  1  0.34940000  0.63310000  0.68440000  1.0 -0.1661628178
F  F19  1  0.63310000  0.65060000  0.18440000  1.0 -0.1661628178
F  F20  1  0.65060000  0.36690000  0.68440000  1.0 -0.1661628178
F  F21  1  0.63310000  0.34940000  0.81560000  1.0 -0.1661628178
F  F22  1  0.36690000  0.65060000  0.81560000  1.0 -0.1661628178
F  F23  1  0.34940000  0.36690000  0.31560000  1.0 -0.1661628178
F  F24  1  0.65060000  0.63310000  0.31560000  1.0 -0.1661628178
F  F25  1  0.63310000  0.65060000  0.81560000  1.0 -0.1661628178
F  F26  1  0.65060000  0.36690000  0.31560000  1.0 -0.1661628178
F  F27  1  0.36690000  0.34940000  0.81560000  1.0 -0.1661628178
F  F28  1  0.34940000  0.63310000  0.31560000  1.0 -0.1661628178
F  F29  1  0.36690000  0.65060000  0.18440000  1.0 -0.1661628178
F  F30  1  0.63310000  0.34940000  0.18440000  1.0 -0.1661628178
F  F31  1  0.65060000  0.63310000  0.68440000  1.0 -0.1661628178
F  F32  1  0.34940000  0.36690000  0.68440000  1.0 -0.1661628178
F  F33  1  0.32720000  0.38200000  0.05290000  1.0 -0.0519713704
F  F34  1  0.38200000  0.67280000  0.55290000  1.0 -0.0519713704
F  F35  1  0.67280000  0.61800000  0.05290000  1.0 -0.0519713704
F  F36  1  0.61800000  0.32720000  0.55290000  1.0 -0.0519713704
F  F37  1  0.67280000  0.38200000  0.94710000  1.0 -0.0519713704
F  F38  1  0.32720000  0.61800000  0.94710000  1.0 -0.0519713704
F  F39  1  0.38200000  0.32720000  0.44710000  1.0 -0.0519713704
F  F40  1  0.61800000  0.67280000  0.44710000  1.0 -0.0519713704
F  F41  1  0.67280000  0.61800000  0.94710000  1.0 -0.0519713704
F  F42  1  0.61800000  0.32720000  0.44710000  1.0 -0.0519713704
F  F43  1  0.32720000  0.38200000  0.94710000  1.0 -0.0519713704
F  F44  1  0.38200000  0.67280000  0.44710000  1.0 -0.0519713704
F  F45  1  0.32720000  0.61800000  0.05290000  1.0 -0.0519713704
F  F46  1  0.67280000  0.38200000  0.05290000  1.0 -0.0519713704
F  F47  1  0.61800000  0.67280000  0.55290000  1.0 -0.0519713704
F  F48  1  0.38200000  0.32720000  0.55290000  1.0 -0.0519713704
F  F49  1  0.17600000  0.19850000  0.32400000  1.0 -0.1869247738
F  F50  1  0.19850000  0.82400000  0.82400000  1.0 -0.1869247738
F  F51  1  0.82400000  0.80150000  0.32400000  1.0 -0.1869247738
F  F52  1  0.80150000  0.17600000  0.82400000  1.0 -0.1869247738
F  F53  1  0.82400000  0.19850000  0.67600000  1.0 -0.1869247738
F  F54  1  0.17600000  0.80150000  0.67600000  1.0 -0.1869247738
F  F55  1  0.19850000  0.17600000  0.17600000  1.0 -0.1869247738
F  F56  1  0.80150000  0.82400000  0.17600000  1.0 -0.1869247738
F  F57  1  0.82400000  0.80150000  0.67600000  1.0 -0.1869247738
F  F58  1  0.80150000  0.17600000  0.17600000  1.0 -0.1869247738
F  F59  1  0.17600000  0.19850000  0.67600000  1.0 -0.1869247738
F  F60  1  0.19850000  0.82400000  0.17600000  1.0 -0.1869247738
F  F61  1  0.17600000  0.80150000  0.32400000  1.0 -0.1869247738
F  F62  1  0.82400000  0.19850000  0.32400000  1.0 -0.1869247738
F  F63  1  0.80150000  0.82400000  0.82400000  1.0 -0.1869247738
F  F64  1  0.19850000  0.17600000  0.82400000  1.0 -0.1869247738
F  F65  1  0.21690000  0.25300000  0.43100000  1.0 -0.1772485012
F  F66  1  0.25300000  0.78310000  0.93100000  1.0 -0.1772485012
F  F67  1  0.78310000  0.74700000  0.43100000  1.0 -0.1772485012
F  F68  1  0.74700000  0.21690000  0.93100000  1.0 -0.1772485012
F  F69  1  0.78310000  0.25300000  0.56900000  1.0 -0.1772485012
F  F70  1  0.21690000  0.74700000  0.56900000  1.0 -0.1772485012
F  F71  1  0.25300000  0.21690000  0.06900000  1.0 -0.1772485012
F  F72  1  0.74700000  0.78310000  0.06900000  1.0 -0.1772485012
F  F73  1  0.78310000  0.74700000  0.56900000  1.0 -0.1772485012
F  F74  1  0.74700000  0.21690000  0.06900000  1.0 -0.1772485012
F  F75  1  0.21690000  0.25300000  0.56900000  1.0 -0.1772485012
F  F76  1  0.25300000  0.78310000  0.06900000  1.0 -0.1772485012
F  F77  1  0.21690000  0.74700000  0.43100000  1.0 -0.1772485012
F  F78  1  0.78310000  0.25300000  0.43100000  1.0 -0.1772485012
F  F79  1  0.74700000  0.78310000  0.93100000  1.0 -0.1772485012
F  F80  1  0.25300000  0.21690000  0.93100000  1.0 -0.1772485012
F  F81  1  0.12850000  0.26900000  0.39100000  1.0 -0.1772485012
F  F82  1  0.26900000  0.87150000  0.89100000  1.0 -0.1772485012
F  F83  1  0.87150000  0.73100000  0.39100000  1.0 -0.1772485012
F  F84  1  0.73100000  0.12850000  0.89100000  1.0 -0.1772485012
F  F85  1  0.87150000  0.26900000  0.60900000  1.0 -0.1772485012
F  F86  1  0.12850000  0.73100000  0.60900000  1.0 -0.1772485012
F  F87  1  0.26900000  0.12850000  0.10900000  1.0 -0.1772485012
F  F88  1  0.73100000  0.87150000  0.10900000  1.0 -0.1772485012
F  F89  1  0.87150000  0.73100000  0.60900000  1.0 -0.1772485012
F  F90  1  0.73100000  0.12850000  0.10900000  1.0 -0.1772485012
F  F91  1  0.12850000  0.26900000  0.60900000  1.0 -0.1772485012
F  F92  1  0.26900000  0.87150000  0.10900000  1.0 -0.1772485012
F  F93  1  0.12850000  0.73100000  0.39100000  1.0 -0.1772485012
F  F94  1  0.87150000  0.26900000  0.39100000  1.0 -0.1772485012
F  F95  1  0.73100000  0.87150000  0.89100000  1.0 -0.1772485012
F  F96  1  0.26900000  0.12850000  0.89100000  1.0 -0.1772485012
