# DDEC6 charges by PACMAN v1.1 (https://github.com/mtap-research/PACMAN-charge/)
data_OQUFAJ01_ASR_pacman
_symmetry_space_group_name_H-M   'P 1'
_cell_length_a   24.41180000
_cell_length_b   24.41180000
_cell_length_c   14.64990000
_cell_angle_alpha   90.00000000
_cell_angle_beta   90.00000000
_cell_angle_gamma   90.00000000
_symmetry_Int_Tables_number   1
_chemical_formula_structural   Zr3H16C36(OF2)12
_chemical_formula_sum   'Zr12 H64 C144 O48 F96'
_cell_volume   8730.40250227
_cell_formula_units_Z   4
loop_
 _symmetry_equiv_pos_site_id
 _symmetry_equiv_pos_as_xyz
  1  'x, y, z'
loop_
 _atom_site_type_symbol
 _atom_site_label
 _atom_site_symmetry_multiplicity
 _atom_site_fract_x
 _atom_site_fract_y
 _atom_site_fract_z
 _atom_site_occupancy
 _atom_site_charge
Zr  Zr1  1  0.39972000  0.00000000  0.00000000  1.0 2.3736701585
Zr  Zr2  1  0.00000000  0.60028000  0.50000000  1.0 2.3736701585
Zr  Zr3  1  0.60028000  0.00000000  0.00000000  1.0 2.3736701585
Zr  Zr4  1  0.00000000  0.39972000  0.50000000  1.0 2.3736701585
Zr  Zr5  1  0.50000000  0.07219000  0.12021000  1.0 2.4906083919
Zr  Zr6  1  0.07219000  0.50000000  0.62021000  1.0 2.4906083919
Zr  Zr7  1  0.50000000  0.92781000  0.12021000  1.0 2.4906083919
Zr  Zr8  1  0.92781000  0.50000000  0.62021000  1.0 2.4906083919
Zr  Zr9  1  0.50000000  0.07219000  0.87979000  1.0 2.4906083919
Zr  Zr10  1  0.50000000  0.92781000  0.87979000  1.0 2.4906083919
Zr  Zr11  1  0.07219000  0.50000000  0.37979000  1.0 2.4906083919
Zr  Zr12  1  0.92781000  0.50000000  0.37979000  1.0 2.4906083919
H  H1  1  0.37150000  0.16540000  0.27350000  1.0 0.1224389087
H  H2  1  0.16540000  0.62850000  0.77350000  1.0 0.1224389087
H  H3  1  0.62850000  0.83460000  0.27350000  1.0 0.1224389087
H  H4  1  0.83460000  0.37150000  0.77350000  1.0 0.1224389087
H  H5  1  0.62850000  0.16540000  0.72650000  1.0 0.1224389087
H  H6  1  0.37150000  0.83460000  0.72650000  1.0 0.1224389087
H  H7  1  0.16540000  0.37150000  0.22650000  1.0 0.1224389087
H  H8  1  0.83460000  0.62850000  0.22650000  1.0 0.1224389087
H  H9  1  0.62850000  0.83460000  0.72650000  1.0 0.1224389087
H  H10  1  0.83460000  0.37150000  0.22650000  1.0 0.1224389087
H  H11  1  0.37150000  0.16540000  0.72650000  1.0 0.1224389087
H  H12  1  0.16540000  0.62850000  0.22650000  1.0 0.1224389087
H  H13  1  0.37150000  0.83460000  0.27350000  1.0 0.1224389087
H  H14  1  0.62850000  0.16540000  0.27350000  1.0 0.1224389087
H  H15  1  0.83460000  0.62850000  0.77350000  1.0 0.1224389087
H  H16  1  0.16540000  0.37150000  0.77350000  1.0 0.1224389087
H  H17  1  0.26380000  0.10240000  0.09680000  1.0 0.1144514896
H  H18  1  0.10240000  0.73620000  0.59680000  1.0 0.1144514896
H  H19  1  0.73620000  0.89760000  0.09680000  1.0 0.1144514896
H  H20  1  0.89760000  0.26380000  0.59680000  1.0 0.1144514896
H  H21  1  0.73620000  0.10240000  0.90320000  1.0 0.1144514896
H  H22  1  0.26380000  0.89760000  0.90320000  1.0 0.1144514896
H  H23  1  0.10240000  0.26380000  0.40320000  1.0 0.1144514896
H  H24  1  0.89760000  0.73620000  0.40320000  1.0 0.1144514896
H  H25  1  0.73620000  0.89760000  0.90320000  1.0 0.1144514896
H  H26  1  0.89760000  0.26380000  0.40320000  1.0 0.1144514896
H  H27  1  0.26380000  0.10240000  0.90320000  1.0 0.1144514896
H  H28  1  0.10240000  0.73620000  0.40320000  1.0 0.1144514896
H  H29  1  0.26380000  0.89760000  0.09680000  1.0 0.1144514896
H  H30  1  0.73620000  0.10240000  0.09680000  1.0 0.1144514896
H  H31  1  0.89760000  0.73620000  0.59680000  1.0 0.1144514896
H  H32  1  0.10240000  0.26380000  0.59680000  1.0 0.1144514896
H  H33  1  0.20030000  0.16630000  0.14140000  1.0 0.152514273
H  H34  1  0.16630000  0.79970000  0.64140000  1.0 0.152514273
H  H35  1  0.79970000  0.83370000  0.14140000  1.0 0.152514273
H  H36  1  0.83370000  0.20030000  0.64140000  1.0 0.152514273
H  H37  1  0.79970000  0.16630000  0.85860000  1.0 0.152514273
H  H38  1  0.20030000  0.83370000  0.85860000  1.0 0.152514273
H  H39  1  0.16630000  0.20030000  0.35860000  1.0 0.152514273
H  H40  1  0.83370000  0.79970000  0.35860000  1.0 0.152514273
H  H41  1  0.79970000  0.83370000  0.85860000  1.0 0.152514273
H  H42  1  0.83370000  0.20030000  0.35860000  1.0 0.152514273
H  H43  1  0.20030000  0.16630000  0.85860000  1.0 0.152514273
H  H44  1  0.16630000  0.79970000  0.35860000  1.0 0.152514273
H  H45  1  0.20030000  0.83370000  0.14140000  1.0 0.152514273
H  H46  1  0.79970000  0.16630000  0.14140000  1.0 0.152514273
H  H47  1  0.83370000  0.79970000  0.64140000  1.0 0.152514273
H  H48  1  0.16630000  0.20030000  0.64140000  1.0 0.152514273
H  H49  1  0.30820000  0.22810000  0.32160000  1.0 0.152514273
H  H50  1  0.22810000  0.69180000  0.82160000  1.0 0.152514273
H  H51  1  0.69180000  0.77190000  0.32160000  1.0 0.152514273
H  H52  1  0.77190000  0.30820000  0.82160000  1.0 0.152514273
H  H53  1  0.69180000  0.22810000  0.67840000  1.0 0.152514273
H  H54  1  0.30820000  0.77190000  0.67840000  1.0 0.152514273
H  H55  1  0.22810000  0.30820000  0.17840000  1.0 0.152514273
H  H56  1  0.77190000  0.69180000  0.17840000  1.0 0.152514273
H  H57  1  0.69180000  0.77190000  0.67840000  1.0 0.152514273
H  H58  1  0.77190000  0.30820000  0.17840000  1.0 0.152514273
H  H59  1  0.30820000  0.22810000  0.67840000  1.0 0.152514273
H  H60  1  0.22810000  0.69180000  0.17840000  1.0 0.152514273
H  H61  1  0.30820000  0.77190000  0.32160000  1.0 0.152514273
H  H62  1  0.69180000  0.22810000  0.32160000  1.0 0.152514273
H  H63  1  0.77190000  0.69180000  0.82160000  1.0 0.152514273
H  H64  1  0.22810000  0.30820000  0.82160000  1.0 0.152514273
C  C1  1  0.24710000  0.20460000  0.23470000  1.0 0.037145784
C  C2  1  0.20460000  0.75290000  0.73470000  1.0 0.0346987151
C  C3  1  0.75290000  0.79540000  0.23470000  1.0 0.037145784
C  C4  1  0.79540000  0.24710000  0.73470000  1.0 0.037145784
C  C5  1  0.75290000  0.20460000  0.76530000  1.0 0.037145784
C  C6  1  0.24710000  0.79540000  0.76530000  1.0 0.037145784
C  C7  1  0.20460000  0.24710000  0.26530000  1.0 0.037145784
C  C8  1  0.79540000  0.75290000  0.26530000  1.0 0.037145784
C  C9  1  0.75290000  0.79540000  0.76530000  1.0 0.037145784
C  C10  1  0.79540000  0.24710000  0.26530000  1.0 0.037145784
C  C11  1  0.24710000  0.20460000  0.76530000  1.0 0.037145784
C  C12  1  0.20460000  0.75290000  0.26530000  1.0 0.037145784
C  C13  1  0.24710000  0.79540000  0.23470000  1.0 0.037145784
C  C14  1  0.75290000  0.20460000  0.23470000  1.0 0.037145784
C  C15  1  0.79540000  0.75290000  0.73470000  1.0 0.037145784
C  C16  1  0.20460000  0.24710000  0.73470000  1.0 0.0346987151
C  C17  1  0.29910000  0.20310000  0.27420000  1.0 -0.1609715153
C  C18  1  0.20310000  0.70090000  0.77420000  1.0 -0.1609715153
C  C19  1  0.70090000  0.79690000  0.27420000  1.0 -0.1609715153
C  C20  1  0.79690000  0.29910000  0.77420000  1.0 -0.1609715153
C  C21  1  0.70090000  0.20310000  0.72580000  1.0 -0.1609715153
C  C22  1  0.29910000  0.79690000  0.72580000  1.0 -0.1609715153
C  C23  1  0.20310000  0.29910000  0.22580000  1.0 -0.1609715153
C  C24  1  0.79690000  0.70090000  0.22580000  1.0 -0.1609715153
C  C25  1  0.70090000  0.79690000  0.72580000  1.0 -0.1609715153
C  C26  1  0.79690000  0.29910000  0.22580000  1.0 -0.1609715153
C  C27  1  0.29910000  0.20310000  0.72580000  1.0 -0.1609715153
C  C28  1  0.20310000  0.70090000  0.22580000  1.0 -0.1609715153
C  C29  1  0.29910000  0.79690000  0.27420000  1.0 -0.1609715153
C  C30  1  0.70090000  0.20310000  0.27420000  1.0 -0.1609715153
C  C31  1  0.79690000  0.70090000  0.77420000  1.0 -0.1609715153
C  C32  1  0.20310000  0.29910000  0.77420000  1.0 -0.1609715153
C  C33  1  0.33650000  0.16630000  0.24540000  1.0 -0.0866487048
C  C34  1  0.16630000  0.66350000  0.74540000  1.0 -0.0866487048
C  C35  1  0.66350000  0.83370000  0.24540000  1.0 -0.0866487048
C  C36  1  0.83370000  0.33650000  0.74540000  1.0 -0.0866487048
C  C37  1  0.66350000  0.16630000  0.75460000  1.0 -0.0866487048
C  C38  1  0.33650000  0.83370000  0.75460000  1.0 -0.0866487048
C  C39  1  0.16630000  0.33650000  0.25460000  1.0 -0.0782513711
C  C40  1  0.83370000  0.66350000  0.25460000  1.0 -0.0782513711
C  C41  1  0.66350000  0.83370000  0.75460000  1.0 -0.0866487048
C  C42  1  0.83370000  0.33650000  0.25460000  1.0 -0.0782513711
C  C43  1  0.33650000  0.16630000  0.75460000  1.0 -0.0866487048
C  C44  1  0.16630000  0.66350000  0.25460000  1.0 -0.0782513711
C  C45  1  0.33650000  0.83370000  0.24540000  1.0 -0.0866487048
C  C46  1  0.66350000  0.16630000  0.24540000  1.0 -0.0866487048
C  C47  1  0.83370000  0.66350000  0.74540000  1.0 -0.0866487048
C  C48  1  0.16630000  0.33650000  0.74540000  1.0 -0.0866487048
C  C49  1  0.32510000  0.13050000  0.17700000  1.0 -0.0229289289
C  C50  1  0.13050000  0.67490000  0.67700000  1.0 -0.0229289289
C  C51  1  0.67490000  0.86950000  0.17700000  1.0 -0.0229289289
C  C52  1  0.86950000  0.32510000  0.67700000  1.0 -0.0229289289
C  C53  1  0.67490000  0.13050000  0.82300000  1.0 -0.0229289289
C  C54  1  0.32510000  0.86950000  0.82300000  1.0 -0.0229289289
C  C55  1  0.13050000  0.32510000  0.32300000  1.0 -0.0229289289
C  C56  1  0.86950000  0.67490000  0.32300000  1.0 -0.0229289289
C  C57  1  0.67490000  0.86950000  0.82300000  1.0 -0.0229289289
C  C58  1  0.86950000  0.32510000  0.32300000  1.0 -0.0229289289
C  C59  1  0.32510000  0.13050000  0.82300000  1.0 -0.0229289289
C  C60  1  0.13050000  0.67490000  0.32300000  1.0 -0.0229289289
C  C61  1  0.32510000  0.86950000  0.17700000  1.0 -0.0229289289
C  C62  1  0.67490000  0.13050000  0.17700000  1.0 -0.0229289289
C  C63  1  0.86950000  0.67490000  0.67700000  1.0 -0.0229289289
C  C64  1  0.13050000  0.32510000  0.67700000  1.0 -0.0229289289
C  C65  1  0.27330000  0.12930000  0.14100000  1.0 -0.0866487048
C  C66  1  0.12930000  0.72670000  0.64100000  1.0 -0.0866487048
C  C67  1  0.72670000  0.87070000  0.14100000  1.0 -0.0866487048
C  C68  1  0.87070000  0.27330000  0.64100000  1.0 -0.0866487048
C  C69  1  0.72670000  0.12930000  0.85900000  1.0 -0.0866487048
C  C70  1  0.27330000  0.87070000  0.85900000  1.0 -0.0866487048
C  C71  1  0.12930000  0.27330000  0.35900000  1.0 -0.0866487048
C  C72  1  0.87070000  0.72670000  0.35900000  1.0 -0.0866487048
C  C73  1  0.72670000  0.87070000  0.85900000  1.0 -0.0866487048
C  C74  1  0.87070000  0.27330000  0.35900000  1.0 -0.0866487048
C  C75  1  0.27330000  0.12930000  0.85900000  1.0 -0.0866487048
C  C76  1  0.12930000  0.72670000  0.35900000  1.0 -0.0866487048
C  C77  1  0.27330000  0.87070000  0.14100000  1.0 -0.0866487048
C  C78  1  0.72670000  0.12930000  0.14100000  1.0 -0.0866487048
C  C79  1  0.87070000  0.72670000  0.64100000  1.0 -0.0866487048
C  C80  1  0.12930000  0.27330000  0.64100000  1.0 -0.0866487048
C  C81  1  0.23560000  0.16650000  0.16860000  1.0 -0.1609715153
C  C82  1  0.16650000  0.76440000  0.66860000  1.0 -0.1609715153
C  C83  1  0.76440000  0.83350000  0.16860000  1.0 -0.1609715153
C  C84  1  0.83350000  0.23560000  0.66860000  1.0 -0.1609715153
C  C85  1  0.76440000  0.16650000  0.83140000  1.0 -0.1609715153
C  C86  1  0.23560000  0.83350000  0.83140000  1.0 -0.1609715153
C  C87  1  0.16650000  0.23560000  0.33140000  1.0 -0.1609715153
C  C88  1  0.83350000  0.76440000  0.33140000  1.0 -0.1609715153
C  C89  1  0.76440000  0.83350000  0.83140000  1.0 -0.1609715153
C  C90  1  0.83350000  0.23560000  0.33140000  1.0 -0.1609715153
C  C91  1  0.23560000  0.16650000  0.83140000  1.0 -0.1609715153
C  C92  1  0.16650000  0.76440000  0.33140000  1.0 -0.1609715153
C  C93  1  0.23560000  0.83350000  0.16860000  1.0 -0.1609715153
C  C94  1  0.76440000  0.16650000  0.16860000  1.0 -0.1609715153
C  C95  1  0.83350000  0.76440000  0.66860000  1.0 -0.1609715153
C  C96  1  0.16650000  0.23560000  0.66860000  1.0 -0.1609715153
C  C97  1  0.36800000  0.09230000  0.14220000  1.0 0.6407306172
C  C98  1  0.09230000  0.63200000  0.64220000  1.0 0.6407306172
C  C99  1  0.63200000  0.90770000  0.14220000  1.0 0.6407306172
C  C100  1  0.90770000  0.36800000  0.64220000  1.0 0.6407306172
C  C101  1  0.63200000  0.09230000  0.85780000  1.0 0.6407306172
C  C102  1  0.36800000  0.90770000  0.85780000  1.0 0.6407306172
C  C103  1  0.09230000  0.36800000  0.35780000  1.0 0.6407306172
C  C104  1  0.90770000  0.63200000  0.35780000  1.0 0.6407306172
C  C105  1  0.63200000  0.90770000  0.85780000  1.0 0.6407306172
C  C106  1  0.90770000  0.36800000  0.35780000  1.0 0.6407306172
C  C107  1  0.36800000  0.09230000  0.85780000  1.0 0.6407306172
C  C108  1  0.09230000  0.63200000  0.35780000  1.0 0.6407306172
C  C109  1  0.36800000  0.90770000  0.14220000  1.0 0.6407306172
C  C110  1  0.63200000  0.09230000  0.14220000  1.0 0.6407306172
C  C111  1  0.90770000  0.63200000  0.64220000  1.0 0.6407306172
C  C112  1  0.09230000  0.36800000  0.64220000  1.0 0.6407306172
C  C113  1  0.32270000  0.24570000  0.35450000  1.0 0.4338068325
C  C114  1  0.24570000  0.67730000  0.85450000  1.0 0.4338068325
C  C115  1  0.67730000  0.75430000  0.35450000  1.0 0.4338068325
C  C116  1  0.75430000  0.32270000  0.85450000  1.0 0.4338068325
C  C117  1  0.67730000  0.24570000  0.64550000  1.0 0.4338068325
C  C118  1  0.32270000  0.75430000  0.64550000  1.0 0.4338068325
C  C119  1  0.24570000  0.32270000  0.14550000  1.0 0.4338068325
C  C120  1  0.75430000  0.67730000  0.14550000  1.0 0.4338068325
C  C121  1  0.67730000  0.75430000  0.64550000  1.0 0.4338068325
C  C122  1  0.75430000  0.32270000  0.14550000  1.0 0.4338068325
C  C123  1  0.32270000  0.24570000  0.64550000  1.0 0.4338068325
C  C124  1  0.24570000  0.67730000  0.14550000  1.0 0.4338068325
C  C125  1  0.32270000  0.75430000  0.35450000  1.0 0.4338068325
C  C126  1  0.67730000  0.24570000  0.35450000  1.0 0.4338068325
C  C127  1  0.75430000  0.67730000  0.85450000  1.0 0.4338068325
C  C128  1  0.24570000  0.32270000  0.85450000  1.0 0.4338068325
C  C129  1  0.17660000  0.16140000  0.11120000  1.0 0.3964217674
C  C130  1  0.16140000  0.82340000  0.61120000  1.0 0.3964217674
C  C131  1  0.82340000  0.83860000  0.11120000  1.0 0.3964217674
C  C132  1  0.83860000  0.17660000  0.61120000  1.0 0.3964217674
C  C133  1  0.82340000  0.16140000  0.88880000  1.0 0.3964217674
C  C134  1  0.17660000  0.83860000  0.88880000  1.0 0.3964217674
C  C135  1  0.16140000  0.17660000  0.38880000  1.0 0.3964217674
C  C136  1  0.83860000  0.82340000  0.38880000  1.0 0.3964217674
C  C137  1  0.82340000  0.83860000  0.88880000  1.0 0.3964217674
C  C138  1  0.83860000  0.17660000  0.38880000  1.0 0.3964217674
C  C139  1  0.17660000  0.16140000  0.88880000  1.0 0.3964217674
C  C140  1  0.16140000  0.82340000  0.38880000  1.0 0.3964217674
C  C141  1  0.17660000  0.83860000  0.11120000  1.0 0.3964217674
C  C142  1  0.82340000  0.16140000  0.11120000  1.0 0.3964217674
C  C143  1  0.83860000  0.82340000  0.61120000  1.0 0.3964217674
C  C144  1  0.16140000  0.17660000  0.61120000  1.0 0.3964217674
O  O1  1  0.35270000  0.05508000  0.09020000  1.0 -0.5443779523
O  O2  1  0.05508000  0.64730000  0.59020000  1.0 -0.5443779523
O  O3  1  0.64730000  0.94492000  0.09020000  1.0 -0.5443779523
O  O4  1  0.94492000  0.35270000  0.59020000  1.0 -0.5443779523
O  O5  1  0.64730000  0.05508000  0.90980000  1.0 -0.5443779523
O  O6  1  0.35270000  0.94492000  0.90980000  1.0 -0.5443779523
O  O7  1  0.05508000  0.35270000  0.40980000  1.0 -0.5455077909
O  O8  1  0.94492000  0.64730000  0.40980000  1.0 -0.5455077909
O  O9  1  0.64730000  0.94492000  0.90980000  1.0 -0.5443779523
O  O10  1  0.94492000  0.35270000  0.40980000  1.0 -0.5455077909
O  O11  1  0.35270000  0.05508000  0.90980000  1.0 -0.5443779523
O  O12  1  0.05508000  0.64730000  0.40980000  1.0 -0.5455077909
O  O13  1  0.35270000  0.94492000  0.09020000  1.0 -0.5455077909
O  O14  1  0.64730000  0.05508000  0.09020000  1.0 -0.5443779523
O  O15  1  0.94492000  0.64730000  0.59020000  1.0 -0.5443779523
O  O16  1  0.05508000  0.35270000  0.59020000  1.0 -0.5443779523
O  O17  1  0.41649000  0.10170000  0.16770000  1.0 -0.5879797809
O  O18  1  0.10170000  0.58351000  0.66770000  1.0 -0.5879797809
O  O19  1  0.58351000  0.89830000  0.16770000  1.0 -0.5879797809
O  O20  1  0.89830000  0.41649000  0.66770000  1.0 -0.5879797809
O  O21  1  0.58351000  0.10170000  0.83230000  1.0 -0.5879797809
O  O22  1  0.41649000  0.89830000  0.83230000  1.0 -0.5879797809
O  O23  1  0.10170000  0.41649000  0.33230000  1.0 -0.5879797809
O  O24  1  0.89830000  0.58351000  0.33230000  1.0 -0.5879797809
O  O25  1  0.58351000  0.89830000  0.83230000  1.0 -0.5879797809
O  O26  1  0.89830000  0.41649000  0.33230000  1.0 -0.5879797809
O  O27  1  0.41649000  0.10170000  0.83230000  1.0 -0.5879797809
O  O28  1  0.10170000  0.58351000  0.33230000  1.0 -0.5879797809
O  O29  1  0.41649000  0.89830000  0.16770000  1.0 -0.5879797809
O  O30  1  0.58351000  0.10170000  0.16770000  1.0 -0.5879797809
O  O31  1  0.89830000  0.58351000  0.66770000  1.0 -0.5879797809
O  O32  1  0.10170000  0.41649000  0.66770000  1.0 -0.5879797809
O  O33  1  0.45030000  0.07330000  0.00000000  1.0 -1.1793616095
O  O34  1  0.07330000  0.54970000  0.50000000  1.0 -1.1793616095
O  O35  1  0.54970000  0.92670000  0.00000000  1.0 -1.1793616095
O  O36  1  0.92670000  0.45030000  0.50000000  1.0 -1.1793616095
O  O37  1  0.54970000  0.07330000  0.00000000  1.0 -1.1793616095
O  O38  1  0.45030000  0.92670000  0.00000000  1.0 -1.1793616095
O  O39  1  0.07330000  0.45030000  0.50000000  1.0 -1.1793616095
O  O40  1  0.92670000  0.54970000  0.50000000  1.0 -1.1793616095
O  O41  1  0.45150000  0.00000000  0.12050000  1.0 -1.1707874559
O  O42  1  0.00000000  0.54850000  0.62050000  1.0 -1.1793616095
O  O43  1  0.54850000  0.00000000  0.12050000  1.0 -1.1707874559
O  O44  1  0.00000000  0.45150000  0.62050000  1.0 -1.1793616095
O  O45  1  0.54850000  0.00000000  0.87950000  1.0 -1.1793616095
O  O46  1  0.45150000  0.00000000  0.87950000  1.0 -1.1793616095
O  O47  1  0.00000000  0.45150000  0.37950000  1.0 -1.1793616095
O  O48  1  0.00000000  0.54850000  0.37950000  1.0 -1.1793616095
F  F1  1  0.32760000  0.29710000  0.32090000  1.0 -0.1899546482
F  F2  1  0.29710000  0.67240000  0.82090000  1.0 -0.1899546482
F  F3  1  0.67240000  0.70290000  0.32090000  1.0 -0.1899546482
F  F4  1  0.70290000  0.32760000  0.82090000  1.0 -0.1899546482
F  F5  1  0.67240000  0.29710000  0.67910000  1.0 -0.1899546482
F  F6  1  0.32760000  0.70290000  0.67910000  1.0 -0.1899546482
F  F7  1  0.29710000  0.32760000  0.17910000  1.0 -0.1899546482
F  F8  1  0.70290000  0.67240000  0.17910000  1.0 -0.1899546482
F  F9  1  0.67240000  0.70290000  0.67910000  1.0 -0.1899546482
F  F10  1  0.70290000  0.32760000  0.17910000  1.0 -0.1899546482
F  F11  1  0.32760000  0.29710000  0.67910000  1.0 -0.1899546482
F  F12  1  0.29710000  0.67240000  0.17910000  1.0 -0.1899546482
F  F13  1  0.32760000  0.70290000  0.32090000  1.0 -0.1899546482
F  F14  1  0.67240000  0.29710000  0.32090000  1.0 -0.1899546482
F  F15  1  0.70290000  0.67240000  0.82090000  1.0 -0.1899546482
F  F16  1  0.29710000  0.32760000  0.82090000  1.0 -0.1899546482
F  F17  1  0.28670000  0.24890000  0.42470000  1.0 -0.2322370283
F  F18  1  0.24890000  0.71330000  0.92470000  1.0 -0.2322370283
F  F19  1  0.71330000  0.75110000  0.42470000  1.0 -0.2322370283
F  F20  1  0.75110000  0.28670000  0.92470000  1.0 -0.2322370283
F  F21  1  0.71330000  0.24890000  0.57530000  1.0 -0.2322370283
F  F22  1  0.28670000  0.75110000  0.57530000  1.0 -0.2322370283
F  F23  1  0.24890000  0.28670000  0.07530000  1.0 -0.2322370283
F  F24  1  0.75110000  0.71330000  0.07530000  1.0 -0.2322370283
F  F25  1  0.71330000  0.75110000  0.57530000  1.0 -0.2322370283
F  F26  1  0.75110000  0.28670000  0.07530000  1.0 -0.2322370283
F  F27  1  0.28670000  0.24890000  0.57530000  1.0 -0.2322370283
F  F28  1  0.24890000  0.71330000  0.07530000  1.0 -0.2322370283
F  F29  1  0.28670000  0.75110000  0.42470000  1.0 -0.2322370283
F  F30  1  0.71330000  0.24890000  0.42470000  1.0 -0.2322370283
F  F31  1  0.75110000  0.71330000  0.92470000  1.0 -0.2322370283
F  F32  1  0.24890000  0.28670000  0.92470000  1.0 -0.2322370283
F  F33  1  0.37060000  0.23160000  0.39050000  1.0 -0.1976166781
F  F34  1  0.23160000  0.62940000  0.89050000  1.0 -0.1976166781
F  F35  1  0.62940000  0.76840000  0.39050000  1.0 -0.1976166781
F  F36  1  0.76840000  0.37060000  0.89050000  1.0 -0.1976166781
F  F37  1  0.62940000  0.23160000  0.60950000  1.0 -0.1976166781
F  F38  1  0.37060000  0.76840000  0.60950000  1.0 -0.1976166781
F  F39  1  0.23160000  0.37060000  0.10950000  1.0 -0.1976166781
F  F40  1  0.76840000  0.62940000  0.10950000  1.0 -0.1976166781
F  F41  1  0.62940000  0.76840000  0.60950000  1.0 -0.1976166781
F  F42  1  0.76840000  0.37060000  0.10950000  1.0 -0.1976166781
F  F43  1  0.37060000  0.23160000  0.60950000  1.0 -0.1976166781
F  F44  1  0.23160000  0.62940000  0.10950000  1.0 -0.1976166781
F  F45  1  0.37060000  0.76840000  0.39050000  1.0 -0.1976166781
F  F46  1  0.62940000  0.23160000  0.39050000  1.0 -0.1976166781
F  F47  1  0.76840000  0.62940000  0.89050000  1.0 -0.1976166781
F  F48  1  0.23160000  0.37060000  0.89050000  1.0 -0.1976166781
F  F49  1  0.13480000  0.15510000  0.17170000  1.0 -0.1816546939
F  F50  1  0.15510000  0.86520000  0.67170000  1.0 -0.1816546939
F  F51  1  0.86520000  0.84490000  0.17170000  1.0 -0.1816546939
F  F52  1  0.84490000  0.13480000  0.67170000  1.0 -0.1816546939
F  F53  1  0.86520000  0.15510000  0.82830000  1.0 -0.1816546939
F  F54  1  0.13480000  0.84490000  0.82830000  1.0 -0.1816546939
F  F55  1  0.15510000  0.13480000  0.32830000  1.0 -0.1816546939
F  F56  1  0.84490000  0.86520000  0.32830000  1.0 -0.1816546939
F  F57  1  0.86520000  0.84490000  0.82830000  1.0 -0.1816546939
F  F58  1  0.84490000  0.13480000  0.32830000  1.0 -0.1816546939
F  F59  1  0.13480000  0.15510000  0.82830000  1.0 -0.1816546939
F  F60  1  0.15510000  0.86520000  0.32830000  1.0 -0.1816546939
F  F61  1  0.13480000  0.84490000  0.17170000  1.0 -0.1816546939
F  F62  1  0.86520000  0.15510000  0.17170000  1.0 -0.1816546939
F  F63  1  0.84490000  0.86520000  0.67170000  1.0 -0.1816546939
F  F64  1  0.15510000  0.13480000  0.67170000  1.0 -0.1816546939
F  F65  1  0.16500000  0.20990000  0.06850000  1.0 -0.1816546939
F  F66  1  0.20990000  0.83500000  0.56850000  1.0 -0.1816546939
F  F67  1  0.83500000  0.79010000  0.06850000  1.0 -0.1816546939
F  F68  1  0.79010000  0.16500000  0.56850000  1.0 -0.1816546939
F  F69  1  0.83500000  0.20990000  0.93150000  1.0 -0.1816546939
F  F70  1  0.16500000  0.79010000  0.93150000  1.0 -0.1816546939
F  F71  1  0.20990000  0.16500000  0.43150000  1.0 -0.1816546939
F  F72  1  0.79010000  0.83500000  0.43150000  1.0 -0.1816546939
F  F73  1  0.83500000  0.79010000  0.93150000  1.0 -0.1816546939
F  F74  1  0.79010000  0.16500000  0.43150000  1.0 -0.1816546939
F  F75  1  0.16500000  0.20990000  0.93150000  1.0 -0.1816546939
F  F76  1  0.20990000  0.83500000  0.43150000  1.0 -0.1816546939
F  F77  1  0.16500000  0.79010000  0.06850000  1.0 -0.1816546939
F  F78  1  0.83500000  0.20990000  0.06850000  1.0 -0.1816546939
F  F79  1  0.79010000  0.83500000  0.56850000  1.0 -0.1816546939
F  F80  1  0.20990000  0.16500000  0.56850000  1.0 -0.1816546939
F  F81  1  0.17390000  0.12270000  0.04920000  1.0 -0.0782513711
F  F82  1  0.12270000  0.82610000  0.54920000  1.0 -0.0782513711
F  F83  1  0.82610000  0.87730000  0.04920000  1.0 -0.0782513711
F  F84  1  0.87730000  0.17390000  0.54920000  1.0 -0.0782513711
F  F85  1  0.82610000  0.12270000  0.95080000  1.0 -0.0782513711
F  F86  1  0.17390000  0.87730000  0.95080000  1.0 -0.0782513711
F  F87  1  0.12270000  0.17390000  0.45080000  1.0 -0.0782513711
F  F88  1  0.87730000  0.82610000  0.45080000  1.0 -0.0782513711
F  F89  1  0.82610000  0.87730000  0.95080000  1.0 -0.0782513711
F  F90  1  0.87730000  0.17390000  0.45080000  1.0 -0.0782513711
F  F91  1  0.17390000  0.12270000  0.95080000  1.0 -0.0782513711
F  F92  1  0.12270000  0.82610000  0.45080000  1.0 -0.0782513711
F  F93  1  0.17390000  0.87730000  0.04920000  1.0 -0.0782513711
F  F94  1  0.82610000  0.12270000  0.04920000  1.0 -0.0782513711
F  F95  1  0.87730000  0.82610000  0.54920000  1.0 -0.0782513711
F  F96  1  0.12270000  0.17390000  0.54920000  1.0 -0.0782513711
