# DDEC6 charges by PACMAN v1.1 (https://github.com/mtap-research/PACMAN-charge/)
data_OQUXAB_ASR_pacman
_symmetry_space_group_name_H-M   'P 1'
_cell_length_a   13.11070000
_cell_length_b   20.06270000
_cell_length_c   26.86350000
_cell_angle_alpha   90.00000000
_cell_angle_beta   90.00000000
_cell_angle_gamma   90.00000000
_symmetry_Int_Tables_number   1
_chemical_formula_structural   Co2GeH20W12C24(N4O17)2
_chemical_formula_sum   'Co8 Ge4 H80 W48 C96 N32 O136'
_cell_volume   7066.06868445
_cell_formula_units_Z   4
loop_
 _symmetry_equiv_pos_site_id
 _symmetry_equiv_pos_as_xyz
  1  'x, y, z'
loop_
 _atom_site_type_symbol
 _atom_site_label
 _atom_site_symmetry_multiplicity
 _atom_site_fract_x
 _atom_site_fract_y
 _atom_site_fract_z
 _atom_site_occupancy
 _atom_site_charge
Co  Co1  1  0.61350000  0.10972000  0.25868000  1.0 0.941827337
Co  Co2  1  0.11350000  0.89028000  0.24132000  1.0 0.941827337
Co  Co3  1  0.88650000  0.39028000  0.75868000  1.0 0.941827337
Co  Co4  1  0.38650000  0.60972000  0.74132000  1.0 0.941827337
Co  Co5  1  0.38650000  0.89028000  0.74132000  1.0 0.941827337
Co  Co6  1  0.88650000  0.10972000  0.75868000  1.0 0.941827337
Co  Co7  1  0.11350000  0.60972000  0.24132000  1.0 0.941827337
Co  Co8  1  0.61350000  0.39028000  0.25868000  1.0 0.941827337
Ge  Ge1  1  0.11195000  0.25000000  0.26413000  1.0 1.345025989
Ge  Ge2  1  0.61195000  0.75000000  0.23587000  1.0 1.3437139318
Ge  Ge3  1  0.38805000  0.25000000  0.76413000  1.0 1.3437139318
Ge  Ge4  1  0.88805000  0.75000000  0.73587000  1.0 1.3437139318
H  H1  1  0.73110000  0.12560000  0.36800000  1.0 0.1184854839
H  H2  1  0.23110000  0.87440000  0.13200000  1.0 0.1184854839
H  H3  1  0.76890000  0.37440000  0.86800000  1.0 0.1184854839
H  H4  1  0.26890000  0.62560000  0.63200000  1.0 0.1184854839
H  H5  1  0.26890000  0.87440000  0.63200000  1.0 0.1184854839
H  H6  1  0.76890000  0.12560000  0.86800000  1.0 0.1184854839
H  H7  1  0.23110000  0.62560000  0.13200000  1.0 0.1184854839
H  H8  1  0.73110000  0.37440000  0.36800000  1.0 0.1184854839
H  H9  1  0.75070000  0.16960000  0.44670000  1.0 0.102538835
H  H10  1  0.25070000  0.83040000  0.05330000  1.0 0.102538835
H  H11  1  0.74930000  0.33040000  0.94670000  1.0 0.102538835
H  H12  1  0.24930000  0.66960000  0.55330000  1.0 0.102538835
H  H13  1  0.24930000  0.83040000  0.55330000  1.0 0.102538835
H  H14  1  0.74930000  0.16960000  0.94670000  1.0 0.102538835
H  H15  1  0.25070000  0.66960000  0.05330000  1.0 0.102538835
H  H16  1  0.75070000  0.33040000  0.44670000  1.0 0.102538835
H  H17  1  0.52800000  0.00620000  0.43120000  1.0 0.0906081566
H  H18  1  0.02800000  0.99380000  0.06880000  1.0 0.0906081566
H  H19  1  0.97200000  0.49380000  0.93120000  1.0 0.0906081566
H  H20  1  0.47200000  0.50620000  0.56880000  1.0 0.0906081566
H  H21  1  0.47200000  0.99380000  0.56880000  1.0 0.0906081566
H  H22  1  0.97200000  0.00620000  0.93120000  1.0 0.0906081566
H  H23  1  0.02800000  0.50620000  0.06880000  1.0 0.0906081566
H  H24  1  0.52800000  0.49380000  0.43120000  1.0 0.0906081566
H  H25  1  0.49380000  0.01170000  0.34300000  1.0 0.1184854839
H  H26  1  0.99380000  0.98830000  0.15700000  1.0 0.1184854839
H  H27  1  0.00620000  0.48830000  0.84300000  1.0 0.1184854839
H  H28  1  0.50620000  0.51170000  0.65700000  1.0 0.1184854839
H  H29  1  0.50620000  0.98830000  0.65700000  1.0 0.1184854839
H  H30  1  0.00620000  0.01170000  0.84300000  1.0 0.1184854839
H  H31  1  0.99380000  0.51170000  0.15700000  1.0 0.1184854839
H  H32  1  0.49380000  0.48830000  0.34300000  1.0 0.1184854839
H  H33  1  0.66010000  0.99640000  0.49700000  1.0 0.102538835
H  H34  1  0.16010000  0.00360000  0.00300000  1.0 0.102538835
H  H35  1  0.83990000  0.50360000  0.99700000  1.0 0.102538835
H  H36  1  0.33990000  0.49640000  0.50300000  1.0 0.102538835
H  H37  1  0.33990000  0.00360000  0.50300000  1.0 0.102538835
H  H38  1  0.83990000  0.99640000  0.99700000  1.0 0.102538835
H  H39  1  0.16010000  0.49640000  0.00300000  1.0 0.102538835
H  H40  1  0.66010000  0.50360000  0.49700000  1.0 0.102538835
H  H41  1  0.75810000  0.07750000  0.65260000  1.0 0.1107158575
H  H42  1  0.25810000  0.92250000  0.84740000  1.0 0.1107158575
H  H43  1  0.74190000  0.42250000  0.15260000  1.0 0.1107158575
H  H44  1  0.24190000  0.57750000  0.34740000  1.0 0.1107158575
H  H45  1  0.24190000  0.92250000  0.34740000  1.0 0.1107158575
H  H46  1  0.74190000  0.07750000  0.15260000  1.0 0.1107158575
H  H47  1  0.25810000  0.57750000  0.84740000  1.0 0.1107158575
H  H48  1  0.75810000  0.42250000  0.65260000  1.0 0.1107158575
H  H49  1  0.02020000  0.17510000  0.66750000  1.0 0.1107158575
H  H50  1  0.52020000  0.82490000  0.83250000  1.0 0.1107158575
H  H51  1  0.47980000  0.32490000  0.16750000  1.0 0.1107158575
H  H52  1  0.97980000  0.67510000  0.33250000  1.0 0.1107158575
H  H53  1  0.97980000  0.82490000  0.33250000  1.0 0.1107158575
H  H54  1  0.47980000  0.17510000  0.16750000  1.0 0.1107158575
H  H55  1  0.52020000  0.67510000  0.83250000  1.0 0.1107158575
H  H56  1  0.02020000  0.32490000  0.66750000  1.0 0.1107158575
H  H57  1  0.73050000  0.01970000  0.57420000  1.0 0.1184854839
H  H58  1  0.23050000  0.98030000  0.92580000  1.0 0.1184854839
H  H59  1  0.76950000  0.48030000  0.07420000  1.0 0.1184854839
H  H60  1  0.26950000  0.51970000  0.42580000  1.0 0.1184854839
H  H61  1  0.26950000  0.98030000  0.42580000  1.0 0.1184854839
H  H62  1  0.76950000  0.01970000  0.07420000  1.0 0.1184854839
H  H63  1  0.23050000  0.51970000  0.92580000  1.0 0.1184854839
H  H64  1  0.73050000  0.48030000  0.57420000  1.0 0.1184854839
H  H65  1  0.83640000  0.18810000  0.52030000  1.0 0.102538835
H  H66  1  0.33640000  0.81190000  0.97970000  1.0 0.102538835
H  H67  1  0.66360000  0.31190000  0.02030000  1.0 0.102538835
H  H68  1  0.16360000  0.68810000  0.47970000  1.0 0.102538835
H  H69  1  0.16360000  0.81190000  0.47970000  1.0 0.102538835
H  H70  1  0.66360000  0.18810000  0.02030000  1.0 0.102538835
H  H71  1  0.33640000  0.68810000  0.97970000  1.0 0.102538835
H  H72  1  0.83640000  0.31190000  0.52030000  1.0 0.102538835
H  H73  1  0.97830000  0.17470000  0.57930000  1.0 0.102538835
H  H74  1  0.47830000  0.82530000  0.92070000  1.0 0.102538835
H  H75  1  0.52170000  0.32530000  0.07930000  1.0 0.102538835
H  H76  1  0.02170000  0.67470000  0.42070000  1.0 0.102538835
H  H77  1  0.02170000  0.82530000  0.42070000  1.0 0.102538835
H  H78  1  0.52170000  0.17470000  0.07930000  1.0 0.102538835
H  H79  1  0.47830000  0.67470000  0.92070000  1.0 0.102538835
H  H80  1  0.97830000  0.32530000  0.57930000  1.0 0.102538835
W  W1  1  0.87631000  0.16699000  0.26675000  1.0 2.3997478928
W  W2  1  0.37631000  0.83301000  0.23325000  1.0 2.3929616699
W  W3  1  0.62369000  0.33301000  0.76675000  1.0 2.3997478928
W  W4  1  0.12369000  0.66699000  0.73325000  1.0 2.3997478928
W  W5  1  0.12369000  0.83301000  0.73325000  1.0 2.3997478928
W  W6  1  0.62369000  0.16699000  0.76675000  1.0 2.3997478928
W  W7  1  0.37631000  0.66699000  0.23325000  1.0 2.3929616699
W  W8  1  0.87631000  0.33301000  0.26675000  1.0 2.3929616699
W  W9  1  0.12006000  0.07466000  0.26703000  1.0 2.3929616699
W  W10  1  0.62006000  0.92534000  0.23297000  1.0 2.3929616699
W  W11  1  0.37994000  0.42534000  0.76703000  1.0 2.3929616699
W  W12  1  0.87994000  0.57466000  0.73297000  1.0 2.3929616699
W  W13  1  0.87994000  0.92534000  0.73297000  1.0 2.3929616699
W  W14  1  0.37994000  0.07466000  0.76703000  1.0 2.3929616699
W  W15  1  0.62006000  0.57466000  0.23297000  1.0 2.3929616699
W  W16  1  0.12006000  0.42534000  0.26703000  1.0 2.3929616699
W  W17  1  0.33997000  0.15799000  0.26819000  1.0 2.4052693571
W  W18  1  0.83997000  0.84201000  0.23181000  1.0 2.3997478928
W  W19  1  0.16003000  0.34201000  0.76819000  1.0 2.4052693571
W  W20  1  0.66003000  0.65799000  0.73181000  1.0 2.3997478928
W  W21  1  0.66003000  0.84201000  0.73181000  1.0 2.3997478928
W  W22  1  0.16003000  0.15799000  0.76819000  1.0 2.4052693571
W  W23  1  0.83997000  0.65799000  0.23181000  1.0 2.3997478928
W  W24  1  0.33997000  0.34201000  0.26819000  1.0 2.3997478928
W  W25  1  0.19155000  0.15759000  0.36929000  1.0 2.438622805
W  W26  1  0.69155000  0.84241000  0.13071000  1.0 2.438622805
W  W27  1  0.30845000  0.34241000  0.86929000  1.0 2.438622805
W  W28  1  0.80845000  0.65759000  0.63071000  1.0 2.438622805
W  W29  1  0.80845000  0.84241000  0.63071000  1.0 2.438622805
W  W30  1  0.30845000  0.15759000  0.86929000  1.0 2.438622805
W  W31  1  0.69155000  0.65759000  0.13071000  1.0 2.438622805
W  W32  1  0.19155000  0.34241000  0.36929000  1.0 2.438622805
W  W33  1  0.03839000  0.16649000  0.15442000  1.0 2.3801151639
W  W34  1  0.53839000  0.83351000  0.34558000  1.0 2.3801151639
W  W35  1  0.46161000  0.33351000  0.65442000  1.0 2.3801151639
W  W36  1  0.96161000  0.66649000  0.84558000  1.0 2.3801151639
W  W37  1  0.96161000  0.83351000  0.84558000  1.0 2.3801151639
W  W38  1  0.46161000  0.16649000  0.65442000  1.0 2.3801151639
W  W39  1  0.53839000  0.66649000  0.34558000  1.0 2.3801151639
W  W40  1  0.03839000  0.33351000  0.15442000  1.0 2.3801151639
W  W41  1  0.25969000  0.25000000  0.15514000  1.0 2.3801151639
W  W42  1  0.75969000  0.75000000  0.34486000  1.0 2.3801151639
W  W43  1  0.24031000  0.25000000  0.65514000  1.0 2.3801151639
W  W44  1  0.74031000  0.75000000  0.84486000  1.0 2.3801151639
W  W45  1  0.94782000  0.25000000  0.36851000  1.0 2.3060248817
W  W46  1  0.44782000  0.75000000  0.13149000  1.0 2.3008408274
W  W47  1  0.55218000  0.25000000  0.86851000  1.0 2.3060248817
W  W48  1  0.05218000  0.75000000  0.63149000  1.0 2.3008408274
C  C1  1  0.67400000  0.09840000  0.37270000  1.0 0.0845097627
C  C2  1  0.17400000  0.90160000  0.12730000  1.0 0.0906081566
C  C3  1  0.82600000  0.40160000  0.87270000  1.0 0.0906081566
C  C4  1  0.32600000  0.59840000  0.62730000  1.0 0.0906081566
C  C5  1  0.32600000  0.90160000  0.62730000  1.0 0.0906081566
C  C6  1  0.82600000  0.09840000  0.87270000  1.0 0.0845097627
C  C7  1  0.17400000  0.59840000  0.12730000  1.0 0.0906081566
C  C8  1  0.67400000  0.40160000  0.37270000  1.0 0.0906081566
C  C9  1  0.70000000  0.08250000  0.46570000  1.0 0.1184854839
C  C10  1  0.20000000  0.91750000  0.03430000  1.0 0.1184854839
C  C11  1  0.80000000  0.41750000  0.96570000  1.0 0.1184854839
C  C12  1  0.30000000  0.58250000  0.53430000  1.0 0.1184854839
C  C13  1  0.30000000  0.91750000  0.53430000  1.0 0.1184854839
C  C14  1  0.80000000  0.08250000  0.96570000  1.0 0.1184854839
C  C15  1  0.20000000  0.58250000  0.03430000  1.0 0.1184854839
C  C16  1  0.70000000  0.41750000  0.46570000  1.0 0.1184854839
C  C17  1  0.74900000  0.13780000  0.47190000  1.0 -0.1685288598
C  C18  1  0.24900000  0.86220000  0.02810000  1.0 -0.1685288598
C  C19  1  0.75100000  0.36220000  0.97190000  1.0 -0.1685288598
C  C20  1  0.25100000  0.63780000  0.52810000  1.0 -0.1685288598
C  C21  1  0.25100000  0.86220000  0.52810000  1.0 -0.1685288598
C  C22  1  0.75100000  0.13780000  0.97190000  1.0 -0.1685288598
C  C23  1  0.24900000  0.63780000  0.02810000  1.0 -0.1685288598
C  C24  1  0.74900000  0.36220000  0.47190000  1.0 -0.1685288598
C  C25  1  0.56400000  0.03130000  0.40810000  1.0 -0.1569565062
C  C26  1  0.06400000  0.96870000  0.09190000  1.0 -0.1569565062
C  C27  1  0.93600000  0.46870000  0.90810000  1.0 -0.1569565062
C  C28  1  0.43600000  0.53130000  0.59190000  1.0 -0.1569565062
C  C29  1  0.43600000  0.96870000  0.59190000  1.0 -0.1569565062
C  C30  1  0.93600000  0.03130000  0.90810000  1.0 -0.1569565062
C  C31  1  0.06400000  0.53130000  0.09190000  1.0 -0.1569565062
C  C32  1  0.56400000  0.46870000  0.40810000  1.0 -0.1569565062
C  C33  1  0.54400000  0.03570000  0.35940000  1.0 -0.0511734535
C  C34  1  0.04400000  0.96430000  0.14060000  1.0 -0.0511734535
C  C35  1  0.95600000  0.46430000  0.85940000  1.0 -0.0511734535
C  C36  1  0.45600000  0.53570000  0.64060000  1.0 -0.0511734535
C  C37  1  0.45600000  0.96430000  0.64060000  1.0 -0.0511734535
C  C38  1  0.95600000  0.03570000  0.85940000  1.0 -0.0511734535
C  C39  1  0.04400000  0.53570000  0.14060000  1.0 -0.0511734535
C  C40  1  0.54400000  0.46430000  0.35940000  1.0 -0.0511734535
C  C41  1  0.69400000  0.03650000  0.50240000  1.0 -0.1820606111
C  C42  1  0.19400000  0.96350000  0.99760000  1.0 -0.1820606111
C  C43  1  0.80600000  0.46350000  0.00240000  1.0 -0.1820606111
C  C44  1  0.30600000  0.53650000  0.49760000  1.0 -0.1820606111
C  C45  1  0.30600000  0.96350000  0.49760000  1.0 -0.1820606111
C  C46  1  0.80600000  0.03650000  0.00240000  1.0 -0.1820606111
C  C47  1  0.19400000  0.53650000  0.99760000  1.0 -0.1820606111
C  C48  1  0.69400000  0.46350000  0.50240000  1.0 -0.1820606111
C  C49  1  0.81700000  0.10160000  0.64530000  1.0 0.1184854839
C  C50  1  0.31700000  0.89840000  0.85470000  1.0 0.1184854839
C  C51  1  0.68300000  0.39840000  0.14530000  1.0 0.1184854839
C  C52  1  0.18300000  0.60160000  0.35470000  1.0 0.1184854839
C  C53  1  0.18300000  0.89840000  0.35470000  1.0 0.1184854839
C  C54  1  0.68300000  0.10160000  0.14530000  1.0 0.1184854839
C  C55  1  0.31700000  0.60160000  0.85470000  1.0 0.1184854839
C  C56  1  0.81700000  0.39840000  0.64530000  1.0 0.1184854839
C  C57  1  0.96200000  0.15620000  0.65350000  1.0 -0.0410234455
C  C58  1  0.46200000  0.84380000  0.84650000  1.0 -0.0410234455
C  C59  1  0.53800000  0.34380000  0.15350000  1.0 -0.0410234455
C  C60  1  0.03800000  0.65620000  0.34650000  1.0 -0.0410234455
C  C61  1  0.03800000  0.84380000  0.34650000  1.0 -0.0410234455
C  C62  1  0.53800000  0.15620000  0.15350000  1.0 -0.0410234455
C  C63  1  0.46200000  0.65620000  0.84650000  1.0 -0.0410234455
C  C64  1  0.96200000  0.34380000  0.65350000  1.0 -0.0410234455
C  C65  1  0.73900000  0.04930000  0.54790000  1.0 -0.1820606111
C  C66  1  0.23900000  0.95070000  0.95210000  1.0 -0.1820606111
C  C67  1  0.76100000  0.45070000  0.04790000  1.0 -0.1820606111
C  C68  1  0.26100000  0.54930000  0.45210000  1.0 -0.1820606111
C  C69  1  0.26100000  0.95070000  0.45210000  1.0 -0.1820606111
C  C70  1  0.76100000  0.04930000  0.04790000  1.0 -0.1820606111
C  C71  1  0.23900000  0.54930000  0.95210000  1.0 -0.1820606111
C  C72  1  0.73900000  0.45070000  0.54790000  1.0 -0.1820606111
C  C73  1  0.79500000  0.10540000  0.55400000  1.0 0.125722152
C  C74  1  0.29500000  0.89460000  0.94600000  1.0 0.125722152
C  C75  1  0.70500000  0.39460000  0.05400000  1.0 0.125722152
C  C76  1  0.20500000  0.60540000  0.44600000  1.0 0.125722152
C  C77  1  0.20500000  0.89460000  0.44600000  1.0 0.125722152
C  C78  1  0.70500000  0.10540000  0.05400000  1.0 0.125722152
C  C79  1  0.29500000  0.60540000  0.94600000  1.0 0.125722152
C  C80  1  0.79500000  0.39460000  0.55400000  1.0 0.125722152
C  C81  1  0.79900000  0.14920000  0.51630000  1.0 -0.1820606111
C  C82  1  0.29900000  0.85080000  0.98370000  1.0 -0.1820606111
C  C83  1  0.70100000  0.35080000  0.01630000  1.0 -0.1820606111
C  C84  1  0.20100000  0.64920000  0.48370000  1.0 -0.1820606111
C  C85  1  0.20100000  0.85080000  0.48370000  1.0 -0.1820606111
C  C86  1  0.70100000  0.14920000  0.01630000  1.0 -0.1820606111
C  C87  1  0.29900000  0.64920000  0.98370000  1.0 -0.1820606111
C  C88  1  0.79900000  0.35080000  0.51630000  1.0 -0.1820606111
C  C89  1  0.94030000  0.15550000  0.60470000  1.0 -0.1685288598
C  C90  1  0.44030000  0.84450000  0.89530000  1.0 -0.1685288598
C  C91  1  0.55970000  0.34450000  0.10470000  1.0 -0.1685288598
C  C92  1  0.05970000  0.65550000  0.39530000  1.0 -0.1685288598
C  C93  1  0.05970000  0.84450000  0.39530000  1.0 -0.1685288598
C  C94  1  0.55970000  0.15550000  0.10470000  1.0 -0.1685288598
C  C95  1  0.44030000  0.65550000  0.89530000  1.0 -0.1685288598
C  C96  1  0.94030000  0.34450000  0.60470000  1.0 -0.1685288598
N  N1  1  0.61060000  0.08200000  0.33630000  1.0 -0.3225564875
N  N2  1  0.11060000  0.91800000  0.16370000  1.0 -0.3225564875
N  N3  1  0.88940000  0.41800000  0.83630000  1.0 -0.3225564875
N  N4  1  0.38940000  0.58200000  0.66370000  1.0 -0.3225564875
N  N5  1  0.38940000  0.91800000  0.66370000  1.0 -0.3225564875
N  N6  1  0.88940000  0.08200000  0.83630000  1.0 -0.3225564875
N  N7  1  0.11060000  0.58200000  0.16370000  1.0 -0.3225564875
N  N8  1  0.61060000  0.41800000  0.33630000  1.0 -0.3225564875
N  N9  1  0.88450000  0.12400000  0.68040000  1.0 -0.3225564875
N  N10  1  0.38450000  0.87600000  0.81960000  1.0 -0.3225564875
N  N11  1  0.61550000  0.37600000  0.18040000  1.0 -0.3225564875
N  N12  1  0.11550000  0.62400000  0.31960000  1.0 -0.3225564875
N  N13  1  0.11550000  0.87600000  0.31960000  1.0 -0.3225564875
N  N14  1  0.61550000  0.12400000  0.18040000  1.0 -0.3225564875
N  N15  1  0.38450000  0.62400000  0.81960000  1.0 -0.3225564875
N  N16  1  0.88450000  0.37600000  0.68040000  1.0 -0.3225564875
N  N17  1  0.64840000  0.07090000  0.41820000  1.0 -0.0185714836
N  N18  1  0.14840000  0.92910000  0.08180000  1.0 -0.0185714836
N  N19  1  0.85160000  0.42910000  0.91820000  1.0 -0.0185714836
N  N20  1  0.35160000  0.57090000  0.58180000  1.0 -0.0185714836
N  N21  1  0.35160000  0.92910000  0.58180000  1.0 -0.0185714836
N  N22  1  0.85160000  0.07090000  0.91820000  1.0 -0.0185714836
N  N23  1  0.14840000  0.57090000  0.08180000  1.0 -0.0185714836
N  N24  1  0.64840000  0.42910000  0.41820000  1.0 -0.0185714836
N  N25  1  0.84530000  0.11880000  0.59960000  1.0 -0.0185714836
N  N26  1  0.34530000  0.88120000  0.90040000  1.0 -0.0185714836
N  N27  1  0.65470000  0.38120000  0.09960000  1.0 -0.0185714836
N  N28  1  0.15470000  0.61880000  0.40040000  1.0 -0.0185714836
N  N29  1  0.15470000  0.88120000  0.40040000  1.0 -0.0185714836
N  N30  1  0.65470000  0.11880000  0.09960000  1.0 -0.0185714836
N  N31  1  0.34530000  0.61880000  0.90040000  1.0 -0.0185714836
N  N32  1  0.84530000  0.38120000  0.59960000  1.0 -0.0185714836
O  O1  1  0.05360000  0.18450000  0.37530000  1.0 -0.9909931619
O  O2  1  0.55360000  0.81550000  0.12470000  1.0 -0.9909931619
O  O3  1  0.44640000  0.31550000  0.87530000  1.0 -0.9909931619
O  O4  1  0.94640000  0.68450000  0.62470000  1.0 -0.9909931619
O  O5  1  0.94640000  0.81550000  0.62470000  1.0 -0.9909931619
O  O6  1  0.44640000  0.18450000  0.87530000  1.0 -0.9909931619
O  O7  1  0.55360000  0.68450000  0.12470000  1.0 -0.9909931619
O  O8  1  0.05360000  0.31550000  0.37530000  1.0 -0.9909931619
O  O9  1  0.10310000  0.10740000  0.20120000  1.0 -0.9385981279
O  O10  1  0.60310000  0.89260000  0.29880000  1.0 -0.9385981279
O  O11  1  0.39690000  0.39260000  0.70120000  1.0 -0.9385981279
O  O12  1  0.89690000  0.60740000  0.79880000  1.0 -0.9385981279
O  O13  1  0.89690000  0.89260000  0.79880000  1.0 -0.9385981279
O  O14  1  0.39690000  0.10740000  0.70120000  1.0 -0.9385981279
O  O15  1  0.60310000  0.60740000  0.29880000  1.0 -0.9385981279
O  O16  1  0.10310000  0.39260000  0.20120000  1.0 -0.9385981279
O  O17  1  0.98630000  0.10830000  0.27910000  1.0 -0.9108032447
O  O18  1  0.48630000  0.89170000  0.22090000  1.0 -0.9108032447
O  O19  1  0.51370000  0.39170000  0.77910000  1.0 -0.9108032447
O  O20  1  0.01370000  0.60830000  0.72090000  1.0 -0.9108032447
O  O21  1  0.01370000  0.89170000  0.72090000  1.0 -0.9108032447
O  O22  1  0.51370000  0.10830000  0.77910000  1.0 -0.9108032447
O  O23  1  0.48630000  0.60830000  0.22090000  1.0 -0.9108032447
O  O24  1  0.98630000  0.39170000  0.27910000  1.0 -0.9108032447
O  O25  1  0.14570000  0.07590000  0.33690000  1.0 -0.9320246254
O  O26  1  0.64570000  0.92410000  0.16310000  1.0 -0.9385981279
O  O27  1  0.35430000  0.42410000  0.83690000  1.0 -0.9385981279
O  O28  1  0.85430000  0.57590000  0.66310000  1.0 -0.9320246254
O  O29  1  0.85430000  0.92410000  0.66310000  1.0 -0.9385981279
O  O30  1  0.35430000  0.07590000  0.83690000  1.0 -0.9320246254
O  O31  1  0.64570000  0.57590000  0.16310000  1.0 -0.9320246254
O  O32  1  0.14570000  0.42410000  0.33690000  1.0 -0.9385981279
O  O33  1  0.10250000  0.99190000  0.25920000  1.0 -0.7152336512
O  O34  1  0.60250000  0.00810000  0.24080000  1.0 -0.714517578
O  O35  1  0.39750000  0.50810000  0.75920000  1.0 -0.714517578
O  O36  1  0.89750000  0.49190000  0.74080000  1.0 -0.714517578
O  O37  1  0.89750000  0.00810000  0.74080000  1.0 -0.714517578
O  O38  1  0.39750000  0.99190000  0.75920000  1.0 -0.714517578
O  O39  1  0.60250000  0.49190000  0.24080000  1.0 -0.714517578
O  O40  1  0.10250000  0.50810000  0.25920000  1.0 -0.714517578
O  O41  1  0.46010000  0.12720000  0.26010000  1.0 -0.7580509384
O  O42  1  0.96010000  0.87280000  0.23990000  1.0 -0.7580509384
O  O43  1  0.03990000  0.37280000  0.76010000  1.0 -0.7580509384
O  O44  1  0.53990000  0.62720000  0.73990000  1.0 -0.7580509384
O  O45  1  0.53990000  0.87280000  0.73990000  1.0 -0.7580509384
O  O46  1  0.03990000  0.12720000  0.76010000  1.0 -0.7580509384
O  O47  1  0.96010000  0.62720000  0.23990000  1.0 -0.7580509384
O  O48  1  0.46010000  0.37280000  0.26010000  1.0 -0.7580509384
O  O49  1  0.32430000  0.14420000  0.33860000  1.0 -0.9320246254
O  O50  1  0.82430000  0.85580000  0.16140000  1.0 -0.9320246254
O  O51  1  0.17570000  0.35580000  0.83860000  1.0 -0.9320246254
O  O52  1  0.67570000  0.64420000  0.66140000  1.0 -0.9320246254
O  O53  1  0.67570000  0.85580000  0.66140000  1.0 -0.9320246254
O  O54  1  0.17570000  0.14420000  0.83860000  1.0 -0.9320246254
O  O55  1  0.82430000  0.64420000  0.16140000  1.0 -0.9320246254
O  O56  1  0.32430000  0.35580000  0.33860000  1.0 -0.9320246254
O  O57  1  0.77430000  0.11390000  0.25970000  1.0 -0.7793534969
O  O58  1  0.27430000  0.88610000  0.24030000  1.0 -0.7793534969
O  O59  1  0.72570000  0.38610000  0.75970000  1.0 -0.7793534969
O  O60  1  0.22570000  0.61390000  0.74030000  1.0 -0.7793534969
O  O61  1  0.22570000  0.88610000  0.74030000  1.0 -0.7793534969
O  O62  1  0.72570000  0.11390000  0.75970000  1.0 -0.7793534969
O  O63  1  0.27430000  0.61390000  0.24030000  1.0 -0.7793534969
O  O64  1  0.77430000  0.38610000  0.25970000  1.0 -0.7793534969
O  O65  1  0.86450000  0.18290000  0.33760000  1.0 -0.9385981279
O  O66  1  0.36450000  0.81710000  0.16240000  1.0 -0.9385981279
O  O67  1  0.63550000  0.31710000  0.83760000  1.0 -0.9385981279
O  O68  1  0.13550000  0.68290000  0.66240000  1.0 -0.9385981279
O  O69  1  0.13550000  0.81710000  0.66240000  1.0 -0.9385981279
O  O70  1  0.63550000  0.18290000  0.83760000  1.0 -0.9385981279
O  O71  1  0.36450000  0.68290000  0.16240000  1.0 -0.9385981279
O  O72  1  0.86450000  0.31710000  0.33760000  1.0 -0.9385981279
O  O73  1  0.26420000  0.07620000  0.25750000  1.0 -0.8632474516
O  O74  1  0.76420000  0.92380000  0.24250000  1.0 -0.8632474516
O  O75  1  0.23580000  0.42380000  0.75750000  1.0 -0.8632474516
O  O76  1  0.73580000  0.57620000  0.74250000  1.0 -0.8632474516
O  O77  1  0.73580000  0.92380000  0.74250000  1.0 -0.8632474516
O  O78  1  0.23580000  0.07620000  0.75750000  1.0 -0.8632474516
O  O79  1  0.76420000  0.57620000  0.24250000  1.0 -0.8632474516
O  O80  1  0.26420000  0.42380000  0.25750000  1.0 -0.8632474516
O  O81  1  0.30660000  0.18570000  0.20310000  1.0 -0.9530489866
O  O82  1  0.80660000  0.81430000  0.29690000  1.0 -0.9530489866
O  O83  1  0.19340000  0.31430000  0.70310000  1.0 -0.9530489866
O  O84  1  0.69340000  0.68570000  0.79690000  1.0 -0.9530489866
O  O85  1  0.69340000  0.81430000  0.79690000  1.0 -0.9530489866
O  O86  1  0.19340000  0.18570000  0.70310000  1.0 -0.9530489866
O  O87  1  0.80660000  0.68570000  0.29690000  1.0 -0.9530489866
O  O88  1  0.30660000  0.31430000  0.20310000  1.0 -0.9530489866
O  O89  1  0.17410000  0.18010000  0.28600000  1.0 -1.0579947605
O  O90  1  0.67410000  0.81990000  0.21400000  1.0 -1.0579947605
O  O91  1  0.32590000  0.31990000  0.78600000  1.0 -1.0537020241
O  O92  1  0.82590000  0.68010000  0.71400000  1.0 -1.0537020241
O  O93  1  0.82590000  0.81990000  0.71400000  1.0 -1.0579947605
O  O94  1  0.32590000  0.18010000  0.78600000  1.0 -1.0579947605
O  O95  1  0.67410000  0.68010000  0.21400000  1.0 -1.0537020241
O  O96  1  0.17410000  0.31990000  0.28600000  1.0 -1.0579947605
O  O97  1  0.93170000  0.17160000  0.20130000  1.0 -0.9385981279
O  O98  1  0.43170000  0.82840000  0.29870000  1.0 -0.9385981279
O  O99  1  0.56830000  0.32840000  0.70130000  1.0 -0.9385981279
O  O100  1  0.06830000  0.67160000  0.79870000  1.0 -0.9385981279
O  O101  1  0.06830000  0.82840000  0.79870000  1.0 -0.9385981279
O  O102  1  0.56830000  0.17160000  0.70130000  1.0 -0.9385981279
O  O103  1  0.43170000  0.67160000  0.29870000  1.0 -0.9385981279
O  O104  1  0.93170000  0.32840000  0.20130000  1.0 -0.9385981279
O  O105  1  0.99650000  0.25000000  0.12490000  1.0 -0.9679364536
O  O106  1  0.49650000  0.75000000  0.37510000  1.0 -0.9679364536
O  O107  1  0.50350000  0.25000000  0.62490000  1.0 -0.9679364536
O  O108  1  0.00350000  0.75000000  0.87510000  1.0 -0.9679364536
O  O109  1  0.80320000  0.25000000  0.25510000  1.0 -0.9108032447
O  O110  1  0.30320000  0.75000000  0.24490000  1.0 -0.9108032447
O  O111  1  0.69680000  0.25000000  0.75510000  1.0 -0.9108032447
O  O112  1  0.19680000  0.75000000  0.74490000  1.0 -0.9108032447
O  O113  1  0.36210000  0.25000000  0.28220000  1.0 -0.9108032447
O  O114  1  0.86210000  0.75000000  0.21780000  1.0 -0.9108032447
O  O115  1  0.13790000  0.25000000  0.78220000  1.0 -0.9108032447
O  O116  1  0.63790000  0.75000000  0.71780000  1.0 -0.9108032447
O  O117  1  0.22410000  0.25000000  0.37550000  1.0 -1.0579947605
O  O118  1  0.72410000  0.75000000  0.12450000  1.0 -1.0579947605
O  O119  1  0.27590000  0.25000000  0.87550000  1.0 -1.0579947605
O  O120  1  0.77590000  0.75000000  0.62450000  1.0 -1.0579947605
O  O121  1  0.17310000  0.18200000  0.12710000  1.0 -0.9909931619
O  O122  1  0.67310000  0.81800000  0.37290000  1.0 -0.9909931619
O  O123  1  0.32690000  0.31800000  0.62710000  1.0 -0.9909931619
O  O124  1  0.82690000  0.68200000  0.87290000  1.0 -0.9909931619
O  O125  1  0.82690000  0.81800000  0.87290000  1.0 -0.9909931619
O  O126  1  0.32690000  0.18200000  0.62710000  1.0 -0.9909931619
O  O127  1  0.67310000  0.68200000  0.37290000  1.0 -0.9909931619
O  O128  1  0.17310000  0.31800000  0.12710000  1.0 -0.9909931619
O  O129  1  0.11160000  0.25000000  0.20030000  1.0 -1.0651368175
O  O130  1  0.61160000  0.75000000  0.29970000  1.0 -1.0579947605
O  O131  1  0.38840000  0.25000000  0.70030000  1.0 -1.0579947605
O  O132  1  0.88840000  0.75000000  0.79970000  1.0 -1.0579947605
O  O133  1  0.98830000  0.25000000  0.28510000  1.0 -1.0537020241
O  O134  1  0.48830000  0.75000000  0.21490000  1.0 -1.0537020241
O  O135  1  0.51170000  0.25000000  0.78510000  1.0 -1.0537020241
O  O136  1  0.01170000  0.75000000  0.71490000  1.0 -1.0537020241
