# DDEC6 charges by PACMAN v1.1 (https://github.com/mtap-research/PACMAN-charge/)
data_OQUZIL_ASR_pacman
_symmetry_space_group_name_H-M   'P 1'
_cell_length_a   12.93700000
_cell_length_b   20.02200000
_cell_length_c   26.66400000
_cell_angle_alpha   90.00000000
_cell_angle_beta   90.00000000
_cell_angle_gamma   90.00000000
_symmetry_Int_Tables_number   1
_chemical_formula_structural   Ag2BH20W12C24(N4O17)2
_chemical_formula_sum   'Ag8 B4 H80 W48 C96 N32 O136'
_cell_volume   6906.63230770
_cell_formula_units_Z   4
loop_
 _symmetry_equiv_pos_site_id
 _symmetry_equiv_pos_as_xyz
  1  'x, y, z'
loop_
 _atom_site_type_symbol
 _atom_site_label
 _atom_site_symmetry_multiplicity
 _atom_site_fract_x
 _atom_site_fract_y
 _atom_site_fract_z
 _atom_site_occupancy
 _atom_site_charge
Ag  Ag1  1  0.39080000  0.10590000  0.25710000  1.0 0.8462283066
Ag  Ag2  1  0.89080000  0.89410000  0.24290000  1.0 0.8462283066
Ag  Ag3  1  0.10920000  0.39410000  0.75710000  1.0 0.8462283066
Ag  Ag4  1  0.60920000  0.60590000  0.74290000  1.0 0.8462283066
Ag  Ag5  1  0.60920000  0.89410000  0.74290000  1.0 0.8462283066
Ag  Ag6  1  0.10920000  0.10590000  0.75710000  1.0 0.8462283066
Ag  Ag7  1  0.89080000  0.60590000  0.24290000  1.0 0.8462283066
Ag  Ag8  1  0.39080000  0.39410000  0.25710000  1.0 0.8462283066
B  B1  1  0.89600000  0.25000000  0.26370000  1.0 0.8602031818
B  B2  1  0.39600000  0.75000000  0.23630000  1.0 0.8602031818
B  B3  1  0.60400000  0.25000000  0.76370000  1.0 0.8602031818
B  B4  1  0.10400000  0.75000000  0.73630000  1.0 0.8602031818
H  H1  1  0.27740000  0.12790000  0.36560000  1.0 0.1287751941
H  H2  1  0.77740000  0.87210000  0.13440000  1.0 0.1287751941
H  H3  1  0.22260000  0.37210000  0.86560000  1.0 0.1287751941
H  H4  1  0.72260000  0.62790000  0.63440000  1.0 0.1287751941
H  H5  1  0.72260000  0.87210000  0.63440000  1.0 0.1287751941
H  H6  1  0.22260000  0.12790000  0.86560000  1.0 0.1287751941
H  H7  1  0.77740000  0.62790000  0.13440000  1.0 0.1287751941
H  H8  1  0.27740000  0.37210000  0.36560000  1.0 0.1287751941
H  H9  1  0.24020000  0.07400000  0.65300000  1.0 0.1217384969
H  H10  1  0.74020000  0.92600000  0.84700000  1.0 0.1217384969
H  H11  1  0.25980000  0.42600000  0.15300000  1.0 0.1217384969
H  H12  1  0.75980000  0.57400000  0.34700000  1.0 0.1217384969
H  H13  1  0.75980000  0.92600000  0.34700000  1.0 0.1217384969
H  H14  1  0.25980000  0.07400000  0.15300000  1.0 0.1217384969
H  H15  1  0.74020000  0.57400000  0.84700000  1.0 0.1217384969
H  H16  1  0.24020000  0.42600000  0.65300000  1.0 0.1217384969
H  H17  1  0.97970000  0.17750000  0.66560000  1.0 0.1217384969
H  H18  1  0.47970000  0.82250000  0.83440000  1.0 0.1217384969
H  H19  1  0.52030000  0.32250000  0.16560000  1.0 0.1287751941
H  H20  1  0.02030000  0.67750000  0.33440000  1.0 0.1287751941
H  H21  1  0.02030000  0.82250000  0.33440000  1.0 0.1217384969
H  H22  1  0.52030000  0.17750000  0.16560000  1.0 0.1217384969
H  H23  1  0.47970000  0.67750000  0.83440000  1.0 0.1287751941
H  H24  1  0.97970000  0.32250000  0.66560000  1.0 0.1287751941
H  H25  1  0.34390000  0.99320000  0.49570000  1.0 0.108630712
H  H26  1  0.84390000  0.00680000  0.00430000  1.0 0.108630712
H  H27  1  0.15610000  0.50680000  0.99570000  1.0 0.108630712
H  H28  1  0.65610000  0.49320000  0.50430000  1.0 0.108630712
H  H29  1  0.65610000  0.00680000  0.50430000  1.0 0.108630712
H  H30  1  0.15610000  0.99320000  0.99570000  1.0 0.108630712
H  H31  1  0.84390000  0.49320000  0.00430000  1.0 0.108630712
H  H32  1  0.34390000  0.50680000  0.49570000  1.0 0.108630712
H  H33  1  0.47930000  0.01120000  0.42960000  1.0 0.1014629541
H  H34  1  0.97930000  0.98880000  0.07040000  1.0 0.1014629541
H  H35  1  0.02070000  0.48880000  0.92960000  1.0 0.1014629541
H  H36  1  0.52070000  0.51120000  0.57040000  1.0 0.1014629541
H  H37  1  0.52070000  0.98880000  0.57040000  1.0 0.1014629541
H  H38  1  0.02070000  0.01120000  0.92960000  1.0 0.1014629541
H  H39  1  0.97930000  0.51120000  0.07040000  1.0 0.1014629541
H  H40  1  0.47930000  0.48880000  0.42960000  1.0 0.1014629541
H  H41  1  0.51870000  0.01850000  0.34240000  1.0 0.1287751941
H  H42  1  0.01870000  0.98150000  0.15760000  1.0 0.1287751941
H  H43  1  0.98130000  0.48150000  0.84240000  1.0 0.1287751941
H  H44  1  0.48130000  0.51850000  0.65760000  1.0 0.1287751941
H  H45  1  0.48130000  0.98150000  0.65760000  1.0 0.1287751941
H  H46  1  0.98130000  0.01850000  0.84240000  1.0 0.1287751941
H  H47  1  0.01870000  0.51850000  0.15760000  1.0 0.1287751941
H  H48  1  0.51870000  0.48150000  0.34240000  1.0 0.1287751941
H  H49  1  0.24370000  0.17120000  0.44500000  1.0 0.108630712
H  H50  1  0.74370000  0.82880000  0.05500000  1.0 0.108630712
H  H51  1  0.25630000  0.32880000  0.94500000  1.0 0.108630712
H  H52  1  0.75630000  0.67120000  0.55500000  1.0 0.108630712
H  H53  1  0.75630000  0.82880000  0.55500000  1.0 0.108630712
H  H54  1  0.25630000  0.17120000  0.94500000  1.0 0.108630712
H  H55  1  0.74370000  0.67120000  0.05500000  1.0 0.108630712
H  H56  1  0.24370000  0.32880000  0.44500000  1.0 0.108630712
H  H57  1  0.17210000  0.18910000  0.52000000  1.0 0.1014629541
H  H58  1  0.67210000  0.81090000  0.98000000  1.0 0.1014629541
H  H59  1  0.32790000  0.31090000  0.02000000  1.0 0.1014629541
H  H60  1  0.82790000  0.68910000  0.48000000  1.0 0.1014629541
H  H61  1  0.82790000  0.81090000  0.48000000  1.0 0.1014629541
H  H62  1  0.32790000  0.18910000  0.02000000  1.0 0.1014629541
H  H63  1  0.67210000  0.68910000  0.98000000  1.0 0.1014629541
H  H64  1  0.17210000  0.31090000  0.52000000  1.0 0.1014629541
H  H65  1  0.02180000  0.17610000  0.57800000  1.0 0.108630712
H  H66  1  0.52180000  0.82390000  0.92200000  1.0 0.108630712
H  H67  1  0.47820000  0.32390000  0.07800000  1.0 0.108630712
H  H68  1  0.97820000  0.67610000  0.42200000  1.0 0.108630712
H  H69  1  0.97820000  0.82390000  0.42200000  1.0 0.108630712
H  H70  1  0.47820000  0.17610000  0.07800000  1.0 0.108630712
H  H71  1  0.52180000  0.67610000  0.92200000  1.0 0.108630712
H  H72  1  0.02180000  0.32390000  0.57800000  1.0 0.108630712
H  H73  1  0.27500000  0.01780000  0.57200000  1.0 0.1217384969
H  H74  1  0.77500000  0.98220000  0.92800000  1.0 0.1217384969
H  H75  1  0.22500000  0.48220000  0.07200000  1.0 0.1217384969
H  H76  1  0.72500000  0.51780000  0.42800000  1.0 0.1217384969
H  H77  1  0.72500000  0.98220000  0.42800000  1.0 0.1217384969
H  H78  1  0.22500000  0.01780000  0.07200000  1.0 0.1217384969
H  H79  1  0.77500000  0.51780000  0.92800000  1.0 0.1217384969
H  H80  1  0.27500000  0.48220000  0.57200000  1.0 0.1217384969
W  W1  1  0.74765000  0.25000000  0.15469000  1.0 2.3668462983
W  W2  1  0.24765000  0.75000000  0.34531000  1.0 2.3610936871
W  W3  1  0.75235000  0.25000000  0.65469000  1.0 2.3668462983
W  W4  1  0.25235000  0.75000000  0.84531000  1.0 2.3610936871
W  W5  1  0.96933000  0.16719000  0.15487000  1.0 2.3437000663
W  W6  1  0.46933000  0.83281000  0.34513000  1.0 2.349536871
W  W7  1  0.53067000  0.33281000  0.65487000  1.0 2.3437000663
W  W8  1  0.03067000  0.66719000  0.84513000  1.0 2.3437000663
W  W9  1  0.03067000  0.83281000  0.84513000  1.0 2.349536871
W  W10  1  0.53067000  0.16719000  0.65487000  1.0 2.3437000663
W  W11  1  0.46933000  0.66719000  0.34513000  1.0 2.3437000663
W  W12  1  0.96933000  0.33281000  0.15487000  1.0 2.3437000663
W  W13  1  0.05493000  0.25000000  0.36799000  1.0 2.2981939068
W  W14  1  0.55493000  0.75000000  0.13201000  1.0 2.2865497819
W  W15  1  0.44507000  0.25000000  0.86799000  1.0 2.2981939068
W  W16  1  0.94507000  0.75000000  0.63201000  1.0 2.2865497819
W  W17  1  0.12835000  0.16822000  0.26672000  1.0 2.3308368674
W  W18  1  0.62835000  0.83178000  0.23328000  1.0 2.3308368674
W  W19  1  0.37165000  0.33178000  0.76672000  1.0 2.3308368674
W  W20  1  0.87165000  0.66822000  0.73328000  1.0 2.3308368674
W  W21  1  0.87165000  0.83178000  0.73328000  1.0 2.3308368674
W  W22  1  0.37165000  0.16822000  0.76672000  1.0 2.3308368674
W  W23  1  0.62835000  0.66822000  0.23328000  1.0 2.3308368674
W  W24  1  0.12835000  0.33178000  0.26672000  1.0 2.3308368674
W  W25  1  0.88591000  0.07766000  0.26635000  1.0 2.3610936871
W  W26  1  0.38591000  0.92234000  0.23365000  1.0 2.3610936871
W  W27  1  0.61409000  0.42234000  0.76635000  1.0 2.3610936871
W  W28  1  0.11409000  0.57766000  0.73365000  1.0 2.3610936871
W  W29  1  0.11409000  0.92234000  0.73365000  1.0 2.3610936871
W  W30  1  0.61409000  0.07766000  0.76635000  1.0 2.3610936871
W  W31  1  0.38591000  0.57766000  0.23365000  1.0 2.3610936871
W  W32  1  0.88591000  0.42234000  0.26635000  1.0 2.3610936871
W  W33  1  0.81162000  0.15892000  0.36799000  1.0 2.3924462889
W  W34  1  0.31162000  0.84108000  0.13201000  1.0 2.3952469578
W  W35  1  0.68838000  0.34108000  0.86799000  1.0 2.3924462889
W  W36  1  0.18838000  0.65892000  0.63201000  1.0 2.3924462889
W  W37  1  0.18838000  0.84108000  0.63201000  1.0 2.3924462889
W  W38  1  0.68838000  0.15892000  0.86799000  1.0 2.3924462889
W  W39  1  0.31162000  0.65892000  0.13201000  1.0 2.3924462889
W  W40  1  0.81162000  0.34108000  0.36799000  1.0 2.3924462889
W  W41  1  0.66603000  0.15955000  0.26645000  1.0 2.3308368674
W  W42  1  0.16603000  0.84045000  0.23355000  1.0 2.3308368674
W  W43  1  0.83397000  0.34045000  0.76645000  1.0 2.3308368674
W  W44  1  0.33397000  0.65955000  0.73355000  1.0 2.3308368674
W  W45  1  0.33397000  0.84045000  0.73355000  1.0 2.3308368674
W  W46  1  0.83397000  0.15955000  0.76645000  1.0 2.3308368674
W  W47  1  0.16603000  0.65955000  0.23355000  1.0 2.3308368674
W  W48  1  0.66603000  0.34045000  0.26645000  1.0 2.3308368674
C  C1  1  0.33200000  0.09870000  0.37030000  1.0 0.0912475846
C  C2  1  0.83200000  0.90130000  0.12970000  1.0 0.0912475846
C  C3  1  0.16800000  0.40130000  0.87030000  1.0 0.0912475846
C  C4  1  0.66800000  0.59870000  0.62970000  1.0 0.0912475846
C  C5  1  0.66800000  0.90130000  0.62970000  1.0 0.0912475846
C  C6  1  0.16800000  0.09870000  0.87030000  1.0 0.0912475846
C  C7  1  0.83200000  0.59870000  0.12970000  1.0 0.0912475846
C  C8  1  0.33200000  0.40130000  0.37030000  1.0 0.0912475846
C  C9  1  0.18200000  0.09950000  0.64620000  1.0 0.0912475846
C  C10  1  0.68200000  0.90050000  0.85380000  1.0 0.0912475846
C  C11  1  0.31800000  0.40050000  0.14620000  1.0 0.0912475846
C  C12  1  0.81800000  0.59950000  0.35380000  1.0 0.0912475846
C  C13  1  0.81800000  0.90050000  0.35380000  1.0 0.0912475846
C  C14  1  0.31800000  0.09950000  0.14620000  1.0 0.0912475846
C  C15  1  0.68200000  0.59950000  0.85380000  1.0 0.0912475846
C  C16  1  0.18200000  0.40050000  0.64620000  1.0 0.0912475846
C  C17  1  0.03800000  0.15670000  0.65240000  1.0 -0.0492141215
C  C18  1  0.53800000  0.84330000  0.84760000  1.0 -0.0492141215
C  C19  1  0.46200000  0.34330000  0.15240000  1.0 -0.0492141215
C  C20  1  0.96200000  0.65670000  0.34760000  1.0 -0.0492141215
C  C21  1  0.96200000  0.84330000  0.34760000  1.0 -0.0492141215
C  C22  1  0.46200000  0.15670000  0.15240000  1.0 -0.0492141215
C  C23  1  0.53800000  0.65670000  0.84760000  1.0 -0.0492141215
C  C24  1  0.03800000  0.34330000  0.65240000  1.0 -0.0492141215
C  C25  1  0.31100000  0.03400000  0.50110000  1.0 -0.1662616381
C  C26  1  0.81100000  0.96600000  0.99890000  1.0 -0.1662616381
C  C27  1  0.18900000  0.46600000  0.00110000  1.0 -0.1662616381
C  C28  1  0.68900000  0.53400000  0.49890000  1.0 -0.1662616381
C  C29  1  0.68900000  0.96600000  0.49890000  1.0 -0.1662616381
C  C30  1  0.18900000  0.03400000  0.00110000  1.0 -0.1662616381
C  C31  1  0.81100000  0.53400000  0.99890000  1.0 -0.1662616381
C  C32  1  0.31100000  0.46600000  0.50110000  1.0 -0.1662616381
C  C33  1  0.30500000  0.08140000  0.46320000  1.0 0.1217384969
C  C34  1  0.80500000  0.91860000  0.03680000  1.0 0.1217384969
C  C35  1  0.19500000  0.41860000  0.96320000  1.0 0.1217384969
C  C36  1  0.69500000  0.58140000  0.53680000  1.0 0.1217384969
C  C37  1  0.69500000  0.91860000  0.53680000  1.0 0.1217384969
C  C38  1  0.19500000  0.08140000  0.96320000  1.0 0.1217384969
C  C39  1  0.80500000  0.58140000  0.03680000  1.0 0.1217384969
C  C40  1  0.30500000  0.41860000  0.46320000  1.0 0.1217384969
C  C41  1  0.44200000  0.03550000  0.40610000  1.0 -0.1107203146
C  C42  1  0.94200000  0.96450000  0.09390000  1.0 -0.1107203146
C  C43  1  0.05800000  0.46450000  0.90610000  1.0 -0.1107203146
C  C44  1  0.55800000  0.53550000  0.59390000  1.0 -0.1107203146
C  C45  1  0.55800000  0.96450000  0.59390000  1.0 -0.1107203146
C  C46  1  0.05800000  0.03550000  0.90610000  1.0 -0.1107203146
C  C47  1  0.94200000  0.53550000  0.09390000  1.0 -0.1107203146
C  C48  1  0.44200000  0.46450000  0.40610000  1.0 -0.1107203146
C  C49  1  0.46300000  0.03960000  0.35810000  1.0 -0.0492141215
C  C50  1  0.96300000  0.96040000  0.14190000  1.0 -0.0492141215
C  C51  1  0.03700000  0.46040000  0.85810000  1.0 -0.0492141215
C  C52  1  0.53700000  0.53960000  0.64190000  1.0 -0.0492141215
C  C53  1  0.53700000  0.96040000  0.64190000  1.0 -0.0492141215
C  C54  1  0.03700000  0.03960000  0.85810000  1.0 -0.0492141215
C  C55  1  0.96300000  0.53960000  0.14190000  1.0 -0.0492141215
C  C56  1  0.46300000  0.46040000  0.35810000  1.0 -0.0492141215
C  C57  1  0.25000000  0.13980000  0.47050000  1.0 -0.1633221357
C  C58  1  0.75000000  0.86020000  0.02950000  1.0 -0.1633221357
C  C59  1  0.25000000  0.36020000  0.97050000  1.0 -0.1633221357
C  C60  1  0.75000000  0.63980000  0.52950000  1.0 -0.1662616381
C  C61  1  0.75000000  0.86020000  0.52950000  1.0 -0.1633221357
C  C62  1  0.25000000  0.13980000  0.97050000  1.0 -0.1633221357
C  C63  1  0.75000000  0.63980000  0.02950000  1.0 -0.1662616381
C  C64  1  0.25000000  0.36020000  0.47050000  1.0 -0.1633221357
C  C65  1  0.20800000  0.14900000  0.51510000  1.0 -0.1879861192
C  C66  1  0.70800000  0.85100000  0.98490000  1.0 -0.1879861192
C  C67  1  0.29200000  0.35100000  0.01510000  1.0 -0.1879861192
C  C68  1  0.79200000  0.64900000  0.48490000  1.0 -0.1879861192
C  C69  1  0.79200000  0.85100000  0.48490000  1.0 -0.1879861192
C  C70  1  0.29200000  0.14900000  0.01510000  1.0 -0.1879861192
C  C71  1  0.70800000  0.64900000  0.98490000  1.0 -0.1879861192
C  C72  1  0.20800000  0.35100000  0.51510000  1.0 -0.1879861192
C  C73  1  0.06000000  0.15640000  0.60360000  1.0 -0.1352197179
C  C74  1  0.56000000  0.84360000  0.89640000  1.0 -0.1352197179
C  C75  1  0.44000000  0.34360000  0.10360000  1.0 -0.1352197179
C  C76  1  0.94000000  0.65640000  0.39640000  1.0 -0.1352197179
C  C77  1  0.94000000  0.84360000  0.39640000  1.0 -0.1352197179
C  C78  1  0.44000000  0.15640000  0.10360000  1.0 -0.1352197179
C  C79  1  0.56000000  0.65640000  0.89640000  1.0 -0.1352197179
C  C80  1  0.06000000  0.34360000  0.60360000  1.0 -0.1352197179
C  C81  1  0.21300000  0.10540000  0.55540000  1.0 0.1384429275
C  C82  1  0.71300000  0.89460000  0.94460000  1.0 0.1384429275
C  C83  1  0.28700000  0.39460000  0.05540000  1.0 0.1384429275
C  C84  1  0.78700000  0.60540000  0.44460000  1.0 0.1384429275
C  C85  1  0.78700000  0.89460000  0.44460000  1.0 0.1384429275
C  C86  1  0.28700000  0.10540000  0.05540000  1.0 0.1384429275
C  C87  1  0.71300000  0.60540000  0.94460000  1.0 0.1384429275
C  C88  1  0.21300000  0.39460000  0.55540000  1.0 0.1384429275
C  C89  1  0.26700000  0.04840000  0.54600000  1.0 -0.1879861192
C  C90  1  0.76700000  0.95160000  0.95400000  1.0 -0.1879861192
C  C91  1  0.23300000  0.45160000  0.04600000  1.0 -0.1879861192
C  C92  1  0.73300000  0.54840000  0.45400000  1.0 -0.1879861192
C  C93  1  0.73300000  0.95160000  0.45400000  1.0 -0.1879861192
C  C94  1  0.23300000  0.04840000  0.04600000  1.0 -0.1879861192
C  C95  1  0.76700000  0.54840000  0.95400000  1.0 -0.1879861192
C  C96  1  0.26700000  0.45160000  0.54600000  1.0 -0.1879861192
N  N1  1  0.39400000  0.07830000  0.33540000  1.0 -0.2388128644
N  N2  1  0.89400000  0.92170000  0.16460000  1.0 -0.2388128644
N  N3  1  0.10600000  0.42170000  0.83540000  1.0 -0.2388128644
N  N4  1  0.60600000  0.57830000  0.66460000  1.0 -0.2388128644
N  N5  1  0.60600000  0.92170000  0.66460000  1.0 -0.2388128644
N  N6  1  0.10600000  0.07830000  0.83540000  1.0 -0.2388128644
N  N7  1  0.89400000  0.57830000  0.16460000  1.0 -0.2388128644
N  N8  1  0.39400000  0.42170000  0.33540000  1.0 -0.2388128644
N  N9  1  0.11500000  0.12080000  0.68410000  1.0 -0.309911436
N  N10  1  0.61500000  0.87920000  0.81590000  1.0 -0.309911436
N  N11  1  0.38500000  0.37920000  0.18410000  1.0 -0.309911436
N  N12  1  0.88500000  0.62080000  0.31590000  1.0 -0.309911436
N  N13  1  0.88500000  0.87920000  0.31590000  1.0 -0.309911436
N  N14  1  0.38500000  0.12080000  0.18410000  1.0 -0.309911436
N  N15  1  0.61500000  0.62080000  0.81590000  1.0 -0.309911436
N  N16  1  0.11500000  0.37920000  0.68410000  1.0 -0.309911436
N  N17  1  0.36070000  0.07050000  0.41540000  1.0 -0.0015068972
N  N18  1  0.86070000  0.92950000  0.08460000  1.0 -0.0015068972
N  N19  1  0.13930000  0.42950000  0.91540000  1.0 -0.0015068972
N  N20  1  0.63930000  0.57050000  0.58460000  1.0 -0.0015068972
N  N21  1  0.63930000  0.92950000  0.58460000  1.0 -0.0015068972
N  N22  1  0.13930000  0.07050000  0.91540000  1.0 -0.0015068972
N  N23  1  0.86070000  0.57050000  0.08460000  1.0 -0.0015068972
N  N24  1  0.36070000  0.42950000  0.41540000  1.0 -0.0015068972
N  N25  1  0.15600000  0.11870000  0.59850000  1.0 -0.0097682092
N  N26  1  0.65600000  0.88130000  0.90150000  1.0 -0.0097682092
N  N27  1  0.34400000  0.38130000  0.09850000  1.0 -0.0097682092
N  N28  1  0.84400000  0.61870000  0.40150000  1.0 -0.0097682092
N  N29  1  0.84400000  0.88130000  0.40150000  1.0 -0.0097682092
N  N30  1  0.34400000  0.11870000  0.09850000  1.0 -0.0097682092
N  N31  1  0.65600000  0.61870000  0.90150000  1.0 -0.0097682092
N  N32  1  0.15600000  0.38130000  0.59850000  1.0 -0.0097682092
O  O1  1  0.89460000  0.25000000  0.20750000  1.0 -1.0497526476
O  O2  1  0.39460000  0.75000000  0.29250000  1.0 -1.0497526476
O  O3  1  0.60540000  0.25000000  0.70750000  1.0 -1.0497526476
O  O4  1  0.10540000  0.75000000  0.79250000  1.0 -1.0497526476
O  O5  1  0.84110000  0.18840000  0.28180000  1.0 -1.0586535582
O  O6  1  0.34110000  0.81160000  0.21820000  1.0 -1.0586535582
O  O7  1  0.65890000  0.31160000  0.78180000  1.0 -1.0586535582
O  O8  1  0.15890000  0.68840000  0.71820000  1.0 -1.0586535582
O  O9  1  0.15890000  0.81160000  0.71820000  1.0 -1.0586535582
O  O10  1  0.65890000  0.18840000  0.78180000  1.0 -1.0586535582
O  O11  1  0.34110000  0.68840000  0.21820000  1.0 -1.0586535582
O  O12  1  0.84110000  0.31160000  0.28180000  1.0 -1.0586535582
O  O13  1  0.74370000  0.07810000  0.25640000  1.0 -0.8505091691
O  O14  1  0.24370000  0.92190000  0.24360000  1.0 -0.8505091691
O  O15  1  0.75630000  0.42190000  0.75640000  1.0 -0.8505091691
O  O16  1  0.25630000  0.57810000  0.74360000  1.0 -0.8505091691
O  O17  1  0.25630000  0.92190000  0.74360000  1.0 -0.8505091691
O  O18  1  0.75630000  0.07810000  0.75640000  1.0 -0.8505091691
O  O19  1  0.24370000  0.57810000  0.24360000  1.0 -0.8505091691
O  O20  1  0.74370000  0.42190000  0.25640000  1.0 -0.8505091691
O  O21  1  0.77560000  0.25000000  0.37630000  1.0 -0.9866560349
O  O22  1  0.27560000  0.75000000  0.12370000  1.0 -0.982873548
O  O23  1  0.72440000  0.25000000  0.87630000  1.0 -0.9866560349
O  O24  1  0.22440000  0.75000000  0.62370000  1.0 -0.982873548
O  O25  1  0.95320000  0.18380000  0.37820000  1.0 -0.9561595227
O  O26  1  0.45320000  0.81620000  0.12180000  1.0 -0.9561595227
O  O27  1  0.54680000  0.31620000  0.87820000  1.0 -0.9561595227
O  O28  1  0.04680000  0.68380000  0.62180000  1.0 -0.9561595227
O  O29  1  0.04680000  0.81620000  0.62180000  1.0 -0.9561595227
O  O30  1  0.54680000  0.18380000  0.87820000  1.0 -0.9561595227
O  O31  1  0.45320000  0.68380000  0.12180000  1.0 -0.9545237073
O  O32  1  0.95320000  0.31620000  0.37820000  1.0 -0.9561595227
O  O33  1  0.14000000  0.18450000  0.33750000  1.0 -0.9290380576
O  O34  1  0.64000000  0.81550000  0.16250000  1.0 -0.9290380576
O  O35  1  0.36000000  0.31550000  0.83750000  1.0 -0.9290380576
O  O36  1  0.86000000  0.68450000  0.66250000  1.0 -0.9290380576
O  O37  1  0.86000000  0.81550000  0.66250000  1.0 -0.9290380576
O  O38  1  0.36000000  0.18450000  0.83750000  1.0 -0.9290380576
O  O39  1  0.64000000  0.68450000  0.16250000  1.0 -0.9290380576
O  O40  1  0.14000000  0.31550000  0.33750000  1.0 -0.9290380576
O  O41  1  0.07850000  0.17140000  0.20000000  1.0 -0.9035842468
O  O42  1  0.57850000  0.82860000  0.30000000  1.0 -0.9035842468
O  O43  1  0.42150000  0.32860000  0.70000000  1.0 -0.9035842468
O  O44  1  0.92150000  0.67140000  0.80000000  1.0 -0.9035842468
O  O45  1  0.92150000  0.82860000  0.80000000  1.0 -0.9035842468
O  O46  1  0.42150000  0.17140000  0.70000000  1.0 -0.9035842468
O  O47  1  0.57850000  0.67140000  0.30000000  1.0 -0.9035842468
O  O48  1  0.07850000  0.32860000  0.20000000  1.0 -0.9035842468
O  O49  1  0.00760000  0.25000000  0.12710000  1.0 -0.9221481878
O  O50  1  0.50760000  0.75000000  0.37290000  1.0 -0.9221481878
O  O51  1  0.49240000  0.25000000  0.62710000  1.0 -0.9221481878
O  O52  1  0.99240000  0.75000000  0.87290000  1.0 -0.9221481878
O  O53  1  0.83530000  0.18480000  0.12600000  1.0 -0.982873548
O  O54  1  0.33530000  0.81520000  0.37400000  1.0 -0.982873548
O  O55  1  0.66470000  0.31520000  0.62600000  1.0 -0.982873548
O  O56  1  0.16470000  0.68480000  0.87400000  1.0 -0.982873548
O  O57  1  0.16470000  0.81520000  0.87400000  1.0 -0.982873548
O  O58  1  0.66470000  0.18480000  0.62600000  1.0 -0.982873548
O  O59  1  0.33530000  0.68480000  0.37400000  1.0 -0.982873548
O  O60  1  0.83530000  0.31520000  0.12600000  1.0 -0.982873548
O  O61  1  0.69670000  0.31450000  0.20060000  1.0 -0.9119969779
O  O62  1  0.19670000  0.68550000  0.29940000  1.0 -0.9119969779
O  O63  1  0.80330000  0.18550000  0.70060000  1.0 -0.9119969779
O  O64  1  0.30330000  0.81450000  0.79940000  1.0 -0.9119969779
O  O65  1  0.30330000  0.68550000  0.79940000  1.0 -0.9119969779
O  O66  1  0.80330000  0.31450000  0.70060000  1.0 -0.9119969779
O  O67  1  0.19670000  0.81450000  0.29940000  1.0 -0.9119969779
O  O68  1  0.69670000  0.18550000  0.20060000  1.0 -0.9119969779
O  O69  1  0.63600000  0.25000000  0.27970000  1.0 -0.8693084517
O  O70  1  0.13600000  0.75000000  0.22030000  1.0 -0.8693084517
O  O71  1  0.86400000  0.25000000  0.77970000  1.0 -0.8693084517
O  O72  1  0.36400000  0.75000000  0.72030000  1.0 -0.8693084517
O  O73  1  0.68110000  0.14600000  0.33770000  1.0 -0.9221481878
O  O74  1  0.18110000  0.85400000  0.16230000  1.0 -0.9221481878
O  O75  1  0.81890000  0.35400000  0.83770000  1.0 -0.9221481878
O  O76  1  0.31890000  0.64600000  0.66230000  1.0 -0.9221481878
O  O77  1  0.31890000  0.85400000  0.66230000  1.0 -0.9221481878
O  O78  1  0.81890000  0.14600000  0.83770000  1.0 -0.9221481878
O  O79  1  0.18110000  0.64600000  0.16230000  1.0 -0.9221481878
O  O80  1  0.68110000  0.35400000  0.33770000  1.0 -0.9221481878
O  O81  1  0.85590000  0.07870000  0.33720000  1.0 -0.9290380576
O  O82  1  0.35590000  0.92130000  0.16280000  1.0 -0.9290380576
O  O83  1  0.64410000  0.42130000  0.83720000  1.0 -0.9290380576
O  O84  1  0.14410000  0.57870000  0.66280000  1.0 -0.9290380576
O  O85  1  0.14410000  0.92130000  0.66280000  1.0 -0.9290380576
O  O86  1  0.64410000  0.07870000  0.83720000  1.0 -0.9290380576
O  O87  1  0.35590000  0.57870000  0.16280000  1.0 -0.9290380576
O  O88  1  0.85590000  0.42130000  0.33720000  1.0 -0.9290380576
O  O89  1  0.02310000  0.10570000  0.27980000  1.0 -0.8866377646
O  O90  1  0.52310000  0.89430000  0.22020000  1.0 -0.8866377646
O  O91  1  0.47690000  0.39430000  0.77980000  1.0 -0.8866377646
O  O92  1  0.97690000  0.60570000  0.72020000  1.0 -0.8866377646
O  O93  1  0.97690000  0.89430000  0.72020000  1.0 -0.8866377646
O  O94  1  0.47690000  0.10570000  0.77980000  1.0 -0.8866377646
O  O95  1  0.52310000  0.60570000  0.22020000  1.0 -0.8866377646
O  O96  1  0.02310000  0.39430000  0.27980000  1.0 -0.8866377646
O  O97  1  0.23400000  0.11620000  0.26080000  1.0 -0.7572930702
O  O98  1  0.73400000  0.88380000  0.23920000  1.0 -0.7572930702
O  O99  1  0.26600000  0.38380000  0.76080000  1.0 -0.7572930702
O  O100  1  0.76600000  0.61620000  0.73920000  1.0 -0.7572930702
O  O101  1  0.76600000  0.88380000  0.73920000  1.0 -0.7572930702
O  O102  1  0.26600000  0.11620000  0.76080000  1.0 -0.7572930702
O  O103  1  0.73400000  0.61620000  0.23920000  1.0 -0.7572930702
O  O104  1  0.23400000  0.38380000  0.26080000  1.0 -0.7572930702
O  O105  1  0.20100000  0.25000000  0.25670000  1.0 -0.9035842468
O  O106  1  0.70100000  0.75000000  0.24330000  1.0 -0.9035842468
O  O107  1  0.29900000  0.25000000  0.75670000  1.0 -0.9035842468
O  O108  1  0.79900000  0.75000000  0.74330000  1.0 -0.9035842468
O  O109  1  0.00400000  0.25000000  0.28420000  1.0 -1.0497526476
O  O110  1  0.50400000  0.75000000  0.21580000  1.0 -1.0497526476
O  O111  1  0.49600000  0.25000000  0.78420000  1.0 -1.0497526476
O  O112  1  0.99600000  0.75000000  0.71580000  1.0 -1.0497526476
O  O113  1  0.90260000  0.10720000  0.19890000  1.0 -0.9119969779
O  O114  1  0.40260000  0.89280000  0.30110000  1.0 -0.9119969779
O  O115  1  0.59740000  0.39280000  0.69890000  1.0 -0.9119969779
O  O116  1  0.09740000  0.60720000  0.80110000  1.0 -0.9119969779
O  O117  1  0.09740000  0.89280000  0.80110000  1.0 -0.9119969779
O  O118  1  0.59740000  0.10720000  0.69890000  1.0 -0.9119969779
O  O119  1  0.40260000  0.60720000  0.30110000  1.0 -0.9119969779
O  O120  1  0.90260000  0.39280000  0.19890000  1.0 -0.9119969779
O  O121  1  0.54750000  0.12610000  0.25890000  1.0 -0.7143374706
O  O122  1  0.04750000  0.87390000  0.24110000  1.0 -0.7143374706
O  O123  1  0.95250000  0.37390000  0.75890000  1.0 -0.7143374706
O  O124  1  0.45250000  0.62610000  0.74110000  1.0 -0.7143374706
O  O125  1  0.45250000  0.87390000  0.74110000  1.0 -0.7143374706
O  O126  1  0.95250000  0.12610000  0.75890000  1.0 -0.7143374706
O  O127  1  0.04750000  0.62610000  0.24110000  1.0 -0.7143374706
O  O128  1  0.54750000  0.37390000  0.25890000  1.0 -0.7143374706
O  O129  1  0.90480000  0.99210000  0.25990000  1.0 -0.7486265549
O  O130  1  0.40480000  0.00790000  0.24010000  1.0 -0.7486265549
O  O131  1  0.59520000  0.50790000  0.75990000  1.0 -0.7486265549
O  O132  1  0.09520000  0.49210000  0.74010000  1.0 -0.7486265549
O  O133  1  0.09520000  0.00790000  0.74010000  1.0 -0.7486265549
O  O134  1  0.59520000  0.99210000  0.75990000  1.0 -0.7486265549
O  O135  1  0.40480000  0.49210000  0.24010000  1.0 -0.7486265549
O  O136  1  0.90480000  0.50790000  0.25990000  1.0 -0.7486265549
