# DDEC6 charges by PACMAN v1.1 (https://github.com/mtap-research/PACMAN-charge/)
data_ORAJEX_FSR_pacman
_symmetry_space_group_name_H-M   'P 1'
_cell_length_a   12.81340000
_cell_length_b   12.81340000
_cell_length_c   20.85140000
_cell_angle_alpha   90.00000000
_cell_angle_beta   90.00000000
_cell_angle_gamma   111.95400000
_symmetry_Int_Tables_number   1
_chemical_formula_structural   KHoRe4C12S4(N2O)6
_chemical_formula_sum   'K4 Ho4 Re16 C48 S16 N48 O24'
_cell_volume   3175.19614368
_cell_formula_units_Z   4
loop_
 _symmetry_equiv_pos_site_id
 _symmetry_equiv_pos_as_xyz
  1  'x, y, z'
loop_
 _atom_site_type_symbol
 _atom_site_label
 _atom_site_symmetry_multiplicity
 _atom_site_fract_x
 _atom_site_fract_y
 _atom_site_fract_z
 _atom_site_occupancy
 _atom_site_charge
K  K1  1  0.08466000  0.08466000  0.50000000  1.0 0.7883972884
K  K2  1  0.91534000  0.91534000  0.00000000  1.0 0.7802747846
K  K3  1  0.91534000  0.91534000  0.50000000  1.0 0.7802747846
K  K4  1  0.08466000  0.08466000  0.00000000  1.0 0.7883972884
Ho  Ho1  1  0.12124000  0.40436000  0.75000000  1.0 2.0586923123
Ho  Ho2  1  0.87876000  0.59564000  0.25000000  1.0 2.0586923123
Ho  Ho3  1  0.40436000  0.12124000  0.25000000  1.0 2.0586923123
Ho  Ho4  1  0.59564000  0.87876000  0.75000000  1.0 2.0586923123
Re  Re1  1  0.26539000  0.54231000  0.44140000  1.0 0.2895015091
Re  Re2  1  0.73461000  0.45769000  0.94140000  1.0 0.2895015091
Re  Re3  1  0.54231000  0.26539000  0.55860000  1.0 0.2895015091
Re  Re4  1  0.45769000  0.73461000  0.05860000  1.0 0.2895015091
Re  Re5  1  0.73461000  0.45769000  0.55860000  1.0 0.2895015091
Re  Re6  1  0.26539000  0.54231000  0.05860000  1.0 0.2895015091
Re  Re7  1  0.45769000  0.73461000  0.44140000  1.0 0.2895015091
Re  Re8  1  0.54231000  0.26539000  0.94140000  1.0 0.2895015091
Re  Re9  1  0.30634000  0.69366000  0.54058000  1.0 0.2547040195
Re  Re10  1  0.69366000  0.30634000  0.04058000  1.0 0.2547040195
Re  Re11  1  0.69366000  0.30634000  0.45942000  1.0 0.2547040195
Re  Re12  1  0.30634000  0.69366000  0.95942000  1.0 0.2547040195
Re  Re13  1  0.25109000  0.74891000  0.42128000  1.0 0.2192445521
Re  Re14  1  0.74891000  0.25109000  0.92128000  1.0 0.2142170877
Re  Re15  1  0.74891000  0.25109000  0.57872000  1.0 0.2192445521
Re  Re16  1  0.25109000  0.74891000  0.07872000  1.0 0.2192445521
C  C1  1  0.22230000  0.77770000  0.59380000  1.0 0.0209217849
C  C2  1  0.77770000  0.22230000  0.09380000  1.0 0.0209217849
C  C3  1  0.77770000  0.22230000  0.40620000  1.0 0.0209217849
C  C4  1  0.22230000  0.77770000  0.90620000  1.0 0.0209217849
C  C5  1  0.11750000  0.69130000  0.35580000  1.0 0.2574561038
C  C6  1  0.88250000  0.30870000  0.85580000  1.0 0.2574561038
C  C7  1  0.69130000  0.11750000  0.64420000  1.0 0.2574561038
C  C8  1  0.30870000  0.88250000  0.14420000  1.0 0.2574561038
C  C9  1  0.88250000  0.30870000  0.64420000  1.0 0.2574561038
C  C10  1  0.11750000  0.69130000  0.14420000  1.0 0.2574561038
C  C11  1  0.30870000  0.88250000  0.35580000  1.0 0.2574561038
C  C12  1  0.69130000  0.11750000  0.85580000  1.0 0.2574561038
C  C13  1  0.15760000  0.84240000  0.45120000  1.0 0.2192445521
C  C14  1  0.84240000  0.15760000  0.95120000  1.0 0.2192445521
C  C15  1  0.84240000  0.15760000  0.54880000  1.0 0.2192445521
C  C16  1  0.15760000  0.84240000  0.04880000  1.0 0.2192445521
C  C17  1  0.23520000  0.57320000  0.61270000  1.0 0.2895015091
C  C18  1  0.76480000  0.42680000  0.11270000  1.0 0.2895015091
C  C19  1  0.57320000  0.23520000  0.38730000  1.0 0.2895015091
C  C20  1  0.42680000  0.76480000  0.88730000  1.0 0.2895015091
C  C21  1  0.76480000  0.42680000  0.38730000  1.0 0.2895015091
C  C22  1  0.23520000  0.57320000  0.88730000  1.0 0.2895015091
C  C23  1  0.42680000  0.76480000  0.61270000  1.0 0.2895015091
C  C24  1  0.57320000  0.23520000  0.11270000  1.0 0.2895015091
C  C25  1  0.33680000  0.43920000  0.39470000  1.0 0.0541987107
C  C26  1  0.66320000  0.56080000  0.89470000  1.0 0.0541987107
C  C27  1  0.43920000  0.33680000  0.60530000  1.0 0.0541987107
C  C28  1  0.56080000  0.66320000  0.10530000  1.0 0.0541987107
C  C29  1  0.66320000  0.56080000  0.60530000  1.0 0.0541987107
C  C30  1  0.33680000  0.43920000  0.10530000  1.0 0.0541987107
C  C31  1  0.56080000  0.66320000  0.39470000  1.0 0.0541987107
C  C32  1  0.43920000  0.33680000  0.89470000  1.0 0.0541987107
C  C33  1  0.13200000  0.45080000  0.38020000  1.0 0.0634595966
C  C34  1  0.86800000  0.54920000  0.88020000  1.0 0.0634595966
C  C35  1  0.45080000  0.13200000  0.61980000  1.0 0.0634595966
C  C36  1  0.54920000  0.86800000  0.11980000  1.0 0.0634595966
C  C37  1  0.86800000  0.54920000  0.61980000  1.0 0.0634595966
C  C38  1  0.13200000  0.45080000  0.11980000  1.0 0.0634595966
C  C39  1  0.54920000  0.86800000  0.38020000  1.0 0.0634595966
C  C40  1  0.45080000  0.13200000  0.88020000  1.0 0.0634595966
C  C41  1  0.18960000  0.39520000  0.49660000  1.0 0.1166590736
C  C42  1  0.81040000  0.60480000  0.99660000  1.0 0.114094539
C  C43  1  0.39520000  0.18960000  0.50340000  1.0 0.114094539
C  C44  1  0.60480000  0.81040000  0.00340000  1.0 0.114094539
C  C45  1  0.81040000  0.60480000  0.50340000  1.0 0.114094539
C  C46  1  0.18960000  0.39520000  0.00340000  1.0 0.1166590736
C  C47  1  0.60480000  0.81040000  0.49660000  1.0 0.1166590736
C  C48  1  0.39520000  0.18960000  0.99660000  1.0 0.114094539
S  S1  1  0.41602000  0.58398000  0.51602000  1.0 -0.0274445682
S  S2  1  0.58398000  0.41602000  0.01602000  1.0 -0.043578609
S  S3  1  0.58398000  0.41602000  0.48398000  1.0 -0.043578609
S  S4  1  0.41602000  0.58398000  0.98398000  1.0 -0.043578609
S  S5  1  0.13246000  0.60616000  0.48855000  1.0 -0.0274445682
S  S6  1  0.86754000  0.39384000  0.98855000  1.0 -0.0274445682
S  S7  1  0.60616000  0.13246000  0.51145000  1.0 -0.0206440962
S  S8  1  0.39384000  0.86754000  0.01145000  1.0 -0.0274445682
S  S9  1  0.86754000  0.39384000  0.51145000  1.0 -0.0274445682
S  S10  1  0.13246000  0.60616000  0.01145000  1.0 -0.0274445682
S  S11  1  0.39384000  0.86754000  0.48855000  1.0 -0.0274445682
S  S12  1  0.60616000  0.13246000  0.98855000  1.0 -0.0274445682
S  S13  1  0.33884000  0.66116000  0.35261000  1.0 -0.0486457824
S  S14  1  0.66116000  0.33884000  0.85261000  1.0 -0.043578609
S  S15  1  0.66116000  0.33884000  0.64739000  1.0 -0.0486457824
S  S16  1  0.33884000  0.66116000  0.14739000  1.0 -0.043578609
N  N1  1  0.19560000  0.51040000  0.65260000  1.0 -0.4807275431
N  N2  1  0.80440000  0.48960000  0.15260000  1.0 -0.4807275431
N  N3  1  0.51040000  0.19560000  0.34740000  1.0 -0.4807275431
N  N4  1  0.48960000  0.80440000  0.84740000  1.0 -0.4807275431
N  N5  1  0.80440000  0.48960000  0.34740000  1.0 -0.4807275431
N  N6  1  0.19560000  0.51040000  0.84740000  1.0 -0.4807275431
N  N7  1  0.48960000  0.80440000  0.65260000  1.0 -0.4807275431
N  N8  1  0.51040000  0.19560000  0.15260000  1.0 -0.491402959
N  N9  1  0.17720000  0.82280000  0.62390000  1.0 -0.1062221442
N  N10  1  0.82280000  0.17720000  0.12390000  1.0 -0.0974556006
N  N11  1  0.82280000  0.17720000  0.37610000  1.0 -0.1062221442
N  N12  1  0.17720000  0.82280000  0.87610000  1.0 -0.1062221442
N  N13  1  0.04400000  0.66100000  0.32020000  1.0 -0.491402959
N  N14  1  0.95600000  0.33900000  0.82020000  1.0 -0.491402959
N  N15  1  0.66100000  0.04400000  0.67980000  1.0 -0.491402959
N  N16  1  0.33900000  0.95600000  0.17980000  1.0 -0.491402959
N  N17  1  0.95600000  0.33900000  0.67980000  1.0 -0.491402959
N  N18  1  0.04400000  0.66100000  0.17980000  1.0 -0.491402959
N  N19  1  0.33900000  0.95600000  0.32020000  1.0 -0.491402959
N  N20  1  0.66100000  0.04400000  0.82020000  1.0 -0.4952588021
N  N21  1  0.06100000  0.40160000  0.34610000  1.0 -0.0974556006
N  N22  1  0.93900000  0.59840000  0.84610000  1.0 -0.0974556006
N  N23  1  0.40160000  0.06100000  0.65390000  1.0 -0.0974556006
N  N24  1  0.59840000  0.93900000  0.15390000  1.0 -0.0974556006
N  N25  1  0.93900000  0.59840000  0.65390000  1.0 -0.0974556006
N  N26  1  0.06100000  0.40160000  0.15390000  1.0 -0.0922293912
N  N27  1  0.59840000  0.93900000  0.34610000  1.0 -0.0974556006
N  N28  1  0.40160000  0.06100000  0.84610000  1.0 -0.0974556006
N  N29  1  0.37520000  0.38700000  0.36570000  1.0 -0.0486457824
N  N30  1  0.62480000  0.61300000  0.86570000  1.0 -0.0486457824
N  N31  1  0.38700000  0.37520000  0.63430000  1.0 -0.0486457824
N  N32  1  0.61300000  0.62480000  0.13430000  1.0 -0.0486457824
N  N33  1  0.62480000  0.61300000  0.63430000  1.0 -0.0486457824
N  N34  1  0.37520000  0.38700000  0.13430000  1.0 -0.0486457824
N  N35  1  0.61300000  0.62480000  0.36570000  1.0 -0.0486457824
N  N36  1  0.38700000  0.37520000  0.86570000  1.0 -0.0486457824
N  N37  1  0.15000000  0.31420000  0.52520000  1.0 -0.3280235841
N  N38  1  0.85000000  0.68580000  0.02520000  1.0 -0.3280235841
N  N39  1  0.31420000  0.15000000  0.47480000  1.0 -0.3280235841
N  N40  1  0.68580000  0.85000000  0.97480000  1.0 -0.3280235841
N  N41  1  0.85000000  0.68580000  0.47480000  1.0 -0.3280235841
N  N42  1  0.15000000  0.31420000  0.97480000  1.0 -0.3280235841
N  N43  1  0.68580000  0.85000000  0.52520000  1.0 -0.3280235841
N  N44  1  0.31420000  0.15000000  0.02520000  1.0 -0.3280235841
N  N45  1  0.10560000  0.89440000  0.46390000  1.0 -0.4475809251
N  N46  1  0.89440000  0.10560000  0.96390000  1.0 -0.4475809251
N  N47  1  0.89440000  0.10560000  0.53610000  1.0 -0.4475809251
N  N48  1  0.10560000  0.89440000  0.03610000  1.0 -0.4475809251
O  O1  1  0.07420000  0.56420000  0.75000000  1.0 -0.5917285918
O  O2  1  0.92580000  0.43580000  0.25000000  1.0 -0.5917285918
O  O3  1  0.56420000  0.07420000  0.25000000  1.0 -0.5917285918
O  O4  1  0.43580000  0.92580000  0.75000000  1.0 -0.5917285918
O  O5  1  0.31470000  0.44670000  0.75000000  1.0 -0.4358464419
O  O6  1  0.68530000  0.55330000  0.25000000  1.0 -0.4346864561
O  O7  1  0.44670000  0.31470000  0.25000000  1.0 -0.4346864561
O  O8  1  0.55330000  0.68530000  0.75000000  1.0 -0.4346864561
O  O9  1  0.13660000  0.26420000  0.81960000  1.0 -0.4475809251
O  O10  1  0.86340000  0.73580000  0.31960000  1.0 -0.4475809251
O  O11  1  0.26420000  0.13660000  0.18040000  1.0 -0.4475809251
O  O12  1  0.73580000  0.86340000  0.68040000  1.0 -0.4475809251
O  O13  1  0.86340000  0.73580000  0.18040000  1.0 -0.4475809251
O  O14  1  0.13660000  0.26420000  0.68040000  1.0 -0.4475809251
O  O15  1  0.73580000  0.86340000  0.81960000  1.0 -0.4475809251
O  O16  1  0.26420000  0.13660000  0.31960000  1.0 -0.4475809251
O  O17  1  0.13280000  0.04280000  0.60550000  1.0 -0.0922293912
O  O18  1  0.86720000  0.95720000  0.10550000  1.0 -0.0922293912
O  O19  1  0.04280000  0.13280000  0.39450000  1.0 -0.0922293912
O  O20  1  0.95720000  0.86720000  0.89450000  1.0 -0.0922293912
O  O21  1  0.86720000  0.95720000  0.39450000  1.0 -0.0922293912
O  O22  1  0.13280000  0.04280000  0.89450000  1.0 -0.0974556006
O  O23  1  0.95720000  0.86720000  0.60550000  1.0 -0.0922293912
O  O24  1  0.04280000  0.13280000  0.10550000  1.0 -0.0974556006
