# DDEC6 charges by PACMAN v1.1 (https://github.com/mtap-research/PACMAN-charge/)
data_ORAKAU_FSR_pacman
_symmetry_space_group_name_H-M   'P 1'
_cell_length_a   12.85580000
_cell_length_b   12.85580000
_cell_length_c   20.91280000
_cell_angle_alpha   90.00000000
_cell_angle_beta   90.00000000
_cell_angle_gamma   111.82800000
_symmetry_Int_Tables_number   1
_chemical_formula_structural   KTbRe4C12S4(N2O)6
_chemical_formula_sum   'K4 Tb4 Re16 C48 S16 N48 O24'
_cell_volume   3208.49028775
_cell_formula_units_Z   4
loop_
 _symmetry_equiv_pos_site_id
 _symmetry_equiv_pos_as_xyz
  1  'x, y, z'
loop_
 _atom_site_type_symbol
 _atom_site_label
 _atom_site_symmetry_multiplicity
 _atom_site_fract_x
 _atom_site_fract_y
 _atom_site_fract_z
 _atom_site_occupancy
 _atom_site_charge
K  K1  1  0.91430000  0.91430000  0.50000000  1.0 0.7987846227
K  K2  1  0.08570000  0.08570000  0.00000000  1.0 0.7987846227
K  K3  1  0.08570000  0.08570000  0.50000000  1.0 0.7987846227
K  K4  1  0.91430000  0.91430000  0.00000000  1.0 0.7987846227
Tb  Tb1  1  0.12199000  0.40361000  0.75000000  1.0 2.0797308874
Tb  Tb2  1  0.87801000  0.59639000  0.25000000  1.0 2.0733690055
Tb  Tb3  1  0.40361000  0.12199000  0.25000000  1.0 2.0797308874
Tb  Tb4  1  0.59639000  0.87801000  0.75000000  1.0 2.0797308874
Re  Re1  1  0.30595000  0.69405000  0.54050000  1.0 0.229346616
Re  Re2  1  0.69405000  0.30595000  0.04050000  1.0 0.229346616
Re  Re3  1  0.69405000  0.30595000  0.45950000  1.0 0.229346616
Re  Re4  1  0.30595000  0.69405000  0.95950000  1.0 0.229346616
Re  Re5  1  0.26504000  0.54352000  0.44141000  1.0 0.292080034
Re  Re6  1  0.73496000  0.45648000  0.94141000  1.0 0.292080034
Re  Re7  1  0.54352000  0.26504000  0.55859000  1.0 0.298175344
Re  Re8  1  0.45648000  0.73496000  0.05859000  1.0 0.292080034
Re  Re9  1  0.73496000  0.45648000  0.55859000  1.0 0.292080034
Re  Re10  1  0.26504000  0.54352000  0.05859000  1.0 0.292080034
Re  Re11  1  0.45648000  0.73496000  0.44141000  1.0 0.292080034
Re  Re12  1  0.54352000  0.26504000  0.94141000  1.0 0.298175344
Re  Re13  1  0.25048000  0.74952000  0.42165000  1.0 0.1932812908
Re  Re14  1  0.74952000  0.25048000  0.92165000  1.0 0.1932812908
Re  Re15  1  0.74952000  0.25048000  0.57835000  1.0 0.1932812908
Re  Re16  1  0.25048000  0.74952000  0.07835000  1.0 0.1932812908
C  C1  1  0.23500000  0.57400000  0.61190000  1.0 0.2812279293
C  C2  1  0.76500000  0.42600000  0.11190000  1.0 0.2812279293
C  C3  1  0.57400000  0.23500000  0.38810000  1.0 0.2812279293
C  C4  1  0.42600000  0.76500000  0.88810000  1.0 0.2812279293
C  C5  1  0.76500000  0.42600000  0.38810000  1.0 0.2812279293
C  C6  1  0.23500000  0.57400000  0.88810000  1.0 0.2812279293
C  C7  1  0.42600000  0.76500000  0.61190000  1.0 0.2812279293
C  C8  1  0.57400000  0.23500000  0.11190000  1.0 0.2812279293
C  C9  1  0.22200000  0.77800000  0.59420000  1.0 0.0428232548
C  C10  1  0.77800000  0.22200000  0.09420000  1.0 0.0467287468
C  C11  1  0.77800000  0.22200000  0.40580000  1.0 0.0467287468
C  C12  1  0.22200000  0.77800000  0.90580000  1.0 0.0428232548
C  C13  1  0.13320000  0.45200000  0.37930000  1.0 0.059917962
C  C14  1  0.86680000  0.54800000  0.87930000  1.0 0.059917962
C  C15  1  0.45200000  0.13320000  0.62070000  1.0 0.059917962
C  C16  1  0.54800000  0.86680000  0.12070000  1.0 0.059917962
C  C17  1  0.86680000  0.54800000  0.62070000  1.0 0.059917962
C  C18  1  0.13320000  0.45200000  0.12070000  1.0 0.059917962
C  C19  1  0.54800000  0.86680000  0.37930000  1.0 0.059917962
C  C20  1  0.45200000  0.13320000  0.87930000  1.0 0.059917962
C  C21  1  0.33620000  0.43980000  0.39420000  1.0 0.0657452827
C  C22  1  0.66380000  0.56020000  0.89420000  1.0 0.0657452827
C  C23  1  0.43980000  0.33620000  0.60580000  1.0 0.059917962
C  C24  1  0.56020000  0.66380000  0.10580000  1.0 0.0657452827
C  C25  1  0.66380000  0.56020000  0.60580000  1.0 0.0657452827
C  C26  1  0.33620000  0.43980000  0.10580000  1.0 0.0657452827
C  C27  1  0.56020000  0.66380000  0.39420000  1.0 0.0657452827
C  C28  1  0.43980000  0.33620000  0.89420000  1.0 0.059917962
C  C29  1  0.18930000  0.39650000  0.49730000  1.0 0.1118838347
C  C30  1  0.81070000  0.60350000  0.99730000  1.0 0.1118838347
C  C31  1  0.39650000  0.18930000  0.50270000  1.0 0.1118838347
C  C32  1  0.60350000  0.81070000  0.00270000  1.0 0.1118838347
C  C33  1  0.81070000  0.60350000  0.50270000  1.0 0.1118838347
C  C34  1  0.18930000  0.39650000  0.00270000  1.0 0.1118838347
C  C35  1  0.60350000  0.81070000  0.49730000  1.0 0.1118838347
C  C36  1  0.39650000  0.18930000  0.99730000  1.0 0.1118838347
C  C37  1  0.15760000  0.84240000  0.45150000  1.0 0.229346616
C  C38  1  0.84240000  0.15760000  0.95150000  1.0 0.229346616
C  C39  1  0.84240000  0.15760000  0.54850000  1.0 0.229346616
C  C40  1  0.15760000  0.84240000  0.04850000  1.0 0.229346616
C  C41  1  0.11740000  0.69260000  0.35620000  1.0 0.2535750113
C  C42  1  0.88260000  0.30740000  0.85620000  1.0 0.2566931339
C  C43  1  0.69260000  0.11740000  0.64380000  1.0 0.2535750113
C  C44  1  0.30740000  0.88260000  0.14380000  1.0 0.2535750113
C  C45  1  0.88260000  0.30740000  0.64380000  1.0 0.2566931339
C  C46  1  0.11740000  0.69260000  0.14380000  1.0 0.2535750113
C  C47  1  0.30740000  0.88260000  0.35620000  1.0 0.2535750113
C  C48  1  0.69260000  0.11740000  0.85620000  1.0 0.2535750113
S  S1  1  0.33789000  0.66211000  0.35266000  1.0 -0.0496213628
S  S2  1  0.66211000  0.33789000  0.85266000  1.0 -0.0496213628
S  S3  1  0.66211000  0.33789000  0.64734000  1.0 -0.0496213628
S  S4  1  0.33789000  0.66211000  0.14734000  1.0 -0.0496213628
S  S5  1  0.13217000  0.60737000  0.48887000  1.0 -0.020250258
S  S6  1  0.86783000  0.39263000  0.98887000  1.0 -0.020250258
S  S7  1  0.60737000  0.13217000  0.51113000  1.0 -0.020250258
S  S8  1  0.39263000  0.86783000  0.01113000  1.0 -0.020250258
S  S9  1  0.86783000  0.39263000  0.51113000  1.0 -0.020250258
S  S10  1  0.13217000  0.60737000  0.01113000  1.0 -0.020250258
S  S11  1  0.39263000  0.86783000  0.48887000  1.0 -0.020250258
S  S12  1  0.60737000  0.13217000  0.98887000  1.0 -0.020250258
S  S13  1  0.41602000  0.58398000  0.51618000  1.0 -0.0399434066
S  S14  1  0.58398000  0.41602000  0.01618000  1.0 -0.0399434066
S  S15  1  0.58398000  0.41602000  0.48382000  1.0 -0.0399434066
S  S16  1  0.41602000  0.58398000  0.98382000  1.0 -0.0399434066
N  N1  1  0.19580000  0.51060000  0.65210000  1.0 -0.4813041596
N  N2  1  0.80420000  0.48940000  0.15210000  1.0 -0.4813041596
N  N3  1  0.51060000  0.19580000  0.34790000  1.0 -0.490356168
N  N4  1  0.48940000  0.80420000  0.84790000  1.0 -0.4813041596
N  N5  1  0.80420000  0.48940000  0.34790000  1.0 -0.4813041596
N  N6  1  0.19580000  0.51060000  0.84790000  1.0 -0.4813041596
N  N7  1  0.48940000  0.80420000  0.65210000  1.0 -0.4813041596
N  N8  1  0.51060000  0.19580000  0.15210000  1.0 -0.490356168
N  N9  1  0.17850000  0.82150000  0.62400000  1.0 -0.1241303592
N  N10  1  0.82150000  0.17850000  0.12400000  1.0 -0.1313989518
N  N11  1  0.82150000  0.17850000  0.37600000  1.0 -0.1313989518
N  N12  1  0.17850000  0.82150000  0.87600000  1.0 -0.1241303592
N  N13  1  0.06040000  0.40300000  0.34630000  1.0 -0.1054329334
N  N14  1  0.93960000  0.59700000  0.84630000  1.0 -0.1054329334
N  N15  1  0.40300000  0.06040000  0.65370000  1.0 -0.0997491462
N  N16  1  0.59700000  0.93960000  0.15370000  1.0 -0.0997491462
N  N17  1  0.93960000  0.59700000  0.65370000  1.0 -0.1054329334
N  N18  1  0.06040000  0.40300000  0.15370000  1.0 -0.1054329334
N  N19  1  0.59700000  0.93960000  0.34630000  1.0 -0.0997491462
N  N20  1  0.40300000  0.06040000  0.84630000  1.0 -0.0997491462
N  N21  1  0.37310000  0.38810000  0.36560000  1.0 -0.0559631271
N  N22  1  0.62690000  0.61190000  0.86560000  1.0 -0.0496213628
N  N23  1  0.38810000  0.37310000  0.63440000  1.0 -0.0496213628
N  N24  1  0.61190000  0.62690000  0.13440000  1.0 -0.0496213628
N  N25  1  0.62690000  0.61190000  0.63440000  1.0 -0.0496213628
N  N26  1  0.37310000  0.38810000  0.13440000  1.0 -0.0559631271
N  N27  1  0.61190000  0.62690000  0.36560000  1.0 -0.0496213628
N  N28  1  0.38810000  0.37310000  0.86560000  1.0 -0.0496213628
N  N29  1  0.14950000  0.31570000  0.52450000  1.0 -0.3276257275
N  N30  1  0.85050000  0.68430000  0.02450000  1.0 -0.3276257275
N  N31  1  0.31570000  0.14950000  0.47550000  1.0 -0.3276257275
N  N32  1  0.68430000  0.85050000  0.97550000  1.0 -0.3276257275
N  N33  1  0.85050000  0.68430000  0.47550000  1.0 -0.3276257275
N  N34  1  0.14950000  0.31570000  0.97550000  1.0 -0.3276257275
N  N35  1  0.68430000  0.85050000  0.52450000  1.0 -0.3276257275
N  N36  1  0.31570000  0.14950000  0.02450000  1.0 -0.3276257275
N  N37  1  0.10490000  0.89510000  0.46390000  1.0 -0.4634685723
N  N38  1  0.89510000  0.10490000  0.96390000  1.0 -0.4634685723
N  N39  1  0.89510000  0.10490000  0.53610000  1.0 -0.4634685723
N  N40  1  0.10490000  0.89510000  0.03610000  1.0 -0.4634685723
N  N41  1  0.04370000  0.66250000  0.32100000  1.0 -0.490356168
N  N42  1  0.95630000  0.33750000  0.82100000  1.0 -0.497269532
N  N43  1  0.66250000  0.04370000  0.67900000  1.0 -0.497269532
N  N44  1  0.33750000  0.95630000  0.17900000  1.0 -0.490356168
N  N45  1  0.95630000  0.33750000  0.67900000  1.0 -0.497269532
N  N46  1  0.04370000  0.66250000  0.17900000  1.0 -0.490356168
N  N47  1  0.33750000  0.95630000  0.32100000  1.0 -0.490356168
N  N48  1  0.66250000  0.04370000  0.82100000  1.0 -0.497269532
O  O1  1  0.07320000  0.56380000  0.75000000  1.0 -0.5693730025
O  O2  1  0.92680000  0.43620000  0.25000000  1.0 -0.5778812079
O  O3  1  0.56380000  0.07320000  0.25000000  1.0 -0.5778812079
O  O4  1  0.43620000  0.92680000  0.75000000  1.0 -0.5693730025
O  O5  1  0.13880000  0.26320000  0.82040000  1.0 -0.4402504125
O  O6  1  0.86120000  0.73680000  0.32040000  1.0 -0.4402504125
O  O7  1  0.26320000  0.13880000  0.17960000  1.0 -0.4302460013
O  O8  1  0.73680000  0.86120000  0.67960000  1.0 -0.4402504125
O  O9  1  0.86120000  0.73680000  0.17960000  1.0 -0.4402504125
O  O10  1  0.13880000  0.26320000  0.67960000  1.0 -0.4402504125
O  O11  1  0.73680000  0.86120000  0.82040000  1.0 -0.4402504125
O  O12  1  0.26320000  0.13880000  0.32040000  1.0 -0.4302460013
O  O13  1  0.31500000  0.44460000  0.75000000  1.0 -0.4228940813
O  O14  1  0.68500000  0.55540000  0.25000000  1.0 -0.4228940813
O  O15  1  0.44460000  0.31500000  0.25000000  1.0 -0.4302460013
O  O16  1  0.55540000  0.68500000  0.75000000  1.0 -0.4302460013
O  O17  1  0.86840000  0.95720000  0.39270000  1.0 -0.0931684731
O  O18  1  0.13160000  0.04280000  0.89270000  1.0 -0.0931684731
O  O19  1  0.95720000  0.86840000  0.60730000  1.0 -0.0931684731
O  O20  1  0.04280000  0.13160000  0.10730000  1.0 -0.0997491462
O  O21  1  0.13160000  0.04280000  0.60730000  1.0 -0.0931684731
O  O22  1  0.86840000  0.95720000  0.10730000  1.0 -0.0931684731
O  O23  1  0.04280000  0.13160000  0.39270000  1.0 -0.0997491462
O  O24  1  0.95720000  0.86840000  0.89270000  1.0 -0.0931684731
