# DDEC6 charges by PACMAN v1.1 (https://github.com/mtap-research/PACMAN-charge/)
data_ORERAG_FSR_pacman
_symmetry_space_group_name_H-M   'P 1'
_cell_length_a   7.42190000
_cell_length_b   31.52890000
_cell_length_c   15.34620000
_cell_angle_alpha   90.00000000
_cell_angle_beta   117.10000000
_cell_angle_gamma   90.00000000
_symmetry_Int_Tables_number   1
_chemical_formula_structural   Be3P4(HO4)4
_chemical_formula_sum   'Be24 P32 H32 O128'
_cell_volume   3196.82312582
_cell_formula_units_Z   8
loop_
 _symmetry_equiv_pos_site_id
 _symmetry_equiv_pos_as_xyz
  1  'x, y, z'
loop_
 _atom_site_type_symbol
 _atom_site_label
 _atom_site_symmetry_multiplicity
 _atom_site_fract_x
 _atom_site_fract_y
 _atom_site_fract_z
 _atom_site_occupancy
 _atom_site_charge
Be  Be1  1  0.30360000  0.50667000  0.11020000  1.0 1.1181862651
Be  Be2  1  0.69640000  0.00667000  0.38980000  1.0 1.1181862651
Be  Be3  1  0.69640000  0.49333000  0.88980000  1.0 1.1142866511
Be  Be4  1  0.30360000  0.99333000  0.61020000  1.0 1.1181862651
Be  Be5  1  0.05200000  0.42782000  0.23800000  1.0 1.1784926314
Be  Be6  1  0.94800000  0.92782000  0.26200000  1.0 1.1784926314
Be  Be7  1  0.94800000  0.57218000  0.76200000  1.0 1.1784926314
Be  Be8  1  0.05200000  0.07218000  0.73800000  1.0 1.1880595583
Be  Be9  1  0.43470000  0.17301000  0.26250000  1.0 1.2180292506
Be  Be10  1  0.56530000  0.67301000  0.23750000  1.0 1.2042004961
Be  Be11  1  0.56530000  0.82699000  0.73750000  1.0 1.2091196675
Be  Be12  1  0.43470000  0.32699000  0.76250000  1.0 1.2180292506
Be  Be13  1  0.76620000  0.26514000  0.11990000  1.0 1.2398535509
Be  Be14  1  0.23380000  0.76514000  0.38010000  1.0 1.2398535509
Be  Be15  1  0.23380000  0.73486000  0.88010000  1.0 1.2456431884
Be  Be16  1  0.76620000  0.23486000  0.61990000  1.0 1.2456431884
Be  Be17  1  0.71760000  0.52340000  0.39390000  1.0 1.2322462696
Be  Be18  1  0.28240000  0.02340000  0.10610000  1.0 1.2398535509
Be  Be19  1  0.28240000  0.47660000  0.60610000  1.0 1.2398535509
Be  Be20  1  0.71760000  0.97660000  0.89390000  1.0 1.2180292506
Be  Be21  1  0.28320000  0.22093000  0.88060000  1.0 1.1784926314
Be  Be22  1  0.71680000  0.72093000  0.61940000  1.0 1.1784926314
Be  Be23  1  0.71680000  0.77907000  0.11940000  1.0 1.1655974287
Be  Be24  1  0.28320000  0.27907000  0.38060000  1.0 1.1880595583
P  P1  1  0.10292000  0.50187000  0.89793000  1.0 1.3531062502
P  P2  1  0.89708000  0.00187000  0.60207000  1.0 1.3531062502
P  P3  1  0.89708000  0.49813000  0.10207000  1.0 1.3531062502
P  P4  1  0.10292000  0.99813000  0.39793000  1.0 1.3531062502
P  P5  1  0.53022000  0.08029000  0.26841000  1.0 1.3276582458
P  P6  1  0.46978000  0.58029000  0.23159000  1.0 1.3394311999
P  P7  1  0.46978000  0.91971000  0.73159000  1.0 1.3394311999
P  P8  1  0.53022000  0.41971000  0.76841000  1.0 1.3394311999
P  P9  1  0.05824000  0.20955000  0.26377000  1.0 1.3394311999
P  P10  1  0.94176000  0.70955000  0.23623000  1.0 1.3394311999
P  P11  1  0.94176000  0.79045000  0.73623000  1.0 1.3394311999
P  P12  1  0.05824000  0.29045000  0.76377000  1.0 1.3394311999
P  P13  1  0.47056000  0.45062000  0.27501000  1.0 1.324843039
P  P14  1  0.52944000  0.95062000  0.22499000  1.0 1.3276582458
P  P15  1  0.52944000  0.54938000  0.72499000  1.0 1.324843039
P  P16  1  0.47056000  0.04938000  0.77501000  1.0 1.324843039
P  P17  1  0.08860000  0.48400000  0.39387000  1.0 1.304094225
P  P18  1  0.91140000  0.98400000  0.10613000  1.0 1.3070759673
P  P19  1  0.91140000  0.51600000  0.60613000  1.0 1.304094225
P  P20  1  0.08860000  0.01600000  0.89387000  1.0 1.304094225
P  P21  1  0.97089000  0.33701000  0.25775000  1.0 1.3569719293
P  P22  1  0.02911000  0.83701000  0.24225000  1.0 1.3531062502
P  P23  1  0.02911000  0.66299000  0.74225000  1.0 1.3569719293
P  P24  1  0.97089000  0.16299000  0.75775000  1.0 1.3569719293
P  P25  1  0.38773000  0.21951000  0.09133000  1.0 1.3276582458
P  P26  1  0.61227000  0.71951000  0.40867000  1.0 1.3276582458
P  P27  1  0.61227000  0.78049000  0.90867000  1.0 1.3276582458
P  P28  1  0.38773000  0.28049000  0.59133000  1.0 1.3276582458
P  P29  1  0.65822000  0.26220000  0.90772000  1.0 1.3394311999
P  P30  1  0.34178000  0.76220000  0.59228000  1.0 1.3394311999
P  P31  1  0.34178000  0.73780000  0.09228000  1.0 1.3394311999
P  P32  1  0.65822000  0.23780000  0.40772000  1.0 1.3394311999
H  H1  1  0.29420000  0.48330000  0.83750000  1.0 0.3503591615
H  H2  1  0.70580000  0.98330000  0.66250000  1.0 0.3503591615
H  H3  1  0.70580000  0.51670000  0.16250000  1.0 0.3503591615
H  H4  1  0.29420000  0.01670000  0.33750000  1.0 0.3503591615
H  H5  1  0.80340000  0.06520000  0.29530000  1.0 0.3286446828
H  H6  1  0.19660000  0.56520000  0.20470000  1.0 0.3286446828
H  H7  1  0.19660000  0.93480000  0.70470000  1.0 0.3286446828
H  H8  1  0.80340000  0.43480000  0.79530000  1.0 0.3286446828
H  H9  1  0.80280000  0.18770000  0.27690000  1.0 0.3406695436
H  H10  1  0.19720000  0.68770000  0.22310000  1.0 0.3406695436
H  H11  1  0.19720000  0.81230000  0.72310000  1.0 0.3406695436
H  H12  1  0.80280000  0.31230000  0.77690000  1.0 0.3406695436
H  H13  1  0.74790000  0.42640000  0.30340000  1.0 0.3503591615
H  H14  1  0.25210000  0.92640000  0.19660000  1.0 0.3503591615
H  H15  1  0.25210000  0.57360000  0.69660000  1.0 0.3503591615
H  H16  1  0.74790000  0.07360000  0.80340000  1.0 0.3503591615
H  H17  1  0.31490000  0.50650000  0.36440000  1.0 0.3286446828
H  H18  1  0.68510000  0.00650000  0.13560000  1.0 0.3286446828
H  H19  1  0.68510000  0.49350000  0.63560000  1.0 0.3286446828
H  H20  1  0.31490000  0.99350000  0.86440000  1.0 0.3286446828
H  H21  1  0.91900000  0.32120000  0.37750000  1.0 0.3503591615
H  H22  1  0.08100000  0.82120000  0.12250000  1.0 0.3503591615
H  H23  1  0.08100000  0.67880000  0.62250000  1.0 0.3503591615
H  H24  1  0.91900000  0.17880000  0.87750000  1.0 0.3503591615
H  H25  1  0.14390000  0.24160000  0.11350000  1.0 0.3406695436
H  H26  1  0.85610000  0.74160000  0.38650000  1.0 0.3406695436
H  H27  1  0.85610000  0.75840000  0.88650000  1.0 0.3406695436
H  H28  1  0.14390000  0.25840000  0.61350000  1.0 0.3406695436
H  H29  1  0.91680000  0.24790000  0.89900000  1.0 0.3286446828
H  H30  1  0.08320000  0.74790000  0.60100000  1.0 0.3286446828
H  H31  1  0.08320000  0.75210000  0.10100000  1.0 0.3286446828
H  H32  1  0.91680000  0.25210000  0.39900000  1.0 0.3286446828
O  O1  1  0.26647000  0.49819000  0.00137000  1.0 -0.6128188075
O  O2  1  0.73353000  0.99819000  0.49863000  1.0 -0.6128188075
O  O3  1  0.73353000  0.50181000  0.99863000  1.0 -0.6128188075
O  O4  1  0.26647000  0.00181000  0.50137000  1.0 -0.6128188075
O  O5  1  0.90305000  0.48165000  0.88115000  1.0 -0.6694081618
O  O6  1  0.09695000  0.98165000  0.61885000  1.0 -0.6790917795
O  O7  1  0.09695000  0.51835000  0.11885000  1.0 -0.6790917795
O  O8  1  0.90305000  0.01835000  0.38115000  1.0 -0.6694081618
O  O9  1  0.07336000  0.54766000  0.86446000  1.0 -0.6594423613
O  O10  1  0.92664000  0.04766000  0.63554000  1.0 -0.6594423613
O  O11  1  0.92664000  0.45234000  0.13554000  1.0 -0.6594423613
O  O12  1  0.07336000  0.95234000  0.36446000  1.0 -0.6594423613
O  O13  1  0.16757000  0.47326000  0.83237000  1.0 -0.6694081618
O  O14  1  0.83243000  0.97326000  0.66763000  1.0 -0.6694081618
O  O15  1  0.83243000  0.52674000  0.16763000  1.0 -0.6694081618
O  O16  1  0.16757000  0.02674000  0.33237000  1.0 -0.6694081618
O  O17  1  0.47906000  0.12332000  0.29436000  1.0 -0.6128188075
O  O18  1  0.52094000  0.62332000  0.20564000  1.0 -0.6128188075
O  O19  1  0.52094000  0.87668000  0.70564000  1.0 -0.6128188075
O  O20  1  0.47906000  0.37668000  0.79436000  1.0 -0.6128188075
O  O21  1  0.37113000  0.06760000  0.16693000  1.0 -0.6594423613
O  O22  1  0.62887000  0.56760000  0.33307000  1.0 -0.6594423613
O  O23  1  0.62887000  0.93240000  0.83307000  1.0 -0.6594423613
O  O24  1  0.37113000  0.43240000  0.66693000  1.0 -0.6594423613
O  O25  1  0.54940000  0.04851000  0.34710000  1.0 -0.6594423613
O  O26  1  0.45060000  0.54851000  0.15290000  1.0 -0.6594423613
O  O27  1  0.45060000  0.95149000  0.65290000  1.0 -0.6594423613
O  O28  1  0.54940000  0.45149000  0.84710000  1.0 -0.6594423613
O  O29  1  0.74133000  0.08351000  0.26823000  1.0 -0.5474643063
O  O30  1  0.25867000  0.58351000  0.23177000  1.0 -0.5474643063
O  O31  1  0.25867000  0.91649000  0.73177000  1.0 -0.5474643063
O  O32  1  0.74133000  0.41649000  0.76823000  1.0 -0.5474643063
O  O33  1  0.22837000  0.18210000  0.26947000  1.0 -0.6299858194
O  O34  1  0.77163000  0.68210000  0.23053000  1.0 -0.6299858194
O  O35  1  0.77163000  0.81790000  0.73053000  1.0 -0.6299858194
O  O36  1  0.22837000  0.31790000  0.76947000  1.0 -0.6299858194
O  O37  1  0.95834000  0.23223000  0.16524000  1.0 -0.6790917795
O  O38  1  0.04166000  0.73223000  0.33476000  1.0 -0.6790917795
O  O39  1  0.04166000  0.76777000  0.83476000  1.0 -0.6790917795
O  O40  1  0.95834000  0.26777000  0.66524000  1.0 -0.6790917795
O  O41  1  0.11964000  0.23993000  0.34934000  1.0 -0.6790917795
O  O42  1  0.88036000  0.73993000  0.15066000  1.0 -0.6790917795
O  O43  1  0.88036000  0.76007000  0.65066000  1.0 -0.6790917795
O  O44  1  0.11964000  0.26007000  0.84934000  1.0 -0.6790917795
O  O45  1  0.90587000  0.17670000  0.27117000  1.0 -0.6299858194
O  O46  1  0.09413000  0.67670000  0.22883000  1.0 -0.6299858194
O  O47  1  0.09413000  0.82330000  0.72883000  1.0 -0.6299858194
O  O48  1  0.90587000  0.32330000  0.77117000  1.0 -0.6299858194
O  O49  1  0.29683000  0.42702000  0.27943000  1.0 -0.6244237524
O  O50  1  0.70317000  0.92702000  0.22057000  1.0 -0.6299858194
O  O51  1  0.70317000  0.57298000  0.72057000  1.0 -0.6244237524
O  O52  1  0.29683000  0.07298000  0.77943000  1.0 -0.6244237524
O  O53  1  0.54512000  0.48593000  0.35172000  1.0 -0.6906301033
O  O54  1  0.45488000  0.98593000  0.14828000  1.0 -0.6906301033
O  O55  1  0.45488000  0.51407000  0.64828000  1.0 -0.6906301033
O  O56  1  0.54512000  0.01407000  0.85172000  1.0 -0.6906301033
O  O57  1  0.42145000  0.46606000  0.17405000  1.0 -0.6510257681
O  O58  1  0.57855000  0.96606000  0.32595000  1.0 -0.6510257681
O  O59  1  0.57855000  0.53394000  0.82595000  1.0 -0.641914491
O  O60  1  0.42145000  0.03394000  0.67405000  1.0 -0.641914491
O  O61  1  0.64041000  0.41573000  0.30431000  1.0 -0.6003698509
O  O62  1  0.35959000  0.91573000  0.19569000  1.0 -0.6003698509
O  O63  1  0.35959000  0.58427000  0.69569000  1.0 -0.6003698509
O  O64  1  0.64041000  0.08427000  0.80431000  1.0 -0.6003698509
O  O65  1  0.00130000  0.44666000  0.32360000  1.0 -0.6594423613
O  O66  1  0.99870000  0.94666000  0.17640000  1.0 -0.6594423613
O  O67  1  0.99870000  0.55334000  0.67640000  1.0 -0.6594423613
O  O68  1  0.00130000  0.05334000  0.82360000  1.0 -0.6594423613
O  O69  1  0.92405000  0.51247000  0.39055000  1.0 -0.6594423613
O  O70  1  0.07595000  0.01247000  0.10945000  1.0 -0.6594423613
O  O71  1  0.07595000  0.48753000  0.60945000  1.0 -0.6594423613
O  O72  1  0.92405000  0.98753000  0.89055000  1.0 -0.6594423613
O  O73  1  0.22878000  0.46626000  0.49418000  1.0 -0.641914491
O  O74  1  0.77122000  0.96626000  0.00582000  1.0 -0.641914491
O  O75  1  0.77122000  0.53374000  0.50582000  1.0 -0.641914491
O  O76  1  0.22878000  0.03374000  0.99418000  1.0 -0.641914491
O  O77  1  0.21473000  0.51411000  0.36053000  1.0 -0.580370779
O  O78  1  0.78527000  0.01411000  0.13947000  1.0 -0.580370779
O  O79  1  0.78527000  0.48589000  0.63947000  1.0 -0.580370779
O  O80  1  0.21473000  0.98589000  0.86053000  1.0 -0.580370779
O  O81  1  0.18504000  0.31896000  0.30464000  1.0 -0.6594423613
O  O82  1  0.81496000  0.81896000  0.19536000  1.0 -0.6594423613
O  O83  1  0.81496000  0.68104000  0.69536000  1.0 -0.6594423613
O  O84  1  0.18504000  0.18104000  0.80464000  1.0 -0.6594423613
O  O85  1  0.96703000  0.38027000  0.21633000  1.0 -0.6003698509
O  O86  1  0.03297000  0.88027000  0.28367000  1.0 -0.6003698509
O  O87  1  0.03297000  0.61973000  0.78367000  1.0 -0.6003698509
O  O88  1  0.96703000  0.11973000  0.71633000  1.0 -0.6003698509
O  O89  1  0.81775000  0.30914000  0.18015000  1.0 -0.6594423613
O  O90  1  0.18225000  0.80914000  0.31985000  1.0 -0.6594423613
O  O91  1  0.18225000  0.69086000  0.81985000  1.0 -0.6594423613
O  O92  1  0.81775000  0.19086000  0.68015000  1.0 -0.6594423613
O  O93  1  0.90361000  0.34291000  0.34101000  1.0 -0.6694081618
O  O94  1  0.09639000  0.84291000  0.15899000  1.0 -0.6694081618
O  O95  1  0.09639000  0.65709000  0.65899000  1.0 -0.6594423613
O  O96  1  0.90361000  0.15709000  0.84101000  1.0 -0.6694081618
O  O97  1  0.32088000  0.20504000  0.98688000  1.0 -0.6594423613
O  O98  1  0.67912000  0.70504000  0.51312000  1.0 -0.6510257681
O  O99  1  0.67912000  0.79496000  0.01312000  1.0 -0.6510257681
O  O100  1  0.32088000  0.29496000  0.48688000  1.0 -0.6510257681
O  O101  1  0.57647000  0.24642000  0.13087000  1.0 -0.6694081618
O  O102  1  0.42353000  0.74642000  0.36913000  1.0 -0.6694081618
O  O103  1  0.42353000  0.75358000  0.86913000  1.0 -0.6694081618
O  O104  1  0.57647000  0.25358000  0.63087000  1.0 -0.6694081618
O  O105  1  0.40568000  0.18025000  0.15228000  1.0 -0.641914491
O  O106  1  0.59432000  0.68025000  0.34772000  1.0 -0.641914491
O  O107  1  0.59432000  0.81975000  0.84772000  1.0 -0.641914491
O  O108  1  0.40568000  0.31975000  0.65228000  1.0 -0.641914491
O  O109  1  0.22375000  0.25033000  0.09445000  1.0 -0.6299858194
O  O110  1  0.77625000  0.75033000  0.40555000  1.0 -0.6299858194
O  O111  1  0.77625000  0.74967000  0.90555000  1.0 -0.6299858194
O  O112  1  0.22375000  0.24967000  0.59445000  1.0 -0.6299858194
O  O113  1  0.62813000  0.29922000  0.83873000  1.0 -0.6510257681
O  O114  1  0.37187000  0.79922000  0.66127000  1.0 -0.6510257681
O  O115  1  0.37187000  0.70078000  0.16127000  1.0 -0.6510257681
O  O116  1  0.62813000  0.20078000  0.33873000  1.0 -0.6510257681
O  O117  1  0.48219000  0.23200000  0.87019000  1.0 -0.6510257681
O  O118  1  0.51781000  0.73200000  0.62981000  1.0 -0.6510257681
O  O119  1  0.51781000  0.76800000  0.12981000  1.0 -0.6510257681
O  O120  1  0.48219000  0.26800000  0.37019000  1.0 -0.6510257681
O  O121  1  0.71770000  0.27844000  0.00940000  1.0 -0.6510257681
O  O122  1  0.28230000  0.77844000  0.49060000  1.0 -0.6510257681
O  O123  1  0.28230000  0.72156000  0.99060000  1.0 -0.6510257681
O  O124  1  0.71770000  0.22156000  0.50940000  1.0 -0.6510257681
O  O125  1  0.83811000  0.23435000  0.90931000  1.0 -0.6128188075
O  O126  1  0.16189000  0.73435000  0.59069000  1.0 -0.6128188075
O  O127  1  0.16189000  0.76565000  0.09069000  1.0 -0.6128188075
O  O128  1  0.83811000  0.26565000  0.40931000  1.0 -0.6128188075
