# DDEC6 charges by PACMAN v1.1 (https://github.com/mtap-research/PACMAN-charge/)
data_OREZAO_ASR_pacman
_symmetry_space_group_name_H-M   'P 1'
_cell_length_a   17.79920000
_cell_length_b   17.79920000
_cell_length_c   12.71450000
_cell_angle_alpha   90.00000000
_cell_angle_beta   90.00000000
_cell_angle_gamma   120.00000000
_symmetry_Int_Tables_number   1
_chemical_formula_structural   CaCu6H48C36S6(N2O7)3
_chemical_formula_sum   'Ca2 Cu12 H96 C72 S12 N12 O42'
_cell_volume   3488.43699755
_cell_formula_units_Z   2
loop_
 _symmetry_equiv_pos_site_id
 _symmetry_equiv_pos_as_xyz
  1  'x, y, z'
loop_
 _atom_site_type_symbol
 _atom_site_label
 _atom_site_symmetry_multiplicity
 _atom_site_fract_x
 _atom_site_fract_y
 _atom_site_fract_z
 _atom_site_occupancy
 _atom_site_charge
Ca  Ca1  1  0.33333333  0.66666667  0.13460000  1.0 1.3910302883
Ca  Ca2  1  0.66666667  0.33333333  0.63460000  1.0 1.3910302883
Cu  Cu1  1  0.13680000  0.55380000  0.26620000  1.0 0.8729183143
Cu  Cu2  1  0.44620000  0.58300000  0.26620000  1.0 0.8729183143
Cu  Cu3  1  0.41700000  0.86320000  0.26620000  1.0 0.8729183143
Cu  Cu4  1  0.86320000  0.44620000  0.76620000  1.0 0.8761924868
Cu  Cu5  1  0.55380000  0.41700000  0.76620000  1.0 0.8761924868
Cu  Cu6  1  0.58300000  0.13680000  0.76620000  1.0 0.8729183143
Cu  Cu7  1  0.13770000  0.55480000  0.00411000  1.0 0.8893169826
Cu  Cu8  1  0.44520000  0.58290000  0.00411000  1.0 0.8893169826
Cu  Cu9  1  0.41710000  0.86230000  0.00411000  1.0 0.8893169826
Cu  Cu10  1  0.86230000  0.44520000  0.50411000  1.0 0.8893169826
Cu  Cu11  1  0.55480000  0.41710000  0.50411000  1.0 0.8893169826
Cu  Cu12  1  0.58290000  0.13770000  0.50411000  1.0 0.8893169826
H  H1  1  0.15320000  0.70130000  0.47620000  1.0 0.1097303211
H  H2  1  0.29870000  0.45190000  0.47620000  1.0 0.1097303211
H  H3  1  0.54810000  0.84680000  0.47620000  1.0 0.1097303211
H  H4  1  0.84680000  0.29870000  0.97620000  1.0 0.1097303211
H  H5  1  0.70130000  0.54810000  0.97620000  1.0 0.1097303211
H  H6  1  0.45190000  0.15320000  0.97620000  1.0 0.1097303211
H  H7  1  0.82060000  0.32150000  0.29690000  1.0 0.119922234
H  H8  1  0.67850000  0.49910000  0.29690000  1.0 0.119922234
H  H9  1  0.50090000  0.17940000  0.29690000  1.0 0.119922234
H  H10  1  0.17940000  0.67850000  0.79690000  1.0 0.119922234
H  H11  1  0.32150000  0.50090000  0.79690000  1.0 0.119922234
H  H12  1  0.49910000  0.82060000  0.79690000  1.0 0.119922234
H  H13  1  0.03690000  0.71010000  0.39600000  1.0 0.1294762723
H  H14  1  0.28990000  0.32680000  0.39600000  1.0 0.1294762723
H  H15  1  0.67320000  0.96310000  0.39600000  1.0 0.1294762723
H  H16  1  0.96310000  0.28990000  0.89600000  1.0 0.1294762723
H  H17  1  0.71010000  0.67320000  0.89600000  1.0 0.1294762723
H  H18  1  0.32680000  0.03690000  0.89600000  1.0 0.1294762723
H  H19  1  0.12550000  0.79970000  0.38130000  1.0 0.119922234
H  H20  1  0.20030000  0.32580000  0.38130000  1.0 0.119922234
H  H21  1  0.67420000  0.87450000  0.38130000  1.0 0.119922234
H  H22  1  0.87450000  0.20030000  0.88130000  1.0 0.119922234
H  H23  1  0.79970000  0.67420000  0.88130000  1.0 0.119922234
H  H24  1  0.32580000  0.12550000  0.88130000  1.0 0.119922234
H  H25  1  0.13510000  0.78050000  0.21990000  1.0 0.1021559514
H  H26  1  0.21950000  0.35460000  0.21990000  1.0 0.1021559514
H  H27  1  0.64540000  0.86490000  0.21990000  1.0 0.1021559514
H  H28  1  0.86490000  0.21950000  0.71990000  1.0 0.1021559514
H  H29  1  0.78050000  0.64540000  0.71990000  1.0 0.1097303211
H  H30  1  0.35460000  0.13510000  0.71990000  1.0 0.1021559514
H  H31  1  0.03740000  0.75320000  0.23890000  1.0 0.1021559514
H  H32  1  0.24680000  0.28420000  0.23890000  1.0 0.1021559514
H  H33  1  0.71580000  0.96260000  0.23890000  1.0 0.1021559514
H  H34  1  0.96260000  0.24680000  0.73890000  1.0 0.1021559514
H  H35  1  0.75320000  0.71580000  0.73890000  1.0 0.1021559514
H  H36  1  0.28420000  0.03740000  0.73890000  1.0 0.1021559514
H  H37  1  0.10820000  0.73920000  0.99240000  1.0 0.1097303211
H  H38  1  0.26080000  0.36900000  0.99240000  1.0 0.1097303211
H  H39  1  0.63100000  0.89180000  0.99240000  1.0 0.1097303211
H  H40  1  0.89180000  0.26080000  0.49240000  1.0 0.1097303211
H  H41  1  0.73920000  0.63100000  0.49240000  1.0 0.1097303211
H  H42  1  0.36900000  0.10820000  0.49240000  1.0 0.1097303211
H  H43  1  0.16830000  0.78570000  0.09240000  1.0 0.1592702633
H  H44  1  0.21430000  0.38260000  0.09240000  1.0 0.1592702633
H  H45  1  0.61740000  0.83170000  0.09240000  1.0 0.1592702633
H  H46  1  0.83170000  0.21430000  0.59240000  1.0 0.1592702633
H  H47  1  0.78570000  0.61740000  0.59240000  1.0 0.1592702633
H  H48  1  0.38260000  0.16830000  0.59240000  1.0 0.1592702633
H  H49  1  0.08020000  0.78780000  0.07620000  1.0 0.1021559514
H  H50  1  0.21220000  0.29240000  0.07620000  1.0 0.1021559514
H  H51  1  0.70760000  0.91980000  0.07620000  1.0 0.1021559514
H  H52  1  0.91980000  0.21220000  0.57620000  1.0 0.1021559514
H  H53  1  0.78780000  0.70760000  0.57620000  1.0 0.1021559514
H  H54  1  0.29240000  0.08020000  0.57620000  1.0 0.1021559514
H  H55  1  0.95100000  0.32540000  0.27590000  1.0 0.1294762723
H  H56  1  0.67460000  0.62560000  0.27590000  1.0 0.1294762723
H  H57  1  0.37440000  0.04900000  0.27590000  1.0 0.1294762723
H  H58  1  0.04900000  0.67460000  0.77590000  1.0 0.1294762723
H  H59  1  0.32540000  0.37440000  0.77590000  1.0 0.1294762723
H  H60  1  0.62560000  0.95100000  0.77590000  1.0 0.1294762723
H  H61  1  0.86630000  0.23430000  0.26370000  1.0 0.1097303211
H  H62  1  0.76570000  0.63200000  0.26370000  1.0 0.1097303211
H  H63  1  0.36800000  0.13370000  0.26370000  1.0 0.1097303211
H  H64  1  0.13370000  0.76570000  0.76370000  1.0 0.1097303211
H  H65  1  0.23430000  0.36800000  0.76370000  1.0 0.1097303211
H  H66  1  0.63200000  0.86630000  0.76370000  1.0 0.1097303211
H  H67  1  0.01280000  0.28200000  0.37530000  1.0 0.1294762723
H  H68  1  0.71800000  0.73080000  0.37530000  1.0 0.1294762723
H  H69  1  0.26920000  0.98720000  0.37530000  1.0 0.1294762723
H  H70  1  0.98720000  0.71800000  0.87530000  1.0 0.1294762723
H  H71  1  0.28200000  0.26920000  0.87530000  1.0 0.1294762723
H  H72  1  0.73080000  0.01280000  0.87530000  1.0 0.1294762723
H  H73  1  0.95740000  0.19940000  0.30770000  1.0 0.1097303211
H  H74  1  0.80060000  0.75800000  0.30770000  1.0 0.1097303211
H  H75  1  0.24200000  0.04260000  0.30770000  1.0 0.1097303211
H  H76  1  0.04260000  0.80060000  0.80770000  1.0 0.1097303211
H  H77  1  0.19940000  0.24200000  0.80770000  1.0 0.1097303211
H  H78  1  0.75800000  0.95740000  0.80770000  1.0 0.1097303211
H  H79  1  0.03770000  0.08740000  0.43490000  1.0 0.1416425509
H  H80  1  0.91260000  0.95030000  0.43490000  1.0 0.1416425509
H  H81  1  0.04970000  0.96230000  0.43490000  1.0 0.1416425509
H  H82  1  0.96230000  0.91260000  0.93490000  1.0 0.1416425509
H  H83  1  0.08740000  0.04970000  0.93490000  1.0 0.1416425509
H  H84  1  0.95030000  0.03770000  0.93490000  1.0 0.1416425509
H  H85  1  0.08070000  0.17190000  0.36180000  1.0 0.1465908106
H  H86  1  0.82810000  0.90880000  0.36180000  1.0 0.1465908106
H  H87  1  0.09120000  0.91930000  0.36180000  1.0 0.1465908106
H  H88  1  0.91930000  0.82810000  0.86180000  1.0 0.1465908106
H  H89  1  0.17190000  0.09120000  0.86180000  1.0 0.1465908106
H  H90  1  0.90880000  0.08070000  0.86180000  1.0 0.1465908106
H  H91  1  0.99000000  0.08950000  0.32920000  1.0 0.1416425509
H  H92  1  0.91050000  0.90050000  0.32920000  1.0 0.1416425509
H  H93  1  0.09950000  0.01000000  0.32920000  1.0 0.1416425509
H  H94  1  0.01000000  0.91050000  0.82920000  1.0 0.1416425509
H  H95  1  0.08950000  0.09950000  0.82920000  1.0 0.1416425509
H  H96  1  0.90050000  0.99000000  0.82920000  1.0 0.1416425509
C  C1  1  0.23610000  0.72400000  0.33800000  1.0 0.5799266165
C  C2  1  0.27600000  0.51210000  0.33800000  1.0 0.5799266165
C  C3  1  0.48790000  0.76390000  0.33800000  1.0 0.5799266165
C  C4  1  0.76390000  0.27600000  0.83800000  1.0 0.5799266165
C  C5  1  0.72400000  0.48790000  0.83800000  1.0 0.5799266165
C  C6  1  0.51210000  0.23610000  0.83800000  1.0 0.5799266165
C  C7  1  0.14500000  0.69500000  0.39800000  1.0 0.0034366669
C  C8  1  0.30500000  0.45000000  0.39800000  1.0 0.0034366669
C  C9  1  0.55000000  0.85500000  0.39800000  1.0 0.0034366669
C  C10  1  0.85500000  0.30500000  0.89800000  1.0 0.0034366669
C  C11  1  0.69500000  0.55000000  0.89800000  1.0 0.0034366669
C  C12  1  0.45000000  0.14500000  0.89800000  1.0 0.0034366669
C  C13  1  0.98100000  0.45370000  0.36000000  1.0 0.3396313255
C  C14  1  0.54630000  0.52730000  0.36000000  1.0 0.3396313255
C  C15  1  0.47270000  0.01900000  0.36000000  1.0 0.3396313255
C  C16  1  0.01900000  0.54630000  0.86000000  1.0 0.3396313255
C  C17  1  0.45370000  0.47270000  0.86000000  1.0 0.3396313255
C  C18  1  0.52730000  0.98100000  0.86000000  1.0 0.3396313255
C  C19  1  0.02100000  0.53900000  0.41700000  1.0 0.3574645485
C  C20  1  0.46100000  0.48200000  0.41700000  1.0 0.3574645485
C  C21  1  0.51800000  0.97900000  0.41700000  1.0 0.3574645485
C  C22  1  0.97900000  0.46100000  0.91700000  1.0 0.3574645485
C  C23  1  0.53900000  0.51800000  0.91700000  1.0 0.3574645485
C  C24  1  0.48200000  0.02100000  0.91700000  1.0 0.3574645485
C  C25  1  0.77500000  0.27500000  0.43100000  1.0 0.4964712129
C  C26  1  0.72500000  0.50000000  0.43100000  1.0 0.4964712129
C  C27  1  0.50000000  0.22500000  0.43100000  1.0 0.4964712129
C  C28  1  0.22500000  0.72500000  0.93100000  1.0 0.4964712129
C  C29  1  0.27500000  0.50000000  0.93100000  1.0 0.4964712129
C  C30  1  0.50000000  0.77500000  0.93100000  1.0 0.4964712129
C  C31  1  0.84850000  0.31630000  0.36300000  1.0 -0.0081508523
C  C32  1  0.68370000  0.53220000  0.36300000  1.0 -0.0081508523
C  C33  1  0.46780000  0.15150000  0.36300000  1.0 -0.0081508523
C  C34  1  0.15150000  0.68370000  0.86300000  1.0 -0.0081508523
C  C35  1  0.31630000  0.46780000  0.86300000  1.0 -0.0081508523
C  C36  1  0.53220000  0.84850000  0.86300000  1.0 -0.0081508523
C  C37  1  0.09400000  0.73800000  0.36000000  1.0 -0.2101324003
C  C38  1  0.26200000  0.35600000  0.36000000  1.0 -0.2101324003
C  C39  1  0.64400000  0.90600000  0.36000000  1.0 -0.2101324003
C  C40  1  0.90600000  0.26200000  0.86000000  1.0 -0.2101324003
C  C41  1  0.73800000  0.64400000  0.86000000  1.0 -0.2101324003
C  C42  1  0.35600000  0.09400000  0.86000000  1.0 -0.2101324003
C  C43  1  0.08000000  0.73300000  0.24800000  1.0 -0.1464827344
C  C44  1  0.26700000  0.34700000  0.24800000  1.0 -0.1464827344
C  C45  1  0.65300000  0.92000000  0.24800000  1.0 -0.1464827344
C  C46  1  0.92000000  0.26700000  0.74800000  1.0 -0.1464827344
C  C47  1  0.73300000  0.65300000  0.74800000  1.0 -0.1464827344
C  C48  1  0.34700000  0.08000000  0.74800000  1.0 -0.1464827344
C  C49  1  0.10800000  0.75300000  0.06700000  1.0 -0.4372500315
C  C50  1  0.24700000  0.35500000  0.06700000  1.0 -0.4372500315
C  C51  1  0.64500000  0.89200000  0.06700000  1.0 -0.4372500315
C  C52  1  0.89200000  0.24700000  0.56700000  1.0 -0.4372500315
C  C53  1  0.75300000  0.64500000  0.56700000  1.0 -0.4372500315
C  C54  1  0.35500000  0.10800000  0.56700000  1.0 -0.4372500315
C  C55  1  0.90480000  0.27690000  0.31680000  1.0 -0.1604183326
C  C56  1  0.72310000  0.62790000  0.31680000  1.0 -0.1604183326
C  C57  1  0.37210000  0.09520000  0.31680000  1.0 -0.1604183326
C  C58  1  0.09520000  0.72310000  0.81680000  1.0 -0.1604183326
C  C59  1  0.27690000  0.37210000  0.81680000  1.0 -0.1604183326
C  C60  1  0.62790000  0.90480000  0.81680000  1.0 -0.1604183326
C  C61  1  0.95410000  0.23030000  0.37070000  1.0 -0.2043434316
C  C62  1  0.76970000  0.72380000  0.37070000  1.0 -0.2101324003
C  C63  1  0.27620000  0.04590000  0.37070000  1.0 -0.2101324003
C  C64  1  0.04590000  0.76970000  0.87070000  1.0 -0.2043434316
C  C65  1  0.23030000  0.27620000  0.87070000  1.0 -0.2101324003
C  C66  1  0.72380000  0.95410000  0.87070000  1.0 -0.2043434316
C  C67  1  0.02600000  0.12400000  0.38800000  1.0 -0.4599786857
C  C68  1  0.87600000  0.90200000  0.38800000  1.0 -0.4599786857
C  C69  1  0.09800000  0.97400000  0.38800000  1.0 -0.4599786857
C  C70  1  0.97400000  0.87600000  0.88800000  1.0 -0.4599786857
C  C71  1  0.12400000  0.09800000  0.88800000  1.0 -0.4599786857
C  C72  1  0.90200000  0.02600000  0.88800000  1.0 -0.4599786857
S  S1  1  0.04570000  0.64610000  0.14700000  1.0 -0.0186310081
S  S2  1  0.35390000  0.39960000  0.14700000  1.0 -0.0186310081
S  S3  1  0.60040000  0.95430000  0.14700000  1.0 -0.0186310081
S  S4  1  0.95430000  0.35390000  0.64700000  1.0 -0.0186310081
S  S5  1  0.64610000  0.60040000  0.64700000  1.0 -0.0186310081
S  S6  1  0.39960000  0.04570000  0.64700000  1.0 -0.0186310081
S  S7  1  0.96700000  0.16890000  0.46310000  1.0 0.0264143599
S  S8  1  0.83110000  0.79810000  0.46310000  1.0 0.0264143599
S  S9  1  0.20190000  0.03300000  0.46310000  1.0 0.0264143599
S  S10  1  0.03300000  0.83110000  0.96310000  1.0 0.0244762571
S  S11  1  0.16890000  0.20190000  0.96310000  1.0 0.0264143599
S  S12  1  0.79810000  0.96700000  0.96310000  1.0 0.0264143599
N  N1  1  0.08880000  0.59510000  0.36500000  1.0 -0.38325174
N  N2  1  0.40490000  0.49370000  0.36500000  1.0 -0.38325174
N  N3  1  0.50630000  0.91120000  0.36500000  1.0 -0.38325174
N  N4  1  0.91120000  0.40490000  0.86500000  1.0 -0.38325174
N  N5  1  0.59510000  0.50630000  0.86500000  1.0 -0.38325174
N  N6  1  0.49370000  0.08880000  0.86500000  1.0 -0.38325174
N  N7  1  0.89840000  0.40160000  0.38940000  1.0 -0.3871065909
N  N8  1  0.59840000  0.49680000  0.38940000  1.0 -0.3871065909
N  N9  1  0.50320000  0.10160000  0.38940000  1.0 -0.3871065909
N  N10  1  0.10160000  0.59840000  0.88940000  1.0 -0.3871065909
N  N11  1  0.40160000  0.50320000  0.88940000  1.0 -0.3871065909
N  N12  1  0.49680000  0.89840000  0.88940000  1.0 -0.3871065909
O  O1  1  0.17670000  0.53400000  0.12900000  1.0 -0.7134615058
O  O2  1  0.46600000  0.64270000  0.12900000  1.0 -0.7134615058
O  O3  1  0.35730000  0.82330000  0.12900000  1.0 -0.7153210277
O  O4  1  0.82330000  0.46600000  0.62900000  1.0 -0.7134615058
O  O5  1  0.53400000  0.35730000  0.62900000  1.0 -0.7134615058
O  O6  1  0.64270000  0.17670000  0.62900000  1.0 -0.7134615058
O  O7  1  0.23480000  0.67470000  0.26950000  1.0 -0.5001761153
O  O8  1  0.32530000  0.56010000  0.26950000  1.0 -0.5001761153
O  O9  1  0.43990000  0.76520000  0.26950000  1.0 -0.5001761153
O  O10  1  0.76520000  0.32530000  0.76950000  1.0 -0.5001761153
O  O11  1  0.67470000  0.43990000  0.76950000  1.0 -0.5001761153
O  O12  1  0.56010000  0.23480000  0.76950000  1.0 -0.5001761153
O  O13  1  0.02320000  0.44810000  0.28300000  1.0 -0.4107615972
O  O14  1  0.55190000  0.57510000  0.28300000  1.0 -0.4107615972
O  O15  1  0.42490000  0.97680000  0.28300000  1.0 -0.4107615972
O  O16  1  0.97680000  0.55190000  0.78300000  1.0 -0.4107615972
O  O17  1  0.44810000  0.42490000  0.78300000  1.0 -0.4154534573
O  O18  1  0.57510000  0.02320000  0.78300000  1.0 -0.4154534573
O  O19  1  0.29420000  0.80320000  0.36180000  1.0 -0.5647652978
O  O20  1  0.19680000  0.49100000  0.36180000  1.0 -0.5647652978
O  O21  1  0.50900000  0.70580000  0.36180000  1.0 -0.5647652978
O  O22  1  0.70580000  0.19680000  0.86180000  1.0 -0.5647652978
O  O23  1  0.80320000  0.50900000  0.86180000  1.0 -0.5657631988
O  O24  1  0.49100000  0.29420000  0.86180000  1.0 -0.5657631988
O  O25  1  0.75990000  0.32450000  0.50000000  1.0 -0.5133445595
O  O26  1  0.67550000  0.43540000  0.50000000  1.0 -0.5133445595
O  O27  1  0.56460000  0.24010000  0.50000000  1.0 -0.5133445595
O  O28  1  0.24010000  0.67550000  0.00000000  1.0 -0.5133445595
O  O29  1  0.32450000  0.56460000  0.00000000  1.0 -0.5133445595
O  O30  1  0.43540000  0.75990000  0.00000000  1.0 -0.5133445595
O  O31  1  0.98010000  0.56100000  0.48600000  1.0 -0.4599786857
O  O32  1  0.43900000  0.41910000  0.48600000  1.0 -0.4599786857
O  O33  1  0.58090000  0.01990000  0.48600000  1.0 -0.4599786857
O  O34  1  0.01990000  0.43900000  0.98600000  1.0 -0.4599786857
O  O35  1  0.56100000  0.58090000  0.98600000  1.0 -0.4599786857
O  O36  1  0.41910000  0.98010000  0.98600000  1.0 -0.4599786857
O  O37  1  0.71710000  0.20190000  0.42670000  1.0 -0.4107615972
O  O38  1  0.79810000  0.51520000  0.42670000  1.0 -0.4107615972
O  O39  1  0.48480000  0.28290000  0.42670000  1.0 -0.4107615972
O  O40  1  0.28290000  0.79810000  0.92670000  1.0 -0.4107615972
O  O41  1  0.20190000  0.48480000  0.92670000  1.0 -0.4107615972
O  O42  1  0.51520000  0.71710000  0.92670000  1.0 -0.4107615972
