# DDEC6 charges by PACMAN v1.1 (https://github.com/mtap-research/PACMAN-charge/)
data_ORIHAB_ASR_pacman
_symmetry_space_group_name_H-M   'P 1'
_cell_length_a   14.34380000
_cell_length_b   14.34380000
_cell_length_c   14.82000000
_cell_angle_alpha   88.99770000
_cell_angle_beta   91.00230000
_cell_angle_gamma   149.46200000
_symmetry_Int_Tables_number   1
_chemical_formula_structural   CdReC33N7
_chemical_formula_sum   'Cd2 Re2 C66 N14'
_cell_volume   1549.04034170
_cell_formula_units_Z   2
loop_
 _symmetry_equiv_pos_site_id
 _symmetry_equiv_pos_as_xyz
  1  'x, y, z'
loop_
 _atom_site_type_symbol
 _atom_site_label
 _atom_site_symmetry_multiplicity
 _atom_site_fract_x
 _atom_site_fract_y
 _atom_site_fract_z
 _atom_site_occupancy
 _atom_site_charge
Cd  Cd1  1  0.50000000  0.50000000  0.50000000  1.0 0.9445344077
Cd  Cd2  1  0.50000000  0.50000000  0.00000000  1.0 1.0104837881
Re  Re1  1  0.04408000  0.95592000  0.25728000  1.0 0.463610025
Re  Re2  1  0.95592000  0.04408000  0.74272000  1.0 0.463610025
C  C1  1  0.85590000  0.76490000  0.36010000  1.0 0.0313711683
C  C2  1  0.20990000  0.17230000  0.16370000  1.0 0.0313711683
C  C3  1  0.89470000  0.21930000  0.18500000  1.0 0.0612179952
C  C4  1  0.88840000  0.35160000  0.04360000  1.0 0.0493055437
C  C5  1  0.00940000  0.37660000  0.03600000  1.0 -0.0262319969
C  C6  1  0.01280000  0.31320000  0.10630000  1.0 -0.0513050757
C  C7  1  0.87730000  0.29070000  0.58700000  1.0 -0.0081892416
C  C8  1  0.92260000  0.40940000  0.53470000  1.0 0.0313711683
C  C9  1  0.85150000  0.43450000  0.55460000  1.0 -0.0970678051
C  C10  1  0.76490000  0.85590000  0.63990000  1.0 0.0313711683
C  C11  1  0.17230000  0.20990000  0.83630000  1.0 0.0313711683
C  C12  1  0.21930000  0.89470000  0.81500000  1.0 0.0612179952
C  C13  1  0.35160000  0.88840000  0.95640000  1.0 0.0493055437
C  C14  1  0.37660000  0.00940000  0.96400000  1.0 -0.0241100436
C  C15  1  0.31320000  0.01280000  0.89370000  1.0 -0.0513050757
C  C16  1  0.29070000  0.87730000  0.41300000  1.0 -0.0081892416
C  C17  1  0.40940000  0.92260000  0.46530000  1.0 0.0313711683
C  C18  1  0.43450000  0.85150000  0.44540000  1.0 -0.0970678051
C  C19  1  0.14410000  0.23510000  0.63990000  1.0 0.0313711683
C  C20  1  0.79010000  0.82770000  0.83630000  1.0 0.0313711683
C  C21  1  0.10530000  0.78070000  0.81500000  1.0 0.0612179952
C  C22  1  0.11160000  0.64840000  0.95640000  1.0 0.0493055437
C  C23  1  0.99060000  0.62340000  0.96400000  1.0 -0.0241100436
C  C24  1  0.98720000  0.68680000  0.89370000  1.0 -0.0513050757
C  C25  1  0.12270000  0.70930000  0.41300000  1.0 -0.0081892416
C  C26  1  0.07740000  0.59060000  0.46530000  1.0 0.0313711683
C  C27  1  0.14850000  0.56550000  0.44540000  1.0 -0.0970678051
C  C28  1  0.23510000  0.14410000  0.36010000  1.0 0.0313711683
C  C29  1  0.82770000  0.79010000  0.16370000  1.0 0.0313711683
C  C30  1  0.78070000  0.10530000  0.18500000  1.0 0.0612179952
C  C31  1  0.64840000  0.11160000  0.04360000  1.0 0.0493055437
C  C32  1  0.62340000  0.99060000  0.03600000  1.0 -0.0262319969
C  C33  1  0.68680000  0.98720000  0.10630000  1.0 -0.0513050757
C  C34  1  0.70930000  0.12270000  0.58700000  1.0 -0.0081892416
C  C35  1  0.59060000  0.07740000  0.53470000  1.0 0.0313711683
C  C36  1  0.56550000  0.14850000  0.55460000  1.0 -0.0970678051
C  C37  1  0.94540000  0.05460000  0.38690000  1.0 0.1720703708
C  C38  1  0.89740000  0.10260000  0.41290000  1.0 -0.0513050757
C  C39  1  0.86160000  0.13840000  0.34420000  1.0 0.0085267728
C  C40  1  0.87390000  0.12610000  0.25470000  1.0 0.0313711683
C  C41  1  0.92330000  0.07670000  0.23720000  1.0 0.0612179952
C  C42  1  0.79110000  0.20890000  0.18870000  1.0 -0.0241100436
C  C43  1  0.75680000  0.24320000  0.11790000  1.0 0.0391027479
C  C44  1  0.05460000  0.94540000  0.61310000  1.0 0.1720703708
C  C45  1  0.10260000  0.89740000  0.58710000  1.0 -0.0513050757
C  C46  1  0.13840000  0.86160000  0.65580000  1.0 0.0085267728
C  C47  1  0.12610000  0.87390000  0.74530000  1.0 0.0313711683
C  C48  1  0.07670000  0.92330000  0.76280000  1.0 0.0612179952
C  C49  1  0.20890000  0.79110000  0.81130000  1.0 -0.0262319969
C  C50  1  0.24320000  0.75680000  0.88210000  1.0 0.0391027479
C  C51  1  0.54890000  0.45110000  0.69890000  1.0 0.1940259578
C  C52  1  0.58390000  0.41610000  0.76530000  1.0 -0.0914739465
C  C53  1  0.63200000  0.36800000  0.74450000  1.0 0.0493055437
C  C54  1  0.64430000  0.35570000  0.65450000  1.0 -0.002054258
C  C55  1  0.60760000  0.39240000  0.59080000  1.0 0.0817753689
C  C56  1  0.69640000  0.30360000  0.62890000  1.0 0.101697361
C  C57  1  0.73210000  0.26790000  0.68190000  1.0 -0.1467193124
C  C58  1  0.78170000  0.21830000  0.66120000  1.0 0.0313711683
C  C59  1  0.45110000  0.54890000  0.30110000  1.0 0.1940259578
C  C60  1  0.41610000  0.58390000  0.23470000  1.0 -0.0914739465
C  C61  1  0.36800000  0.63200000  0.25550000  1.0 0.0493055437
C  C62  1  0.35570000  0.64430000  0.34550000  1.0 -0.002054258
C  C63  1  0.39240000  0.60760000  0.40920000  1.0 0.0817753689
C  C64  1  0.30360000  0.69640000  0.37110000  1.0 0.101697361
C  C65  1  0.26790000  0.73210000  0.31810000  1.0 -0.1467193124
C  C66  1  0.21830000  0.78170000  0.33880000  1.0 0.0313711683
N  N1  1  0.75380000  0.66820000  0.41930000  1.0 -0.3728209419
N  N2  1  0.29510000  0.28530000  0.11080000  1.0 -0.3728209419
N  N3  1  0.66820000  0.75380000  0.58070000  1.0 -0.3728209419
N  N4  1  0.28530000  0.29510000  0.88920000  1.0 -0.3728209419
N  N5  1  0.24620000  0.33180000  0.58070000  1.0 -0.3728209419
N  N6  1  0.70490000  0.71470000  0.88920000  1.0 -0.3728209419
N  N7  1  0.33180000  0.24620000  0.41930000  1.0 -0.3728209419
N  N8  1  0.71470000  0.70490000  0.11080000  1.0 -0.3728209419
N  N9  1  0.10130000  0.89870000  0.23350000  1.0 -0.1404448507
N  N10  1  0.95800000  0.04200000  0.29790000  1.0 -0.1404448507
N  N11  1  0.89870000  0.10130000  0.76650000  1.0 -0.1404448507
N  N12  1  0.04200000  0.95800000  0.70210000  1.0 -0.1404448507
N  N13  1  0.56000000  0.44000000  0.61130000  1.0 -0.1684942974
N  N14  1  0.44000000  0.56000000  0.38870000  1.0 -0.1684942974
