# DDEC6 charges by PACMAN v1.1 (https://github.com/mtap-research/PACMAN-charge/)
data_ORIVUI_FSR_pacman
_symmetry_space_group_name_H-M   'P 1'
_cell_length_a   15.09470000
_cell_length_b   15.09470000
_cell_length_c   15.09470000
_cell_angle_alpha   117.84300000
_cell_angle_beta   117.84300000
_cell_angle_gamma   117.84300000
_symmetry_Int_Tables_number   1
_chemical_formula_structural   NiH(CO)4
_chemical_formula_sum   'Ni6 H6 C24 O24'
_cell_volume   1295.26518512
_cell_formula_units_Z   6
loop_
 _symmetry_equiv_pos_site_id
 _symmetry_equiv_pos_as_xyz
  1  'x, y, z'
loop_
 _atom_site_type_symbol
 _atom_site_label
 _atom_site_symmetry_multiplicity
 _atom_site_fract_x
 _atom_site_fract_y
 _atom_site_fract_z
 _atom_site_occupancy
 _atom_site_charge
Ni  Ni1  1  0.10963000  0.52830000  0.79566000  1.0 0.921138194
Ni  Ni2  1  0.52830000  0.79566000  0.10963000  1.0 0.921138194
Ni  Ni3  1  0.79566000  0.10963000  0.52830000  1.0 0.921138194
Ni  Ni4  1  0.89037000  0.47170000  0.20434000  1.0 0.921138194
Ni  Ni5  1  0.47170000  0.20434000  0.89037000  1.0 0.921138194
Ni  Ni6  1  0.20434000  0.89037000  0.47170000  1.0 0.921138194
H  H1  1  0.64310000  0.16521000  0.61902000  1.0 0.1306315033
H  H2  1  0.16521000  0.61902000  0.64310000  1.0 0.1306315033
H  H3  1  0.61902000  0.64310000  0.16521000  1.0 0.1306315033
H  H4  1  0.35690000  0.83479000  0.38098000  1.0 0.1306315033
H  H5  1  0.83479000  0.38098000  0.35690000  1.0 0.1306315033
H  H6  1  0.38098000  0.35690000  0.83479000  1.0 0.1306315033
C  C1  1  0.16897000  0.61102000  0.08332000  1.0 -0.1514048186
C  C2  1  0.61102000  0.08332000  0.16897000  1.0 -0.1514048186
C  C3  1  0.08332000  0.16897000  0.61102000  1.0 -0.1514048186
C  C4  1  0.83103000  0.38898000  0.91668000  1.0 -0.1514048186
C  C5  1  0.38898000  0.91668000  0.83103000  1.0 -0.1514048186
C  C6  1  0.91668000  0.83103000  0.38898000  1.0 -0.1514048186
C  C7  1  0.96808000  0.42259000  0.86889000  1.0 0.2645934192
C  C8  1  0.42259000  0.86889000  0.96808000  1.0 0.2645934192
C  C9  1  0.86889000  0.96808000  0.42259000  1.0 0.2645934192
C  C10  1  0.03192000  0.57741000  0.13111000  1.0 0.2645934192
C  C11  1  0.57741000  0.13111000  0.03192000  1.0 0.2645934192
C  C12  1  0.13111000  0.03192000  0.57741000  1.0 0.2645934192
C  C13  1  0.79912000  0.31157000  0.78557000  1.0 -0.2075425567
C  C14  1  0.31157000  0.78557000  0.79912000  1.0 -0.2075425567
C  C15  1  0.78557000  0.79912000  0.31157000  1.0 -0.2075425567
C  C16  1  0.20088000  0.68843000  0.21443000  1.0 -0.2075425567
C  C17  1  0.68843000  0.21443000  0.20088000  1.0 -0.2075425567
C  C18  1  0.21443000  0.20088000  0.68843000  1.0 -0.2075425567
C  C19  1  0.35068000  0.73042000  0.17293000  1.0 0.5985780526
C  C20  1  0.73042000  0.17293000  0.35068000  1.0 0.5985780526
C  C21  1  0.17293000  0.35068000  0.73042000  1.0 0.5985780526
C  C22  1  0.64932000  0.26958000  0.82707000  1.0 0.5985780526
C  C23  1  0.26958000  0.82707000  0.64932000  1.0 0.5985780526
C  C24  1  0.82707000  0.64932000  0.26958000  1.0 0.5985780526
O  O1  1  0.32195000  0.66068000  0.05477000  1.0 -0.5694147479
O  O2  1  0.66068000  0.05477000  0.32195000  1.0 -0.5694147479
O  O3  1  0.05477000  0.32195000  0.66068000  1.0 -0.5694147479
O  O4  1  0.67805000  0.33932000  0.94523000  1.0 -0.5694147479
O  O5  1  0.33932000  0.94523000  0.67805000  1.0 -0.5694147479
O  O6  1  0.94523000  0.67805000  0.33932000  1.0 -0.5694147479
O  O7  1  0.53180000  0.90032000  0.36626000  1.0 -0.4834492686
O  O8  1  0.90032000  0.36626000  0.53180000  1.0 -0.4834492686
O  O9  1  0.36626000  0.53180000  0.90032000  1.0 -0.4834492686
O  O10  1  0.46820000  0.09968000  0.63374000  1.0 -0.4834492686
O  O11  1  0.09968000  0.63374000  0.46820000  1.0 -0.4834492686
O  O12  1  0.63374000  0.46820000  0.09968000  1.0 -0.4834492686
O  O13  1  0.93717000  0.34762000  0.74191000  1.0 -0.5547097059
O  O14  1  0.34762000  0.74191000  0.93717000  1.0 -0.5554736586
O  O15  1  0.74191000  0.93717000  0.34762000  1.0 -0.5554736586
O  O16  1  0.06283000  0.65238000  0.25809000  1.0 -0.5554736586
O  O17  1  0.65238000  0.25809000  0.06283000  1.0 -0.5554736586
O  O18  1  0.25809000  0.06283000  0.65238000  1.0 -0.5554736586
O  O19  1  0.14439000  0.72977000  0.87749000  1.0 0.0522165558
O  O20  1  0.72977000  0.87749000  0.14439000  1.0 0.0522165558
O  O21  1  0.87749000  0.14439000  0.72977000  1.0 0.0522165558
O  O22  1  0.85561000  0.27023000  0.12251000  1.0 0.0522165558
O  O23  1  0.27023000  0.12251000  0.85561000  1.0 0.0522165558
O  O24  1  0.12251000  0.85561000  0.27023000  1.0 0.0522165558
