# DDEC6 charges by PACMAN v1.1 (https://github.com/mtap-research/PACMAN-charge/)
data_ORIWAP_FSR_pacman
_symmetry_space_group_name_H-M   'P 1'
_cell_length_a   15.25260000
_cell_length_b   15.25260000
_cell_length_c   15.25260000
_cell_angle_alpha   117.88000000
_cell_angle_beta   117.88000000
_cell_angle_gamma   117.88000000
_symmetry_Int_Tables_number   1
_chemical_formula_structural   CoH(CO)4
_chemical_formula_sum   'Co6 H6 C24 O24'
_cell_volume   1325.22736019
_cell_formula_units_Z   6
loop_
 _symmetry_equiv_pos_site_id
 _symmetry_equiv_pos_as_xyz
  1  'x, y, z'
loop_
 _atom_site_type_symbol
 _atom_site_label
 _atom_site_symmetry_multiplicity
 _atom_site_fract_x
 _atom_site_fract_y
 _atom_site_fract_z
 _atom_site_occupancy
 _atom_site_charge
Co  Co1  1  0.11438000  0.53504000  0.80082000  1.0 0.9812179634
Co  Co2  1  0.53504000  0.80082000  0.11438000  1.0 0.9812179634
Co  Co3  1  0.80082000  0.11438000  0.53504000  1.0 0.9812179634
Co  Co4  1  0.88562000  0.46496000  0.19918000  1.0 0.9812179634
Co  Co5  1  0.46496000  0.19918000  0.88562000  1.0 0.9812179634
Co  Co6  1  0.19918000  0.88562000  0.46496000  1.0 0.9812179634
H  H1  1  0.63930000  0.17090000  0.62310000  1.0 0.1423785765
H  H2  1  0.17090000  0.62310000  0.63930000  1.0 0.1423785765
H  H3  1  0.62310000  0.63930000  0.17090000  1.0 0.1423785765
H  H4  1  0.36070000  0.82910000  0.37690000  1.0 0.1423785765
H  H5  1  0.82910000  0.37690000  0.36070000  1.0 0.1423785765
H  H6  1  0.37690000  0.36070000  0.82910000  1.0 0.1423785765
C  C1  1  0.16428000  0.61466000  0.07726000  1.0 -0.1059193825
C  C2  1  0.61466000  0.07726000  0.16428000  1.0 -0.1059193825
C  C3  1  0.07726000  0.16428000  0.61466000  1.0 -0.1059193825
C  C4  1  0.83572000  0.38534000  0.92274000  1.0 -0.1044376762
C  C5  1  0.38534000  0.92274000  0.83572000  1.0 -0.1059193825
C  C6  1  0.92274000  0.83572000  0.38534000  1.0 -0.1044376762
C  C7  1  0.96120000  0.42935000  0.86505000  1.0 0.2767280866
C  C8  1  0.42935000  0.86505000  0.96120000  1.0 0.2767280866
C  C9  1  0.86505000  0.96120000  0.42935000  1.0 0.2767280866
C  C10  1  0.03880000  0.57065000  0.13495000  1.0 0.2767280866
C  C11  1  0.57065000  0.13495000  0.03880000  1.0 0.2767280866
C  C12  1  0.13495000  0.03880000  0.57065000  1.0 0.2767280866
C  C13  1  0.79699000  0.31476000  0.78787000  1.0 -0.1916967378
C  C14  1  0.31476000  0.78787000  0.79699000  1.0 -0.1916967378
C  C15  1  0.78787000  0.79699000  0.31476000  1.0 -0.1916967378
C  C16  1  0.20301000  0.68524000  0.21213000  1.0 -0.1916967378
C  C17  1  0.68524000  0.21213000  0.20301000  1.0 -0.1916967378
C  C18  1  0.21213000  0.20301000  0.68524000  1.0 -0.1916967378
C  C19  1  0.35470000  0.73692000  0.17738000  1.0 0.5872194796
C  C20  1  0.73692000  0.17738000  0.35470000  1.0 0.5872194796
C  C21  1  0.17738000  0.35470000  0.73692000  1.0 0.5872194796
C  C22  1  0.64530000  0.26308000  0.82262000  1.0 0.5872194796
C  C23  1  0.26308000  0.82262000  0.64530000  1.0 0.5872194796
C  C24  1  0.82262000  0.64530000  0.26308000  1.0 0.5872194796
O  O1  1  0.32653000  0.68222000  0.06645000  1.0 -0.508954701
O  O2  1  0.68222000  0.06645000  0.32653000  1.0 -0.508954701
O  O3  1  0.06645000  0.32653000  0.68222000  1.0 -0.508954701
O  O4  1  0.67347000  0.31778000  0.93355000  1.0 -0.508954701
O  O5  1  0.31778000  0.93355000  0.67347000  1.0 -0.508954701
O  O6  1  0.93355000  0.67347000  0.31778000  1.0 -0.508954701
O  O7  1  0.51940000  0.88992000  0.36128000  1.0 -0.4351302059
O  O8  1  0.88992000  0.36128000  0.51940000  1.0 -0.4340936513
O  O9  1  0.36128000  0.51940000  0.88992000  1.0 -0.4340936513
O  O10  1  0.48060000  0.11008000  0.63872000  1.0 -0.4351302059
O  O11  1  0.11008000  0.63872000  0.48060000  1.0 -0.4351302059
O  O12  1  0.63872000  0.48060000  0.11008000  1.0 -0.4340936513
O  O13  1  0.91249000  0.35105000  0.72356000  1.0 -0.5922813883
O  O14  1  0.35105000  0.72356000  0.91249000  1.0 -0.5922813883
O  O15  1  0.72356000  0.91249000  0.35105000  1.0 -0.5922813883
O  O16  1  0.08751000  0.64895000  0.27644000  1.0 -0.5922813883
O  O17  1  0.64895000  0.27644000  0.08751000  1.0 -0.5922813883
O  O18  1  0.27644000  0.08751000  0.64895000  1.0 -0.5922813883
O  O19  1  0.17705000  0.74709000  0.95276000  1.0 -0.1530640246
O  O20  1  0.74709000  0.95276000  0.17705000  1.0 -0.1530640246
O  O21  1  0.95276000  0.17705000  0.74709000  1.0 -0.1560837151
O  O22  1  0.82295000  0.25291000  0.04724000  1.0 -0.1560837151
O  O23  1  0.25291000  0.04724000  0.82295000  1.0 -0.1530640246
O  O24  1  0.04724000  0.82295000  0.25291000  1.0 -0.1560837151
