# DDEC6 charges by PACMAN v1.1 (https://github.com/mtap-research/PACMAN-charge/)
data_ORIWET_FSR_pacman
_symmetry_space_group_name_H-M   'P 1'
_cell_length_a   15.50940000
_cell_length_b   15.50940000
_cell_length_c   15.50940000
_cell_angle_alpha   117.89700000
_cell_angle_beta   117.89700000
_cell_angle_gamma   117.89700000
_symmetry_Int_Tables_number   1
_chemical_formula_structural   MnH(CO)4
_chemical_formula_sum   'Mn6 H6 C24 O24'
_cell_volume   1387.89121108
_cell_formula_units_Z   6
loop_
 _symmetry_equiv_pos_site_id
 _symmetry_equiv_pos_as_xyz
  1  'x, y, z'
loop_
 _atom_site_type_symbol
 _atom_site_label
 _atom_site_symmetry_multiplicity
 _atom_site_fract_x
 _atom_site_fract_y
 _atom_site_fract_z
 _atom_site_occupancy
 _atom_site_charge
Mn  Mn1  1  0.10402000  0.53369000  0.79120000  1.0 1.0742793046
Mn  Mn2  1  0.53369000  0.79120000  0.10402000  1.0 1.0742793046
Mn  Mn3  1  0.79120000  0.10402000  0.53369000  1.0 1.0742793046
Mn  Mn4  1  0.89598000  0.46631000  0.20880000  1.0 1.0742793046
Mn  Mn5  1  0.46631000  0.20880000  0.89598000  1.0 1.0742793046
Mn  Mn6  1  0.20880000  0.89598000  0.46631000  1.0 1.0742793046
H  H1  1  0.65440000  0.18820000  0.62754000  1.0 0.1455732572
H  H2  1  0.18820000  0.62754000  0.65440000  1.0 0.1455732572
H  H3  1  0.62754000  0.65440000  0.18820000  1.0 0.1455732572
H  H4  1  0.34560000  0.81180000  0.37246000  1.0 0.1455732572
H  H5  1  0.81180000  0.37246000  0.34560000  1.0 0.1455732572
H  H6  1  0.37246000  0.34560000  0.81180000  1.0 0.1455732572
C  C1  1  0.16713000  0.60790000  0.08492000  1.0 -0.1187541572
C  C2  1  0.60790000  0.08492000  0.16713000  1.0 -0.1187541572
C  C3  1  0.08492000  0.16713000  0.60790000  1.0 -0.1187541572
C  C4  1  0.83287000  0.39210000  0.91508000  1.0 -0.1187541572
C  C5  1  0.39210000  0.91508000  0.83287000  1.0 -0.1187541572
C  C6  1  0.91508000  0.83287000  0.39210000  1.0 -0.1187541572
C  C7  1  0.97260000  0.43239000  0.87527000  1.0 0.2906302573
C  C8  1  0.43239000  0.87527000  0.97260000  1.0 0.2906302573
C  C9  1  0.87527000  0.97260000  0.43239000  1.0 0.2906302573
C  C10  1  0.02740000  0.56761000  0.12473000  1.0 0.2906302573
C  C11  1  0.56761000  0.12473000  0.02740000  1.0 0.2906302573
C  C12  1  0.12473000  0.02740000  0.56761000  1.0 0.2906302573
C  C13  1  0.80547000  0.32450000  0.79035000  1.0 -0.1996196968
C  C14  1  0.32450000  0.79035000  0.80547000  1.0 -0.1996196968
C  C15  1  0.79035000  0.80547000  0.32450000  1.0 -0.1996196968
C  C16  1  0.19453000  0.67550000  0.20965000  1.0 -0.1996196968
C  C17  1  0.67550000  0.20965000  0.19453000  1.0 -0.1996196968
C  C18  1  0.20965000  0.19453000  0.67550000  1.0 -0.1996196968
C  C19  1  0.34688000  0.72395000  0.17627000  1.0 0.6204416218
C  C20  1  0.72395000  0.17627000  0.34688000  1.0 0.6204416218
C  C21  1  0.17627000  0.34688000  0.72395000  1.0 0.6204416218
C  C22  1  0.65312000  0.27605000  0.82373000  1.0 0.6204416218
C  C23  1  0.27605000  0.82373000  0.65312000  1.0 0.6204416218
C  C24  1  0.82373000  0.65312000  0.27605000  1.0 0.6204416218
O  O1  1  0.32211000  0.66294000  0.06375000  1.0 -0.5538750527
O  O2  1  0.66294000  0.06375000  0.32211000  1.0 -0.5538750527
O  O3  1  0.06375000  0.32211000  0.66294000  1.0 -0.5538750527
O  O4  1  0.67789000  0.33706000  0.93625000  1.0 -0.5538750527
O  O5  1  0.33706000  0.93625000  0.67789000  1.0 -0.5538750527
O  O6  1  0.93625000  0.67789000  0.33706000  1.0 -0.5538750527
O  O7  1  0.52226000  0.88217000  0.36527000  1.0 -0.5124258535
O  O8  1  0.88217000  0.36527000  0.52226000  1.0 -0.5124258535
O  O9  1  0.36527000  0.52226000  0.88217000  1.0 -0.5124258535
O  O10  1  0.47774000  0.11783000  0.63473000  1.0 -0.5124258535
O  O11  1  0.11783000  0.63473000  0.47774000  1.0 -0.5124258535
O  O12  1  0.63473000  0.47774000  0.11783000  1.0 -0.5124258535
O  O13  1  0.94607000  0.36694000  0.75449000  1.0 -0.5673248408
O  O14  1  0.36694000  0.75449000  0.94607000  1.0 -0.5673248408
O  O15  1  0.75449000  0.94607000  0.36694000  1.0 -0.5673248408
O  O16  1  0.05393000  0.63306000  0.24551000  1.0 -0.5673248408
O  O17  1  0.63306000  0.24551000  0.05393000  1.0 -0.5673248408
O  O18  1  0.24551000  0.05393000  0.63306000  1.0 -0.5673248408
O  O19  1  0.19480000  0.76570000  0.96020000  1.0 -0.17892484
O  O20  1  0.76570000  0.96020000  0.19480000  1.0 -0.17892484
O  O21  1  0.96020000  0.19480000  0.76570000  1.0 -0.17892484
O  O22  1  0.80520000  0.23430000  0.03980000  1.0 -0.17892484
O  O23  1  0.23430000  0.03980000  0.80520000  1.0 -0.17892484
O  O24  1  0.03980000  0.80520000  0.23430000  1.0 -0.17892484
