# DDEC6 charges by PACMAN v1.1 (https://github.com/mtap-research/PACMAN-charge/)
data_OROJEM_ASR_pacman
_symmetry_space_group_name_H-M   'P 1'
_cell_length_a   8.43200000
_cell_length_b   12.95400000
_cell_length_c   15.02300000
_cell_angle_alpha   102.27500000
_cell_angle_beta   104.02100000
_cell_angle_gamma   97.42000000
_symmetry_Int_Tables_number   1
_chemical_formula_structural   Cu3TeMo6H36C32(N2O7)4
_chemical_formula_sum   'Cu3 Te1 Mo6 H36 C32 N8 O28'
_cell_volume   1527.14432306
_cell_formula_units_Z   1
loop_
 _symmetry_equiv_pos_site_id
 _symmetry_equiv_pos_as_xyz
  1  'x, y, z'
loop_
 _atom_site_type_symbol
 _atom_site_label
 _atom_site_symmetry_multiplicity
 _atom_site_fract_x
 _atom_site_fract_y
 _atom_site_fract_z
 _atom_site_occupancy
 _atom_site_charge
Cu  Cu1  1  0.00000000  0.50000000  0.00000000  1.0 0.8810635971
Cu  Cu2  1  0.36229000  0.95855000  0.74054000  1.0 0.7799358236
Cu  Cu3  1  0.63771000  0.04145000  0.25946000  1.0 0.7799358236
Te  Te1  1  0.00000000  0.00000000  0.00000000  1.0 1.4527983831
Mo  Mo1  1  0.78715000  0.09716000  0.83531000  1.0 2.1413240599
Mo  Mo2  1  0.21285000  0.90284000  0.16469000  1.0 2.1413240599
Mo  Mo3  1  0.86009000  0.23380000  0.05622000  1.0 2.1545159983
Mo  Mo4  1  0.13991000  0.76620000  0.94378000  1.0 2.1550636457
Mo  Mo5  1  0.03410000  0.11218000  0.21793000  1.0 2.1677398847
Mo  Mo6  1  0.96590000  0.88782000  0.78207000  1.0 2.1677398847
H  H1  1  0.55561000  0.72202000  0.98053000  1.0 0.1544614377
H  H2  1  0.44439000  0.27798000  0.01947000  1.0 0.1544614377
H  H3  1  0.29377000  0.47469000  0.46844000  1.0 0.0726112293
H  H4  1  0.70623000  0.52531000  0.53156000  1.0 0.0726112293
H  H5  1  0.36478000  0.46409000  0.58750000  1.0 0.088850146
H  H6  1  0.63522000  0.53591000  0.41250000  1.0 0.088850146
H  H7  1  0.35696000  0.28147000  0.42639000  1.0 0.2896880673
H  H8  1  0.64304000  0.71853000  0.57361000  1.0 0.2896880673
H  H9  1  0.24553000  0.03657000  0.56651000  1.0 0.1014246827
H  H10  1  0.75447000  0.96343000  0.43349000  1.0 0.1014246827
H  H11  1  0.24229000  0.47510000  0.72665000  1.0 0.2746918517
H  H12  1  0.75771000  0.52490000  0.27335000  1.0 0.2746918517
H  H13  1  0.22480000  0.96850000  0.39136000  1.0 0.138784157
H  H14  1  0.77520000  0.03150000  0.60864000  1.0 0.138784157
H  H15  1  0.31432000  0.79344000  0.33577000  1.0 0.138784157
H  H16  1  0.68568000  0.20656000  0.66423000  1.0 0.138784157
H  H17  1  0.00660000  0.20841000  0.52206000  1.0 0.088850146
H  H18  1  0.99340000  0.79159000  0.47794000  1.0 0.088850146
H  H19  1  0.22550000  0.23356000  0.56730000  1.0 0.088850146
H  H20  1  0.77450000  0.76644000  0.43270000  1.0 0.088850146
H  H21  1  0.69221000  0.36627000  0.86761000  1.0 0.1189258947
H  H22  1  0.30779000  0.63373000  0.13239000  1.0 0.1189258947
H  H23  1  0.33237000  0.57891000  0.86428000  1.0 0.1189258947
H  H24  1  0.66763000  0.42109000  0.13572000  1.0 0.1189258947
H  H25  1  0.84360000  0.68515000  0.03570000  1.0 0.1091558305
H  H26  1  0.15640000  0.31485000  0.96430000  1.0 0.1091558305
H  H27  1  0.98404000  0.35436000  0.65523000  1.0 0.0800295638
H  H28  1  0.01596000  0.64564000  0.34477000  1.0 0.0800295638
H  H29  1  0.07617000  0.25008000  0.69372000  1.0 0.1014246827
H  H30  1  0.92383000  0.74992000  0.30628000  1.0 0.1014246827
H  H31  1  0.07454000  0.31366000  0.42486000  1.0 0.1091558305
H  H32  1  0.92546000  0.68634000  0.57514000  1.0 0.1091558305
H  H33  1  0.04716000  0.41498000  0.51633000  1.0 0.088850146
H  H34  1  0.95284000  0.58502000  0.48367000  1.0 0.088850146
H  H35  1  0.43048000  0.76874000  0.62769000  1.0 0.1014246827
H  H36  1  0.56952000  0.23126000  0.37231000  1.0 0.1014246827
C  C1  1  0.58187000  0.64283000  0.95334000  1.0 -0.0912705345
C  C2  1  0.41813000  0.35717000  0.04666000  1.0 -0.0912705345
C  C3  1  0.30208000  0.41709000  0.51398000  1.0 0.0254705323
C  C4  1  0.69792000  0.58291000  0.48602000  1.0 0.0254705323
C  C5  1  0.27933000  0.95922000  0.53769000  1.0 0.1091558305
C  C6  1  0.72067000  0.04078000  0.46231000  1.0 0.1091558305
C  C7  1  0.27093000  0.92199000  0.44204000  1.0 -0.1153072996
C  C8  1  0.72907000  0.07801000  0.55796000  1.0 -0.1153072996
C  C9  1  0.32223000  0.82496000  0.41114000  1.0 -0.0223805962
C  C10  1  0.67777000  0.17504000  0.58886000  1.0 -0.0223805962
C  C11  1  0.38482000  0.76862000  0.47782000  1.0 -0.0711361041
C  C12  1  0.61518000  0.23138000  0.52218000  1.0 -0.0711361041
C  C13  1  0.45470000  0.66996000  0.44703000  1.0 0.4709821509
C  C14  1  0.54530000  0.33004000  0.55297000  1.0 0.4709821509
C  C15  1  0.11608000  0.27347000  0.56112000  1.0 -0.1529015733
C  C16  1  0.88392000  0.72653000  0.43888000  1.0 -0.1529015733
C  C17  1  0.65774000  0.44455000  0.88977000  1.0 0.1014246827
C  C18  1  0.34226000  0.55545000  0.11023000  1.0 0.1014246827
C  C19  1  0.45805000  0.56146000  0.88711000  1.0 -0.0443482904
C  C20  1  0.54195000  0.43854000  0.11289000  1.0 -0.0443482904
C  C21  1  0.49555000  0.46074000  0.85377000  1.0 -0.0711361041
C  C22  1  0.50445000  0.53926000  0.14623000  1.0 -0.0711361041
C  C23  1  0.36851000  0.36810000  0.78432000  1.0 0.4861287342
C  C24  1  0.63149000  0.63190000  0.21568000  1.0 0.4861287342
C  C25  1  0.74159000  0.62285000  0.98528000  1.0 0.1189258947
C  C26  1  0.25841000  0.37715000  0.01472000  1.0 0.1189258947
C  C27  1  0.09585000  0.31677000  0.65978000  1.0 0.0176237159
C  C28  1  0.90415000  0.68323000  0.34022000  1.0 0.0176237159
C  C29  1  0.12697000  0.35554000  0.50131000  1.0 -0.161212614
C  C30  1  0.87303000  0.64446000  0.49869000  1.0 -0.161212614
C  C31  1  0.38633000  0.80950000  0.57240000  1.0 0.0800295638
C  C32  1  0.61367000  0.19050000  0.42760000  1.0 0.0800295638
N  N1  1  0.77647000  0.52417000  0.95331000  1.0 -0.2320690883
N  N2  1  0.22353000  0.47583000  0.04669000  1.0 -0.2320690883
N  N3  1  0.33401000  0.90224000  0.60121000  1.0 -0.2399204506
N  N4  1  0.66599000  0.09776000  0.39879000  1.0 -0.2399204506
N  N5  1  0.40937000  0.34216000  0.48790000  1.0 -0.3687229587
N  N6  1  0.59063000  0.65784000  0.51210000  1.0 -0.3687229587
N  N7  1  0.23827000  0.39591000  0.72559000  1.0 -0.3533818258
N  N8  1  0.76173000  0.60409000  0.27441000  1.0 -0.3533818258
O  O1  1  0.91665000  0.36240000  0.02984000  1.0 -0.8194096816
O  O2  1  0.08335000  0.63760000  0.97016000  1.0 -0.8194096816
O  O3  1  0.57911000  0.03187000  0.76457000  1.0 -0.7928674353
O  O4  1  0.42089000  0.96813000  0.23543000  1.0 -0.7928674353
O  O5  1  0.15363000  0.89506000  0.74429000  1.0 -0.7928674353
O  O6  1  0.84637000  0.10494000  0.25571000  1.0 -0.7928674353
O  O7  1  0.83757000  0.21374000  0.80323000  1.0 -0.6001758707
O  O8  1  0.16243000  0.78626000  0.19677000  1.0 -0.6001758707
O  O9  1  0.00147000  0.13594000  0.96037000  1.0 -0.8327301674
O  O10  1  0.99853000  0.86406000  0.03963000  1.0 -0.8327301674
O  O11  1  0.70444000  0.15364000  0.93978000  1.0 -0.8194096816
O  O12  1  0.29556000  0.84636000  0.06022000  1.0 -0.8194096816
O  O13  1  0.38103000  0.27291000  0.78330000  1.0 -0.4796781746
O  O14  1  0.61897000  0.72709000  0.21670000  1.0 -0.4796781746
O  O15  1  0.19792000  0.18434000  0.31367000  1.0 -0.6403879357
O  O16  1  0.80208000  0.81566000  0.68633000  1.0 -0.6403879357
O  O17  1  0.39116000  0.60756000  0.36679000  1.0 -0.4796781746
O  O18  1  0.60884000  0.39244000  0.63321000  1.0 -0.4796781746
O  O19  1  0.71149000  0.24933000  0.11468000  1.0 -0.6077643467
O  O20  1  0.28851000  0.75067000  0.88532000  1.0 -0.6077643467
O  O21  1  0.82497000  0.94176000  0.88069000  1.0 -0.8194096816
O  O22  1  0.17503000  0.05824000  0.11931000  1.0 -0.8194096816
O  O23  1  0.03776000  0.23664000  0.16159000  1.0 -0.8327301674
O  O24  1  0.96224000  0.76336000  0.83841000  1.0 -0.8327301674
O  O25  1  0.85576000  0.05569000  0.07311000  1.0 -0.8117238713
O  O26  1  0.14424000  0.94431000  0.92689000  1.0 -0.8117238713
O  O27  1  0.92920000  0.02675000  0.76804000  1.0 -0.8327301674
O  O28  1  0.07080000  0.97325000  0.23196000  1.0 -0.8327301674
