# DDEC6 charges by PACMAN v1.1 (https://github.com/mtap-research/PACMAN-charge/)
data_OROKEN_FSR_pacman
_symmetry_space_group_name_H-M   'P 1'
_cell_length_a   12.34310000
_cell_length_b   12.95440000
_cell_length_c   22.63220000
_cell_angle_alpha   90.00000000
_cell_angle_beta   121.08500000
_cell_angle_gamma   90.00000000
_symmetry_Int_Tables_number   1
_chemical_formula_structural   Nb3CuH3C5S3(N2Cl3)2
_chemical_formula_sum   'Nb12 Cu4 H12 C20 S12 N16 Cl24'
_cell_volume   3099.17527958
_cell_formula_units_Z   4
loop_
 _symmetry_equiv_pos_site_id
 _symmetry_equiv_pos_as_xyz
  1  'x, y, z'
loop_
 _atom_site_type_symbol
 _atom_site_label
 _atom_site_symmetry_multiplicity
 _atom_site_fract_x
 _atom_site_fract_y
 _atom_site_fract_z
 _atom_site_occupancy
 _atom_site_charge
Nb  Nb1  1  0.95360000  0.89969000  0.05461000  1.0 0.7606196651
Nb  Nb2  1  0.04640000  0.39969000  0.44539000  1.0 0.7606196651
Nb  Nb3  1  0.04640000  0.10031000  0.94539000  1.0 0.7606196651
Nb  Nb4  1  0.95360000  0.60031000  0.55461000  1.0 0.7606196651
Nb  Nb5  1  0.87124000  0.10701000  0.99601000  1.0 0.8195425296
Nb  Nb6  1  0.12876000  0.60701000  0.50399000  1.0 0.8195425296
Nb  Nb7  1  0.12876000  0.89299000  0.00399000  1.0 0.8195425296
Nb  Nb8  1  0.87124000  0.39299000  0.49601000  1.0 0.8195425296
Nb  Nb9  1  0.13913000  0.06401000  0.09113000  1.0 0.7606196651
Nb  Nb10  1  0.86087000  0.56401000  0.40887000  1.0 0.7606196651
Nb  Nb11  1  0.86087000  0.93599000  0.90887000  1.0 0.7606196651
Nb  Nb12  1  0.13913000  0.43599000  0.59113000  1.0 0.7606196651
Cu  Cu1  1  0.61561000  0.76125000  0.13537000  1.0 0.3379679602
Cu  Cu2  1  0.38439000  0.26125000  0.36463000  1.0 0.3379679602
Cu  Cu3  1  0.38439000  0.23875000  0.86463000  1.0 0.3379679602
Cu  Cu4  1  0.61561000  0.73875000  0.63537000  1.0 0.3379679602
H  H1  1  0.50870000  0.13390000  0.11150000  1.0 0.1863096455
H  H2  1  0.49130000  0.63390000  0.38850000  1.0 0.1863096455
H  H3  1  0.49130000  0.86610000  0.88850000  1.0 0.1863096455
H  H4  1  0.50870000  0.36610000  0.61150000  1.0 0.1863096455
H  H5  1  0.61470000  0.14210000  0.09110000  1.0 0.1863096455
H  H6  1  0.38530000  0.64210000  0.40890000  1.0 0.1863096455
H  H7  1  0.38530000  0.85790000  0.90890000  1.0 0.1863096455
H  H8  1  0.61470000  0.35790000  0.59110000  1.0 0.1863096455
H  H9  1  0.47360000  0.10830000  0.03440000  1.0 0.1801503659
H  H10  1  0.52640000  0.60830000  0.46560000  1.0 0.1801503659
H  H11  1  0.52640000  0.89170000  0.96560000  1.0 0.1801503659
H  H12  1  0.47360000  0.39170000  0.53440000  1.0 0.1801503659
C  C1  1  0.86650000  0.75260000  0.14580000  1.0 0.2987712422
C  C2  1  0.13350000  0.25260000  0.35420000  1.0 0.2987712422
C  C3  1  0.13350000  0.24740000  0.85420000  1.0 0.2987712422
C  C4  1  0.86650000  0.74740000  0.64580000  1.0 0.2987712422
C  C5  1  0.64320000  0.26250000  0.98400000  1.0 0.290949835
C  C6  1  0.35680000  0.76250000  0.51600000  1.0 0.290949835
C  C7  1  0.35680000  0.73750000  0.01600000  1.0 0.290949835
C  C8  1  0.64320000  0.23750000  0.48400000  1.0 0.290949835
C  C9  1  0.37060000  0.17580000  0.23480000  1.0 0.290949835
C  C10  1  0.62940000  0.67580000  0.26520000  1.0 0.290949835
C  C11  1  0.62940000  0.82420000  0.76520000  1.0 0.290949835
C  C12  1  0.37060000  0.32420000  0.73480000  1.0 0.290949835
C  C13  1  0.57310000  0.99680000  0.10220000  1.0 0.3379679602
C  C14  1  0.42690000  0.49680000  0.39780000  1.0 0.3379679602
C  C15  1  0.42690000  0.00320000  0.89780000  1.0 0.3343330348
C  C16  1  0.57310000  0.50320000  0.60220000  1.0 0.3379679602
C  C17  1  0.53990000  0.10390000  0.08330000  1.0 -0.4859534776
C  C18  1  0.46010000  0.60390000  0.41670000  1.0 -0.4859534776
C  C19  1  0.46010000  0.89610000  0.91670000  1.0 -0.4859534776
C  C20  1  0.53990000  0.39610000  0.58330000  1.0 -0.4859534776
S  S1  1  0.81847000  0.69596000  0.19265000  1.0 -0.2100711404
S  S2  1  0.18153000  0.19596000  0.30735000  1.0 -0.2100711404
S  S3  1  0.18153000  0.30404000  0.80735000  1.0 -0.2100711404
S  S4  1  0.81847000  0.80404000  0.69265000  1.0 -0.2100711404
S  S5  1  0.51631000  0.32258000  0.97174000  1.0 -0.2612042999
S  S6  1  0.48369000  0.82258000  0.52826000  1.0 -0.2612042999
S  S7  1  0.48369000  0.67742000  0.02826000  1.0 -0.2612042999
S  S8  1  0.51631000  0.17742000  0.47174000  1.0 -0.2612042999
S  S9  1  0.48396000  0.23879000  0.29988000  1.0 -0.2612042999
S  S10  1  0.51604000  0.73879000  0.20012000  1.0 -0.2724939144
S  S11  1  0.51604000  0.76121000  0.70012000  1.0 -0.2612042999
S  S12  1  0.48396000  0.26121000  0.79988000  1.0 -0.2612042999
N  N1  1  0.90170000  0.79410000  0.11350000  1.0 -0.3703989826
N  N2  1  0.09830000  0.29410000  0.38650000  1.0 -0.3703989826
N  N3  1  0.09830000  0.20590000  0.88650000  1.0 -0.3703989826
N  N4  1  0.90170000  0.70590000  0.61350000  1.0 -0.3703989826
N  N5  1  0.73110000  0.21800000  0.99170000  1.0 -0.3768595533
N  N6  1  0.26890000  0.71800000  0.50830000  1.0 -0.3768595533
N  N7  1  0.26890000  0.78200000  0.00830000  1.0 -0.3703989826
N  N8  1  0.73110000  0.28200000  0.49170000  1.0 -0.3768595533
N  N9  1  0.28930000  0.13380000  0.18810000  1.0 -0.3703989826
N  N10  1  0.71070000  0.63380000  0.31190000  1.0 -0.3703989826
N  N11  1  0.71070000  0.86620000  0.81190000  1.0 -0.3703989826
N  N12  1  0.28930000  0.36620000  0.68810000  1.0 -0.3703989826
N  N13  1  0.59990000  0.91260000  0.11640000  1.0 -0.3575915969
N  N14  1  0.40010000  0.41260000  0.38360000  1.0 -0.3575915969
N  N15  1  0.40010000  0.08740000  0.88360000  1.0 -0.3575915969
N  N16  1  0.59990000  0.58740000  0.61640000  1.0 -0.3575915969
Cl  Cl1  1  0.09537000  0.75622000  0.06822000  1.0 -0.3191304258
Cl  Cl2  1  0.90463000  0.25622000  0.43178000  1.0 -0.3191304258
Cl  Cl3  1  0.90463000  0.24378000  0.93178000  1.0 -0.3191304258
Cl  Cl4  1  0.09537000  0.74378000  0.56822000  1.0 -0.3191304258
Cl  Cl5  1  0.77986000  0.80728000  0.95662000  1.0 -0.2794470689
Cl  Cl6  1  0.22014000  0.30728000  0.54338000  1.0 -0.2794470689
Cl  Cl7  1  0.22014000  0.19272000  0.04338000  1.0 -0.2794470689
Cl  Cl8  1  0.77986000  0.69272000  0.45662000  1.0 -0.2794470689
Cl  Cl9  1  0.79358000  0.00714000  0.05895000  1.0 -0.2794470689
Cl  Cl10  1  0.20642000  0.50714000  0.44105000  1.0 -0.2794470689
Cl  Cl11  1  0.20642000  0.99286000  0.94105000  1.0 -0.2794470689
Cl  Cl12  1  0.79358000  0.49286000  0.55895000  1.0 -0.2794470689
Cl  Cl13  1  0.11090000  0.95721000  0.17169000  1.0 -0.301920773
Cl  Cl14  1  0.88910000  0.45721000  0.32831000  1.0 -0.301920773
Cl  Cl15  1  0.88910000  0.04279000  0.82831000  1.0 -0.301920773
Cl  Cl16  1  0.11090000  0.54279000  0.67169000  1.0 -0.301920773
Cl  Cl17  1  0.68545000  0.05008000  0.88721000  1.0 -0.2724939144
Cl  Cl18  1  0.31455000  0.55008000  0.61279000  1.0 -0.2724939144
Cl  Cl19  1  0.31455000  0.94992000  0.11279000  1.0 -0.2724939144
Cl  Cl20  1  0.68545000  0.44992000  0.38721000  1.0 -0.2724939144
Cl  Cl21  1  0.01260000  0.20022000  0.10345000  1.0 -0.301920773
Cl  Cl22  1  0.98740000  0.70022000  0.39655000  1.0 -0.301920773
Cl  Cl23  1  0.98740000  0.79978000  0.89655000  1.0 -0.301920773
Cl  Cl24  1  0.01260000  0.29978000  0.60345000  1.0 -0.301920773
