# DDEC6 charges by PACMAN v1.1 (https://github.com/mtap-research/PACMAN-charge/)
data_OROMAK_FSR_pacman
_symmetry_space_group_name_H-M   'P 1'
_cell_length_a   7.77820000
_cell_length_b   9.91740000
_cell_length_c   12.79460000
_cell_angle_alpha   99.55900000
_cell_angle_beta   94.03000000
_cell_angle_gamma   94.80300000
_symmetry_Int_Tables_number   1
_chemical_formula_structural   Zn3P4(HO3)4
_chemical_formula_sum   'Zn6 P8 H8 O24'
_cell_volume   966.28218714
_cell_formula_units_Z   2
loop_
 _symmetry_equiv_pos_site_id
 _symmetry_equiv_pos_as_xyz
  1  'x, y, z'
loop_
 _atom_site_type_symbol
 _atom_site_label
 _atom_site_symmetry_multiplicity
 _atom_site_fract_x
 _atom_site_fract_y
 _atom_site_fract_z
 _atom_site_occupancy
 _atom_site_charge
Zn  Zn1  1  0.06072000  0.61808000  0.13647000  1.0 1.1055766237
Zn  Zn2  1  0.93928000  0.38192000  0.86353000  1.0 1.1055766237
Zn  Zn3  1  0.45431000  0.14424000  0.12316000  1.0 1.1299720896
Zn  Zn4  1  0.54569000  0.85576000  0.87684000  1.0 1.1299720896
Zn  Zn5  1  0.77007000  0.56377000  0.50060000  1.0 1.055699457
Zn  Zn6  1  0.22993000  0.43623000  0.49940000  1.0 1.0510506523
P  P1  1  0.07832000  0.66381000  0.39125000  1.0 1.2731776727
P  P2  1  0.92168000  0.33619000  0.60875000  1.0 1.2731776727
P  P3  1  0.23942000  0.36886000  0.04032000  1.0 1.1788439644
P  P4  1  0.76058000  0.63114000  0.95968000  1.0 1.1788439644
P  P5  1  0.51433000  0.35205000  0.34672000  1.0 1.1999115241
P  P6  1  0.48567000  0.64795000  0.65328000  1.0 1.1999115241
P  P7  1  0.25925000  0.85431000  0.04232000  1.0 1.2436367763
P  P8  1  0.74075000  0.14569000  0.95768000  1.0 1.2436367763
H  H1  1  0.22200000  0.74800000  0.43700000  1.0 -0.128611851
H  H2  1  0.77800000  0.25200000  0.56300000  1.0 -0.128611851
H  H3  1  0.38800000  0.45200000  0.05500000  1.0 -0.0719354856
H  H4  1  0.61200000  0.54800000  0.94500000  1.0 -0.0719354856
H  H5  1  0.43200000  0.43800000  0.29600000  1.0 -0.0893586608
H  H6  1  0.56800000  0.56200000  0.70400000  1.0 -0.0893586608
H  H7  1  0.10100000  0.90300000  0.03100000  1.0 -0.0893586608
H  H8  1  0.89900000  0.09700000  0.96900000  1.0 -0.0893586608
O  O1  1  0.04750000  0.70200000  0.28313000  1.0 -0.6210028636
O  O2  1  0.95250000  0.29800000  0.71687000  1.0 -0.6210028636
O  O3  1  0.93010000  0.70400000  0.45815000  1.0 -0.6272314596
O  O4  1  0.06990000  0.29600000  0.54185000  1.0 -0.6272314596
O  O5  1  0.11420000  0.51620000  0.38796000  1.0 -0.6945871818
O  O6  1  0.88580000  0.48380000  0.61204000  1.0 -0.6984946239
O  O7  1  0.16610000  0.37070000  0.92879000  1.0 -0.6489741313
O  O8  1  0.83390000  0.62930000  0.07121000  1.0 -0.6489741313
O  O9  1  0.27220000  0.22570000  0.05690000  1.0 -0.670505594
O  O10  1  0.72780000  0.77430000  0.94310000  1.0 -0.670505594
O  O11  1  0.12570000  0.43220000  0.12434000  1.0 -0.6489741313
O  O12  1  0.87430000  0.56780000  0.87566000  1.0 -0.6489741313
O  O13  1  0.69720000  0.42050000  0.38008000  1.0 -0.6489741313
O  O14  1  0.30280000  0.57950000  0.61992000  1.0 -0.6422161567
O  O15  1  0.41430000  0.33620000  0.44164000  1.0 -0.6489741313
O  O16  1  0.58570000  0.66380000  0.55836000  1.0 -0.6489741313
O  O17  1  0.52070000  0.21770000  0.27292000  1.0 -0.6094448673
O  O18  1  0.47930000  0.78230000  0.72708000  1.0 -0.6094448673
O  O19  1  0.23970000  0.71660000  0.07480000  1.0 -0.6626619406
O  O20  1  0.76030000  0.28340000  0.92520000  1.0 -0.6626619406
O  O21  1  0.37120000  0.95720000  0.12413000  1.0 -0.6626619406
O  O22  1  0.62880000  0.04280000  0.87587000  1.0 -0.6626619406
O  O23  1  0.31940000  0.84690000  0.93162000  1.0 -0.6626619406
O  O24  1  0.68060000  0.15310000  0.06838000  1.0 -0.6626619406
