# DDEC6 charges by PACMAN v1.1 (https://github.com/mtap-research/PACMAN-charge/)
data_ORULEU_FSR_pacman
_symmetry_space_group_name_H-M   'P 1'
_cell_length_a   11.54500000
_cell_length_b   20.22500000
_cell_length_c   18.36570000
_cell_angle_alpha   90.00000000
_cell_angle_beta   128.41800000
_cell_angle_gamma   90.00000000
_symmetry_Int_Tables_number   1
_chemical_formula_structural   CoH5C9NO4
_chemical_formula_sum   'Co12 H60 C108 N12 O48'
_cell_volume   3359.91275535
_cell_formula_units_Z   12
loop_
 _symmetry_equiv_pos_site_id
 _symmetry_equiv_pos_as_xyz
  1  'x, y, z'
loop_
 _atom_site_type_symbol
 _atom_site_label
 _atom_site_symmetry_multiplicity
 _atom_site_fract_x
 _atom_site_fract_y
 _atom_site_fract_z
 _atom_site_occupancy
 _atom_site_charge
Co  Co1  1  0.01486000  0.12178000  0.76873000  1.0 1.0271727915
Co  Co2  1  0.98514000  0.62178000  0.73127000  1.0 1.0271727915
Co  Co3  1  0.98514000  0.87822000  0.23127000  1.0 1.0271727915
Co  Co4  1  0.01486000  0.37822000  0.26873000  1.0 1.0271727915
Co  Co5  1  0.31135000  0.13856000  0.99943000  1.0 0.9546409126
Co  Co6  1  0.68865000  0.63856000  0.50057000  1.0 0.9546409126
Co  Co7  1  0.68865000  0.86144000  0.00057000  1.0 0.9550122495
Co  Co8  1  0.31135000  0.36144000  0.49943000  1.0 0.9546409126
Co  Co9  1  0.05138000  0.25533000  0.90358000  1.0 0.9968246098
Co  Co10  1  0.94862000  0.75533000  0.59642000  1.0 0.9968246098
Co  Co11  1  0.94862000  0.74467000  0.09642000  1.0 0.9968246098
Co  Co12  1  0.05138000  0.24467000  0.40358000  1.0 0.9968246098
H  H1  1  0.05300000  0.13700000  0.91200000  1.0 0.3788092162
H  H2  1  0.94700000  0.63700000  0.58800000  1.0 0.3788092162
H  H3  1  0.94700000  0.86300000  0.08800000  1.0 0.3788092162
H  H4  1  0.05300000  0.36300000  0.41200000  1.0 0.3788092162
H  H5  1  0.80700000  0.96220000  0.37750000  1.0 0.3036277171
H  H6  1  0.19300000  0.46220000  0.12250000  1.0 0.3036277171
H  H7  1  0.19300000  0.03780000  0.62250000  1.0 0.3036277171
H  H8  1  0.80700000  0.53780000  0.87750000  1.0 0.3036277171
H  H9  1  0.23820000  0.18030000  0.68590000  1.0 0.120389152
H  H10  1  0.76180000  0.68030000  0.81410000  1.0 0.120389152
H  H11  1  0.76180000  0.81970000  0.31410000  1.0 0.120389152
H  H12  1  0.23820000  0.31970000  0.18590000  1.0 0.120389152
H  H13  1  0.59740000  0.23320000  0.71350000  1.0 0.1275276589
H  H14  1  0.40260000  0.73320000  0.78650000  1.0 0.1275276589
H  H15  1  0.40260000  0.76680000  0.28650000  1.0 0.1275276589
H  H16  1  0.59740000  0.26680000  0.21350000  1.0 0.1275276589
H  H17  1  0.75460000  0.24660000  0.03500000  1.0 0.1275276589
H  H18  1  0.24540000  0.74660000  0.46500000  1.0 0.1275276589
H  H19  1  0.24540000  0.75340000  0.96500000  1.0 0.1275276589
H  H20  1  0.75460000  0.25340000  0.53500000  1.0 0.120389152
H  H21  1  0.95930000  0.09600000  0.21670000  1.0 0.120389152
H  H22  1  0.04070000  0.59600000  0.28330000  1.0 0.120389152
H  H23  1  0.04070000  0.90400000  0.78330000  1.0 0.120389152
H  H24  1  0.95930000  0.40400000  0.71670000  1.0 0.120389152
H  H25  1  0.64610000  0.05930000  0.94530000  1.0 0.120389152
H  H26  1  0.35390000  0.55930000  0.55470000  1.0 0.120389152
H  H27  1  0.35390000  0.94070000  0.05470000  1.0 0.120389152
H  H28  1  0.64610000  0.44070000  0.44530000  1.0 0.120389152
H  H29  1  0.96130000  0.15960000  0.58980000  1.0 0.120389152
H  H30  1  0.03870000  0.65960000  0.91020000  1.0 0.120389152
H  H31  1  0.03870000  0.84040000  0.41020000  1.0 0.120389152
H  H32  1  0.96130000  0.34040000  0.08980000  1.0 0.120389152
H  H33  1  0.88070000  0.12000000  0.44900000  1.0 0.1506355569
H  H34  1  0.11930000  0.62000000  0.05100000  1.0 0.1506355569
H  H35  1  0.11930000  0.88000000  0.55100000  1.0 0.1506355569
H  H36  1  0.88070000  0.38000000  0.94900000  1.0 0.1506355569
H  H37  1  0.82680000  0.94200000  0.52190000  1.0 0.1553343113
H  H38  1  0.17320000  0.44200000  0.97810000  1.0 0.1506355569
H  H39  1  0.17320000  0.05800000  0.47810000  1.0 0.1506355569
H  H40  1  0.82680000  0.55800000  0.02190000  1.0 0.1506355569
H  H41  1  0.91020000  0.98760000  0.66150000  1.0 0.1106689598
H  H42  1  0.08980000  0.48760000  0.83850000  1.0 0.1106689598
H  H43  1  0.08980000  0.01240000  0.33850000  1.0 0.1106689598
H  H44  1  0.91020000  0.51240000  0.16150000  1.0 0.1106689598
H  H45  1  0.72450000  0.98050000  0.22170000  1.0 0.1506355569
H  H46  1  0.27550000  0.48050000  0.27830000  1.0 0.1506355569
H  H47  1  0.27550000  0.01950000  0.77830000  1.0 0.1506355569
H  H48  1  0.72450000  0.51950000  0.72170000  1.0 0.1506355569
H  H49  1  0.56240000  0.03640000  0.08450000  1.0 0.1106689598
H  H50  1  0.43760000  0.53640000  0.41550000  1.0 0.1106689598
H  H51  1  0.43760000  0.96360000  0.91550000  1.0 0.1106689598
H  H52  1  0.56240000  0.46360000  0.58450000  1.0 0.1106689598
H  H53  1  0.45920000  0.15710000  0.20040000  1.0 0.1106689598
H  H54  1  0.54080000  0.65710000  0.29960000  1.0 0.1106689598
H  H55  1  0.54080000  0.84290000  0.79960000  1.0 0.1106689598
H  H56  1  0.45920000  0.34290000  0.70040000  1.0 0.1106689598
H  H57  1  0.61230000  0.10510000  0.33980000  1.0 0.1506355569
H  H58  1  0.38770000  0.60510000  0.16020000  1.0 0.1506355569
H  H59  1  0.38770000  0.89490000  0.66020000  1.0 0.1506355569
H  H60  1  0.61230000  0.39490000  0.83980000  1.0 0.1506355569
C  C1  1  0.42640000  0.17261000  0.81810000  1.0 -0.0667917684
C  C2  1  0.57360000  0.67261000  0.68190000  1.0 -0.0667917684
C  C3  1  0.57360000  0.82739000  0.18190000  1.0 -0.0667917684
C  C4  1  0.42640000  0.32739000  0.31810000  1.0 -0.0667917684
C  C5  1  0.34000000  0.18609000  0.72300000  1.0 -0.1394946624
C  C6  1  0.66000000  0.68609000  0.77700000  1.0 -0.1394946624
C  C7  1  0.66000000  0.81391000  0.27700000  1.0 -0.1394946624
C  C8  1  0.34000000  0.31391000  0.22300000  1.0 -0.1394946624
C  C9  1  0.40270000  0.20805000  0.68270000  1.0 -0.0409007997
C  C10  1  0.59730000  0.70805000  0.81730000  1.0 -0.0409007997
C  C11  1  0.59730000  0.79195000  0.31730000  1.0 -0.0409007997
C  C12  1  0.40270000  0.29195000  0.18270000  1.0 -0.0409007997
C  C13  1  0.55460000  0.21638000  0.73890000  1.0 -0.1222724572
C  C14  1  0.44540000  0.71638000  0.76110000  1.0 -0.1222724572
C  C15  1  0.44540000  0.78362000  0.26110000  1.0 -0.1222724572
C  C16  1  0.55460000  0.28362000  0.23890000  1.0 -0.1222724572
C  C17  1  0.64430000  0.19998000  0.83290000  1.0 -0.0526656855
C  C18  1  0.35570000  0.69998000  0.66710000  1.0 -0.0526656855
C  C19  1  0.35570000  0.80002000  0.16710000  1.0 -0.0526656855
C  C20  1  0.64430000  0.30002000  0.33290000  1.0 -0.0526656855
C  C21  1  0.58131000  0.17797000  0.87411000  1.0 0.0318349513
C  C22  1  0.41869000  0.67797000  0.62589000  1.0 0.0318349513
C  C23  1  0.41869000  0.82203000  0.12589000  1.0 0.0318349513
C  C24  1  0.58131000  0.32203000  0.37411000  1.0 0.0318349513
C  C25  1  0.30720000  0.22620000  0.58160000  1.0 0.5746838923
C  C26  1  0.69280000  0.72620000  0.91840000  1.0 0.5746838923
C  C27  1  0.69280000  0.77380000  0.41840000  1.0 0.5746838923
C  C28  1  0.30720000  0.27380000  0.08160000  1.0 0.5746838923
C  C29  1  0.80880000  0.20401000  0.88540000  1.0 0.5612694349
C  C30  1  0.19120000  0.70401000  0.61460000  1.0 0.5612694349
C  C31  1  0.19120000  0.79599000  0.11460000  1.0 0.5612694349
C  C32  1  0.80880000  0.29599000  0.38540000  1.0 0.5612694349
C  C33  1  0.68260000  0.15654000  0.97380000  1.0 0.1005730808
C  C34  1  0.31740000  0.65654000  0.52620000  1.0 0.1005730808
C  C35  1  0.31740000  0.84346000  0.02620000  1.0 0.0896858092
C  C36  1  0.68260000  0.34346000  0.47380000  1.0 0.1005730808
C  C37  1  0.76640000  0.20141000  0.04710000  1.0 -0.1335175012
C  C38  1  0.23360000  0.70141000  0.45290000  1.0 -0.1335175012
C  C39  1  0.23360000  0.79859000  0.95290000  1.0 -0.1335175012
C  C40  1  0.76640000  0.29859000  0.54710000  1.0 -0.1335175012
C  C41  1  0.86790000  0.17868000  0.13850000  1.0 -0.005807927
C  C42  1  0.13210000  0.67868000  0.36150000  1.0 -0.005807927
C  C43  1  0.13210000  0.82132000  0.86150000  1.0 -0.005807927
C  C44  1  0.86790000  0.32132000  0.63850000  1.0 -0.005807927
C  C45  1  0.88990000  0.11118000  0.15620000  1.0 -0.1335175012
C  C46  1  0.11010000  0.61118000  0.34380000  1.0 -0.1335175012
C  C47  1  0.11010000  0.88882000  0.84380000  1.0 -0.1335175012
C  C48  1  0.88990000  0.38882000  0.65620000  1.0 -0.1335175012
C  C49  1  0.80820000  0.06641000  0.08350000  1.0 -0.0241274394
C  C50  1  0.19180000  0.56641000  0.41650000  1.0 -0.0241274394
C  C51  1  0.19180000  0.93359000  0.91650000  1.0 -0.0241274394
C  C52  1  0.80820000  0.43359000  0.58350000  1.0 -0.0241274394
C  C53  1  0.70340000  0.08951000  0.99340000  1.0 -0.1394946624
C  C54  1  0.29660000  0.58951000  0.50660000  1.0 -0.1394946624
C  C55  1  0.29660000  0.91049000  0.00660000  1.0 -0.1394946624
C  C56  1  0.70340000  0.41049000  0.49340000  1.0 -0.1394946624
C  C57  1  0.94960000  0.22622000  0.21860000  1.0 0.5803721945
C  C58  1  0.05040000  0.72622000  0.28140000  1.0 0.5803721945
C  C59  1  0.05040000  0.77378000  0.78140000  1.0 0.5803721945
C  C60  1  0.94960000  0.27378000  0.71860000  1.0 0.5803721945
C  C61  1  0.82820000  0.99335000  0.10160000  1.0 0.5803721945
C  C62  1  0.17180000  0.49335000  0.39840000  1.0 0.5803721945
C  C63  1  0.17180000  0.00665000  0.89840000  1.0 0.5803721945
C  C64  1  0.82820000  0.50665000  0.60160000  1.0 0.5803721945
C  C65  1  0.93230000  0.11553000  0.57550000  1.0 0.0896858092
C  C66  1  0.06770000  0.61553000  0.92450000  1.0 0.0896858092
C  C67  1  0.06770000  0.88447000  0.42450000  1.0 0.0896858092
C  C68  1  0.93230000  0.38447000  0.07550000  1.0 0.0896858092
C  C69  1  0.88310000  0.09240000  0.49040000  1.0 -0.2511933271
C  C70  1  0.11690000  0.59240000  0.00960000  1.0 -0.2511933271
C  C71  1  0.11690000  0.90760000  0.50960000  1.0 -0.2511933271
C  C72  1  0.88310000  0.40760000  0.99040000  1.0 -0.2511933271
C  C73  1  0.83680000  0.02684000  0.46690000  1.0 0.2612010117
C  C74  1  0.16320000  0.52684000  0.03310000  1.0 0.2612010117
C  C75  1  0.16320000  0.97316000  0.53310000  1.0 0.2612010117
C  C76  1  0.83680000  0.47316000  0.96690000  1.0 0.2612010117
C  C77  1  0.85100000  0.98666000  0.53350000  1.0 -0.2567183722
C  C78  1  0.14900000  0.48666000  0.96650000  1.0 -0.2567183722
C  C79  1  0.14900000  0.01334000  0.46650000  1.0 -0.2567183722
C  C80  1  0.85100000  0.51334000  0.03350000  1.0 -0.2567183722
C  C81  1  0.90230000  0.01460000  0.61770000  1.0 0.1005730808
C  C82  1  0.09770000  0.51460000  0.88230000  1.0 0.1005730808
C  C83  1  0.09770000  0.98540000  0.38230000  1.0 0.1005730808
C  C84  1  0.90230000  0.48540000  0.11770000  1.0 0.1005730808
C  C85  1  0.68940000  0.03669000  0.29730000  1.0 0.2769193377
C  C86  1  0.31060000  0.53669000  0.20270000  1.0 0.2769193377
C  C87  1  0.31060000  0.96331000  0.70270000  1.0 0.2769193377
C  C88  1  0.68940000  0.46331000  0.79730000  1.0 0.2769193377
C  C89  1  0.67140000  0.01634000  0.21900000  1.0 -0.2373826478
C  C90  1  0.32860000  0.51634000  0.28100000  1.0 -0.2373826478
C  C91  1  0.32860000  0.98366000  0.78100000  1.0 -0.2373826478
C  C92  1  0.67140000  0.48366000  0.71900000  1.0 -0.2373826478
C  C93  1  0.57320000  0.05017000  0.13670000  1.0 0.1005730808
C  C94  1  0.42680000  0.55017000  0.36330000  1.0 0.1005730808
C  C95  1  0.42680000  0.94983000  0.86330000  1.0 0.1005730808
C  C96  1  0.57320000  0.44983000  0.63670000  1.0 0.1005730808
C  C97  1  0.51250000  0.12074000  0.20480000  1.0 0.1005730808
C  C98  1  0.48750000  0.62074000  0.29520000  1.0 0.1005730808
C  C99  1  0.48750000  0.87926000  0.79520000  1.0 0.1005730808
C  C100  1  0.51250000  0.37926000  0.70480000  1.0 0.1005730808
C  C101  1  0.60509000  0.09052000  0.28913000  1.0 -0.2303432499
C  C102  1  0.39491000  0.59052000  0.21087000  1.0 -0.2303432499
C  C103  1  0.39491000  0.90948000  0.71087000  1.0 -0.2303432499
C  C104  1  0.60509000  0.40948000  0.78913000  1.0 -0.2303432499
C  C105  1  0.34317000  0.15564000  0.85489000  1.0 0.5961723502
C  C106  1  0.65683000  0.65564000  0.64511000  1.0 0.5961723502
C  C107  1  0.65683000  0.84436000  0.14511000  1.0 0.5961723502
C  C108  1  0.34317000  0.34436000  0.35489000  1.0 0.5961723502
N  N1  1  0.94123000  0.07837000  0.63963000  1.0 -0.2670666102
N  N2  1  0.05877000  0.57837000  0.86037000  1.0 -0.2670666102
N  N3  1  0.05877000  0.92163000  0.36037000  1.0 -0.2670666102
N  N4  1  0.94123000  0.42163000  0.13963000  1.0 -0.2670666102
N  N5  1  0.78190000  0.00170000  0.38000000  1.0 -0.3397371147
N  N6  1  0.21810000  0.50170000  0.12000000  1.0 -0.3397371147
N  N7  1  0.21810000  0.99830000  0.62000000  1.0 -0.3397371147
N  N8  1  0.78190000  0.49830000  0.88000000  1.0 -0.3397371147
N  N9  1  0.49246000  0.10212000  0.12836000  1.0 -0.2567183722
N  N10  1  0.50754000  0.60212000  0.37164000  1.0 -0.2567183722
N  N11  1  0.50754000  0.89788000  0.87164000  1.0 -0.2567183722
N  N12  1  0.49246000  0.39788000  0.62836000  1.0 -0.2567183722
O  O1  1  0.21508000  0.13397000  0.79518000  1.0 -0.5877332811
O  O2  1  0.78492000  0.63397000  0.70482000  1.0 -0.5877332811
O  O3  1  0.78492000  0.86603000  0.20482000  1.0 -0.5877332811
O  O4  1  0.21508000  0.36603000  0.29518000  1.0 -0.5877332811
O  O5  1  0.40502000  0.16478000  0.93872000  1.0 -0.5064531688
O  O6  1  0.59498000  0.66478000  0.56128000  1.0 -0.5064531688
O  O7  1  0.59498000  0.83522000  0.06128000  1.0 -0.5064531688
O  O8  1  0.40502000  0.33522000  0.43872000  1.0 -0.5064531688
O  O9  1  0.17696000  0.20313000  0.52836000  1.0 -0.5604102387
O  O10  1  0.82304000  0.70313000  0.97164000  1.0 -0.5604102387
O  O11  1  0.82304000  0.79687000  0.47164000  1.0 -0.5604102387
O  O12  1  0.17696000  0.29687000  0.02836000  1.0 -0.5604102387
O  O13  1  0.36030000  0.26350000  0.55460000  1.0 -0.5604102387
O  O14  1  0.63970000  0.76350000  0.94540000  1.0 -0.5604102387
O  O15  1  0.63970000  0.73650000  0.44540000  1.0 -0.5604102387
O  O16  1  0.36030000  0.23650000  0.05460000  1.0 -0.5604102387
O  O17  1  0.85330000  0.25618000  0.87100000  1.0 -0.577491564
O  O18  1  0.14670000  0.75618000  0.62900000  1.0 -0.577491564
O  O19  1  0.14670000  0.74382000  0.12900000  1.0 -0.577491564
O  O20  1  0.85330000  0.24382000  0.37100000  1.0 -0.577491564
O  O21  1  0.88840000  0.15608000  0.93330000  1.0 -0.5194447611
O  O22  1  0.11160000  0.65608000  0.56670000  1.0 -0.5194447611
O  O23  1  0.11160000  0.84392000  0.06670000  1.0 -0.5194447611
O  O24  1  0.88840000  0.34392000  0.43330000  1.0 -0.5194447611
O  O25  1  0.72330000  0.95795000  0.04030000  1.0 -0.5604102387
O  O26  1  0.27670000  0.45795000  0.45970000  1.0 -0.5604102387
O  O27  1  0.27670000  0.04205000  0.95970000  1.0 -0.5604102387
O  O28  1  0.72330000  0.54205000  0.54030000  1.0 -0.5604102387
O  O29  1  0.94635000  0.97305000  0.17615000  1.0 -0.5383188625
O  O30  1  0.05365000  0.47305000  0.32385000  1.0 -0.5383188625
O  O31  1  0.05365000  0.02695000  0.82385000  1.0 -0.5383188625
O  O32  1  0.94635000  0.52695000  0.67615000  1.0 -0.5383188625
O  O33  1  0.93682000  0.28617000  0.20112000  1.0 -0.5383188625
O  O34  1  0.06318000  0.78617000  0.29888000  1.0 -0.5383188625
O  O35  1  0.06318000  0.71383000  0.79888000  1.0 -0.5383188625
O  O36  1  0.93682000  0.21383000  0.70112000  1.0 -0.5383188625
O  O37  1  0.02528000  0.20078000  0.29938000  1.0 -0.5523349617
O  O38  1  0.97472000  0.70078000  0.20062000  1.0 -0.5523349617
O  O39  1  0.97472000  0.79922000  0.70062000  1.0 -0.5523349617
O  O40  1  0.02528000  0.29922000  0.79938000  1.0 -0.5523349617
O  O41  1  0.09430000  0.16218000  0.89739000  1.0 -0.8739362483
O  O42  1  0.90570000  0.66218000  0.60261000  1.0 -0.8739362483
O  O43  1  0.90570000  0.83782000  0.10261000  1.0 -0.875097764
O  O44  1  0.09430000  0.33782000  0.39739000  1.0 -0.8739362483
O  O45  1  0.79160000  0.11237000  0.72300000  1.0 -0.2074910526
O  O46  1  0.20840000  0.61237000  0.77700000  1.0 -0.2074910526
O  O47  1  0.20840000  0.88763000  0.27700000  1.0 -0.2195186589
O  O48  1  0.79160000  0.38763000  0.22300000  1.0 -0.2074910526
