# DDEC6 charges by PACMAN v1.1 (https://github.com/mtap-research/PACMAN-charge/)
data_OSILOS_ion_pacman
_symmetry_space_group_name_H-M   'P 1'
_cell_length_a   16.87570000
_cell_length_b   16.87570000
_cell_length_c   16.87570000
_cell_angle_alpha   91.25500000
_cell_angle_beta   91.25500000
_cell_angle_gamma   162.97900000
_symmetry_Int_Tables_number   1
_chemical_formula_structural   Cu2H12C12N16ClO12
_chemical_formula_sum   'Cu4 H24 C24 N32 Cl2 O24'
_cell_volume   1391.33589811
_cell_formula_units_Z   2
loop_
 _symmetry_equiv_pos_site_id
 _symmetry_equiv_pos_as_xyz
  1  'x, y, z'
loop_
 _atom_site_type_symbol
 _atom_site_label
 _atom_site_symmetry_multiplicity
 _atom_site_fract_x
 _atom_site_fract_y
 _atom_site_fract_z
 _atom_site_occupancy
 _atom_site_charge
Cu  Cu1  1  0.12500000  0.37500000  0.25000000  1.0 0.7619064069
Cu  Cu2  1  0.12500000  0.87500000  0.75000000  1.0 0.7619064069
Cu  Cu3  1  0.12500000  0.87500000  0.25000000  1.0 0.7619064069
Cu  Cu4  1  0.62500000  0.87500000  0.75000000  1.0 0.7619064069
H  H1  1  0.47530000  0.62130000  0.97600000  1.0 0.1631476684
H  H2  1  0.64530000  0.49930000  0.02400000  1.0 0.1631476684
H  H3  1  0.74930000  0.22530000  0.35400000  1.0 0.1631476684
H  H4  1  0.87130000  0.39530000  0.64600000  1.0 0.1631476684
H  H5  1  0.77470000  0.12870000  0.52400000  1.0 0.1631476684
H  H6  1  0.60470000  0.25070000  0.47600000  1.0 0.1631476684
H  H7  1  0.50070000  0.52470000  0.14600000  1.0 0.1631476684
H  H8  1  0.37870000  0.35470000  0.85400000  1.0 0.1631476684
H  H9  1  0.26380000  0.48860000  0.96260000  1.0 0.1702686986
H  H10  1  0.52600000  0.30120000  0.03740000  1.0 0.1702686986
H  H11  1  0.55120000  0.01380000  0.27520000  1.0 0.1702686986
H  H12  1  0.73860000  0.27600000  0.72480000  1.0 0.1702686986
H  H13  1  0.98620000  0.26140000  0.53740000  1.0 0.1702686986
H  H14  1  0.72400000  0.44880000  0.46260000  1.0 0.1702686986
H  H15  1  0.69880000  0.73620000  0.22480000  1.0 0.1702686986
H  H16  1  0.51140000  0.47400000  0.77520000  1.0 0.1702686986
H  H17  1  0.93300000  0.09920000  0.08480000  1.0 0.1399569428
H  H18  1  0.01440000  0.84820000  0.91520000  1.0 0.1399569428
H  H19  1  0.09820000  0.68300000  0.33380000  1.0 0.1399569428
H  H20  1  0.34920000  0.76440000  0.66620000  1.0 0.1399569428
H  H21  1  0.31700000  0.65080000  0.41520000  1.0 0.1399569428
H  H22  1  0.23560000  0.90180000  0.58480000  1.0 0.1399569428
H  H23  1  0.15180000  0.06700000  0.16620000  1.0 0.1399569428
H  H24  1  0.90080000  0.98560000  0.83380000  1.0 0.1399569428
C  C1  1  0.45730000  0.66130000  0.97340000  1.0 -0.2661412293
C  C2  1  0.68790000  0.48390000  0.02660000  1.0 -0.2661412293
C  C3  1  0.73390000  0.20730000  0.29600000  1.0 -0.2661412293
C  C4  1  0.91130000  0.43790000  0.70400000  1.0 -0.2661412293
C  C5  1  0.79270000  0.08870000  0.52660000  1.0 -0.2661412293
C  C6  1  0.56210000  0.26610000  0.47340000  1.0 -0.2661412293
C  C7  1  0.51610000  0.54270000  0.20400000  1.0 -0.2661412293
C  C8  1  0.33870000  0.31210000  0.79600000  1.0 -0.2661412293
C  C9  1  0.59750000  0.82490000  0.90500000  1.0 0.6037930315
C  C10  1  0.91990000  0.69250000  0.09500000  1.0 0.6037930315
C  C11  1  0.94250000  0.34750000  0.27260000  1.0 0.6037930315
C  C12  1  0.07490000  0.66990000  0.72740000  1.0 0.6037930315
C  C13  1  0.65250000  0.92510000  0.59500000  1.0 0.6037930315
C  C14  1  0.33010000  0.05750000  0.40500000  1.0 0.6037930315
C  C15  1  0.30750000  0.40250000  0.22740000  1.0 0.6037930315
C  C16  1  0.17510000  0.08010000  0.77260000  1.0 0.6037930315
C  C17  1  0.80570000  0.01530000  0.09540000  1.0 0.0963318283
C  C18  1  0.91990000  0.71030000  0.90460000  1.0 0.0963318283
C  C19  1  0.96030000  0.55570000  0.29040000  1.0 0.0963318283
C  C20  1  0.26530000  0.66990000  0.70960000  1.0 0.0963318283
C  C21  1  0.44430000  0.73470000  0.40460000  1.0 0.0963318283
C  C22  1  0.33010000  0.03970000  0.59540000  1.0 0.0963318283
C  C23  1  0.28970000  0.19430000  0.20960000  1.0 0.0963318283
C  C24  1  0.98470000  0.08010000  0.79040000  1.0 0.0963318283
N  N1  1  0.82960000  0.08620000  0.15780000  1.0 -0.1900080117
N  N2  1  0.92840000  0.67180000  0.84220000  1.0 -0.1900080117
N  N3  1  0.92180000  0.57960000  0.24340000  1.0 -0.1900080117
N  N4  1  0.33620000  0.67840000  0.75660000  1.0 -0.1900080117
N  N5  1  0.42040000  0.66380000  0.34220000  1.0 -0.1900080117
N  N6  1  0.32160000  0.07820000  0.65780000  1.0 -0.1900080117
N  N7  1  0.32820000  0.17040000  0.25660000  1.0 -0.1900080117
N  N8  1  0.91380000  0.07160000  0.74340000  1.0 -0.1900080117
N  N9  1  0.60060000  0.91100000  0.15120000  1.0 -0.0209730326
N  N10  1  0.75980000  0.44940000  0.84880000  1.0 -0.0209730326
N  N11  1  0.69940000  0.35060000  0.18960000  1.0 -0.0209730326
N  N12  1  0.16100000  0.50980000  0.81040000  1.0 -0.0209730326
N  N13  1  0.64940000  0.83900000  0.34880000  1.0 -0.0209730326
N  N14  1  0.49020000  0.30060000  0.65120000  1.0 -0.0209730326
N  N15  1  0.55060000  0.39940000  0.31040000  1.0 -0.0209730326
N  N16  1  0.08900000  0.24020000  0.68960000  1.0 -0.0209730326
N  N17  1  0.44140000  0.73660000  0.08380000  1.0 -0.0630375501
N  N18  1  0.65280000  0.35760000  0.91620000  1.0 -0.0630375501
N  N19  1  0.60760000  0.19140000  0.20480000  1.0 -0.0630375501
N  N20  1  0.98660000  0.40280000  0.79520000  1.0 -0.0630375501
N  N21  1  0.80860000  0.01340000  0.41620000  1.0 -0.0630375501
N  N22  1  0.59720000  0.39240000  0.58380000  1.0 -0.0630375501
N  N23  1  0.64240000  0.55860000  0.29520000  1.0 -0.0630375501
N  N24  1  0.26340000  0.34720000  0.70480000  1.0 -0.0630375501
N  N25  1  0.57150000  0.80560000  0.04990000  1.0 0.2065844899
N  N26  1  0.75570000  0.52160000  0.95010000  1.0 0.2065844899
N  N27  1  0.77160000  0.32150000  0.26590000  1.0 0.2065844899
N  N28  1  0.05560000  0.50570000  0.73410000  1.0 0.2065844899
N  N29  1  0.67850000  0.94440000  0.45010000  1.0 0.2065844899
N  N30  1  0.49430000  0.22840000  0.54990000  1.0 0.2065844899
N  N31  1  0.47840000  0.42850000  0.23410000  1.0 0.2065844899
N  N32  1  0.19440000  0.24430000  0.76590000  1.0 0.2065844899
Cl  Cl1  1  0.25000000  0.75000000  0.50000000  1.0 1.148253209
Cl  Cl2  1  0.00000000  0.00000000  0.00000000  1.0 1.1607552832
O  O1  1  0.77360000  0.04510000  0.91750000  1.0 -0.5263921553
O  O2  1  0.12760000  0.85610000  0.08250000  1.0 -0.5263921553
O  O3  1  0.10610000  0.52360000  0.22850000  1.0 -0.5263921553
O  O4  1  0.29510000  0.87760000  0.77150000  1.0 -0.5263921553
O  O5  1  0.47640000  0.70490000  0.58250000  1.0 -0.5263921553
O  O6  1  0.12240000  0.89390000  0.41750000  1.0 -0.5263921553
O  O7  1  0.14390000  0.22640000  0.27150000  1.0 -0.5263921553
O  O8  1  0.95490000  0.87240000  0.72850000  1.0 -0.5263921553
O  O9  1  0.51200000  0.71080000  0.83840000  1.0 -0.5248416597
O  O10  1  0.87240000  0.67360000  0.16160000  1.0 -0.5248416597
O  O11  1  0.92360000  0.26200000  0.30120000  1.0 -0.5248416597
O  O12  1  0.96080000  0.62240000  0.69880000  1.0 -0.5248416597
O  O13  1  0.73800000  0.03920000  0.66160000  1.0 -0.5248416597
O  O14  1  0.37760000  0.07640000  0.33840000  1.0 -0.5248416597
O  O15  1  0.32640000  0.48800000  0.19880000  1.0 -0.5248416597
O  O16  1  0.28920000  0.12760000  0.80120000  1.0 -0.5248416597
O  O17  1  0.37900000  0.86580000  0.43320000  1.0 -0.4582682857
O  O18  1  0.43260000  0.94580000  0.56680000  1.0 -0.4582682857
O  O19  1  0.13420000  0.56740000  0.51320000  1.0 -0.4582682857
O  O20  1  0.05420000  0.62100000  0.48680000  1.0 -0.4582682857
O  O21  1  0.11580000  0.18260000  0.98680000  1.0 -0.4582682857
O  O22  1  0.19580000  0.12900000  0.01320000  1.0 -0.4582682857
O  O23  1  0.87100000  0.88420000  0.06680000  1.0 -0.4582682857
O  O24  1  0.81740000  0.80420000  0.93320000  1.0 -0.4582682857
