# DDEC6 charges by PACMAN v1.1 (https://github.com/mtap-research/PACMAN-charge/)
data_OSOTIB_ASR_pacman
_symmetry_space_group_name_H-M   'P 1'
_cell_length_a   16.60710000
_cell_length_b   16.60710000
_cell_length_c   16.60710000
_cell_angle_alpha   68.08840000
_cell_angle_beta   68.08840000
_cell_angle_gamma   68.08840000
_symmetry_Int_Tables_number   1
_chemical_formula_structural   CuH5C11(NO2)2
_chemical_formula_sum   'Cu6 H30 C66 N12 O24'
_cell_volume   3793.96289583
_cell_formula_units_Z   6
loop_
 _symmetry_equiv_pos_site_id
 _symmetry_equiv_pos_as_xyz
  1  'x, y, z'
loop_
 _atom_site_type_symbol
 _atom_site_label
 _atom_site_symmetry_multiplicity
 _atom_site_fract_x
 _atom_site_fract_y
 _atom_site_fract_z
 _atom_site_occupancy
 _atom_site_charge
Cu  Cu1  1  0.50498000  0.07621000  0.50498000  1.0 0.8614885006
Cu  Cu2  1  0.07621000  0.50498000  0.50498000  1.0 0.8614885006
Cu  Cu3  1  0.50498000  0.50498000  0.07621000  1.0 0.8614885006
Cu  Cu4  1  0.92379000  0.49502000  0.49502000  1.0 0.8614885006
Cu  Cu5  1  0.49502000  0.92379000  0.49502000  1.0 0.8614885006
Cu  Cu6  1  0.49502000  0.49502000  0.92379000  1.0 0.8614885006
H  H1  1  0.51770000  0.99810000  0.21370000  1.0 0.1128546143
H  H2  1  0.99810000  0.21370000  0.51770000  1.0 0.1128546143
H  H3  1  0.21370000  0.51770000  0.99810000  1.0 0.1128546143
H  H4  1  0.00190000  0.48230000  0.78630000  1.0 0.1128546143
H  H5  1  0.78630000  0.00190000  0.48230000  1.0 0.1128546143
H  H6  1  0.48230000  0.78630000  0.00190000  1.0 0.1128546143
H  H7  1  0.48230000  0.00190000  0.78630000  1.0 0.1128546143
H  H8  1  0.00190000  0.78630000  0.48230000  1.0 0.1128546143
H  H9  1  0.78630000  0.48230000  0.00190000  1.0 0.1128546143
H  H10  1  0.99810000  0.51770000  0.21370000  1.0 0.1128546143
H  H11  1  0.21370000  0.99810000  0.51770000  1.0 0.1128546143
H  H12  1  0.51770000  0.21370000  0.99810000  1.0 0.1128546143
H  H13  1  0.53100000  0.22810000  0.22810000  1.0 0.1395782525
H  H14  1  0.22810000  0.22810000  0.53100000  1.0 0.1395782525
H  H15  1  0.22810000  0.53100000  0.22810000  1.0 0.1395782525
H  H16  1  0.77190000  0.46900000  0.77190000  1.0 0.1395782525
H  H17  1  0.77190000  0.77190000  0.46900000  1.0 0.1395782525
H  H18  1  0.46900000  0.77190000  0.77190000  1.0 0.1395782525
H  H19  1  0.57010000  0.11590000  0.92470000  1.0 0.1188263589
H  H20  1  0.11590000  0.92470000  0.57010000  1.0 0.1188263589
H  H21  1  0.92470000  0.57010000  0.11590000  1.0 0.1188263589
H  H22  1  0.88410000  0.42990000  0.07530000  1.0 0.1188263589
H  H23  1  0.07530000  0.88410000  0.42990000  1.0 0.1188263589
H  H24  1  0.42990000  0.07530000  0.88410000  1.0 0.1188263589
H  H25  1  0.42990000  0.88410000  0.07530000  1.0 0.1188263589
H  H26  1  0.88410000  0.07530000  0.42990000  1.0 0.1188263589
H  H27  1  0.07530000  0.42990000  0.88410000  1.0 0.1188263589
H  H28  1  0.11590000  0.57010000  0.92470000  1.0 0.1188263589
H  H29  1  0.92470000  0.11590000  0.57010000  1.0 0.1188263589
H  H30  1  0.57010000  0.92470000  0.11590000  1.0 0.1188263589
C  C1  1  0.50832000  0.04702000  0.04702000  1.0 0.0816465511
C  C2  1  0.04702000  0.04702000  0.50832000  1.0 0.0816465511
C  C3  1  0.04702000  0.50832000  0.04702000  1.0 0.0816465511
C  C4  1  0.95298000  0.49168000  0.95298000  1.0 0.0816465511
C  C5  1  0.95298000  0.95298000  0.49168000  1.0 0.0816465511
C  C6  1  0.49168000  0.95298000  0.95298000  1.0 0.0816465511
C  C7  1  0.51775000  0.09695000  0.09695000  1.0 0.0191697416
C  C8  1  0.09695000  0.09695000  0.51775000  1.0 0.0191697416
C  C9  1  0.09695000  0.51775000  0.09695000  1.0 0.0191697416
C  C10  1  0.90305000  0.48225000  0.90305000  1.0 0.0191697416
C  C11  1  0.90305000  0.90305000  0.48225000  1.0 0.0191697416
C  C12  1  0.48225000  0.90305000  0.90305000  1.0 0.0191697416
C  C13  1  0.51954000  0.05774000  0.18654000  1.0 -0.1637812908
C  C14  1  0.05774000  0.18654000  0.51954000  1.0 -0.1637812908
C  C15  1  0.18654000  0.51954000  0.05774000  1.0 -0.1637812908
C  C16  1  0.94226000  0.48046000  0.81346000  1.0 -0.1637812908
C  C17  1  0.81346000  0.94226000  0.48046000  1.0 -0.1637812908
C  C18  1  0.48046000  0.81346000  0.94226000  1.0 -0.1637812908
C  C19  1  0.48046000  0.94226000  0.81346000  1.0 -0.1637812908
C  C20  1  0.94226000  0.81346000  0.48046000  1.0 -0.1637812908
C  C21  1  0.81346000  0.48046000  0.94226000  1.0 -0.1637812908
C  C22  1  0.05774000  0.51954000  0.18654000  1.0 -0.1637812908
C  C23  1  0.18654000  0.05774000  0.51954000  1.0 -0.1637812908
C  C24  1  0.51954000  0.18654000  0.05774000  1.0 -0.1637812908
C  C25  1  0.52398000  0.10668000  0.23588000  1.0 -0.0179203207
C  C26  1  0.10668000  0.23588000  0.52398000  1.0 -0.0179203207
C  C27  1  0.23588000  0.52398000  0.10668000  1.0 -0.0179203207
C  C28  1  0.89332000  0.47602000  0.76412000  1.0 -0.0179203207
C  C29  1  0.76412000  0.89332000  0.47602000  1.0 -0.0179203207
C  C30  1  0.47602000  0.76412000  0.89332000  1.0 -0.0179203207
C  C31  1  0.47602000  0.89332000  0.76412000  1.0 -0.0179203207
C  C32  1  0.89332000  0.76412000  0.47602000  1.0 -0.0179203207
C  C33  1  0.76412000  0.47602000  0.89332000  1.0 -0.0179203207
C  C34  1  0.10668000  0.52398000  0.23588000  1.0 -0.0179203207
C  C35  1  0.23588000  0.10668000  0.52398000  1.0 -0.0179203207
C  C36  1  0.52398000  0.23588000  0.10668000  1.0 -0.0179203207
C  C37  1  0.52687000  0.19547000  0.19547000  1.0 -0.1084637846
C  C38  1  0.19547000  0.19547000  0.52687000  1.0 -0.1084637846
C  C39  1  0.19547000  0.52687000  0.19547000  1.0 -0.1084637846
C  C40  1  0.80453000  0.47313000  0.80453000  1.0 -0.1084637846
C  C41  1  0.80453000  0.80453000  0.47313000  1.0 -0.1084637846
C  C42  1  0.47313000  0.80453000  0.80453000  1.0 -0.1084637846
C  C43  1  0.51963000  0.06523000  0.33403000  1.0 0.5829212064
C  C44  1  0.06523000  0.33403000  0.51963000  1.0 0.5829212064
C  C45  1  0.33403000  0.51963000  0.06523000  1.0 0.5829212064
C  C46  1  0.93477000  0.48037000  0.66597000  1.0 0.5829212064
C  C47  1  0.66597000  0.93477000  0.48037000  1.0 0.5829212064
C  C48  1  0.48037000  0.66597000  0.93477000  1.0 0.5829212064
C  C49  1  0.48037000  0.93477000  0.66597000  1.0 0.5829212064
C  C50  1  0.93477000  0.66597000  0.48037000  1.0 0.5829212064
C  C51  1  0.66597000  0.48037000  0.93477000  1.0 0.5829212064
C  C52  1  0.06523000  0.51963000  0.33403000  1.0 0.5829212064
C  C53  1  0.33403000  0.06523000  0.51963000  1.0 0.5829212064
C  C54  1  0.51963000  0.33403000  0.06523000  1.0 0.5829212064
C  C55  1  0.54030000  0.07090000  0.95480000  1.0 0.0328652679
C  C56  1  0.07090000  0.95480000  0.54030000  1.0 0.0328652679
C  C57  1  0.95480000  0.54030000  0.07090000  1.0 0.0328652679
C  C58  1  0.92910000  0.45970000  0.04520000  1.0 0.0328652679
C  C59  1  0.04520000  0.92910000  0.45970000  1.0 0.0328652679
C  C60  1  0.45970000  0.04520000  0.92910000  1.0 0.0328652679
C  C61  1  0.45970000  0.92910000  0.04520000  1.0 0.0328652679
C  C62  1  0.92910000  0.04520000  0.45970000  1.0 0.0328652679
C  C63  1  0.04520000  0.45970000  0.92910000  1.0 0.0328652679
C  C64  1  0.07090000  0.54030000  0.95480000  1.0 0.0328652679
C  C65  1  0.95480000  0.07090000  0.54030000  1.0 0.0328652679
C  C66  1  0.54030000  0.95480000  0.07090000  1.0 0.0328652679
N  N1  1  0.47320000  0.09150000  0.97430000  1.0 -0.1238455306
N  N2  1  0.09150000  0.97430000  0.47320000  1.0 -0.1265647152
N  N3  1  0.97430000  0.47320000  0.09150000  1.0 -0.1265647152
N  N4  1  0.90850000  0.52680000  0.02570000  1.0 -0.1265647152
N  N5  1  0.02570000  0.90850000  0.52680000  1.0 -0.1265647152
N  N6  1  0.52680000  0.02570000  0.90850000  1.0 -0.1265647152
N  N7  1  0.52680000  0.90850000  0.02570000  1.0 -0.1265647152
N  N8  1  0.90850000  0.02570000  0.52680000  1.0 -0.1265647152
N  N9  1  0.02570000  0.52680000  0.90850000  1.0 -0.1238455306
N  N10  1  0.09150000  0.47320000  0.97430000  1.0 -0.1238455306
N  N11  1  0.97430000  0.09150000  0.47320000  1.0 -0.1265647152
N  N12  1  0.47320000  0.97430000  0.09150000  1.0 -0.1265647152
O  O1  1  0.52163000  0.11459000  0.37483000  1.0 -0.5238166507
O  O2  1  0.11459000  0.37483000  0.52163000  1.0 -0.5238166507
O  O3  1  0.37483000  0.52163000  0.11459000  1.0 -0.5238166507
O  O4  1  0.88541000  0.47837000  0.62517000  1.0 -0.5238166507
O  O5  1  0.62517000  0.88541000  0.47837000  1.0 -0.5238166507
O  O6  1  0.47837000  0.62517000  0.88541000  1.0 -0.5238166507
O  O7  1  0.47837000  0.88541000  0.62517000  1.0 -0.5238166507
O  O8  1  0.88541000  0.62517000  0.47837000  1.0 -0.5238166507
O  O9  1  0.62517000  0.47837000  0.88541000  1.0 -0.5238166507
O  O10  1  0.11459000  0.52163000  0.37483000  1.0 -0.5238166507
O  O11  1  0.37483000  0.11459000  0.52163000  1.0 -0.5238166507
O  O12  1  0.52163000  0.37483000  0.11459000  1.0 -0.5238166507
O  O13  1  0.51329000  0.98679000  0.36649000  1.0 -0.5127738968
O  O14  1  0.98679000  0.36649000  0.51329000  1.0 -0.5127738968
O  O15  1  0.36649000  0.51329000  0.98679000  1.0 -0.5127738968
O  O16  1  0.01321000  0.48671000  0.63351000  1.0 -0.5127738968
O  O17  1  0.63351000  0.01321000  0.48671000  1.0 -0.5127738968
O  O18  1  0.48671000  0.63351000  0.01321000  1.0 -0.5127738968
O  O19  1  0.48671000  0.01321000  0.63351000  1.0 -0.5127738968
O  O20  1  0.01321000  0.63351000  0.48671000  1.0 -0.5127738968
O  O21  1  0.63351000  0.48671000  0.01321000  1.0 -0.5127738968
O  O22  1  0.98679000  0.51329000  0.36649000  1.0 -0.5127738968
O  O23  1  0.36649000  0.98679000  0.51329000  1.0 -0.5127738968
O  O24  1  0.51329000  0.36649000  0.98679000  1.0 -0.5127738968
