# DDEC6 charges by PACMAN v1.1 (https://github.com/mtap-research/PACMAN-charge/)
data_OSOYIH_ASR_pacman
_symmetry_space_group_name_H-M   'P 1'
_cell_length_a   18.47700000
_cell_length_b   18.47700000
_cell_length_c   23.63000000
_cell_angle_alpha   90.00000000
_cell_angle_beta   90.00000000
_cell_angle_gamma   120.00000000
_symmetry_Int_Tables_number   1
_chemical_formula_structural   Cu2H14C19O12
_chemical_formula_sum   'Cu12 H84 C114 O72'
_cell_volume   6986.46151286
_cell_formula_units_Z   6
loop_
 _symmetry_equiv_pos_site_id
 _symmetry_equiv_pos_as_xyz
  1  'x, y, z'
loop_
 _atom_site_type_symbol
 _atom_site_label
 _atom_site_symmetry_multiplicity
 _atom_site_fract_x
 _atom_site_fract_y
 _atom_site_fract_z
 _atom_site_occupancy
 _atom_site_charge
Cu  Cu1  1  0.54296000  0.49579000  0.54594000  1.0 0.8513711267
Cu  Cu2  1  0.95283000  0.45704000  0.54594000  1.0 0.8513711267
Cu  Cu3  1  0.50421000  0.04717000  0.54594000  1.0 0.8513711267
Cu  Cu4  1  0.45704000  0.50421000  0.04594000  1.0 0.8513711267
Cu  Cu5  1  0.04717000  0.54296000  0.04594000  1.0 0.8513711267
Cu  Cu6  1  0.49579000  0.95283000  0.04594000  1.0 0.8513711267
Cu  Cu7  1  0.04717000  0.50421000  0.45406000  1.0 0.8513711267
Cu  Cu8  1  0.49579000  0.54296000  0.45406000  1.0 0.8513711267
Cu  Cu9  1  0.45704000  0.95283000  0.45406000  1.0 0.8513711267
Cu  Cu10  1  0.95283000  0.49579000  0.95406000  1.0 0.8513711267
Cu  Cu11  1  0.50421000  0.45704000  0.95406000  1.0 0.8513711267
Cu  Cu12  1  0.54296000  0.04717000  0.95406000  1.0 0.8513711267
H  H1  1  0.83120000  0.83590000  0.21150000  1.0 0.2304062544
H  H2  1  0.74330000  0.66460000  0.36910000  1.0 0.1416882529
H  H3  1  0.76980000  0.52230000  0.48800000  1.0 0.1416882529
H  H4  1  0.94430000  0.63500000  0.36860000  1.0 0.1534949351
H  H5  1  0.85090000  0.79420000  0.32970000  1.0 0.0994017539
H  H6  1  0.79390000  0.72390000  0.28620000  1.0 0.0994017539
H  H7  1  0.96280000  0.84760000  0.26370000  1.0 0.1124816262
H  H8  1  0.00470000  0.16880000  0.21150000  1.0 0.2304062544
H  H9  1  0.92130000  0.25670000  0.36910000  1.0 0.1416882529
H  H10  1  0.75250000  0.23020000  0.48800000  1.0 0.1416882529
H  H11  1  0.69070000  0.05570000  0.36860000  1.0 0.1534949351
H  H12  1  0.94330000  0.14910000  0.32970000  1.0 0.0994017539
H  H13  1  0.93000000  0.20610000  0.28620000  1.0 0.0994017539
H  H14  1  0.88480000  0.03720000  0.26370000  1.0 0.1124816262
H  H15  1  0.16410000  0.99530000  0.21150000  1.0 0.2304062544
H  H16  1  0.33540000  0.07870000  0.36910000  1.0 0.1416882529
H  H17  1  0.47770000  0.24750000  0.48800000  1.0 0.1416882529
H  H18  1  0.36500000  0.30930000  0.36860000  1.0 0.1534949351
H  H19  1  0.20580000  0.05670000  0.32970000  1.0 0.0994017539
H  H20  1  0.27610000  0.07000000  0.28620000  1.0 0.0994017539
H  H21  1  0.15240000  0.11520000  0.26370000  1.0 0.1124816262
H  H22  1  0.16880000  0.16410000  0.71150000  1.0 0.2304062544
H  H23  1  0.25670000  0.33540000  0.86910000  1.0 0.1416882529
H  H24  1  0.23020000  0.47770000  0.98800000  1.0 0.1416882529
H  H25  1  0.05570000  0.36500000  0.86860000  1.0 0.1534949351
H  H26  1  0.14910000  0.20580000  0.82970000  1.0 0.0994017539
H  H27  1  0.20610000  0.27610000  0.78620000  1.0 0.0994017539
H  H28  1  0.03720000  0.15240000  0.76370000  1.0 0.1124816262
H  H29  1  0.99530000  0.83120000  0.71150000  1.0 0.2304062544
H  H30  1  0.07870000  0.74330000  0.86910000  1.0 0.1416882529
H  H31  1  0.24750000  0.76980000  0.98800000  1.0 0.1416882529
H  H32  1  0.30930000  0.94430000  0.86860000  1.0 0.1534949351
H  H33  1  0.05670000  0.85090000  0.82970000  1.0 0.0994017539
H  H34  1  0.07000000  0.79390000  0.78620000  1.0 0.0994017539
H  H35  1  0.11520000  0.96280000  0.76370000  1.0 0.1124816262
H  H36  1  0.83590000  0.00470000  0.71150000  1.0 0.2304062544
H  H37  1  0.66460000  0.92130000  0.86910000  1.0 0.1416882529
H  H38  1  0.52230000  0.75250000  0.98800000  1.0 0.1416882529
H  H39  1  0.63500000  0.69070000  0.86860000  1.0 0.1534949351
H  H40  1  0.79420000  0.94330000  0.82970000  1.0 0.0994017539
H  H41  1  0.72390000  0.93000000  0.78620000  1.0 0.0946119649
H  H42  1  0.84760000  0.88480000  0.76370000  1.0 0.1124816262
H  H43  1  0.99530000  0.16410000  0.78850000  1.0 0.2304062544
H  H44  1  0.07870000  0.33540000  0.63090000  1.0 0.1416882529
H  H45  1  0.24750000  0.47770000  0.51200000  1.0 0.1416882529
H  H46  1  0.30930000  0.36500000  0.63140000  1.0 0.1534949351
H  H47  1  0.05670000  0.20580000  0.67030000  1.0 0.0994017539
H  H48  1  0.07000000  0.27610000  0.71380000  1.0 0.0946119649
H  H49  1  0.11520000  0.15240000  0.73630000  1.0 0.1124816262
H  H50  1  0.83590000  0.83120000  0.78850000  1.0 0.2304062544
H  H51  1  0.66460000  0.74330000  0.63090000  1.0 0.1416882529
H  H52  1  0.52230000  0.76980000  0.51200000  1.0 0.1416882529
H  H53  1  0.63500000  0.94430000  0.63140000  1.0 0.1534949351
H  H54  1  0.79420000  0.85090000  0.67030000  1.0 0.0994017539
H  H55  1  0.72390000  0.79390000  0.71380000  1.0 0.0946119649
H  H56  1  0.84760000  0.96280000  0.73630000  1.0 0.1124816262
H  H57  1  0.16880000  0.00470000  0.78850000  1.0 0.2304062544
H  H58  1  0.25670000  0.92130000  0.63090000  1.0 0.1416882529
H  H59  1  0.23020000  0.75250000  0.51200000  1.0 0.1416882529
H  H60  1  0.05570000  0.69070000  0.63140000  1.0 0.1534949351
H  H61  1  0.14910000  0.94330000  0.67030000  1.0 0.0994017539
H  H62  1  0.20610000  0.93000000  0.71380000  1.0 0.0946119649
H  H63  1  0.03720000  0.88480000  0.73630000  1.0 0.1124816262
H  H64  1  0.00470000  0.83590000  0.28850000  1.0 0.2304062544
H  H65  1  0.92130000  0.66460000  0.13090000  1.0 0.1416882529
H  H66  1  0.75250000  0.52230000  0.01200000  1.0 0.1416882529
H  H67  1  0.69070000  0.63500000  0.13140000  1.0 0.1534949351
H  H68  1  0.94330000  0.79420000  0.17030000  1.0 0.0994017539
H  H69  1  0.93000000  0.72390000  0.21380000  1.0 0.0994017539
H  H70  1  0.88480000  0.84760000  0.23630000  1.0 0.1124816262
H  H71  1  0.16410000  0.16880000  0.28850000  1.0 0.2304062544
H  H72  1  0.33540000  0.25670000  0.13090000  1.0 0.1416882529
H  H73  1  0.47770000  0.23020000  0.01200000  1.0 0.1416882529
H  H74  1  0.36500000  0.05570000  0.13140000  1.0 0.1534949351
H  H75  1  0.20580000  0.14910000  0.17030000  1.0 0.0994017539
H  H76  1  0.27610000  0.20610000  0.21380000  1.0 0.0994017539
H  H77  1  0.15240000  0.03720000  0.23630000  1.0 0.1124816262
H  H78  1  0.83120000  0.99530000  0.28850000  1.0 0.2304062544
H  H79  1  0.74330000  0.07870000  0.13090000  1.0 0.1416882529
H  H80  1  0.76980000  0.24750000  0.01200000  1.0 0.1416882529
H  H81  1  0.94430000  0.30930000  0.13140000  1.0 0.1534949351
H  H82  1  0.85090000  0.05670000  0.17030000  1.0 0.0994017539
H  H83  1  0.79390000  0.07000000  0.21380000  1.0 0.0994017539
H  H84  1  0.96280000  0.11520000  0.23630000  1.0 0.1124816262
C  C1  1  0.84950000  0.65990000  0.36175000  1.0 0.2553901745
C  C2  1  0.77390000  0.64210000  0.38488000  1.0 -0.2383396354
C  C3  1  0.74320000  0.58950000  0.43251000  1.0 0.0154396257
C  C4  1  0.78910000  0.55540000  0.45569000  1.0 -0.1291727196
C  C5  1  0.86300000  0.57060000  0.43065000  1.0 -0.0061793878
C  C6  1  0.89370000  0.62350000  0.38461000  1.0 -0.2038285311
C  C7  1  0.65960000  0.56503000  0.45798000  1.0 0.5803892884
C  C8  1  0.91290000  0.53420000  0.45562000  1.0 0.5803892884
C  C9  1  0.85090000  0.75920000  0.29905000  1.0 -0.1291727196
C  C10  1  0.81040000  0.15050000  0.36175000  1.0 0.2548171355
C  C11  1  0.86820000  0.22610000  0.38488000  1.0 -0.2383396354
C  C12  1  0.84630000  0.25680000  0.43251000  1.0 0.0154396257
C  C13  1  0.76630000  0.21090000  0.45569000  1.0 -0.1291727196
C  C14  1  0.70760000  0.13700000  0.43065000  1.0 -0.0061793878
C  C15  1  0.72980000  0.10630000  0.38461000  1.0 -0.2038285311
C  C16  1  0.90543000  0.34040000  0.45798000  1.0 0.5803892884
C  C17  1  0.62130000  0.08710000  0.45562000  1.0 0.5803892884
C  C18  1  0.90830000  0.14910000  0.29905000  1.0 -0.1291727196
C  C19  1  0.34010000  0.18960000  0.36175000  1.0 0.2548171355
C  C20  1  0.35790000  0.13180000  0.38488000  1.0 -0.2383396354
C  C21  1  0.41050000  0.15370000  0.43251000  1.0 0.0148374362
C  C22  1  0.44460000  0.23370000  0.45569000  1.0 -0.1291727196
C  C23  1  0.42940000  0.29240000  0.43065000  1.0 -0.0061793878
C  C24  1  0.37650000  0.27020000  0.38461000  1.0 -0.2038285311
C  C25  1  0.43497000  0.09457000  0.45798000  1.0 0.5803892884
C  C26  1  0.46580000  0.37870000  0.45562000  1.0 0.5803892884
C  C27  1  0.24080000  0.09170000  0.29905000  1.0 -0.1291727196
C  C28  1  0.15050000  0.34010000  0.86175000  1.0 0.2548171355
C  C29  1  0.22610000  0.35790000  0.88488000  1.0 -0.2383396354
C  C30  1  0.25680000  0.41050000  0.93251000  1.0 0.0148374362
C  C31  1  0.21090000  0.44460000  0.95569000  1.0 -0.1291727196
C  C32  1  0.13700000  0.42940000  0.93065000  1.0 -0.0061793878
C  C33  1  0.10630000  0.37650000  0.88461000  1.0 -0.2038285311
C  C34  1  0.34040000  0.43497000  0.95798000  1.0 0.5803892884
C  C35  1  0.08710000  0.46580000  0.95562000  1.0 0.5803892884
C  C36  1  0.14910000  0.24080000  0.79905000  1.0 -0.1291727196
C  C37  1  0.18960000  0.84950000  0.86175000  1.0 0.2548171355
C  C38  1  0.13180000  0.77390000  0.88488000  1.0 -0.2383396354
C  C39  1  0.15370000  0.74320000  0.93251000  1.0 0.0148374362
C  C40  1  0.23370000  0.78910000  0.95569000  1.0 -0.1291727196
C  C41  1  0.29240000  0.86300000  0.93065000  1.0 -0.0061793878
C  C42  1  0.27020000  0.89370000  0.88461000  1.0 -0.2038285311
C  C43  1  0.09457000  0.65960000  0.95798000  1.0 0.5803892884
C  C44  1  0.37870000  0.91290000  0.95562000  1.0 0.5803892884
C  C45  1  0.09170000  0.85090000  0.79905000  1.0 -0.1291727196
C  C46  1  0.65990000  0.81040000  0.86175000  1.0 0.2553901745
C  C47  1  0.64210000  0.86820000  0.88488000  1.0 -0.2383396354
C  C48  1  0.58950000  0.84630000  0.93251000  1.0 0.0154396257
C  C49  1  0.55540000  0.76630000  0.95569000  1.0 -0.1291727196
C  C50  1  0.57060000  0.70760000  0.93065000  1.0 -0.0061793878
C  C51  1  0.62350000  0.72980000  0.88461000  1.0 -0.2038285311
C  C52  1  0.56503000  0.90543000  0.95798000  1.0 0.5803892884
C  C53  1  0.53420000  0.62130000  0.95562000  1.0 0.5803892884
C  C54  1  0.75920000  0.90830000  0.79905000  1.0 -0.1291727196
C  C55  1  0.18960000  0.34010000  0.63825000  1.0 0.2548171355
C  C56  1  0.13180000  0.35790000  0.61512000  1.0 -0.2383396354
C  C57  1  0.15370000  0.41050000  0.56749000  1.0 0.0148374362
C  C58  1  0.23370000  0.44460000  0.54431000  1.0 -0.1291727196
C  C59  1  0.29240000  0.42940000  0.56935000  1.0 -0.0061793878
C  C60  1  0.27020000  0.37650000  0.61539000  1.0 -0.2038285311
C  C61  1  0.09457000  0.43497000  0.54202000  1.0 0.5803892884
C  C62  1  0.37870000  0.46580000  0.54438000  1.0 0.5803892884
C  C63  1  0.09170000  0.24080000  0.70095000  1.0 -0.1291727196
C  C64  1  0.65990000  0.84950000  0.63825000  1.0 0.2548171355
C  C65  1  0.64210000  0.77390000  0.61512000  1.0 -0.2383396354
C  C66  1  0.58950000  0.74320000  0.56749000  1.0 0.0154396257
C  C67  1  0.55540000  0.78910000  0.54431000  1.0 -0.1291727196
C  C68  1  0.57060000  0.86300000  0.56935000  1.0 -0.0061793878
C  C69  1  0.62350000  0.89370000  0.61539000  1.0 -0.2038285311
C  C70  1  0.56503000  0.65960000  0.54202000  1.0 0.5803892884
C  C71  1  0.53420000  0.91290000  0.54438000  1.0 0.5803892884
C  C72  1  0.75920000  0.85090000  0.70095000  1.0 -0.1291727196
C  C73  1  0.15050000  0.81040000  0.63825000  1.0 0.2548171355
C  C74  1  0.22610000  0.86820000  0.61512000  1.0 -0.2383396354
C  C75  1  0.25680000  0.84630000  0.56749000  1.0 0.0148374362
C  C76  1  0.21090000  0.76630000  0.54431000  1.0 -0.1291727196
C  C77  1  0.13700000  0.70760000  0.56935000  1.0 -0.0061793878
C  C78  1  0.10630000  0.72980000  0.61539000  1.0 -0.2038285311
C  C79  1  0.34040000  0.90543000  0.54202000  1.0 0.5803892884
C  C80  1  0.08710000  0.62130000  0.54438000  1.0 0.5803892884
C  C81  1  0.14910000  0.90830000  0.70095000  1.0 -0.1291727196
C  C82  1  0.81040000  0.65990000  0.13825000  1.0 0.2553901745
C  C83  1  0.86820000  0.64210000  0.11512000  1.0 -0.2383396354
C  C84  1  0.84630000  0.58950000  0.06749000  1.0 0.0154396257
C  C85  1  0.76630000  0.55540000  0.04431000  1.0 -0.1291727196
C  C86  1  0.70760000  0.57060000  0.06935000  1.0 -0.0061793878
C  C87  1  0.72980000  0.62350000  0.11539000  1.0 -0.2038285311
C  C88  1  0.90543000  0.56503000  0.04202000  1.0 0.5803892884
C  C89  1  0.62130000  0.53420000  0.04438000  1.0 0.5803892884
C  C90  1  0.90830000  0.75920000  0.20095000  1.0 -0.1291727196
C  C91  1  0.34010000  0.15050000  0.13825000  1.0 0.2548171355
C  C92  1  0.35790000  0.22610000  0.11512000  1.0 -0.2383396354
C  C93  1  0.41050000  0.25680000  0.06749000  1.0 0.0154396257
C  C94  1  0.44460000  0.21090000  0.04431000  1.0 -0.1291727196
C  C95  1  0.42940000  0.13700000  0.06935000  1.0 -0.0061793878
C  C96  1  0.37650000  0.10630000  0.11539000  1.0 -0.2038285311
C  C97  1  0.43497000  0.34040000  0.04202000  1.0 0.5803892884
C  C98  1  0.46580000  0.08710000  0.04438000  1.0 0.5803892884
C  C99  1  0.24080000  0.14910000  0.20095000  1.0 -0.1291727196
C  C100  1  0.84950000  0.18960000  0.13825000  1.0 0.2548171355
C  C101  1  0.77390000  0.13180000  0.11512000  1.0 -0.2383396354
C  C102  1  0.74320000  0.15370000  0.06749000  1.0 0.0148374362
C  C103  1  0.78910000  0.23370000  0.04431000  1.0 -0.1291727196
C  C104  1  0.86300000  0.29240000  0.06935000  1.0 -0.0061793878
C  C105  1  0.89370000  0.27020000  0.11539000  1.0 -0.2038285311
C  C106  1  0.65960000  0.09457000  0.04202000  1.0 0.5803892884
C  C107  1  0.91290000  0.37870000  0.04438000  1.0 0.5803892884
C  C108  1  0.85090000  0.09170000  0.20095000  1.0 -0.1291727196
C  C109  1  0.90680000  0.81360000  0.25000000  1.0 0.1534949351
C  C110  1  0.90680000  0.09320000  0.25000000  1.0 0.1553119196
C  C111  1  0.18640000  0.09320000  0.25000000  1.0 0.1534949351
C  C112  1  0.09320000  0.18640000  0.75000000  1.0 0.1534949351
C  C113  1  0.09320000  0.90680000  0.75000000  1.0 0.1534949351
C  C114  1  0.81360000  0.90680000  0.75000000  1.0 0.1534949351
O  O1  1  0.64753000  0.53550000  0.50689000  1.0 -0.5089796559
O  O2  1  0.61134000  0.57930000  0.42885000  1.0 -0.520209715
O  O3  1  0.89338000  0.50400000  0.50316000  1.0 -0.5005305213
O  O4  1  0.97214000  0.54083000  0.42538000  1.0 -0.520209715
O  O5  1  0.88500000  0.71077000  0.31711000  1.0 -0.1664087402
O  O6  1  0.87470000  0.86500000  0.22890000  1.0 -0.4132157889
O  O7  1  0.88797000  0.35247000  0.50689000  1.0 -0.5089796559
O  O8  1  0.96796000  0.38866000  0.42885000  1.0 -0.520209715
O  O9  1  0.61062000  0.10662000  0.50316000  1.0 -0.5005305213
O  O10  1  0.56869000  0.02786000  0.42538000  1.0 -0.520209715
O  O11  1  0.82577000  0.11500000  0.31711000  1.0 -0.1664087402
O  O12  1  0.99030000  0.12530000  0.22890000  1.0 -0.4132157889
O  O13  1  0.46450000  0.11203000  0.50689000  1.0 -0.5089796559
O  O14  1  0.42070000  0.03204000  0.42885000  1.0 -0.520209715
O  O15  1  0.49600000  0.38938000  0.50316000  1.0 -0.5005305213
O  O16  1  0.45917000  0.43131000  0.42538000  1.0 -0.520209715
O  O17  1  0.28923000  0.17423000  0.31711000  1.0 -0.1664087402
O  O18  1  0.13500000  0.00970000  0.22890000  1.0 -0.4132157889
O  O19  1  0.35247000  0.46450000  0.00689000  1.0 -0.5089796559
O  O20  1  0.38866000  0.42070000  0.92885000  1.0 -0.520209715
O  O21  1  0.10662000  0.49600000  0.00316000  1.0 -0.5005305213
O  O22  1  0.02786000  0.45917000  0.92538000  1.0 -0.520209715
O  O23  1  0.11500000  0.28923000  0.81711000  1.0 -0.1664087402
O  O24  1  0.12530000  0.13500000  0.72890000  1.0 -0.4132157889
O  O25  1  0.11203000  0.64753000  0.00689000  1.0 -0.5089796559
O  O26  1  0.03204000  0.61134000  0.92885000  1.0 -0.520209715
O  O27  1  0.38938000  0.89338000  0.00316000  1.0 -0.5005305213
O  O28  1  0.43131000  0.97214000  0.92538000  1.0 -0.520209715
O  O29  1  0.17423000  0.88500000  0.81711000  1.0 -0.1664087402
O  O30  1  0.00970000  0.87470000  0.72890000  1.0 -0.4132157889
O  O31  1  0.53550000  0.88797000  0.00689000  1.0 -0.5089796559
O  O32  1  0.57930000  0.96796000  0.92885000  1.0 -0.520209715
O  O33  1  0.50400000  0.61062000  0.00316000  1.0 -0.5005305213
O  O34  1  0.54083000  0.56869000  0.92538000  1.0 -0.520209715
O  O35  1  0.71077000  0.82577000  0.81711000  1.0 -0.1648081319
O  O36  1  0.86500000  0.99030000  0.72890000  1.0 -0.4132157889
O  O37  1  0.11203000  0.46450000  0.49311000  1.0 -0.5089796559
O  O38  1  0.03204000  0.42070000  0.57115000  1.0 -0.520209715
O  O39  1  0.38938000  0.49600000  0.49684000  1.0 -0.5005305213
O  O40  1  0.43131000  0.45917000  0.57462000  1.0 -0.520209715
O  O41  1  0.17423000  0.28923000  0.68289000  1.0 -0.1664087402
O  O42  1  0.00970000  0.13500000  0.77110000  1.0 -0.4132157889
O  O43  1  0.53550000  0.64753000  0.49311000  1.0 -0.5089796559
O  O44  1  0.57930000  0.61134000  0.57115000  1.0 -0.520209715
O  O45  1  0.50400000  0.89338000  0.49684000  1.0 -0.5005305213
O  O46  1  0.54083000  0.97214000  0.57462000  1.0 -0.520209715
O  O47  1  0.71077000  0.88500000  0.68289000  1.0 -0.1664087402
O  O48  1  0.86500000  0.87470000  0.77110000  1.0 -0.4132157889
O  O49  1  0.35247000  0.88797000  0.49311000  1.0 -0.5089796559
O  O50  1  0.38866000  0.96796000  0.57115000  1.0 -0.520209715
O  O51  1  0.10662000  0.61062000  0.49684000  1.0 -0.5005305213
O  O52  1  0.02786000  0.56869000  0.57462000  1.0 -0.520209715
O  O53  1  0.11500000  0.82577000  0.68289000  1.0 -0.1664087402
O  O54  1  0.12530000  0.99030000  0.77110000  1.0 -0.4132157889
O  O55  1  0.88797000  0.53550000  0.99311000  1.0 -0.5089796559
O  O56  1  0.96796000  0.57930000  0.07115000  1.0 -0.520209715
O  O57  1  0.61062000  0.50400000  0.99684000  1.0 -0.5005305213
O  O58  1  0.56869000  0.54083000  0.07462000  1.0 -0.520209715
O  O59  1  0.82577000  0.71077000  0.18289000  1.0 -0.1664087402
O  O60  1  0.99030000  0.86500000  0.27110000  1.0 -0.4132157889
O  O61  1  0.46450000  0.35247000  0.99311000  1.0 -0.5089796559
O  O62  1  0.42070000  0.38866000  0.07115000  1.0 -0.520209715
O  O63  1  0.49600000  0.10662000  0.99684000  1.0 -0.5005305213
O  O64  1  0.45917000  0.02786000  0.07462000  1.0 -0.520209715
O  O65  1  0.28923000  0.11500000  0.18289000  1.0 -0.1664087402
O  O66  1  0.13500000  0.12530000  0.27110000  1.0 -0.4132157889
O  O67  1  0.64753000  0.11203000  0.99311000  1.0 -0.5089796559
O  O68  1  0.61134000  0.03204000  0.07115000  1.0 -0.520209715
O  O69  1  0.89338000  0.38938000  0.99684000  1.0 -0.5005305213
O  O70  1  0.97214000  0.43131000  0.07462000  1.0 -0.520209715
O  O71  1  0.88500000  0.17423000  0.18289000  1.0 -0.1664087402
O  O72  1  0.87470000  0.00970000  0.27110000  1.0 -0.4132157889
