# DDEC6 charges by PACMAN v1.1 (https://github.com/mtap-research/PACMAN-charge/)
data_OSOYUR_FSR_pacman
_symmetry_space_group_name_H-M   'P 1'
_cell_length_a   10.97330000
_cell_length_b   10.97330000
_cell_length_c   13.56400000
_cell_angle_alpha   90.00000000
_cell_angle_beta   90.00000000
_cell_angle_gamma   106.26600000
_symmetry_Int_Tables_number   1
_chemical_formula_structural   CaZn2H10(C9O8)2
_chemical_formula_sum   'Ca2 Zn4 H20 C36 O32'
_cell_volume   1567.90846445
_cell_formula_units_Z   2
loop_
 _symmetry_equiv_pos_site_id
 _symmetry_equiv_pos_as_xyz
  1  'x, y, z'
loop_
 _atom_site_type_symbol
 _atom_site_label
 _atom_site_symmetry_multiplicity
 _atom_site_fract_x
 _atom_site_fract_y
 _atom_site_fract_z
 _atom_site_occupancy
 _atom_site_charge
Ca  Ca1  1  0.32524000  0.67476000  0.75000000  1.0 1.3776480414
Ca  Ca2  1  0.67476000  0.32524000  0.25000000  1.0 1.3776480414
Zn  Zn1  1  0.19790000  0.40730000  0.92918000  1.0 0.8244816221
Zn  Zn2  1  0.80210000  0.59270000  0.42918000  1.0 0.8244816221
Zn  Zn3  1  0.59270000  0.80210000  0.57082000  1.0 0.8244816221
Zn  Zn4  1  0.40730000  0.19790000  0.07082000  1.0 0.8244816221
H  H1  1  0.86680000  0.43800000  0.96550000  1.0 0.1191331752
H  H2  1  0.13320000  0.56200000  0.46550000  1.0 0.1191331752
H  H3  1  0.56200000  0.13320000  0.53450000  1.0 0.1191331752
H  H4  1  0.43800000  0.86680000  0.03450000  1.0 0.1191331752
H  H5  1  0.55560000  0.52680000  0.87060000  1.0 0.1191331752
H  H6  1  0.44440000  0.47320000  0.37060000  1.0 0.1191331752
H  H7  1  0.47320000  0.44440000  0.62940000  1.0 0.1191331752
H  H8  1  0.52680000  0.55560000  0.12940000  1.0 0.1191331752
H  H9  1  0.89410000  0.68270000  0.74020000  1.0 0.1070812352
H  H10  1  0.10590000  0.31730000  0.24020000  1.0 0.1070812352
H  H11  1  0.31730000  0.10590000  0.75980000  1.0 0.1070812352
H  H12  1  0.68270000  0.89410000  0.25980000  1.0 0.1070812352
H  H13  1  0.02810000  0.25090000  0.03250000  1.0 0.3376711614
H  H14  1  0.97190000  0.74910000  0.53250000  1.0 0.3376711614
H  H15  1  0.74910000  0.97190000  0.46750000  1.0 0.3376711614
H  H16  1  0.25090000  0.02810000  0.96750000  1.0 0.3376711614
H  H17  1  0.13390000  0.28970000  0.08850000  1.0 0.3376711614
H  H18  1  0.86610000  0.71030000  0.58850000  1.0 0.3376711614
H  H19  1  0.71030000  0.86610000  0.41150000  1.0 0.3376711614
H  H20  1  0.28970000  0.13390000  0.91150000  1.0 0.3376711614
C  C1  1  0.90090000  0.55870000  0.85020000  1.0 -0.0325815349
C  C2  1  0.09910000  0.44130000  0.35020000  1.0 -0.0325815349
C  C3  1  0.44130000  0.09910000  0.64980000  1.0 -0.0325815349
C  C4  1  0.55870000  0.90090000  0.14980000  1.0 -0.0325815349
C  C5  1  0.82850000  0.48170000  0.92200000  1.0 -0.1464761507
C  C6  1  0.17150000  0.51830000  0.42200000  1.0 -0.1464761507
C  C7  1  0.51830000  0.17150000  0.57800000  1.0 -0.1464761507
C  C8  1  0.48170000  0.82850000  0.07800000  1.0 -0.1464761507
C  C9  1  0.69994000  0.46906000  0.92950000  1.0 -0.0197132713
C  C10  1  0.30006000  0.53094000  0.42950000  1.0 -0.0197132713
C  C11  1  0.53094000  0.30006000  0.57050000  1.0 -0.0197132713
C  C12  1  0.46906000  0.69994000  0.07050000  1.0 -0.0197132713
C  C13  1  0.64222000  0.53578000  0.86580000  1.0 -0.1121116124
C  C14  1  0.35778000  0.46422000  0.36580000  1.0 -0.1121116124
C  C15  1  0.46422000  0.35778000  0.63420000  1.0 -0.1121116124
C  C16  1  0.53578000  0.64222000  0.13420000  1.0 -0.1121116124
C  C17  1  0.71490000  0.61570000  0.79510000  1.0 -0.0197132713
C  C18  1  0.28510000  0.38430000  0.29510000  1.0 -0.0197132713
C  C19  1  0.38430000  0.28510000  0.70490000  1.0 -0.0197132713
C  C20  1  0.61570000  0.71490000  0.20490000  1.0 -0.0197132713
C  C21  1  0.84530000  0.62850000  0.78700000  1.0 -0.1464761507
C  C22  1  0.15470000  0.37150000  0.28700000  1.0 -0.1464761507
C  C23  1  0.37150000  0.15470000  0.71300000  1.0 -0.1464761507
C  C24  1  0.62850000  0.84530000  0.21300000  1.0 -0.1464761507
C  C25  1  0.03730000  0.55990000  0.83830000  1.0 0.4781938128
C  C26  1  0.96270000  0.44010000  0.33830000  1.0 0.4781938128
C  C27  1  0.44010000  0.96270000  0.66170000  1.0 0.4781938128
C  C28  1  0.55990000  0.03730000  0.16170000  1.0 0.4781938128
C  C29  1  0.62571000  0.38069000  0.00670000  1.0 0.5903148211
C  C30  1  0.37429000  0.61931000  0.50670000  1.0 0.5903148211
C  C31  1  0.61931000  0.37429000  0.49330000  1.0 0.5903148211
C  C32  1  0.38069000  0.62571000  0.99330000  1.0 0.5903148211
C  C33  1  0.65164000  0.68676000  0.72710000  1.0 0.5903148211
C  C34  1  0.34836000  0.31324000  0.22710000  1.0 0.5903148211
C  C35  1  0.31324000  0.34836000  0.77290000  1.0 0.5903148211
C  C36  1  0.68676000  0.65164000  0.27290000  1.0 0.5903148211
O  O1  1  0.10727000  0.63415000  0.78003000  1.0 -0.5454245947
O  O2  1  0.89273000  0.36585000  0.28003000  1.0 -0.5454245947
O  O3  1  0.36585000  0.89273000  0.71997000  1.0 -0.5454245947
O  O4  1  0.63415000  0.10727000  0.21997000  1.0 -0.5454245947
O  O5  1  0.08133000  0.50851000  0.90125000  1.0 -0.0470572051
O  O6  1  0.91867000  0.49149000  0.40125000  1.0 -0.0470572051
O  O7  1  0.49149000  0.91867000  0.59875000  1.0 -0.0470572051
O  O8  1  0.50851000  0.08133000  0.09875000  1.0 -0.0470572051
O  O9  1  0.68208000  0.35670000  0.08062000  1.0 -0.6462498449
O  O10  1  0.31792000  0.64330000  0.58062000  1.0 -0.6462498449
O  O11  1  0.64330000  0.31792000  0.41938000  1.0 -0.6462498449
O  O12  1  0.35670000  0.68208000  0.91938000  1.0 -0.6462498449
O  O13  1  0.50812000  0.33340000  0.98912000  1.0 -0.5766440623
O  O14  1  0.49188000  0.66666667  0.48912000  1.0 -0.5766440623
O  O15  1  0.66666667  0.49188000  0.51088000  1.0 -0.5766440623
O  O16  1  0.33340000  0.50812000  0.01088000  1.0 -0.5766440623
O  O17  1  0.53953000  0.68401000  0.73966000  1.0 -0.6274775408
O  O18  1  0.46047000  0.31599000  0.23966000  1.0 -0.6274775408
O  O19  1  0.31599000  0.46047000  0.76034000  1.0 -0.6274775408
O  O20  1  0.68401000  0.53953000  0.26034000  1.0 -0.6274775408
O  O21  1  0.71585000  0.74815000  0.65540000  1.0 -0.5682024501
O  O22  1  0.28415000  0.25185000  0.15540000  1.0 -0.5682024501
O  O23  1  0.25185000  0.28415000  0.84460000  1.0 -0.5682024501
O  O24  1  0.74815000  0.71585000  0.34460000  1.0 -0.5682024501
O  O25  1  0.10485000  0.29785000  0.03844000  1.0 -0.6231185935
O  O26  1  0.89515000  0.70215000  0.53844000  1.0 -0.6231185935
O  O27  1  0.70215000  0.89515000  0.46156000  1.0 -0.6231185935
O  O28  1  0.29785000  0.10485000  0.96156000  1.0 -0.6231185935
O  O29  1  0.05866000  0.46020000  0.88363000  1.0 -0.0815727238
O  O30  1  0.94134000  0.53980000  0.38363000  1.0 -0.0815727238
O  O31  1  0.53980000  0.94134000  0.61637000  1.0 -0.0815727238
O  O32  1  0.46020000  0.05866000  0.11637000  1.0 -0.0815727238
