# DDEC6 charges by PACMAN v1.1 (https://github.com/mtap-research/PACMAN-charge/)
data_OSOYON_ASR_pacman
_symmetry_space_group_name_H-M   'P 1'
_cell_length_a   17.84020000
_cell_length_b   17.84020000
_cell_length_c   17.84020000
_cell_angle_alpha   63.25880000
_cell_angle_beta   63.25880000
_cell_angle_gamma   63.25880000
_symmetry_Int_Tables_number   1
_chemical_formula_structural   CuH11C12O5
_chemical_formula_sum   'Cu6 H66 C72 O30'
_cell_volume   4304.87322824
_cell_formula_units_Z   6
loop_
 _symmetry_equiv_pos_site_id
 _symmetry_equiv_pos_as_xyz
  1  'x, y, z'
loop_
 _atom_site_type_symbol
 _atom_site_label
 _atom_site_symmetry_multiplicity
 _atom_site_fract_x
 _atom_site_fract_y
 _atom_site_fract_z
 _atom_site_occupancy
 _atom_site_charge
Cu  Cu1  1  0.49712000  0.92791000  0.49712000  1.0 0.8607017859
Cu  Cu2  1  0.49712000  0.49712000  0.92791000  1.0 0.8607017859
Cu  Cu3  1  0.92791000  0.49712000  0.49712000  1.0 0.8607017859
Cu  Cu4  1  0.07209000  0.50288000  0.50288000  1.0 0.8607017859
Cu  Cu5  1  0.50288000  0.50288000  0.07209000  1.0 0.8607017859
Cu  Cu6  1  0.50288000  0.07209000  0.50288000  1.0 0.8607017859
H  H1  1  0.21747000  0.00379000  0.55108000  1.0 0.1486011832
H  H2  1  0.90780000  0.03826000  0.52957000  1.0 0.0395685296
H  H3  1  0.96473000  0.97598000  0.59268000  1.0 0.0972853754
H  H4  1  0.92095000  0.12450000  0.59303000  1.0 0.0972853754
H  H5  1  0.97157000  0.15388000  0.48974000  1.0 0.0734964027
H  H6  1  0.55108000  0.21747000  0.00379000  1.0 0.1486011832
H  H7  1  0.52957000  0.90780000  0.03826000  1.0 0.0395685296
H  H8  1  0.59268000  0.96473000  0.97598000  1.0 0.0972853754
H  H9  1  0.59303000  0.92095000  0.12450000  1.0 0.0972853754
H  H10  1  0.48974000  0.97157000  0.15388000  1.0 0.0734964027
H  H11  1  0.00379000  0.55108000  0.21747000  1.0 0.1486011832
H  H12  1  0.03826000  0.52957000  0.90780000  1.0 0.0395685296
H  H13  1  0.97598000  0.59268000  0.96473000  1.0 0.0972853754
H  H14  1  0.12450000  0.59303000  0.92095000  1.0 0.0972853754
H  H15  1  0.15388000  0.48974000  0.97157000  1.0 0.0734964027
H  H16  1  0.99621000  0.78253000  0.44892000  1.0 0.1486011832
H  H17  1  0.96174000  0.09220000  0.47043000  1.0 0.0395685296
H  H18  1  0.02402000  0.03527000  0.40732000  1.0 0.0972853754
H  H19  1  0.87550000  0.07905000  0.40697000  1.0 0.0972853754
H  H20  1  0.84612000  0.02843000  0.51026000  1.0 0.0734964027
H  H21  1  0.78253000  0.44892000  0.99621000  1.0 0.1486011832
H  H22  1  0.09220000  0.47043000  0.96174000  1.0 0.0395685296
H  H23  1  0.03527000  0.40732000  0.02402000  1.0 0.0972853754
H  H24  1  0.07905000  0.40697000  0.87550000  1.0 0.0972853754
H  H25  1  0.02843000  0.51026000  0.84612000  1.0 0.0734964027
H  H26  1  0.44892000  0.99621000  0.78253000  1.0 0.1486011832
H  H27  1  0.47043000  0.96174000  0.09220000  1.0 0.0395685296
H  H28  1  0.40732000  0.02402000  0.03527000  1.0 0.0972853754
H  H29  1  0.40697000  0.87550000  0.07905000  1.0 0.0972853754
H  H30  1  0.51026000  0.84612000  0.02843000  1.0 0.0734964027
H  H31  1  0.78253000  0.99621000  0.44892000  1.0 0.1486011832
H  H32  1  0.09220000  0.96174000  0.47043000  1.0 0.0395685296
H  H33  1  0.03527000  0.02402000  0.40732000  1.0 0.0972853754
H  H34  1  0.07905000  0.87550000  0.40697000  1.0 0.0972853754
H  H35  1  0.02843000  0.84612000  0.51026000  1.0 0.0734964027
H  H36  1  0.44892000  0.78253000  0.99621000  1.0 0.1486011832
H  H37  1  0.47043000  0.09220000  0.96174000  1.0 0.0395685296
H  H38  1  0.40732000  0.03527000  0.02402000  1.0 0.0972853754
H  H39  1  0.40697000  0.07905000  0.87550000  1.0 0.0972853754
H  H40  1  0.51026000  0.02843000  0.84612000  1.0 0.0734964027
H  H41  1  0.99621000  0.44892000  0.78253000  1.0 0.1486011832
H  H42  1  0.96174000  0.47043000  0.09220000  1.0 0.0395685296
H  H43  1  0.02402000  0.40732000  0.03527000  1.0 0.0972853754
H  H44  1  0.87550000  0.40697000  0.07905000  1.0 0.0972853754
H  H45  1  0.84612000  0.51026000  0.02843000  1.0 0.0734964027
H  H46  1  0.00379000  0.21747000  0.55108000  1.0 0.1486011832
H  H47  1  0.03826000  0.90780000  0.52957000  1.0 0.0395685296
H  H48  1  0.97598000  0.96473000  0.59268000  1.0 0.0972853754
H  H49  1  0.12450000  0.92095000  0.59303000  1.0 0.0972853754
H  H50  1  0.15388000  0.97157000  0.48974000  1.0 0.0734964027
H  H51  1  0.21747000  0.55108000  0.00379000  1.0 0.1486011832
H  H52  1  0.90780000  0.52957000  0.03826000  1.0 0.0395685296
H  H53  1  0.96473000  0.59268000  0.97598000  1.0 0.0972853754
H  H54  1  0.92095000  0.59303000  0.12450000  1.0 0.0972853754
H  H55  1  0.97157000  0.48974000  0.15388000  1.0 0.0734964027
H  H56  1  0.55108000  0.00379000  0.21747000  1.0 0.1486011832
H  H57  1  0.52957000  0.03826000  0.90780000  1.0 0.0395685296
H  H58  1  0.59268000  0.97598000  0.96473000  1.0 0.0972853754
H  H59  1  0.59303000  0.12450000  0.92095000  1.0 0.0972853754
H  H60  1  0.48974000  0.15388000  0.97157000  1.0 0.0734964027
H  H61  1  0.23194000  0.23194000  0.52471000  1.0 0.1392589175
H  H62  1  0.52471000  0.23194000  0.23194000  1.0 0.1392589175
H  H63  1  0.23194000  0.52471000  0.23194000  1.0 0.1392589175
H  H64  1  0.76806000  0.76806000  0.47529000  1.0 0.1392589175
H  H65  1  0.76806000  0.47529000  0.76806000  1.0 0.1392589175
H  H66  1  0.47529000  0.76806000  0.76806000  1.0 0.1392589175
C  C1  1  0.24077000  0.11307000  0.53187000  1.0 0.004876479
C  C2  1  0.33874000  0.06914000  0.52184000  1.0 0.5752566619
C  C3  1  0.19254000  0.06404000  0.54354000  1.0 -0.1935022137
C  C4  1  0.96480000  0.02180000  0.53620000  1.0 -0.0832021651
C  C5  1  0.96840000  0.10500000  0.54420000  1.0 -0.1731990537
C  C6  1  0.53187000  0.24077000  0.11307000  1.0 0.004876479
C  C7  1  0.52184000  0.33874000  0.06914000  1.0 0.5752566619
C  C8  1  0.54354000  0.19254000  0.06404000  1.0 -0.1935022137
C  C9  1  0.53620000  0.96480000  0.02180000  1.0 -0.0832021651
C  C10  1  0.54420000  0.96840000  0.10500000  1.0 -0.1731990537
C  C11  1  0.11307000  0.53187000  0.24077000  1.0 0.004876479
C  C12  1  0.06914000  0.52184000  0.33874000  1.0 0.5752566619
C  C13  1  0.06404000  0.54354000  0.19254000  1.0 -0.1935022137
C  C14  1  0.02180000  0.53620000  0.96480000  1.0 -0.0832021651
C  C15  1  0.10500000  0.54420000  0.96840000  1.0 -0.1731990537
C  C16  1  0.88693000  0.75923000  0.46813000  1.0 0.004876479
C  C17  1  0.93086000  0.66126000  0.47816000  1.0 0.5752566619
C  C18  1  0.93596000  0.80746000  0.45646000  1.0 -0.1935022137
C  C19  1  0.97820000  0.03520000  0.46380000  1.0 -0.0832021651
C  C20  1  0.89500000  0.03160000  0.45580000  1.0 -0.1731990537
C  C21  1  0.75923000  0.46813000  0.88693000  1.0 0.004876479
C  C22  1  0.66126000  0.47816000  0.93086000  1.0 0.5752566619
C  C23  1  0.80746000  0.45646000  0.93596000  1.0 -0.1935022137
C  C24  1  0.03520000  0.46380000  0.97820000  1.0 -0.0832021651
C  C25  1  0.03160000  0.45580000  0.89500000  1.0 -0.1731990537
C  C26  1  0.46813000  0.88693000  0.75923000  1.0 0.004876479
C  C27  1  0.47816000  0.93086000  0.66126000  1.0 0.5752566619
C  C28  1  0.45646000  0.93596000  0.80746000  1.0 -0.1935022137
C  C29  1  0.46380000  0.97820000  0.03520000  1.0 -0.0832021651
C  C30  1  0.45580000  0.89500000  0.03160000  1.0 -0.1731990537
C  C31  1  0.75923000  0.88693000  0.46813000  1.0 0.004876479
C  C32  1  0.66126000  0.93086000  0.47816000  1.0 0.5752566619
C  C33  1  0.80746000  0.93596000  0.45646000  1.0 -0.1935022137
C  C34  1  0.03520000  0.97820000  0.46380000  1.0 -0.0832021651
C  C35  1  0.03160000  0.89500000  0.45580000  1.0 -0.1731990537
C  C36  1  0.46813000  0.75923000  0.88693000  1.0 0.004876479
C  C37  1  0.47816000  0.66126000  0.93086000  1.0 0.5752566619
C  C38  1  0.45646000  0.80746000  0.93596000  1.0 -0.1935022137
C  C39  1  0.46380000  0.03520000  0.97820000  1.0 -0.0832021651
C  C40  1  0.45580000  0.03160000  0.89500000  1.0 -0.1731990537
C  C41  1  0.88693000  0.46813000  0.75923000  1.0 0.004876479
C  C42  1  0.93086000  0.47816000  0.66126000  1.0 0.5752566619
C  C43  1  0.93596000  0.45646000  0.80746000  1.0 -0.1935022137
C  C44  1  0.97820000  0.46380000  0.03520000  1.0 -0.0832021651
C  C45  1  0.89500000  0.45580000  0.03160000  1.0 -0.1731990537
C  C46  1  0.11307000  0.24077000  0.53187000  1.0 0.004876479
C  C47  1  0.06914000  0.33874000  0.52184000  1.0 0.5752566619
C  C48  1  0.06404000  0.19254000  0.54354000  1.0 -0.1935022137
C  C49  1  0.02180000  0.96480000  0.53620000  1.0 -0.0832021651
C  C50  1  0.10500000  0.96840000  0.54420000  1.0 -0.1731990537
C  C51  1  0.24077000  0.53187000  0.11307000  1.0 0.004876479
C  C52  1  0.33874000  0.52184000  0.06914000  1.0 0.5752566619
C  C53  1  0.19254000  0.54354000  0.06404000  1.0 -0.1935022137
C  C54  1  0.96480000  0.53620000  0.02180000  1.0 -0.0832021651
C  C55  1  0.96840000  0.54420000  0.10500000  1.0 -0.1731990537
C  C56  1  0.53187000  0.11307000  0.24077000  1.0 0.004876479
C  C57  1  0.52184000  0.06914000  0.33874000  1.0 0.5752566619
C  C58  1  0.54354000  0.06404000  0.19254000  1.0 -0.1935022137
C  C59  1  0.53620000  0.02180000  0.96480000  1.0 -0.0832021651
C  C60  1  0.54420000  0.10500000  0.96840000  1.0 -0.1731990537
C  C61  1  0.20013000  0.20013000  0.52883000  1.0 -0.1277370614
C  C62  1  0.10690000  0.10690000  0.54360000  1.0 0.2138025923
C  C63  1  0.52883000  0.20013000  0.20013000  1.0 -0.1277370614
C  C64  1  0.54360000  0.10690000  0.10690000  1.0 0.2155151343
C  C65  1  0.20013000  0.52883000  0.20013000  1.0 -0.1277370614
C  C66  1  0.10690000  0.54360000  0.10690000  1.0 0.2138025923
C  C67  1  0.79987000  0.79987000  0.47117000  1.0 -0.1277370614
C  C68  1  0.89310000  0.89310000  0.45640000  1.0 0.2155151343
C  C69  1  0.79987000  0.47117000  0.79987000  1.0 -0.1277370614
C  C70  1  0.89310000  0.45640000  0.89310000  1.0 0.2155151343
C  C71  1  0.47117000  0.79987000  0.79987000  1.0 -0.1277370614
C  C72  1  0.45640000  0.89310000  0.89310000  1.0 0.2155151343
O  O1  1  0.37639000  0.11497000  0.52131000  1.0 -0.5324873116
O  O2  1  0.37159000  0.99313000  0.51775000  1.0 -0.5199320353
O  O3  1  0.52131000  0.37639000  0.11497000  1.0 -0.5324873116
O  O4  1  0.51775000  0.37159000  0.99313000  1.0 -0.5199320353
O  O5  1  0.11497000  0.52131000  0.37639000  1.0 -0.5324873116
O  O6  1  0.99313000  0.51775000  0.37159000  1.0 -0.5199320353
O  O7  1  0.88503000  0.62361000  0.47869000  1.0 -0.5324873116
O  O8  1  0.00687000  0.62841000  0.48225000  1.0 -0.5199320353
O  O9  1  0.62361000  0.47869000  0.88503000  1.0 -0.5324873116
O  O10  1  0.62841000  0.48225000  0.00687000  1.0 -0.5199320353
O  O11  1  0.47869000  0.88503000  0.62361000  1.0 -0.5324873116
O  O12  1  0.48225000  0.00687000  0.62841000  1.0 -0.5199320353
O  O13  1  0.62361000  0.88503000  0.47869000  1.0 -0.5324873116
O  O14  1  0.62841000  0.00687000  0.48225000  1.0 -0.5199320353
O  O15  1  0.47869000  0.62361000  0.88503000  1.0 -0.5324873116
O  O16  1  0.48225000  0.62841000  0.00687000  1.0 -0.5199320353
O  O17  1  0.88503000  0.47869000  0.62361000  1.0 -0.5324873116
O  O18  1  0.00687000  0.48225000  0.62841000  1.0 -0.5199320353
O  O19  1  0.11497000  0.37639000  0.52131000  1.0 -0.5324873116
O  O20  1  0.99313000  0.37159000  0.51775000  1.0 -0.5199320353
O  O21  1  0.37639000  0.52131000  0.11497000  1.0 -0.5324873116
O  O22  1  0.37159000  0.51775000  0.99313000  1.0 -0.5199320353
O  O23  1  0.52131000  0.11497000  0.37639000  1.0 -0.5324873116
O  O24  1  0.51775000  0.99313000  0.37159000  1.0 -0.5199320353
O  O25  1  0.05460000  0.05460000  0.56210000  1.0 -0.1559847989
O  O26  1  0.56210000  0.05460000  0.05460000  1.0 -0.1559847989
O  O27  1  0.05460000  0.56210000  0.05460000  1.0 -0.1538175554
O  O28  1  0.94540000  0.94540000  0.43790000  1.0 -0.1559847989
O  O29  1  0.94540000  0.43790000  0.94540000  1.0 -0.1538175554
O  O30  1  0.43790000  0.94540000  0.94540000  1.0 -0.1559847989
