# DDEC6 charges by PACMAN v1.1 (https://github.com/mtap-research/PACMAN-charge/)
data_OSUPOJ_ASR_pacman
_symmetry_space_group_name_H-M   'P 1'
_cell_length_a   14.40490000
_cell_length_b   14.40490000
_cell_length_c   19.56030000
_cell_angle_alpha   61.69310000
_cell_angle_beta   118.30700000
_cell_angle_gamma   129.14600000
_symmetry_Int_Tables_number   1
_chemical_formula_structural   EuH18C24(SO)6
_chemical_formula_sum   'Eu4 H72 C96 S24 O24'
_cell_volume   2678.94843183
_cell_formula_units_Z   4
loop_
 _symmetry_equiv_pos_site_id
 _symmetry_equiv_pos_as_xyz
  1  'x, y, z'
loop_
 _atom_site_type_symbol
 _atom_site_label
 _atom_site_symmetry_multiplicity
 _atom_site_fract_x
 _atom_site_fract_y
 _atom_site_fract_z
 _atom_site_occupancy
 _atom_site_charge
Eu  Eu1  1  0.52227000  0.52863000  0.62446000  1.0 2.0151532668
Eu  Eu2  1  0.52863000  0.52227000  0.87554000  1.0 2.0151532668
Eu  Eu3  1  0.47773000  0.47137000  0.37554000  1.0 2.0151532668
Eu  Eu4  1  0.47137000  0.47773000  0.12446000  1.0 2.0151532668
H  H1  1  0.49320000  0.22420000  0.73320000  1.0 0.0881235561
H  H2  1  0.22420000  0.49320000  0.76680000  1.0 0.0881235561
H  H3  1  0.50680000  0.77580000  0.26680000  1.0 0.0881235561
H  H4  1  0.77580000  0.50680000  0.23320000  1.0 0.0881235561
H  H5  1  0.51500000  0.11740000  0.79800000  1.0 0.0801294652
H  H6  1  0.11740000  0.51500000  0.70200000  1.0 0.0801294652
H  H7  1  0.48500000  0.88260000  0.20200000  1.0 0.0801294652
H  H8  1  0.88260000  0.48500000  0.29800000  1.0 0.0801294652
H  H9  1  0.62310000  0.24030000  0.76080000  1.0 0.0697269454
H  H10  1  0.24030000  0.62310000  0.73920000  1.0 0.0697269454
H  H11  1  0.37690000  0.75970000  0.23920000  1.0 0.0697269454
H  H12  1  0.75970000  0.37690000  0.26080000  1.0 0.0697269454
H  H13  1  0.62560000  0.90480000  0.87940000  1.0 0.0801294652
H  H14  1  0.90480000  0.62560000  0.62060000  1.0 0.0801294652
H  H15  1  0.37440000  0.09520000  0.12060000  1.0 0.0801294652
H  H16  1  0.09520000  0.37440000  0.37940000  1.0 0.0801294652
H  H17  1  0.65040000  0.03940000  0.84620000  1.0 0.0697269454
H  H18  1  0.03940000  0.65040000  0.65380000  1.0 0.0697269454
H  H19  1  0.34960000  0.96060000  0.15380000  1.0 0.0697269454
H  H20  1  0.96060000  0.34960000  0.34620000  1.0 0.0697269454
H  H21  1  0.52880000  0.92760000  0.87360000  1.0 0.0697269454
H  H22  1  0.92760000  0.52880000  0.62640000  1.0 0.0697269454
H  H23  1  0.47120000  0.07240000  0.12640000  1.0 0.0697269454
H  H24  1  0.07240000  0.47120000  0.37360000  1.0 0.0697269454
H  H25  1  0.80870000  0.81650000  0.88020000  1.0 0.0881235561
H  H26  1  0.81650000  0.80870000  0.61980000  1.0 0.0881235561
H  H27  1  0.19130000  0.18350000  0.11980000  1.0 0.0881235561
H  H28  1  0.18350000  0.19130000  0.38020000  1.0 0.0881235561
H  H29  1  0.94970000  0.87530000  0.92510000  1.0 0.0697269454
H  H30  1  0.87530000  0.94970000  0.57490000  1.0 0.0697269454
H  H31  1  0.05030000  0.12470000  0.07490000  1.0 0.0697269454
H  H32  1  0.12470000  0.05030000  0.42510000  1.0 0.0697269454
H  H33  1  0.89130000  0.95790000  0.87690000  1.0 0.0801294652
H  H34  1  0.95790000  0.89130000  0.62310000  1.0 0.0801294652
H  H35  1  0.10870000  0.04210000  0.12310000  1.0 0.0801294652
H  H36  1  0.04210000  0.10870000  0.37690000  1.0 0.0801294652
H  H37  1  0.10140000  0.18180000  0.87060000  1.0 0.0881235561
H  H38  1  0.18180000  0.10140000  0.62940000  1.0 0.0881235561
H  H39  1  0.89860000  0.81820000  0.12940000  1.0 0.0881235561
H  H40  1  0.81820000  0.89860000  0.37060000  1.0 0.0881235561
H  H41  1  0.14690000  0.08850000  0.92380000  1.0 0.0801294652
H  H42  1  0.08850000  0.14690000  0.57620000  1.0 0.0801294652
H  H43  1  0.85310000  0.91150000  0.07620000  1.0 0.0801294652
H  H44  1  0.91150000  0.85310000  0.42380000  1.0 0.0801294652
H  H45  1  0.24140000  0.22840000  0.89150000  1.0 0.0801294652
H  H46  1  0.22840000  0.24140000  0.60850000  1.0 0.0801294652
H  H47  1  0.75860000  0.77160000  0.10850000  1.0 0.0801294652
H  H48  1  0.77160000  0.75860000  0.39150000  1.0 0.0801294652
H  H49  1  0.36550000  0.14590000  0.46680000  1.0 0.0801294652
H  H50  1  0.14590000  0.36550000  0.03320000  1.0 0.0801294652
H  H51  1  0.63450000  0.85410000  0.53320000  1.0 0.0801294652
H  H52  1  0.85410000  0.63450000  0.96680000  1.0 0.0801294652
H  H53  1  0.41540000  0.06200000  0.48960000  1.0 0.0609163645
H  H54  1  0.06200000  0.41540000  0.01040000  1.0 0.0609163645
H  H55  1  0.58460000  0.93800000  0.51040000  1.0 0.0609163645
H  H56  1  0.93800000  0.58460000  0.98960000  1.0 0.0609163645
H  H57  1  0.28460000  0.00200000  0.49910000  1.0 0.0801294652
H  H58  1  0.00200000  0.28460000  0.00090000  1.0 0.0801294652
H  H59  1  0.71540000  0.99800000  0.50090000  1.0 0.0801294652
H  H60  1  0.99800000  0.71540000  0.99910000  1.0 0.0801294652
H  H61  1  0.37610000  0.73950000  0.63640000  1.0 0.0881235561
H  H62  1  0.73950000  0.37610000  0.86360000  1.0 0.0881235561
H  H63  1  0.62390000  0.26050000  0.36360000  1.0 0.0881235561
H  H64  1  0.26050000  0.62390000  0.13640000  1.0 0.0881235561
H  H65  1  0.31840000  0.82100000  0.57510000  1.0 0.0697269454
H  H66  1  0.82100000  0.31840000  0.92490000  1.0 0.0697269454
H  H67  1  0.68160000  0.17900000  0.42490000  1.0 0.0697269454
H  H68  1  0.17900000  0.68160000  0.07510000  1.0 0.0697269454
H  H69  1  0.45070000  0.86390000  0.57810000  1.0 0.0697269454
H  H70  1  0.86390000  0.45070000  0.92190000  1.0 0.0697269454
H  H71  1  0.54930000  0.13610000  0.42190000  1.0 0.0697269454
H  H72  1  0.13610000  0.54930000  0.07810000  1.0 0.0697269454
C  C1  1  0.44930000  0.29370000  0.56180000  1.0 0.5855344016
C  C2  1  0.29370000  0.44930000  0.93820000  1.0 0.5855344016
C  C3  1  0.55070000  0.70630000  0.43820000  1.0 0.5855344016
C  C4  1  0.70630000  0.55070000  0.06180000  1.0 0.5855344016
C  C5  1  0.45530000  0.17970000  0.60690000  1.0 -0.1322687227
C  C6  1  0.17970000  0.45530000  0.89310000  1.0 -0.1322687227
C  C7  1  0.54470000  0.82030000  0.39310000  1.0 -0.1322687227
C  C8  1  0.82030000  0.54470000  0.10690000  1.0 -0.1322687227
C  C9  1  0.44240000  0.99180000  0.62750000  1.0 -0.0906034436
C  C10  1  0.99180000  0.44240000  0.87250000  1.0 -0.0906034436
C  C11  1  0.55760000  0.00820000  0.37250000  1.0 -0.0906034436
C  C12  1  0.00820000  0.55760000  0.12750000  1.0 -0.0906034436
C  C13  1  0.48920000  0.02200000  0.69640000  1.0 -0.0051157443
C  C14  1  0.02200000  0.48920000  0.80360000  1.0 -0.0051157443
C  C15  1  0.51080000  0.97800000  0.30360000  1.0 -0.0044153823
C  C16  1  0.97800000  0.51080000  0.19640000  1.0 -0.0044153823
C  C17  1  0.49610000  0.84630000  0.74410000  1.0 -0.1237059809
C  C18  1  0.84630000  0.49610000  0.75590000  1.0 -0.1237059809
C  C19  1  0.50390000  0.15370000  0.25590000  1.0 -0.1237059809
C  C20  1  0.15370000  0.50390000  0.24410000  1.0 -0.1237059809
C  C21  1  0.51110000  0.73810000  0.78870000  1.0 0.4984014112
C  C22  1  0.73810000  0.51110000  0.71130000  1.0 0.4984014112
C  C23  1  0.48890000  0.26190000  0.21130000  1.0 0.4984014112
C  C24  1  0.26190000  0.48890000  0.28870000  1.0 0.4984014112
C  C25  1  0.72390000  0.72390000  0.75000000  1.0 0.5710707683
C  C26  1  0.27610000  0.27610000  0.25000000  1.0 0.5710707683
C  C27  1  0.84250000  0.84250000  0.75000000  1.0 -0.1485057395
C  C28  1  0.15750000  0.15750000  0.25000000  1.0 -0.1485057395
C  C29  1  0.02600000  0.02640000  0.77860000  1.0 -0.0962198149
C  C30  1  0.02640000  0.02600000  0.72140000  1.0 -0.0962198149
C  C31  1  0.97400000  0.97360000  0.22140000  1.0 -0.0962198149
C  C32  1  0.97360000  0.97400000  0.27860000  1.0 -0.0962198149
C  C33  1  0.02830000  0.02630000  0.70940000  1.0 -0.1322687227
C  C34  1  0.02630000  0.02830000  0.79060000  1.0 -0.1322687227
C  C35  1  0.97170000  0.97370000  0.29060000  1.0 -0.1322687227
C  C36  1  0.97370000  0.97170000  0.20940000  1.0 -0.1322687227
C  C37  1  0.53520000  0.18240000  0.75010000  1.0 -0.1953464669
C  C38  1  0.18240000  0.53520000  0.74990000  1.0 -0.1953464669
C  C39  1  0.46480000  0.81760000  0.24990000  1.0 -0.1953464669
C  C40  1  0.81760000  0.46480000  0.25010000  1.0 -0.1953464669
C  C41  1  0.58780000  0.95360000  0.84860000  1.0 -0.2201207873
C  C42  1  0.95360000  0.58780000  0.65140000  1.0 -0.2201207873
C  C43  1  0.41220000  0.04640000  0.15140000  1.0 -0.2201207873
C  C44  1  0.04640000  0.41220000  0.34860000  1.0 -0.2201207873
C  C45  1  0.88960000  0.88940000  0.87830000  1.0 -0.212282769
C  C46  1  0.88940000  0.88960000  0.62170000  1.0 -0.212282769
C  C47  1  0.11040000  0.11060000  0.12170000  1.0 -0.212282769
C  C48  1  0.11060000  0.11040000  0.37830000  1.0 -0.212282769
C  C49  1  0.15800000  0.16040000  0.87950000  1.0 -0.2201207873
C  C50  1  0.16040000  0.15800000  0.62050000  1.0 -0.2201207873
C  C51  1  0.84200000  0.83960000  0.12050000  1.0 -0.2201207873
C  C52  1  0.83960000  0.84200000  0.37950000  1.0 -0.2201207873
C  C53  1  0.49470000  0.12730000  0.68400000  1.0 0.0093727646
C  C54  1  0.12730000  0.49470000  0.81600000  1.0 0.0093727646
C  C55  1  0.50530000  0.87270000  0.31600000  1.0 0.0093727646
C  C56  1  0.87270000  0.50530000  0.18400000  1.0 0.0093727646
C  C57  1  0.52250000  0.93590000  0.76410000  1.0 0.0308452182
C  C58  1  0.93590000  0.52250000  0.73590000  1.0 0.0308452182
C  C59  1  0.47750000  0.06410000  0.23590000  1.0 0.0308452182
C  C60  1  0.06410000  0.47750000  0.26410000  1.0 0.0308452182
C  C61  1  0.33080000  0.33080000  0.75000000  1.0 0.600388952
C  C62  1  0.66920000  0.66920000  0.25000000  1.0 0.600388952
C  C63  1  0.92020000  0.91820000  0.80300000  1.0 0.0475513771
C  C64  1  0.91820000  0.92020000  0.69700000  1.0 0.0475513771
C  C65  1  0.07980000  0.08180000  0.19700000  1.0 0.0475513771
C  C66  1  0.08180000  0.07980000  0.30300000  1.0 0.0475513771
C  C67  1  0.13320000  0.13300000  0.80360000  1.0 0.0443618115
C  C68  1  0.13300000  0.13320000  0.69640000  1.0 0.0443618115
C  C69  1  0.86680000  0.86700000  0.19640000  1.0 0.0475513771
C  C70  1  0.86700000  0.86680000  0.30360000  1.0 0.0475513771
C  C71  1  0.21030000  0.21030000  0.75000000  1.0 -0.1383484896
C  C72  1  0.78970000  0.78970000  0.25000000  1.0 -0.1383484896
C  C73  1  0.45980000  0.00200000  0.65870000  1.0 0.0093727646
C  C74  1  0.00200000  0.45980000  0.84130000  1.0 0.0093727646
C  C75  1  0.54020000  0.99800000  0.34130000  1.0 0.0093727646
C  C76  1  0.99800000  0.54020000  0.15870000  1.0 0.0093727646
C  C77  1  0.51000000  0.03560000  0.72540000  1.0 -0.0906034436
C  C78  1  0.03560000  0.51000000  0.77460000  1.0 -0.0842554417
C  C79  1  0.49000000  0.96440000  0.27460000  1.0 -0.0842554417
C  C80  1  0.96440000  0.49000000  0.22540000  1.0 -0.0842554417
C  C81  1  0.36750000  0.07290000  0.50320000  1.0 -0.2362670821
C  C82  1  0.07290000  0.36750000  0.99680000  1.0 -0.2362670821
C  C83  1  0.63250000  0.92710000  0.49680000  1.0 -0.2362670821
C  C84  1  0.92710000  0.63250000  0.00320000  1.0 -0.2362670821
C  C85  1  0.39370000  0.82270000  0.60960000  1.0 -0.1946601641
C  C86  1  0.82270000  0.39370000  0.89040000  1.0 -0.1946601641
C  C87  1  0.60630000  0.17730000  0.39040000  1.0 -0.1946601641
C  C88  1  0.17730000  0.60630000  0.10960000  1.0 -0.1946601641
C  C89  1  0.42500000  0.08620000  0.58720000  1.0 0.0308452182
C  C90  1  0.08620000  0.42500000  0.91280000  1.0 0.0308452182
C  C91  1  0.57500000  0.91380000  0.41280000  1.0 0.0308452182
C  C92  1  0.91380000  0.57500000  0.08720000  1.0 0.0308452182
C  C93  1  0.45050000  0.89150000  0.67120000  1.0 0.0093727646
C  C94  1  0.89150000  0.45050000  0.82880000  1.0 0.0093727646
C  C95  1  0.54950000  0.10850000  0.32880000  1.0 0.0093727646
C  C96  1  0.10850000  0.54950000  0.17120000  1.0 0.0093727646
S  S1  1  0.90078000  0.90342000  0.66950000  1.0 0.1552728939
S  S2  1  0.90342000  0.90078000  0.83050000  1.0 0.1533102223
S  S3  1  0.09922000  0.09658000  0.33050000  1.0 0.1533102223
S  S4  1  0.09658000  0.09922000  0.16950000  1.0 0.1533102223
S  S5  1  0.15780000  0.15100000  0.67490000  1.0 0.1710950214
S  S6  1  0.15100000  0.15780000  0.82510000  1.0 0.1710950214
S  S7  1  0.84220000  0.84900000  0.32510000  1.0 0.1754002575
S  S8  1  0.84900000  0.84220000  0.17490000  1.0 0.1754002575
S  S9  1  0.40691000  0.09209000  0.54250000  1.0 0.0801294652
S  S10  1  0.09209000  0.40691000  0.95750000  1.0 0.0801294652
S  S11  1  0.59309000  0.90791000  0.45750000  1.0 0.0801294652
S  S12  1  0.90791000  0.59309000  0.04250000  1.0 0.0801294652
S  S13  1  0.43082000  0.85878000  0.63740000  1.0 0.0609163645
S  S14  1  0.85878000  0.43082000  0.86260000  1.0 0.0609163645
S  S15  1  0.56918000  0.14122000  0.36260000  1.0 0.0609163645
S  S16  1  0.14122000  0.56918000  0.13740000  1.0 0.0609163645
S  S17  1  0.52136000  0.16944000  0.71270000  1.0 0.0697269454
S  S18  1  0.16944000  0.52136000  0.78730000  1.0 0.0697269454
S  S19  1  0.47864000  0.83056000  0.28730000  1.0 0.0697269454
S  S20  1  0.83056000  0.47864000  0.21270000  1.0 0.0697269454
S  S21  1  0.55012000  0.93808000  0.80910000  1.0 0.0609163645
S  S22  1  0.93808000  0.55012000  0.69090000  1.0 0.0609163645
S  S23  1  0.44988000  0.06192000  0.19090000  1.0 0.0609163645
S  S24  1  0.06192000  0.44988000  0.30910000  1.0 0.0609163645
O  O1  1  0.48370000  0.36210000  0.60150000  1.0 -0.6613387834
O  O2  1  0.36210000  0.48370000  0.89850000  1.0 -0.6613387834
O  O3  1  0.51630000  0.63790000  0.39850000  1.0 -0.6613387834
O  O4  1  0.63790000  0.51630000  0.10150000  1.0 -0.6613387834
O  O5  1  0.41300000  0.31420000  0.48790000  1.0 -0.6403743249
O  O6  1  0.31420000  0.41300000  0.01210000  1.0 -0.6403743249
O  O7  1  0.58700000  0.68580000  0.51210000  1.0 -0.6403743249
O  O8  1  0.68580000  0.58700000  0.98790000  1.0 -0.6403743249
O  O9  1  0.56640000  0.72460000  0.86280000  1.0 -0.5605950576
O  O10  1  0.72460000  0.56640000  0.63720000  1.0 -0.5605950576
O  O11  1  0.43360000  0.27540000  0.13720000  1.0 -0.5605950576
O  O12  1  0.27540000  0.43360000  0.36280000  1.0 -0.5605950576
O  O13  1  0.46560000  0.65960000  0.75210000  1.0 -0.5706603151
O  O14  1  0.65960000  0.46560000  0.74790000  1.0 -0.5706603151
O  O15  1  0.53440000  0.34040000  0.24790000  1.0 -0.5706603151
O  O16  1  0.34040000  0.53440000  0.25210000  1.0 -0.5706603151
O  O17  1  0.66260000  0.69340000  0.68510000  1.0 -0.6488792967
O  O18  1  0.69340000  0.66260000  0.81490000  1.0 -0.6488792967
O  O19  1  0.33740000  0.30660000  0.31490000  1.0 -0.6488792967
O  O20  1  0.30660000  0.33740000  0.18510000  1.0 -0.6488792967
O  O21  1  0.38720000  0.36400000  0.70240000  1.0 -0.6898041886
O  O22  1  0.36400000  0.38720000  0.79760000  1.0 -0.6898041886
O  O23  1  0.61280000  0.63600000  0.29760000  1.0 -0.6898041886
O  O24  1  0.63600000  0.61280000  0.20240000  1.0 -0.6898041886
