# DDEC6 charges by PACMAN v1.1 (https://github.com/mtap-research/PACMAN-charge/)
data_OSUPID_ASR_pacman
_symmetry_space_group_name_H-M   'P 1'
_cell_length_a   14.52100000
_cell_length_b   14.52100000
_cell_length_c   19.60850000
_cell_angle_alpha   60.44690000
_cell_angle_beta   119.55300000
_cell_angle_gamma   129.99500000
_symmetry_Int_Tables_number   1
_chemical_formula_structural   ErH20C22S6O7
_chemical_formula_sum   'Er4 H80 C88 S24 O28'
_cell_volume   2657.37158387
_cell_formula_units_Z   4
loop_
 _symmetry_equiv_pos_site_id
 _symmetry_equiv_pos_as_xyz
  1  'x, y, z'
loop_
 _atom_site_type_symbol
 _atom_site_label
 _atom_site_symmetry_multiplicity
 _atom_site_fract_x
 _atom_site_fract_y
 _atom_site_fract_z
 _atom_site_occupancy
 _atom_site_charge
Er  Er1  1  0.47606000  0.47478000  0.87401000  1.0 2.0342772268
Er  Er2  1  0.47478000  0.47606000  0.62599000  1.0 2.0342772268
Er  Er3  1  0.52394000  0.52522000  0.12599000  1.0 2.0342772268
Er  Er4  1  0.52522000  0.52394000  0.37401000  1.0 2.0342772268
H  H1  1  0.55400000  0.32380000  0.87910000  1.0 0.2681547962
H  H2  1  0.32380000  0.55400000  0.62090000  1.0 0.2681547962
H  H3  1  0.44600000  0.67620000  0.12090000  1.0 0.2681547962
H  H4  1  0.67620000  0.44600000  0.37910000  1.0 0.2681547962
H  H5  1  0.59560000  0.43640000  0.84250000  1.0 0.2630836629
H  H6  1  0.43640000  0.59560000  0.65750000  1.0 0.2630836629
H  H7  1  0.40440000  0.56360000  0.15750000  1.0 0.2630836629
H  H8  1  0.56360000  0.40440000  0.34250000  1.0 0.2630836629
H  H9  1  0.72200000  0.96660000  0.00320000  1.0 0.0709089495
H  H10  1  0.96660000  0.72200000  0.49680000  1.0 0.0709089495
H  H11  1  0.27800000  0.03340000  0.99680000  1.0 0.0709089495
H  H12  1  0.03340000  0.27800000  0.50320000  1.0 0.0709089495
H  H13  1  0.61300000  0.96660000  0.00140000  1.0 0.0709089495
H  H14  1  0.96660000  0.61300000  0.49860000  1.0 0.0709089495
H  H15  1  0.38700000  0.03340000  0.99860000  1.0 0.0709089495
H  H16  1  0.03340000  0.38700000  0.50140000  1.0 0.0709089495
H  H17  1  0.60610000  0.84070000  0.03200000  1.0 0.07802193
H  H18  1  0.84070000  0.60610000  0.46800000  1.0 0.07802193
H  H19  1  0.39390000  0.15930000  0.96800000  1.0 0.07802193
H  H20  1  0.15930000  0.39390000  0.53200000  1.0 0.07802193
H  H21  1  0.55310000  0.14370000  0.91760000  1.0 0.0709089495
H  H22  1  0.14370000  0.55310000  0.58240000  1.0 0.0709089495
H  H23  1  0.44690000  0.85630000  0.08240000  1.0 0.0709089495
H  H24  1  0.85630000  0.44690000  0.41760000  1.0 0.0709089495
H  H25  1  0.67320000  0.14760000  0.93540000  1.0 0.0709089495
H  H26  1  0.14760000  0.67320000  0.56460000  1.0 0.0709089495
H  H27  1  0.32680000  0.85240000  0.06460000  1.0 0.0709089495
H  H28  1  0.85240000  0.32680000  0.43540000  1.0 0.0709089495
H  H29  1  0.65540000  0.25860000  0.87150000  1.0 0.07802193
H  H30  1  0.25860000  0.65540000  0.62850000  1.0 0.07802193
H  H31  1  0.34460000  0.74140000  0.12850000  1.0 0.07802193
H  H32  1  0.74140000  0.34460000  0.37150000  1.0 0.07802193
H  H33  1  0.20450000  0.18070000  0.62850000  1.0 0.0972626139
H  H34  1  0.18070000  0.20450000  0.87150000  1.0 0.0972626139
H  H35  1  0.79550000  0.81930000  0.37150000  1.0 0.0972626139
H  H36  1  0.81930000  0.79550000  0.12850000  1.0 0.0972626139
H  H37  1  0.13810000  0.03710000  0.64300000  1.0 0.07802193
H  H38  1  0.03710000  0.13810000  0.85700000  1.0 0.07802193
H  H39  1  0.86190000  0.96290000  0.35700000  1.0 0.07802193
H  H40  1  0.96290000  0.86190000  0.14300000  1.0 0.07802193
H  H41  1  0.06470000  0.10450000  0.58200000  1.0 0.0709089495
H  H42  1  0.10450000  0.06470000  0.91800000  1.0 0.0709089495
H  H43  1  0.93530000  0.89550000  0.41800000  1.0 0.0709089495
H  H44  1  0.89550000  0.93530000  0.08200000  1.0 0.0709089495
H  H45  1  0.85190000  0.89390000  0.57930000  1.0 0.0972626139
H  H46  1  0.89390000  0.85190000  0.92070000  1.0 0.0972626139
H  H47  1  0.14810000  0.10610000  0.42070000  1.0 0.0972626139
H  H48  1  0.10610000  0.14810000  0.07930000  1.0 0.0972626139
H  H49  1  0.92330000  0.82410000  0.63920000  1.0 0.0903696828
H  H50  1  0.82410000  0.92330000  0.86080000  1.0 0.0903696828
H  H51  1  0.07670000  0.17590000  0.36080000  1.0 0.0903696828
H  H52  1  0.17590000  0.07670000  0.13920000  1.0 0.0903696828
H  H53  1  0.77800000  0.75080000  0.62070000  1.0 0.0972626139
H  H54  1  0.75080000  0.77800000  0.87930000  1.0 0.0972626139
H  H55  1  0.22200000  0.24920000  0.37930000  1.0 0.0972626139
H  H56  1  0.24920000  0.22200000  0.12070000  1.0 0.0972626139
H  H57  1  0.35000000  0.72500000  0.74180000  1.0 0.0709089495
H  H58  1  0.72500000  0.35000000  0.75820000  1.0 0.0709089495
H  H59  1  0.65000000  0.27500000  0.25820000  1.0 0.0709089495
H  H60  1  0.27500000  0.65000000  0.24180000  1.0 0.0709089495
H  H61  1  0.44520000  0.84700000  0.69280000  1.0 0.07802193
H  H62  1  0.84700000  0.44520000  0.80720000  1.0 0.07802193
H  H63  1  0.55480000  0.15300000  0.30720000  1.0 0.0709089495
H  H64  1  0.15300000  0.55480000  0.19280000  1.0 0.0709089495
H  H65  1  0.48080000  0.74900000  0.76020000  1.0 0.0972626139
H  H66  1  0.74900000  0.48080000  0.73980000  1.0 0.0972626139
H  H67  1  0.51920000  0.25100000  0.23980000  1.0 0.0972626139
H  H68  1  0.25100000  0.51920000  0.26020000  1.0 0.0972626139
H  H69  1  0.44060000  0.11760000  0.59900000  1.0 0.0972626139
H  H70  1  0.11760000  0.44060000  0.90100000  1.0 0.0972626139
H  H71  1  0.55940000  0.88240000  0.40100000  1.0 0.0972626139
H  H72  1  0.88240000  0.55940000  0.09900000  1.0 0.0972626139
H  H73  1  0.42610000  0.98650000  0.64080000  1.0 0.07802193
H  H74  1  0.98650000  0.42610000  0.85920000  1.0 0.07802193
H  H75  1  0.57390000  0.01350000  0.35920000  1.0 0.07802193
H  H76  1  0.01350000  0.57390000  0.14080000  1.0 0.07802193
H  H77  1  0.31950000  0.00110000  0.62660000  1.0 0.0709089495
H  H78  1  0.00110000  0.31950000  0.87340000  1.0 0.0709089495
H  H79  1  0.68050000  0.99890000  0.37340000  1.0 0.0709089495
H  H80  1  0.99890000  0.68050000  0.12660000  1.0 0.0709089495
C  C1  1  0.54590000  0.70070000  0.93790000  1.0 0.5493095063
C  C2  1  0.70070000  0.54590000  0.56210000  1.0 0.5493095063
C  C3  1  0.45410000  0.29930000  0.06210000  1.0 0.5493095063
C  C4  1  0.29930000  0.45410000  0.43790000  1.0 0.5493095063
C  C5  1  0.49050000  0.26210000  0.71270000  1.0 0.4713014774
C  C6  1  0.26210000  0.49050000  0.78730000  1.0 0.4713014774
C  C7  1  0.50950000  0.73790000  0.28730000  1.0 0.4713014774
C  C8  1  0.73790000  0.50950000  0.21270000  1.0 0.4713014774
C  C9  1  0.53910000  0.81290000  0.89070000  1.0 -0.0902335969
C  C10  1  0.81290000  0.53910000  0.60930000  1.0 -0.0902335969
C  C11  1  0.46090000  0.18710000  0.10930000  1.0 -0.0902335969
C  C12  1  0.18710000  0.46090000  0.39070000  1.0 -0.0902335969
C  C13  1  0.57250000  0.90830000  0.91260000  1.0 0.0386897065
C  C14  1  0.90830000  0.57250000  0.58740000  1.0 0.0386897065
C  C15  1  0.42750000  0.09170000  0.08740000  1.0 0.0386897065
C  C16  1  0.09170000  0.42750000  0.41260000  1.0 0.0386897065
C  C17  1  0.54470000  0.99910000  0.85250000  1.0 -0.1421350762
C  C18  1  0.99910000  0.54470000  0.64750000  1.0 -0.1421350762
C  C19  1  0.45530000  0.00090000  0.14750000  1.0 -0.1421350762
C  C20  1  0.00090000  0.45530000  0.35250000  1.0 -0.1421350762
C  C21  1  0.48720000  0.96440000  0.77820000  1.0 -0.2017855793
C  C22  1  0.96440000  0.48720000  0.72180000  1.0 -0.2017855793
C  C23  1  0.51280000  0.03560000  0.22180000  1.0 -0.2017855793
C  C24  1  0.03560000  0.51280000  0.27820000  1.0 -0.2017855793
C  C25  1  0.50180000  0.15460000  0.75290000  1.0 -0.0902335969
C  C26  1  0.15460000  0.50180000  0.74710000  1.0 -0.0902335969
C  C27  1  0.49820000  0.84540000  0.24710000  1.0 -0.0902335969
C  C28  1  0.84540000  0.49820000  0.25290000  1.0 -0.0902335969
C  C29  1  0.55260000  0.11060000  0.83200000  1.0 0.0224567019
C  C30  1  0.11060000  0.55260000  0.66800000  1.0 0.0224567019
C  C31  1  0.44740000  0.88940000  0.16800000  1.0 0.0224567019
C  C32  1  0.88940000  0.44740000  0.33200000  1.0 0.0224567019
C  C33  1  0.63340000  0.92160000  0.99410000  1.0 -0.177035747
C  C34  1  0.92160000  0.63340000  0.50590000  1.0 -0.177035747
C  C35  1  0.36660000  0.07840000  0.00590000  1.0 -0.177035747
C  C36  1  0.07840000  0.36660000  0.49410000  1.0 -0.177035747
C  C37  1  0.61350000  0.16990000  0.89410000  1.0 -0.177035747
C  C38  1  0.16990000  0.61350000  0.60590000  1.0 -0.177035747
C  C39  1  0.38650000  0.83010000  0.10590000  1.0 -0.177035747
C  C40  1  0.83010000  0.38650000  0.39410000  1.0 -0.177035747
C  C41  1  0.27830000  0.27830000  0.75000000  1.0 0.5493095063
C  C42  1  0.72170000  0.72170000  0.25000000  1.0 0.5446439647
C  C43  1  0.66680000  0.66680000  0.75000000  1.0 0.5111930631
C  C44  1  0.33320000  0.33320000  0.25000000  1.0 0.5111930631
C  C45  1  0.15840000  0.15840000  0.75000000  1.0 -0.1614299901
C  C46  1  0.84160000  0.84160000  0.25000000  1.0 -0.1614299901
C  C47  1  0.08910000  0.07690000  0.70160000  1.0 0.0588768702
C  C48  1  0.07690000  0.08910000  0.79840000  1.0 0.0588768702
C  C49  1  0.91090000  0.92310000  0.29840000  1.0 0.0588768702
C  C50  1  0.92310000  0.91090000  0.20160000  1.0 0.0588768702
C  C51  1  0.97500000  0.96700000  0.71400000  1.0 -0.1178208962
C  C52  1  0.96700000  0.97500000  0.78600000  1.0 -0.1178208962
C  C53  1  0.02500000  0.03300000  0.28600000  1.0 -0.1178208962
C  C54  1  0.03300000  0.02500000  0.21400000  1.0 -0.1178208962
C  C55  1  0.96900000  0.97500000  0.78100000  1.0 -0.1178208962
C  C56  1  0.97500000  0.96900000  0.71900000  1.0 -0.1178208962
C  C57  1  0.03100000  0.02500000  0.21900000  1.0 -0.1178208962
C  C58  1  0.02500000  0.03100000  0.28100000  1.0 -0.1178208962
C  C59  1  0.78680000  0.78680000  0.75000000  1.0 -0.1460885368
C  C60  1  0.21320000  0.21320000  0.25000000  1.0 -0.1460885368
C  C61  1  0.86400000  0.85600000  0.69800000  1.0 0.0534916483
C  C62  1  0.85600000  0.86400000  0.80200000  1.0 0.0534916483
C  C63  1  0.13600000  0.14400000  0.30200000  1.0 0.0534916483
C  C64  1  0.14400000  0.13600000  0.19800000  1.0 0.0534916483
C  C65  1  0.12710000  0.10190000  0.63230000  1.0 -0.216978509
C  C66  1  0.10190000  0.12710000  0.86770000  1.0 -0.216978509
C  C67  1  0.87290000  0.89810000  0.36770000  1.0 -0.2149333544
C  C68  1  0.89810000  0.87290000  0.13230000  1.0 -0.2149333544
C  C69  1  0.85400000  0.82900000  0.62800000  1.0 -0.216978509
C  C70  1  0.82900000  0.85400000  0.87200000  1.0 -0.216978509
C  C71  1  0.14600000  0.17100000  0.37200000  1.0 -0.216978509
C  C72  1  0.17100000  0.14600000  0.12800000  1.0 -0.216978509
C  C73  1  0.48900000  0.85300000  0.80700000  1.0 0.0588768702
C  C74  1  0.85300000  0.48900000  0.69300000  1.0 0.0588768702
C  C75  1  0.51100000  0.14700000  0.19300000  1.0 0.0588768702
C  C76  1  0.14700000  0.51100000  0.30700000  1.0 0.0588768702
C  C77  1  0.46700000  0.06500000  0.72100000  1.0 0.0588768702
C  C78  1  0.06500000  0.46700000  0.77900000  1.0 0.0588768702
C  C79  1  0.53300000  0.93500000  0.27900000  1.0 0.0588768702
C  C80  1  0.93500000  0.53300000  0.22100000  1.0 0.0588768702
C  C81  1  0.43650000  0.78750000  0.74500000  1.0 -0.216978509
C  C82  1  0.78750000  0.43650000  0.75500000  1.0 -0.216978509
C  C83  1  0.56350000  0.21250000  0.25500000  1.0 -0.216978509
C  C84  1  0.21250000  0.56350000  0.24500000  1.0 -0.216978509
C  C85  1  0.40780000  0.04020000  0.64000000  1.0 -0.216978509
C  C86  1  0.04020000  0.40780000  0.86000000  1.0 -0.2149333544
C  C87  1  0.59220000  0.95980000  0.36000000  1.0 -0.2149333544
C  C88  1  0.95980000  0.59220000  0.14000000  1.0 -0.216978509
S  S1  1  0.46600000  0.82780000  0.78320000  1.0 0.1176960003
S  S2  1  0.82780000  0.46600000  0.71680000  1.0 0.1176960003
S  S3  1  0.53400000  0.17220000  0.21680000  1.0 0.1176960003
S  S4  1  0.17220000  0.53400000  0.28320000  1.0 0.1176960003
S  S5  1  0.43460000  0.05860000  0.69010000  1.0 0.1176960003
S  S6  1  0.05860000  0.43460000  0.80990000  1.0 0.1176960003
S  S7  1  0.56540000  0.94140000  0.30990000  1.0 0.1176960003
S  S8  1  0.94140000  0.56540000  0.19010000  1.0 0.1176960003
S  S9  1  0.09010000  0.10130000  0.82410000  1.0 0.1711988487
S  S10  1  0.10130000  0.09010000  0.67590000  1.0 0.1711988487
S  S11  1  0.90990000  0.89870000  0.17590000  1.0 0.1755347215
S  S12  1  0.89870000  0.90990000  0.32410000  1.0 0.1755347215
S  S13  1  0.83250000  0.85270000  0.81570000  1.0 0.2250278257
S  S14  1  0.85270000  0.83250000  0.68430000  1.0 0.2250278257
S  S15  1  0.16750000  0.14730000  0.18430000  1.0 0.2243403308
S  S16  1  0.14730000  0.16750000  0.31570000  1.0 0.2243403308
S  S17  1  0.59670000  0.90410000  0.95750000  1.0 0.0588768702
S  S18  1  0.90410000  0.59670000  0.54250000  1.0 0.0588768702
S  S19  1  0.40330000  0.09590000  0.04250000  1.0 0.0588768702
S  S20  1  0.09590000  0.40330000  0.45750000  1.0 0.0588768702
S  S21  1  0.57430000  0.13810000  0.86360000  1.0 0.0588768702
S  S22  1  0.13810000  0.57430000  0.63640000  1.0 0.0588768702
S  S23  1  0.42570000  0.86190000  0.13640000  1.0 0.0588768702
S  S24  1  0.86190000  0.42570000  0.36360000  1.0 0.0588768702
O  O1  1  0.51602000  0.63798000  0.89700000  1.0 -0.6489090658
O  O2  1  0.63798000  0.51602000  0.60300000  1.0 -0.6489090658
O  O3  1  0.48398000  0.36202000  0.10300000  1.0 -0.6489090658
O  O4  1  0.36202000  0.48398000  0.39700000  1.0 -0.6489090658
O  O5  1  0.57906000  0.67594000  0.01210000  1.0 -0.6258043833
O  O6  1  0.67594000  0.57906000  0.48790000  1.0 -0.6258043833
O  O7  1  0.42094000  0.32406000  0.98790000  1.0 -0.6258043833
O  O8  1  0.32406000  0.42094000  0.51210000  1.0 -0.6258043833
O  O9  1  0.53952000  0.34108000  0.74880000  1.0 -0.5847093083
O  O10  1  0.34108000  0.53952000  0.75120000  1.0 -0.5847093083
O  O11  1  0.46048000  0.65892000  0.25120000  1.0 -0.5847093083
O  O12  1  0.65892000  0.46048000  0.24880000  1.0 -0.5847093083
O  O13  1  0.43395000  0.27845000  0.63790000  1.0 -0.5858780481
O  O14  1  0.27845000  0.43395000  0.86210000  1.0 -0.5858780481
O  O15  1  0.56605000  0.72155000  0.36210000  1.0 -0.5858780481
O  O16  1  0.72155000  0.56605000  0.13790000  1.0 -0.5847093083
O  O17  1  0.33510000  0.31530000  0.81270000  1.0 -0.6195758916
O  O18  1  0.31530000  0.33510000  0.68730000  1.0 -0.6195758916
O  O19  1  0.66490000  0.68470000  0.18730000  1.0 -0.6195758916
O  O20  1  0.68470000  0.66490000  0.31270000  1.0 -0.6195758916
O  O21  1  0.60830000  0.63250000  0.79510000  1.0 -0.6389889456
O  O22  1  0.63250000  0.60830000  0.70490000  1.0 -0.6389889456
O  O23  1  0.39170000  0.36750000  0.20490000  1.0 -0.6389889456
O  O24  1  0.36750000  0.39170000  0.29510000  1.0 -0.6389889456
O  O25  1  0.58380000  0.39020000  0.88940000  1.0 -0.7799726613
O  O26  1  0.39020000  0.58380000  0.61060000  1.0 -0.7799726613
O  O27  1  0.41620000  0.60980000  0.11060000  1.0 -0.7799726613
O  O28  1  0.60980000  0.41620000  0.38940000  1.0 -0.7799726613
