# DDEC6 charges by PACMAN v1.1 (https://github.com/mtap-research/PACMAN-charge/)
data_OSUPUP_ASR_pacman
_symmetry_space_group_name_H-M   'P 1'
_cell_length_a   14.36130000
_cell_length_b   14.36130000
_cell_length_c   19.42940000
_cell_angle_alpha   61.81690000
_cell_angle_beta   118.18300000
_cell_angle_gamma   129.09700000
_symmetry_Int_Tables_number   1
_chemical_formula_structural   TbH18C24(SO)6
_chemical_formula_sum   'Tb4 H72 C96 S24 O24'
_cell_volume   2650.60957629
_cell_formula_units_Z   4
loop_
 _symmetry_equiv_pos_site_id
 _symmetry_equiv_pos_as_xyz
  1  'x, y, z'
loop_
 _atom_site_type_symbol
 _atom_site_label
 _atom_site_symmetry_multiplicity
 _atom_site_fract_x
 _atom_site_fract_y
 _atom_site_fract_z
 _atom_site_occupancy
 _atom_site_charge
Tb  Tb1  1  0.02892000  0.02320000  0.87528000  1.0 2.0161487892
Tb  Tb2  1  0.02320000  0.02892000  0.62472000  1.0 2.0161487892
Tb  Tb3  1  0.97108000  0.97680000  0.12472000  1.0 2.0161487892
Tb  Tb4  1  0.97680000  0.97108000  0.37528000  1.0 2.0161487892
H  H1  1  0.11600000  0.39860000  0.88220000  1.0 0.0792182711
H  H2  1  0.39860000  0.11600000  0.61780000  1.0 0.0792182711
H  H3  1  0.88400000  0.60140000  0.11780000  1.0 0.0792182711
H  H4  1  0.60140000  0.88400000  0.38220000  1.0 0.0792182711
H  H5  1  0.15450000  0.53810000  0.84760000  1.0 0.0708239111
H  H6  1  0.53810000  0.15450000  0.65240000  1.0 0.0708239111
H  H7  1  0.84550000  0.46190000  0.15240000  1.0 0.0708239111
H  H8  1  0.46190000  0.84550000  0.34760000  1.0 0.0708239111
H  H9  1  0.02740000  0.43640000  0.87070000  1.0 0.0708239111
H  H10  1  0.43640000  0.02740000  0.62930000  1.0 0.0708239111
H  H11  1  0.97260000  0.56360000  0.12930000  1.0 0.0708239111
H  H12  1  0.56360000  0.97260000  0.37070000  1.0 0.0708239111
H  H13  1  0.00480000  0.73700000  0.73370000  1.0 0.0904850274
H  H14  1  0.73700000  0.00480000  0.76630000  1.0 0.0904850274
H  H15  1  0.99520000  0.26300000  0.26630000  1.0 0.0904850274
H  H16  1  0.26300000  0.99520000  0.23370000  1.0 0.0904850274
H  H17  1  0.00470000  0.61810000  0.79760000  1.0 0.0792182711
H  H18  1  0.61810000  0.00470000  0.70240000  1.0 0.0792182711
H  H19  1  0.99530000  0.38190000  0.20240000  1.0 0.0792182711
H  H20  1  0.38190000  0.99530000  0.29760000  1.0 0.0792182711
H  H21  1  0.12520000  0.73200000  0.76900000  1.0 0.0708239111
H  H22  1  0.73200000  0.12520000  0.73100000  1.0 0.0708239111
H  H23  1  0.87480000  0.26800000  0.23100000  1.0 0.0708239111
H  H24  1  0.26800000  0.87480000  0.26900000  1.0 0.0708239111
H  H25  1  0.33820000  0.42140000  0.57650000  1.0 0.0792182711
H  H26  1  0.42140000  0.33820000  0.92350000  1.0 0.0792182711
H  H27  1  0.66180000  0.57860000  0.42350000  1.0 0.0792182711
H  H28  1  0.57860000  0.66180000  0.07650000  1.0 0.0792182711
H  H29  1  0.46400000  0.42700000  0.60860000  1.0 0.0708239111
H  H30  1  0.42700000  0.46400000  0.89140000  1.0 0.0708239111
H  H31  1  0.53600000  0.57300000  0.39140000  1.0 0.0708239111
H  H32  1  0.57300000  0.53600000  0.10860000  1.0 0.0708239111
H  H33  1  0.34340000  0.30120000  0.62990000  1.0 0.0904850274
H  H34  1  0.30120000  0.34340000  0.87010000  1.0 0.0904850274
H  H35  1  0.65660000  0.69880000  0.37010000  1.0 0.0904850274
H  H36  1  0.69880000  0.65660000  0.12990000  1.0 0.0904850274
H  H37  1  0.75190000  0.71430000  0.62610000  1.0 0.0792182711
H  H38  1  0.71430000  0.75190000  0.87390000  1.0 0.0792182711
H  H39  1  0.24810000  0.28570000  0.37390000  1.0 0.0792182711
H  H40  1  0.28570000  0.24810000  0.12610000  1.0 0.0792182711
H  H41  1  0.63900000  0.58080000  0.61750000  1.0 0.0708239111
H  H42  1  0.58080000  0.63900000  0.88250000  1.0 0.0708239111
H  H43  1  0.36100000  0.41920000  0.38250000  1.0 0.0708239111
H  H44  1  0.41920000  0.36100000  0.11750000  1.0 0.0708239111
H  H45  1  0.61980000  0.69340000  0.57490000  1.0 0.0904850274
H  H46  1  0.69340000  0.61980000  0.92510000  1.0 0.0904850274
H  H47  1  0.38020000  0.30660000  0.42510000  1.0 0.0904850274
H  H48  1  0.30660000  0.38020000  0.07490000  1.0 0.0904850274
H  H49  1  0.93240000  0.28220000  0.62130000  1.0 0.0792182711
H  H50  1  0.28220000  0.93240000  0.87870000  1.0 0.0792182711
H  H51  1  0.06760000  0.71780000  0.37870000  1.0 0.0792182711
H  H52  1  0.71780000  0.06760000  0.12130000  1.0 0.0792182711
H  H53  1  0.80710000  0.27170000  0.60120000  1.0 0.0792182711
H  H54  1  0.27170000  0.80710000  0.89880000  1.0 0.0792182711
H  H55  1  0.19290000  0.72830000  0.39880000  1.0 0.0792182711
H  H56  1  0.72830000  0.19290000  0.10120000  1.0 0.0792182711
H  H57  1  0.90900000  0.38820000  0.55580000  1.0 0.0622711018
H  H58  1  0.38820000  0.90900000  0.94420000  1.0 0.0622711018
H  H59  1  0.09100000  0.61180000  0.44420000  1.0 0.0622711018
H  H60  1  0.61180000  0.09100000  0.05580000  1.0 0.0622711018
H  H61  1  0.88600000  0.65200000  0.46490000  1.0 0.0708239111
H  H62  1  0.65200000  0.88600000  0.03510000  1.0 0.0708239111
H  H63  1  0.11400000  0.34800000  0.53510000  1.0 0.0708239111
H  H64  1  0.34800000  0.11400000  0.96490000  1.0 0.0708239111
H  H65  1  0.90250000  0.53970000  0.49510000  1.0 0.0622711018
H  H66  1  0.53970000  0.90250000  0.00490000  1.0 0.0622711018
H  H67  1  0.09750000  0.46030000  0.50490000  1.0 0.0622711018
H  H68  1  0.46030000  0.09750000  0.99510000  1.0 0.0622711018
H  H69  1  0.78000000  0.51700000  0.49440000  1.0 0.0792182711
H  H70  1  0.51700000  0.78000000  0.00560000  1.0 0.0792182711
H  H71  1  0.22000000  0.48300000  0.50560000  1.0 0.0792182711
H  H72  1  0.48300000  0.22000000  0.99440000  1.0 0.0792182711
C  C1  1  0.01230000  0.23830000  0.78930000  1.0 0.4964771554
C  C2  1  0.23830000  0.01230000  0.71070000  1.0 0.4964771554
C  C3  1  0.98770000  0.76170000  0.21070000  1.0 0.4964771554
C  C4  1  0.76170000  0.98770000  0.28930000  1.0 0.4964771554
C  C5  1  0.99780000  0.34660000  0.74480000  1.0 -0.1275732551
C  C6  1  0.34660000  0.99780000  0.75520000  1.0 -0.1275732551
C  C7  1  0.00220000  0.65340000  0.25520000  1.0 -0.1275732551
C  C8  1  0.65340000  0.00220000  0.24480000  1.0 -0.1275732551
C  C9  1  0.93920000  0.48780000  0.62680000  1.0 -0.0793274451
C  C10  1  0.48780000  0.93920000  0.87320000  1.0 -0.0793274451
C  C11  1  0.06080000  0.51220000  0.37320000  1.0 -0.0793274451
C  C12  1  0.51220000  0.06080000  0.12680000  1.0 -0.0793274451
C  C13  1  0.99100000  0.52160000  0.69700000  1.0 -0.0009401363
C  C14  1  0.52160000  0.99100000  0.80300000  1.0 -0.0009401363
C  C15  1  0.00900000  0.47840000  0.30300000  1.0 -0.0009401363
C  C16  1  0.47840000  0.00900000  0.19700000  1.0 -0.0009401363
C  C17  1  0.95600000  0.68180000  0.60650000  1.0 -0.1275732551
C  C18  1  0.68180000  0.95600000  0.89350000  1.0 -0.1275732551
C  C19  1  0.04400000  0.31820000  0.39350000  1.0 -0.1275732551
C  C20  1  0.31820000  0.04400000  0.10650000  1.0 -0.1275732551
C  C21  1  0.95050000  0.79550000  0.56230000  1.0 0.5786754523
C  C22  1  0.79550000  0.95050000  0.93770000  1.0 0.5786754523
C  C23  1  0.04950000  0.20450000  0.43770000  1.0 0.5786754523
C  C24  1  0.20450000  0.04950000  0.06230000  1.0 0.5786754523
C  C25  1  0.22280000  0.22280000  0.75000000  1.0 0.5786754523
C  C26  1  0.77720000  0.77720000  0.25000000  1.0 0.5786754523
C  C27  1  0.34350000  0.34350000  0.75000000  1.0 -0.1418689225
C  C28  1  0.65650000  0.65650000  0.25000000  1.0 -0.1418689225
C  C29  1  0.52480000  0.53120000  0.78990000  1.0 -0.1418689225
C  C30  1  0.53120000  0.52480000  0.71010000  1.0 -0.1418689225
C  C31  1  0.47520000  0.46880000  0.21010000  1.0 -0.1418689225
C  C32  1  0.46880000  0.47520000  0.28990000  1.0 -0.1418689225
C  C33  1  0.52590000  0.52710000  0.72140000  1.0 -0.0899677179
C  C34  1  0.52710000  0.52590000  0.77860000  1.0 -0.0899677179
C  C35  1  0.47410000  0.47290000  0.27860000  1.0 -0.0899677179
C  C36  1  0.47290000  0.47410000  0.22140000  1.0 -0.0899677179
C  C37  1  0.08610000  0.45410000  0.84890000  1.0 -0.2112546597
C  C38  1  0.45410000  0.08610000  0.65110000  1.0 -0.2112546597
C  C39  1  0.91390000  0.54590000  0.15110000  1.0 -0.2112546597
C  C40  1  0.54590000  0.91390000  0.34890000  1.0 -0.2112546597
C  C41  1  0.03630000  0.68430000  0.75260000  1.0 -0.2032980934
C  C42  1  0.68430000  0.03630000  0.74740000  1.0 -0.2032980934
C  C43  1  0.96370000  0.31570000  0.24740000  1.0 -0.2032980934
C  C44  1  0.31570000  0.96370000  0.25260000  1.0 -0.2032980934
C  C45  1  0.38800000  0.38960000  0.62090000  1.0 -0.2112546597
C  C46  1  0.38960000  0.38800000  0.87910000  1.0 -0.2112546597
C  C47  1  0.61200000  0.61040000  0.37910000  1.0 -0.2112546597
C  C48  1  0.61040000  0.61200000  0.12090000  1.0 -0.2112546597
C  C49  1  0.66440000  0.65800000  0.62190000  1.0 -0.2176246807
C  C50  1  0.65800000  0.66440000  0.87810000  1.0 -0.2176246807
C  C51  1  0.33560000  0.34200000  0.37810000  1.0 -0.2176246807
C  C52  1  0.34200000  0.33560000  0.12190000  1.0 -0.2176246807
C  C53  1  0.02330000  0.43650000  0.76360000  1.0 0.0223610922
C  C54  1  0.43650000  0.02330000  0.73640000  1.0 0.0223610922
C  C55  1  0.97670000  0.56350000  0.23640000  1.0 0.0223610922
C  C56  1  0.56350000  0.97670000  0.26360000  1.0 0.0223610922
C  C57  1  0.99420000  0.63000000  0.68390000  1.0 0.0223610922
C  C58  1  0.63000000  0.99420000  0.81610000  1.0 0.0223610922
C  C59  1  0.00580000  0.37000000  0.31610000  1.0 0.0223610922
C  C60  1  0.37000000  0.00580000  0.18390000  1.0 0.0223610922
C  C61  1  0.83140000  0.83140000  0.75000000  1.0 0.601312472
C  C62  1  0.16860000  0.16860000  0.25000000  1.0 0.601312472
C  C63  1  0.41710000  0.41910000  0.69610000  1.0 0.0527059179
C  C64  1  0.41910000  0.41710000  0.80390000  1.0 0.0527059179
C  C65  1  0.58290000  0.58090000  0.30390000  1.0 0.0527059179
C  C66  1  0.58090000  0.58290000  0.19610000  1.0 0.0527059179
C  C67  1  0.63690000  0.63490000  0.69710000  1.0 0.0527059179
C  C68  1  0.63490000  0.63690000  0.80290000  1.0 0.0527059179
C  C69  1  0.36310000  0.36510000  0.30290000  1.0 0.0527059179
C  C70  1  0.36510000  0.36310000  0.19710000  1.0 0.0527059179
C  C71  1  0.71180000  0.71180000  0.75000000  1.0 -0.1418689225
C  C72  1  0.28820000  0.28820000  0.25000000  1.0 -0.1418689225
C  C73  1  0.96090000  0.50430000  0.65740000  1.0 0.0036326129
C  C74  1  0.50430000  0.96090000  0.84260000  1.0 0.0036326129
C  C75  1  0.03910000  0.49570000  0.34260000  1.0 0.0036326129
C  C76  1  0.49570000  0.03910000  0.15740000  1.0 0.0036326129
C  C77  1  0.01250000  0.53890000  0.72660000  1.0 -0.0793274451
C  C78  1  0.53890000  0.01250000  0.77340000  1.0 -0.0793274451
C  C79  1  0.98750000  0.46110000  0.27340000  1.0 -0.0793274451
C  C80  1  0.46110000  0.98750000  0.22660000  1.0 -0.0793274451
C  C81  1  0.89480000  0.32780000  0.60640000  1.0 -0.1913459465
C  C82  1  0.32780000  0.89480000  0.89360000  1.0 -0.1913459465
C  C83  1  0.10520000  0.67220000  0.39360000  1.0 -0.1913459465
C  C84  1  0.67220000  0.10520000  0.10640000  1.0 -0.1913459465
C  C85  1  0.86820000  0.57280000  0.50280000  1.0 -0.226650016
C  C86  1  0.57280000  0.86820000  0.99720000  1.0 -0.226650016
C  C87  1  0.13180000  0.42720000  0.49720000  1.0 -0.226650016
C  C88  1  0.42720000  0.13180000  0.00280000  1.0 -0.2176246807
C  C89  1  0.95070000  0.39210000  0.67010000  1.0 0.0083274398
C  C90  1  0.39210000  0.95070000  0.82990000  1.0 0.0083274398
C  C91  1  0.04930000  0.60790000  0.32990000  1.0 0.0083274398
C  C92  1  0.60790000  0.04930000  0.17010000  1.0 0.0083274398
C  C93  1  0.92450000  0.58790000  0.58680000  1.0 0.0344298449
C  C94  1  0.58790000  0.92450000  0.91320000  1.0 0.0344298449
C  C95  1  0.07550000  0.41210000  0.41320000  1.0 0.0344298449
C  C96  1  0.41210000  0.07550000  0.08680000  1.0 0.0344298449
S  S1  1  0.40330000  0.40150000  0.83140000  1.0 0.1426810831
S  S2  1  0.40150000  0.40330000  0.66860000  1.0 0.1426810831
S  S3  1  0.59670000  0.59850000  0.16860000  1.0 0.1454567745
S  S4  1  0.59850000  0.59670000  0.33140000  1.0 0.1454567745
S  S5  1  0.65210000  0.65870000  0.82710000  1.0 0.1620074943
S  S6  1  0.65870000  0.65210000  0.67290000  1.0 0.1620074943
S  S7  1  0.34790000  0.34130000  0.17290000  1.0 0.1620074943
S  S8  1  0.34130000  0.34790000  0.32710000  1.0 0.1620074943
S  S9  1  0.93180000  0.35900000  0.63710000  1.0 0.0622711018
S  S10  1  0.35900000  0.93180000  0.86290000  1.0 0.0622711018
S  S11  1  0.06820000  0.64100000  0.36290000  1.0 0.0622711018
S  S12  1  0.64100000  0.06820000  0.13710000  1.0 0.0622711018
S  S13  1  0.90633000  0.59247000  0.54180000  1.0 0.0792182711
S  S14  1  0.59247000  0.90633000  0.95820000  1.0 0.0792182711
S  S15  1  0.09367000  0.40753000  0.45820000  1.0 0.0792182711
S  S16  1  0.40753000  0.09367000  0.04180000  1.0 0.0792182711
S  S17  1  0.05250000  0.44010000  0.80940000  1.0 0.0527059179
S  S18  1  0.44010000  0.05250000  0.69060000  1.0 0.0527059179
S  S19  1  0.94750000  0.55990000  0.19060000  1.0 0.0527059179
S  S20  1  0.55990000  0.94750000  0.30940000  1.0 0.0527059179
S  S21  1  0.02390000  0.67090000  0.71410000  1.0 0.0708239111
S  S22  1  0.67090000  0.02390000  0.78590000  1.0 0.0708239111
S  S23  1  0.97610000  0.32910000  0.28590000  1.0 0.0708239111
S  S24  1  0.32910000  0.97610000  0.21410000  1.0 0.0708239111
O  O1  1  0.06850000  0.22490000  0.86300000  1.0 -0.5514079198
O  O2  1  0.22490000  0.06850000  0.63700000  1.0 -0.5514079198
O  O3  1  0.93150000  0.77510000  0.13700000  1.0 -0.5514079198
O  O4  1  0.77510000  0.93150000  0.36300000  1.0 -0.5514079198
O  O5  1  0.96670000  0.15990000  0.75240000  1.0 -0.5695085987
O  O6  1  0.15990000  0.96670000  0.74760000  1.0 -0.5695085987
O  O7  1  0.03330000  0.84010000  0.24760000  1.0 -0.5695085987
O  O8  1  0.84010000  0.03330000  0.25240000  1.0 -0.5695085987
O  O9  1  0.98570000  0.86390000  0.60240000  1.0 -0.6502260048
O  O10  1  0.86390000  0.98570000  0.89760000  1.0 -0.6502260048
O  O11  1  0.01430000  0.13610000  0.39760000  1.0 -0.6502260048
O  O12  1  0.13610000  0.01430000  0.10240000  1.0 -0.6502260048
O  O13  1  0.91250000  0.81590000  0.48660000  1.0 -0.6606123612
O  O14  1  0.81590000  0.91250000  0.01340000  1.0 -0.6606123612
O  O15  1  0.08750000  0.18410000  0.51340000  1.0 -0.6606123612
O  O16  1  0.18410000  0.08750000  0.98660000  1.0 -0.6606123612
O  O17  1  0.19160000  0.16240000  0.81480000  1.0 -0.6502260048
O  O18  1  0.16240000  0.19160000  0.68520000  1.0 -0.644957082
O  O19  1  0.80840000  0.83760000  0.18520000  1.0 -0.6502260048
O  O20  1  0.83760000  0.80840000  0.31480000  1.0 -0.6502260048
O  O21  1  0.86650000  0.88930000  0.79820000  1.0 -0.696101071
O  O22  1  0.88930000  0.86650000  0.70180000  1.0 -0.696101071
O  O23  1  0.13350000  0.11070000  0.20180000  1.0 -0.696101071
O  O24  1  0.11070000  0.13350000  0.29820000  1.0 -0.696101071
