# DDEC6 charges by PACMAN v1.1 (https://github.com/mtap-research/PACMAN-charge/)
data_OSUWEF_ASR_pacman
_symmetry_space_group_name_H-M   'P 1'
_cell_length_a   24.70400000
_cell_length_b   5.70980000
_cell_length_c   26.33500000
_cell_angle_alpha   90.00000000
_cell_angle_beta   114.87000000
_cell_angle_gamma   90.00000000
_symmetry_Int_Tables_number   1
_chemical_formula_structural   Na2ZnH16C28(SO6)2
_chemical_formula_sum   'Na8 Zn4 H64 C112 S8 O48'
_cell_volume   3370.19741155
_cell_formula_units_Z   4
loop_
 _symmetry_equiv_pos_site_id
 _symmetry_equiv_pos_as_xyz
  1  'x, y, z'
loop_
 _atom_site_type_symbol
 _atom_site_label
 _atom_site_symmetry_multiplicity
 _atom_site_fract_x
 _atom_site_fract_y
 _atom_site_fract_z
 _atom_site_occupancy
 _atom_site_charge
Na  Na1  1  0.34984000  0.78370000  0.57498000  1.0 0.8696300892
Na  Na2  1  0.65016000  0.28370000  0.92502000  1.0 0.8696300892
Na  Na3  1  0.65016000  0.21630000  0.42502000  1.0 0.8696300892
Na  Na4  1  0.34984000  0.71630000  0.07498000  1.0 0.8696300892
Na  Na5  1  0.77080000  0.22090000  0.54749000  1.0 0.8696300892
Na  Na6  1  0.22920000  0.72090000  0.95251000  1.0 0.8696300892
Na  Na7  1  0.22920000  0.77910000  0.45251000  1.0 0.8696300892
Na  Na8  1  0.77080000  0.27910000  0.04749000  1.0 0.8696300892
Zn  Zn1  1  0.74277000  0.77640000  0.46011000  1.0 0.9422244934
Zn  Zn2  1  0.25723000  0.27640000  0.03989000  1.0 0.9422244934
Zn  Zn3  1  0.25723000  0.22360000  0.53989000  1.0 0.9422244934
Zn  Zn4  1  0.74277000  0.72360000  0.96011000  1.0 0.9422244934
H  H1  1  0.83620000  0.89650000  0.42480000  1.0 0.1297693712
H  H2  1  0.16380000  0.39650000  0.07520000  1.0 0.1297693712
H  H3  1  0.16380000  0.10350000  0.57520000  1.0 0.1297693712
H  H4  1  0.83620000  0.60350000  0.92480000  1.0 0.1297693712
H  H5  1  0.88480000  0.78600000  0.37170000  1.0 0.1202176901
H  H6  1  0.11520000  0.28600000  0.12830000  1.0 0.1202176901
H  H7  1  0.11520000  0.21400000  0.62830000  1.0 0.1202176901
H  H8  1  0.88480000  0.71400000  0.87170000  1.0 0.1202176901
H  H9  1  0.83130000  0.37780000  0.28160000  1.0 0.1297693712
H  H10  1  0.16870000  0.87780000  0.21840000  1.0 0.1297693712
H  H11  1  0.16870000  0.62220000  0.71840000  1.0 0.1297693712
H  H12  1  0.83130000  0.12220000  0.78160000  1.0 0.1297693712
H  H13  1  0.78680000  0.49470000  0.33750000  1.0 0.1202176901
H  H14  1  0.21320000  0.99470000  0.16250000  1.0 0.1202176901
H  H15  1  0.21320000  0.50530000  0.66250000  1.0 0.1202176901
H  H16  1  0.78680000  0.00530000  0.83750000  1.0 0.1202176901
H  H17  1  0.99660000  0.77210000  0.36720000  1.0 0.1202176901
H  H18  1  0.00340000  0.27210000  0.13280000  1.0 0.1202176901
H  H19  1  0.00340000  0.22790000  0.63280000  1.0 0.1202176901
H  H20  1  0.99660000  0.72790000  0.86720000  1.0 0.1202176901
H  H21  1  0.09240000  0.88710000  0.42350000  1.0 0.1202176901
H  H22  1  0.90760000  0.38710000  0.07650000  1.0 0.1202176901
H  H23  1  0.90760000  0.11290000  0.57650000  1.0 0.1202176901
H  H24  1  0.09240000  0.61290000  0.92350000  1.0 0.1202176901
H  H25  1  0.06830000  0.48400000  0.33760000  1.0 0.1202176901
H  H26  1  0.93170000  0.98400000  0.16240000  1.0 0.1202176901
H  H27  1  0.93170000  0.51600000  0.66240000  1.0 0.1202176901
H  H28  1  0.06830000  0.01600000  0.83760000  1.0 0.1202176901
H  H29  1  0.97110000  0.37160000  0.27980000  1.0 0.1297693712
H  H30  1  0.02890000  0.87160000  0.22020000  1.0 0.1297693712
H  H31  1  0.02890000  0.62840000  0.72020000  1.0 0.1297693712
H  H32  1  0.97110000  0.12840000  0.77980000  1.0 0.1297693712
H  H33  1  0.65360000  0.34590000  0.56130000  1.0 0.1202176901
H  H34  1  0.34640000  0.84590000  0.93870000  1.0 0.1202176901
H  H35  1  0.34640000  0.65410000  0.43870000  1.0 0.1202176901
H  H36  1  0.65360000  0.15410000  0.06130000  1.0 0.1202176901
H  H37  1  0.58550000  0.27570000  0.59740000  1.0 0.1202176901
H  H38  1  0.41450000  0.77570000  0.90260000  1.0 0.1202176901
H  H39  1  0.41450000  0.72430000  0.40260000  1.0 0.1202176901
H  H40  1  0.58550000  0.22430000  0.09740000  1.0 0.1202176901
H  H41  1  0.51610000  0.91760000  0.55140000  1.0 0.1202176901
H  H42  1  0.48390000  0.41760000  0.94860000  1.0 0.1202176901
H  H43  1  0.48390000  0.08240000  0.44860000  1.0 0.1202176901
H  H44  1  0.51610000  0.58240000  0.05140000  1.0 0.1202176901
H  H45  1  0.58910000  0.99230000  0.51830000  1.0 0.1202176901
H  H46  1  0.41090000  0.49230000  0.98170000  1.0 0.1202176901
H  H47  1  0.41090000  0.00770000  0.48170000  1.0 0.1202176901
H  H48  1  0.58910000  0.50770000  0.01830000  1.0 0.1202176901
H  H49  1  0.57930000  0.30610000  0.70120000  1.0 0.1202176901
H  H50  1  0.42070000  0.80610000  0.79880000  1.0 0.1202176901
H  H51  1  0.42070000  0.69390000  0.29880000  1.0 0.1202176901
H  H52  1  0.57930000  0.19390000  0.20120000  1.0 0.1202176901
H  H53  1  0.63340000  0.40490000  0.79410000  1.0 0.1297693712
H  H54  1  0.36660000  0.90490000  0.70590000  1.0 0.1297693712
H  H55  1  0.36660000  0.59510000  0.20590000  1.0 0.1297693712
H  H56  1  0.63340000  0.09510000  0.29410000  1.0 0.1297693712
H  H57  1  0.55170000  0.02860000  0.76620000  1.0 0.1112205369
H  H58  1  0.44830000  0.52860000  0.73380000  1.0 0.1112205369
H  H59  1  0.44830000  0.97140000  0.23380000  1.0 0.1112205369
H  H60  1  0.55170000  0.47140000  0.26620000  1.0 0.1112205369
H  H61  1  0.49600000  0.93420000  0.67330000  1.0 0.1297693712
H  H62  1  0.50400000  0.43420000  0.82670000  1.0 0.1297693712
H  H63  1  0.50400000  0.06580000  0.32670000  1.0 0.1297693712
H  H64  1  0.49600000  0.56580000  0.17330000  1.0 0.1297693712
C  C1  1  0.77920000  0.30300000  0.42500000  1.0 0.6094811095
C  C2  1  0.22080000  0.80300000  0.07500000  1.0 0.6094811095
C  C3  1  0.22080000  0.69700000  0.57500000  1.0 0.6094811095
C  C4  1  0.77920000  0.19700000  0.92500000  1.0 0.6094811095
C  C5  1  0.80690000  0.21070000  0.38730000  1.0 -0.0074055539
C  C6  1  0.19310000  0.71070000  0.11270000  1.0 -0.0074055539
C  C7  1  0.19310000  0.78930000  0.61270000  1.0 -0.0074055539
C  C8  1  0.80690000  0.28930000  0.88730000  1.0 -0.0074055539
C  C9  1  0.83620000  0.99460000  0.39660000  1.0 -0.0893224128
C  C10  1  0.16380000  0.49460000  0.10340000  1.0 -0.0893224128
C  C11  1  0.16380000  0.00540000  0.60340000  1.0 -0.0893224128
C  C12  1  0.83620000  0.50540000  0.89660000  1.0 -0.0893224128
C  C13  1  0.86440000  0.92770000  0.36460000  1.0 -0.0978528166
C  C14  1  0.13560000  0.42770000  0.13540000  1.0 -0.0978528166
C  C15  1  0.13560000  0.07230000  0.63540000  1.0 -0.0978528166
C  C16  1  0.86440000  0.57230000  0.86460000  1.0 -0.0978528166
C  C17  1  0.86290000  0.07030000  0.32120000  1.0 -0.0893224128
C  C18  1  0.13710000  0.57030000  0.17880000  1.0 -0.0893224128
C  C19  1  0.13710000  0.92970000  0.67880000  1.0 -0.0893224128
C  C20  1  0.86290000  0.42970000  0.82120000  1.0 -0.0893224128
C  C21  1  0.83300000  0.28300000  0.31090000  1.0 -0.0893224128
C  C22  1  0.16700000  0.78300000  0.18910000  1.0 -0.0893224128
C  C23  1  0.16700000  0.71700000  0.68910000  1.0 -0.0893224128
C  C24  1  0.83300000  0.21700000  0.81090000  1.0 -0.0893224128
C  C25  1  0.80620000  0.35080000  0.34400000  1.0 -0.0978528166
C  C26  1  0.19380000  0.85080000  0.15600000  1.0 -0.0978528166
C  C27  1  0.19380000  0.64920000  0.65600000  1.0 -0.0978528166
C  C28  1  0.80620000  0.14920000  0.84400000  1.0 -0.0978528166
C  C29  1  0.97490000  0.06120000  0.31860000  1.0 -0.0893224128
C  C30  1  0.02510000  0.56120000  0.18140000  1.0 -0.0893224128
C  C31  1  0.02510000  0.93880000  0.68140000  1.0 -0.0893224128
C  C32  1  0.97490000  0.43880000  0.81860000  1.0 -0.0893224128
C  C33  1  0.01090000  0.91540000  0.36130000  1.0 -0.0978528166
C  C34  1  0.98910000  0.41540000  0.13870000  1.0 -0.0978528166
C  C35  1  0.98910000  0.08460000  0.63870000  1.0 -0.0978528166
C  C36  1  0.01090000  0.58460000  0.86130000  1.0 -0.0978528166
C  C37  1  0.06790000  0.98490000  0.39480000  1.0 -0.0893224128
C  C38  1  0.93210000  0.48490000  0.10520000  1.0 -0.0893224128
C  C39  1  0.93210000  0.01510000  0.60520000  1.0 -0.0893224128
C  C40  1  0.06790000  0.51510000  0.89480000  1.0 -0.0893224128
C  C41  1  0.08940000  0.19590000  0.38670000  1.0 -0.0074055539
C  C42  1  0.91060000  0.69590000  0.11330000  1.0 -0.0074055539
C  C43  1  0.91060000  0.80410000  0.61330000  1.0 -0.0074055539
C  C44  1  0.08940000  0.30410000  0.88670000  1.0 -0.0074055539
C  C45  1  0.05350000  0.34170000  0.34340000  1.0 -0.0893224128
C  C46  1  0.94650000  0.84170000  0.15660000  1.0 -0.0893224128
C  C47  1  0.94650000  0.65830000  0.65660000  1.0 -0.0893224128
C  C48  1  0.05350000  0.15830000  0.84340000  1.0 -0.0893224128
C  C49  1  0.99560000  0.27510000  0.30880000  1.0 -0.0978528166
C  C50  1  0.00440000  0.77510000  0.19120000  1.0 -0.0978528166
C  C51  1  0.00440000  0.72490000  0.69120000  1.0 -0.0978528166
C  C52  1  0.99560000  0.22490000  0.80880000  1.0 -0.0978528166
C  C53  1  0.15080000  0.28580000  0.42870000  1.0 0.6094811095
C  C54  1  0.84920000  0.78580000  0.07130000  1.0 0.6094811095
C  C55  1  0.84920000  0.71420000  0.57130000  1.0 0.6094811095
C  C56  1  0.15080000  0.21420000  0.92870000  1.0 0.6094811095
C  C57  1  0.66990000  0.71970000  0.50950000  1.0 0.6038301496
C  C58  1  0.33010000  0.21970000  0.99050000  1.0 0.6038301496
C  C59  1  0.33010000  0.28030000  0.49050000  1.0 0.6038301496
C  C60  1  0.66990000  0.78030000  0.00950000  1.0 0.6038301496
C  C61  1  0.62670000  0.67490000  0.53400000  1.0 -0.0260147972
C  C62  1  0.37330000  0.17490000  0.96600000  1.0 -0.0260147972
C  C63  1  0.37330000  0.32510000  0.46600000  1.0 -0.0260147972
C  C64  1  0.62670000  0.82510000  0.03400000  1.0 -0.0260147972
C  C65  1  0.62620000  0.46110000  0.55920000  1.0 -0.0893224128
C  C66  1  0.37380000  0.96110000  0.94080000  1.0 -0.0893224128
C  C67  1  0.37380000  0.53890000  0.44080000  1.0 -0.0893224128
C  C68  1  0.62620000  0.03890000  0.05920000  1.0 -0.0893224128
C  C69  1  0.58560000  0.41920000  0.58080000  1.0 -0.1081495074
C  C70  1  0.41440000  0.91920000  0.91920000  1.0 -0.1081495074
C  C71  1  0.41440000  0.58080000  0.41920000  1.0 -0.1081495074
C  C72  1  0.58560000  0.08080000  0.08080000  1.0 -0.1081495074
C  C73  1  0.54440000  0.59170000  0.57800000  1.0 -0.0777817013
C  C74  1  0.45560000  0.09170000  0.92200000  1.0 -0.0777817013
C  C75  1  0.45560000  0.40830000  0.42200000  1.0 -0.0777817013
C  C76  1  0.54440000  0.90830000  0.07800000  1.0 -0.0777817013
C  C77  1  0.54400000  0.80380000  0.55400000  1.0 -0.1081495074
C  C78  1  0.45600000  0.30380000  0.94600000  1.0 -0.1081495074
C  C79  1  0.45600000  0.19620000  0.44600000  1.0 -0.1081495074
C  C80  1  0.54400000  0.69620000  0.05400000  1.0 -0.1081495074
C  C81  1  0.58730000  0.84590000  0.53300000  1.0 -0.0893224128
C  C82  1  0.41270000  0.34590000  0.96700000  1.0 -0.0893224128
C  C83  1  0.41270000  0.15410000  0.46700000  1.0 -0.0893224128
C  C84  1  0.58730000  0.65410000  0.03300000  1.0 -0.0893224128
C  C85  1  0.53330000  0.61150000  0.67790000  1.0 -0.0893224128
C  C86  1  0.46670000  0.11150000  0.82210000  1.0 -0.0893224128
C  C87  1  0.46670000  0.38850000  0.32210000  1.0 -0.0893224128
C  C88  1  0.53330000  0.88850000  0.17790000  1.0 -0.0893224128
C  C89  1  0.57410000  0.45190000  0.71420000  1.0 -0.1081495074
C  C90  1  0.42590000  0.95190000  0.78580000  1.0 -0.1081495074
C  C91  1  0.42590000  0.54810000  0.28580000  1.0 -0.1081495074
C  C92  1  0.57410000  0.04810000  0.21420000  1.0 -0.1081495074
C  C93  1  0.60660000  0.51170000  0.76970000  1.0 -0.0893224128
C  C94  1  0.39340000  0.01170000  0.73030000  1.0 -0.0893224128
C  C95  1  0.39340000  0.48830000  0.23030000  1.0 -0.0893224128
C  C96  1  0.60660000  0.98830000  0.26970000  1.0 -0.0893224128
C  C97  1  0.59960000  0.72980000  0.78940000  1.0 -0.0177503115
C  C98  1  0.40040000  0.22980000  0.71060000  1.0 -0.0177503115
C  C99  1  0.40040000  0.27020000  0.21060000  1.0 -0.0177503115
C  C100  1  0.59960000  0.77020000  0.28940000  1.0 -0.0177503115
C  C101  1  0.55740000  0.88440000  0.75280000  1.0 -0.0978528166
C  C102  1  0.44260000  0.38440000  0.74720000  1.0 -0.0978528166
C  C103  1  0.44260000  0.11560000  0.24720000  1.0 -0.0978528166
C  C104  1  0.55740000  0.61560000  0.25280000  1.0 -0.0978528166
C  C105  1  0.52390000  0.82940000  0.69720000  1.0 -0.1081495074
C  C106  1  0.47610000  0.32940000  0.80280000  1.0 -0.1081495074
C  C107  1  0.47610000  0.17060000  0.30280000  1.0 -0.1081495074
C  C108  1  0.52390000  0.67060000  0.19720000  1.0 -0.1081495074
C  C109  1  0.63800000  0.80700000  0.84920000  1.0 0.6038301496
C  C110  1  0.36200000  0.30700000  0.65080000  1.0 0.6038301496
C  C111  1  0.36200000  0.19300000  0.15080000  1.0 0.6038301496
C  C112  1  0.63800000  0.69300000  0.34920000  1.0 0.6038301496
S  S1  1  0.89930000  0.98060000  0.27875000  1.0 0.9716750739
S  S2  1  0.10070000  0.48060000  0.22125000  1.0 0.9716750739
S  S3  1  0.10070000  0.01940000  0.72125000  1.0 0.9716750739
S  S4  1  0.89930000  0.51940000  0.77875000  1.0 0.9716750739
S  S5  1  0.49344000  0.53610000  0.60726000  1.0 0.9877272753
S  S6  1  0.50656000  0.03610000  0.89274000  1.0 0.9877272753
S  S7  1  0.50656000  0.46390000  0.39274000  1.0 0.9877272753
S  S8  1  0.49344000  0.96390000  0.10726000  1.0 0.9877272753
O  O1  1  0.75830000  0.16210000  0.44897000  1.0 -0.650749469
O  O2  1  0.24170000  0.66210000  0.05103000  1.0 -0.650749469
O  O3  1  0.24170000  0.83790000  0.55103000  1.0 -0.650749469
O  O4  1  0.75830000  0.33790000  0.94897000  1.0 -0.650749469
O  O5  1  0.77970000  0.52040000  0.42903000  1.0 -0.5456581803
O  O6  1  0.22030000  0.02040000  0.07097000  1.0 -0.5456581803
O  O7  1  0.22030000  0.47960000  0.57097000  1.0 -0.5456581803
O  O8  1  0.77970000  0.97960000  0.92903000  1.0 -0.5456581803
O  O9  1  0.16190000  0.49370000  0.42510000  1.0 -0.6191732577
O  O10  1  0.83810000  0.99370000  0.07490000  1.0 -0.6191732577
O  O11  1  0.83810000  0.50630000  0.57490000  1.0 -0.6191732577
O  O12  1  0.16190000  0.00630000  0.92510000  1.0 -0.6191732577
O  O13  1  0.18311000  0.14020000  0.46265000  1.0 -0.6064211818
O  O14  1  0.81689000  0.64020000  0.03735000  1.0 -0.6064211818
O  O15  1  0.81689000  0.85980000  0.53735000  1.0 -0.6064211818
O  O16  1  0.18311000  0.35980000  0.96265000  1.0 -0.6064211818
O  O17  1  0.87620000  0.11740000  0.22842000  1.0 -0.4960435124
O  O18  1  0.12380000  0.61740000  0.27158000  1.0 -0.4960435124
O  O19  1  0.12380000  0.88260000  0.77158000  1.0 -0.4960435124
O  O20  1  0.87620000  0.38260000  0.72842000  1.0 -0.4960435124
O  O21  1  0.89630000  0.72850000  0.27530000  1.0 -0.5181982161
O  O22  1  0.10370000  0.22850000  0.22470000  1.0 -0.5181982161
O  O23  1  0.10370000  0.27150000  0.72470000  1.0 -0.5181982161
O  O24  1  0.89630000  0.77150000  0.77530000  1.0 -0.5181982161
O  O25  1  0.69455000  0.54410000  0.49781000  1.0 -0.6604992541
O  O26  1  0.30545000  0.04410000  0.00219000  1.0 -0.6604992541
O  O27  1  0.30545000  0.45590000  0.50219000  1.0 -0.6604992541
O  O28  1  0.69455000  0.95590000  0.99781000  1.0 -0.6604992541
O  O29  1  0.48104000  0.28830000  0.60352000  1.0 -0.5181982161
O  O30  1  0.51896000  0.78830000  0.89648000  1.0 -0.5181982161
O  O31  1  0.51896000  0.71170000  0.39648000  1.0 -0.5181982161
O  O32  1  0.48104000  0.21170000  0.10352000  1.0 -0.5181982161
O  O33  1  0.44513000  0.70210000  0.58203000  1.0 -0.5742724033
O  O34  1  0.55487000  0.20210000  0.91797000  1.0 -0.5742724033
O  O35  1  0.55487000  0.29790000  0.41797000  1.0 -0.5742724033
O  O36  1  0.44513000  0.79790000  0.08203000  1.0 -0.5742724033
O  O37  1  0.66770000  0.64820000  0.88313000  1.0 -0.6191732577
O  O38  1  0.33230000  0.14820000  0.61687000  1.0 -0.6191732577
O  O39  1  0.33230000  0.35180000  0.11687000  1.0 -0.6191732577
O  O40  1  0.66770000  0.85180000  0.38313000  1.0 -0.6191732577
O  O41  1  0.63850000  0.01720000  0.86003000  1.0 -0.6191732577
O  O42  1  0.36150000  0.51720000  0.63997000  1.0 -0.6191732577
O  O43  1  0.36150000  0.98280000  0.13997000  1.0 -0.6191732577
O  O44  1  0.63850000  0.48280000  0.36003000  1.0 -0.6191732577
O  O45  1  0.68072000  0.92670000  0.49994000  1.0 -0.650749469
O  O46  1  0.31928000  0.42670000  0.00006000  1.0 -0.650749469
O  O47  1  0.31928000  0.07330000  0.50006000  1.0 -0.650749469
O  O48  1  0.68072000  0.57330000  0.99994000  1.0 -0.650749469
