# DDEC6 charges by PACMAN v1.1 (https://github.com/mtap-research/PACMAN-charge/)
data_OTODOS_FSR_pacman
_symmetry_space_group_name_H-M   'P 1'
_cell_length_a   13.22550000
_cell_length_b   13.22550000
_cell_length_c   13.15500000
_cell_angle_alpha   89.10780000
_cell_angle_beta   90.89220000
_cell_angle_gamma   58.75090000
_symmetry_Int_Tables_number   1
_chemical_formula_structural   AgH18C14N3
_chemical_formula_sum   'Ag4 H72 C56 N12'
_cell_volume   1966.17250712
_cell_formula_units_Z   4
loop_
 _symmetry_equiv_pos_site_id
 _symmetry_equiv_pos_as_xyz
  1  'x, y, z'
loop_
 _atom_site_type_symbol
 _atom_site_label
 _atom_site_symmetry_multiplicity
 _atom_site_fract_x
 _atom_site_fract_y
 _atom_site_fract_z
 _atom_site_occupancy
 _atom_site_charge
Ag  Ag1  1  0.00000000  0.50000000  0.50000000  1.0 0.1784344537
Ag  Ag2  1  0.50000000  0.00000000  0.00000000  1.0 0.1784344537
Ag  Ag3  1  0.55477000  0.55477000  0.75000000  1.0 0.281128451
Ag  Ag4  1  0.44523000  0.44523000  0.25000000  1.0 0.281128451
H  H1  1  0.74410000  0.60790000  0.41080000  1.0 0.0996625532
H  H2  1  0.60790000  0.74410000  0.08920000  1.0 0.0996625532
H  H3  1  0.25590000  0.39210000  0.58920000  1.0 0.0996625532
H  H4  1  0.39210000  0.25590000  0.91080000  1.0 0.0996625532
H  H5  1  0.55510000  0.75450000  0.43920000  1.0 0.1290722338
H  H6  1  0.75450000  0.55510000  0.06080000  1.0 0.1290722338
H  H7  1  0.44490000  0.24550000  0.56080000  1.0 0.1290722338
H  H8  1  0.24550000  0.44490000  0.93920000  1.0 0.1290722338
H  H9  1  0.68070000  0.87230000  0.66140000  1.0 0.1227348184
H  H10  1  0.87230000  0.68070000  0.83860000  1.0 0.1227348184
H  H11  1  0.31930000  0.12770000  0.33860000  1.0 0.1227348184
H  H12  1  0.12770000  0.31930000  0.16140000  1.0 0.1227348184
H  H13  1  0.86950000  0.71950000  0.62870000  1.0 0.0923111498
H  H14  1  0.71950000  0.86950000  0.87130000  1.0 0.0923111498
H  H15  1  0.13050000  0.28050000  0.37130000  1.0 0.0923111498
H  H16  1  0.28050000  0.13050000  0.12870000  1.0 0.0923111498
H  H17  1  0.42080000  0.94880000  0.52100000  1.0 0.1081958027
H  H18  1  0.94880000  0.42080000  0.97900000  1.0 0.1081958027
H  H19  1  0.57920000  0.05120000  0.47900000  1.0 0.1081958027
H  H20  1  0.05120000  0.57920000  0.02100000  1.0 0.1081958027
H  H21  1  0.47180000  0.98980000  0.61180000  1.0 0.1081958027
H  H22  1  0.98980000  0.47180000  0.88820000  1.0 0.1081958027
H  H23  1  0.52820000  0.01020000  0.38820000  1.0 0.1081958027
H  H24  1  0.01020000  0.52820000  0.11180000  1.0 0.1081958027
H  H25  1  0.56120000  0.76200000  0.73780000  1.0 0.0923111498
H  H26  1  0.76200000  0.56120000  0.76220000  1.0 0.0923111498
H  H27  1  0.43880000  0.23800000  0.26220000  1.0 0.0923111498
H  H28  1  0.23800000  0.43880000  0.23780000  1.0 0.0923111498
H  H29  1  0.50220000  0.89340000  0.77970000  1.0 0.0923111498
H  H30  1  0.89340000  0.50220000  0.72030000  1.0 0.0923111498
H  H31  1  0.49780000  0.10660000  0.22030000  1.0 0.0923111498
H  H32  1  0.10660000  0.49780000  0.27970000  1.0 0.0923111498
H  H33  1  0.34500000  0.87920000  0.84740000  1.0 0.0996625532
H  H34  1  0.87920000  0.34500000  0.65260000  1.0 0.0996625532
H  H35  1  0.65500000  0.12080000  0.15260000  1.0 0.0996625532
H  H36  1  0.12080000  0.65500000  0.34740000  1.0 0.0996625532
H  H37  1  0.46850000  0.77250000  0.89300000  1.0 0.0923111498
H  H38  1  0.77250000  0.46850000  0.60700000  1.0 0.0923111498
H  H39  1  0.53150000  0.22750000  0.10700000  1.0 0.0923111498
H  H40  1  0.22750000  0.53150000  0.39300000  1.0 0.0923111498
H  H41  1  0.29120000  0.72080000  0.66610000  1.0 0.0996625532
H  H42  1  0.72080000  0.29120000  0.83390000  1.0 0.0996625532
H  H43  1  0.70880000  0.27920000  0.33390000  1.0 0.0996625532
H  H44  1  0.27920000  0.70880000  0.16610000  1.0 0.0996625532
H  H45  1  0.24190000  0.84950000  0.71180000  1.0 0.0923111498
H  H46  1  0.84950000  0.24190000  0.78820000  1.0 0.0923111498
H  H47  1  0.75810000  0.15050000  0.28820000  1.0 0.0923111498
H  H48  1  0.15050000  0.75810000  0.21180000  1.0 0.0923111498
H  H49  1  0.33490000  0.83410000  0.55410000  1.0 0.1081958027
H  H50  1  0.83410000  0.33490000  0.94590000  1.0 0.1081958027
H  H51  1  0.66510000  0.16590000  0.44590000  1.0 0.1081958027
H  H52  1  0.16590000  0.66510000  0.05410000  1.0 0.1081958027
H  H53  1  0.45610000  0.72450000  0.60020000  1.0 0.0923111498
H  H54  1  0.72450000  0.45610000  0.89980000  1.0 0.0923111498
H  H55  1  0.54390000  0.27550000  0.39980000  1.0 0.0923111498
H  H56  1  0.27550000  0.54390000  0.10020000  1.0 0.0923111498
H  H57  1  0.27310000  0.76050000  0.90320000  1.0 0.1081958027
H  H58  1  0.76050000  0.27310000  0.59680000  1.0 0.1081958027
H  H59  1  0.72690000  0.23950000  0.09680000  1.0 0.1081958027
H  H60  1  0.23950000  0.72690000  0.40320000  1.0 0.1081958027
H  H61  1  0.27830000  0.66290000  0.82900000  1.0 0.1081958027
H  H62  1  0.66290000  0.27830000  0.67100000  1.0 0.1081958027
H  H63  1  0.72170000  0.33710000  0.17100000  1.0 0.1081958027
H  H64  1  0.33710000  0.72170000  0.32900000  1.0 0.1081958027
H  H65  1  0.43070000  0.45630000  0.85320000  1.0 0.0996625532
H  H66  1  0.45630000  0.43070000  0.64680000  1.0 0.0996625532
H  H67  1  0.56930000  0.54370000  0.14680000  1.0 0.0996625532
H  H68  1  0.54370000  0.56930000  0.35320000  1.0 0.0996625532
H  H69  1  0.57280000  0.30340000  0.95680000  1.0 0.1081958027
H  H70  1  0.30340000  0.57280000  0.54320000  1.0 0.1081958027
H  H71  1  0.42720000  0.69660000  0.04320000  1.0 0.1081958027
H  H72  1  0.69660000  0.42720000  0.45680000  1.0 0.1081958027
C  C1  1  0.73060000  0.66120000  0.46380000  1.0 0.0225952984
C  C2  1  0.66120000  0.73060000  0.03620000  1.0 0.0225952984
C  C3  1  0.26940000  0.33880000  0.53620000  1.0 0.0225952984
C  C4  1  0.33880000  0.26940000  0.96380000  1.0 0.0225952984
C  C5  1  0.61810000  0.74830000  0.48010000  1.0 -0.2155337485
C  C6  1  0.74830000  0.61810000  0.01990000  1.0 -0.2155337485
C  C7  1  0.38190000  0.25170000  0.51990000  1.0 -0.2155337485
C  C8  1  0.25170000  0.38190000  0.98010000  1.0 -0.2155337485
C  C9  1  0.59370000  0.82930000  0.55730000  1.0 0.1081958027
C  C10  1  0.82930000  0.59370000  0.94270000  1.0 0.1081958027
C  C11  1  0.40630000  0.17070000  0.44270000  1.0 0.1081958027
C  C12  1  0.17070000  0.40630000  0.05730000  1.0 0.1081958027
C  C13  1  0.69180000  0.81720000  0.61080000  1.0 -0.2312206703
C  C14  1  0.81720000  0.69180000  0.88920000  1.0 -0.2312206703
C  C15  1  0.30820000  0.18280000  0.38920000  1.0 -0.2312206703
C  C16  1  0.18280000  0.30820000  0.11080000  1.0 -0.2312206703
C  C17  1  0.80450000  0.72610000  0.59080000  1.0 0.0225952984
C  C18  1  0.72610000  0.80450000  0.90920000  1.0 0.0225952984
C  C19  1  0.19550000  0.27390000  0.40920000  1.0 0.0225952984
C  C20  1  0.27390000  0.19550000  0.09080000  1.0 0.0225952984
C  C21  1  0.47070000  0.92130000  0.58400000  1.0 -0.2100598422
C  C22  1  0.92130000  0.47070000  0.91600000  1.0 -0.2100598422
C  C23  1  0.52930000  0.07870000  0.41600000  1.0 -0.2100598422
C  C24  1  0.07870000  0.52930000  0.08400000  1.0 -0.2100598422
C  C25  1  0.48500000  0.83460000  0.75190000  1.0 -0.1688691287
C  C26  1  0.83460000  0.48500000  0.74810000  1.0 -0.1688691287
C  C27  1  0.51500000  0.16540000  0.24810000  1.0 -0.1688691287
C  C28  1  0.16540000  0.51500000  0.25190000  1.0 -0.1688691287
C  C29  1  0.41910000  0.80590000  0.83010000  1.0 -0.1688691287
C  C30  1  0.80590000  0.41910000  0.66990000  1.0 -0.1688691287
C  C31  1  0.58090000  0.19410000  0.16990000  1.0 -0.1688691287
C  C32  1  0.19410000  0.58090000  0.33010000  1.0 -0.1688691287
C  C33  1  0.31460000  0.77480000  0.69470000  1.0 -0.1508958901
C  C34  1  0.77480000  0.31460000  0.80530000  1.0 -0.1508958901
C  C35  1  0.68540000  0.22520000  0.30530000  1.0 -0.1508958901
C  C36  1  0.22520000  0.68540000  0.19470000  1.0 -0.1508958901
C  C37  1  0.38360000  0.79940000  0.61720000  1.0 -0.1581270064
C  C38  1  0.79940000  0.38360000  0.88280000  1.0 -0.1581270064
C  C39  1  0.61640000  0.20060000  0.38280000  1.0 -0.1581270064
C  C40  1  0.20060000  0.61640000  0.11720000  1.0 -0.1581270064
C  C41  1  0.32670000  0.68930000  0.86460000  1.0 -0.2100598422
C  C42  1  0.68930000  0.32670000  0.63540000  1.0 -0.2100598422
C  C43  1  0.67330000  0.31070000  0.13540000  1.0 -0.2100598422
C  C44  1  0.31070000  0.67330000  0.36460000  1.0 -0.2100598422
C  C45  1  0.41408000  0.59268000  0.93660000  1.0 0.033893647
C  C46  1  0.59268000  0.41408000  0.56340000  1.0 0.033893647
C  C47  1  0.58592000  0.40732000  0.06340000  1.0 0.0358904635
C  C48  1  0.40732000  0.58592000  0.43660000  1.0 0.033893647
C  C49  1  0.45892000  0.47432000  0.91290000  1.0 -0.2155337485
C  C50  1  0.47432000  0.45892000  0.58710000  1.0 -0.2100598422
C  C51  1  0.54108000  0.52568000  0.08710000  1.0 -0.2100598422
C  C52  1  0.52568000  0.54108000  0.41290000  1.0 -0.2100598422
C  C53  1  0.54336000  0.38316000  0.97470000  1.0 -0.1911728236
C  C54  1  0.38316000  0.54336000  0.52530000  1.0 -0.1911728236
C  C55  1  0.45664000  0.61684000  0.02530000  1.0 -0.1911728236
C  C56  1  0.61684000  0.45664000  0.47470000  1.0 -0.1911728236
N  N1  1  0.82550000  0.64570000  0.51890000  1.0 -0.2024935151
N  N2  1  0.64570000  0.82550000  0.98110000  1.0 -0.2024935151
N  N3  1  0.17450000  0.35430000  0.48110000  1.0 -0.2024935151
N  N4  1  0.35430000  0.17450000  0.01890000  1.0 -0.2024935151
N  N5  1  0.41544000  0.88124000  0.65840000  1.0 -0.0786163791
N  N6  1  0.88124000  0.41544000  0.84160000  1.0 -0.0786163791
N  N7  1  0.58456000  0.11876000  0.34160000  1.0 -0.0786163791
N  N8  1  0.11876000  0.58456000  0.15840000  1.0 -0.0786163791
N  N9  1  0.39078000  0.71918000  0.78840000  1.0 -0.0737133904
N  N10  1  0.71918000  0.39078000  0.71160000  1.0 -0.0737133904
N  N11  1  0.60922000  0.28082000  0.21160000  1.0 -0.0737133904
N  N12  1  0.28082000  0.60922000  0.28840000  1.0 -0.0737133904
