# DDEC6 charges by PACMAN v1.1 (https://github.com/mtap-research/PACMAN-charge/)
data_OTUDIS_ASR_pacman
_symmetry_space_group_name_H-M   'P 1'
_cell_length_a   20.44890000
_cell_length_b   20.44890000
_cell_length_c   10.39280000
_cell_angle_alpha   90.00000000
_cell_angle_beta   90.00000000
_cell_angle_gamma   120.00000000
_symmetry_Int_Tables_number   1
_chemical_formula_structural   KNaMn3H21(C11O7)3
_chemical_formula_sum   'K2 Na2 Mn6 H42 C66 O42'
_cell_volume   3763.59691371
_cell_formula_units_Z   2
loop_
 _symmetry_equiv_pos_site_id
 _symmetry_equiv_pos_as_xyz
  1  'x, y, z'
loop_
 _atom_site_type_symbol
 _atom_site_label
 _atom_site_symmetry_multiplicity
 _atom_site_fract_x
 _atom_site_fract_y
 _atom_site_fract_z
 _atom_site_occupancy
 _atom_site_charge
K  K1  1  0.66666667  0.33333333  0.26643000  1.0 0.9044283313
K  K2  1  0.33333333  0.66666667  0.76643000  1.0 0.9053868932
Na  Na1  1  0.33333333  0.66666667  0.17752000  1.0 0.8753192705
Na  Na2  1  0.66666667  0.33333333  0.67752000  1.0 0.8753192705
Mn  Mn1  1  0.61951000  0.16515000  0.49100000  1.0 0.9791671914
Mn  Mn2  1  0.83485000  0.45436000  0.49100000  1.0 0.9791671914
Mn  Mn3  1  0.54564000  0.38049000  0.49100000  1.0 0.9791671914
Mn  Mn4  1  0.38049000  0.83485000  0.99100000  1.0 0.9791671914
Mn  Mn5  1  0.16515000  0.54564000  0.99100000  1.0 0.9791671914
Mn  Mn6  1  0.45436000  0.61951000  0.99100000  1.0 0.9791671914
H  H1  1  0.55870000  0.00510000  0.79880000  1.0 0.1483725031
H  H2  1  0.99490000  0.55360000  0.79880000  1.0 0.1483725031
H  H3  1  0.44640000  0.44130000  0.79880000  1.0 0.1483725031
H  H4  1  0.44130000  0.99490000  0.29880000  1.0 0.1483725031
H  H5  1  0.00510000  0.44640000  0.29880000  1.0 0.1483725031
H  H6  1  0.55360000  0.55870000  0.29880000  1.0 0.1483725031
H  H7  1  0.56160000  0.98230000  0.18210000  1.0 0.1419394166
H  H8  1  0.01770000  0.57930000  0.18210000  1.0 0.1419394166
H  H9  1  0.42070000  0.43840000  0.18210000  1.0 0.1419394166
H  H10  1  0.43840000  0.01770000  0.68210000  1.0 0.1419394166
H  H11  1  0.98230000  0.42070000  0.68210000  1.0 0.1419394166
H  H12  1  0.57930000  0.56160000  0.68210000  1.0 0.1419394166
H  H13  1  0.63960000  0.18810000  0.02560000  1.0 0.126707716
H  H14  1  0.81190000  0.45150000  0.02560000  1.0 0.126707716
H  H15  1  0.54850000  0.36040000  0.02560000  1.0 0.126707716
H  H16  1  0.36040000  0.81190000  0.52560000  1.0 0.126707716
H  H17  1  0.18810000  0.54850000  0.52560000  1.0 0.126707716
H  H18  1  0.45150000  0.63960000  0.52560000  1.0 0.126707716
H  H19  1  0.54880000  0.87290000  0.11520000  1.0 0.1110152789
H  H20  1  0.12710000  0.67590000  0.11520000  1.0 0.1110152789
H  H21  1  0.32410000  0.45120000  0.11520000  1.0 0.1110152789
H  H22  1  0.45120000  0.12710000  0.61520000  1.0 0.1110152789
H  H23  1  0.87290000  0.32410000  0.61520000  1.0 0.1110152789
H  H24  1  0.67590000  0.54880000  0.61520000  1.0 0.1110152789
H  H25  1  0.65600000  0.94060000  0.01400000  1.0 0.1110152789
H  H26  1  0.05940000  0.71540000  0.01400000  1.0 0.1110152789
H  H27  1  0.28460000  0.34400000  0.01400000  1.0 0.1110152789
H  H28  1  0.34400000  0.05940000  0.51400000  1.0 0.1110152789
H  H29  1  0.94060000  0.28460000  0.51400000  1.0 0.1110152789
H  H30  1  0.71540000  0.65600000  0.51400000  1.0 0.1110152789
H  H31  1  0.63260000  0.87390000  0.91680000  1.0 0.1419394166
H  H32  1  0.12610000  0.75870000  0.91680000  1.0 0.1483725031
H  H33  1  0.24130000  0.36740000  0.91680000  1.0 0.1419394166
H  H34  1  0.36740000  0.12610000  0.41680000  1.0 0.1483725031
H  H35  1  0.87390000  0.24130000  0.41680000  1.0 0.1419394166
H  H36  1  0.75870000  0.63260000  0.41680000  1.0 0.1419394166
H  H37  1  0.64160000  0.86210000  0.06330000  1.0 0.1419394166
H  H38  1  0.13790000  0.77950000  0.06330000  1.0 0.1419394166
H  H39  1  0.22050000  0.35840000  0.06330000  1.0 0.1419394166
H  H40  1  0.35840000  0.13790000  0.56330000  1.0 0.1419394166
H  H41  1  0.86210000  0.22050000  0.56330000  1.0 0.1419394166
H  H42  1  0.77950000  0.64160000  0.56330000  1.0 0.1419394166
C  C1  1  0.61570000  0.15359000  0.77570000  1.0 0.5656650495
C  C2  1  0.84641000  0.46211000  0.77570000  1.0 0.5656650495
C  C3  1  0.53789000  0.38430000  0.77570000  1.0 0.5656650495
C  C4  1  0.38430000  0.84641000  0.27570000  1.0 0.5656650495
C  C5  1  0.15359000  0.53789000  0.27570000  1.0 0.5656650495
C  C6  1  0.46211000  0.61570000  0.27570000  1.0 0.5656650495
C  C7  1  0.55401000  0.98188000  0.98810000  1.0 0.2375543596
C  C8  1  0.01812000  0.57213000  0.98810000  1.0 0.2375543596
C  C9  1  0.42787000  0.44599000  0.98810000  1.0 0.2375543596
C  C10  1  0.44599000  0.01812000  0.48810000  1.0 0.2375543596
C  C11  1  0.98188000  0.42787000  0.48810000  1.0 0.2375543596
C  C12  1  0.57213000  0.55401000  0.48810000  1.0 0.2375543596
C  C13  1  0.49281000  0.78042000  0.01160000  1.0 0.5656650495
C  C14  1  0.21958000  0.71239000  0.01160000  1.0 0.5656650495
C  C15  1  0.28761000  0.50719000  0.01160000  1.0 0.5656650495
C  C16  1  0.50719000  0.21958000  0.51160000  1.0 0.5656650495
C  C17  1  0.78042000  0.28761000  0.51160000  1.0 0.5656650495
C  C18  1  0.71239000  0.49281000  0.51160000  1.0 0.5656650495
C  C19  1  0.56942000  0.02681000  0.88030000  1.0 -0.1843637445
C  C20  1  0.97319000  0.54261000  0.88030000  1.0 -0.1843637445
C  C21  1  0.45739000  0.43058000  0.88030000  1.0 -0.1843637445
C  C22  1  0.43058000  0.97319000  0.38030000  1.0 -0.1843637445
C  C23  1  0.02681000  0.45739000  0.38030000  1.0 -0.1843637445
C  C24  1  0.54261000  0.56942000  0.38030000  1.0 -0.1843637445
C  C25  1  0.57133000  0.01291000  0.11020000  1.0 -0.2063721834
C  C26  1  0.98709000  0.55842000  0.11020000  1.0 -0.2063721834
C  C27  1  0.44158000  0.42867000  0.11020000  1.0 -0.2063721834
C  C28  1  0.42867000  0.98709000  0.61020000  1.0 -0.2063721834
C  C29  1  0.01291000  0.44158000  0.61020000  1.0 -0.2063721834
C  C30  1  0.55842000  0.57133000  0.61020000  1.0 -0.2063721834
C  C31  1  0.61766000  0.12377000  0.25650000  1.0 0.5596188289
C  C32  1  0.87623000  0.49389000  0.25650000  1.0 0.5596188289
C  C33  1  0.50611000  0.38234000  0.25650000  1.0 0.5596188289
C  C34  1  0.38234000  0.87623000  0.75650000  1.0 0.5596188289
C  C35  1  0.12377000  0.50611000  0.75650000  1.0 0.5596188289
C  C36  1  0.49389000  0.61766000  0.75650000  1.0 0.5596188289
C  C37  1  0.61814000  0.13620000  0.01570000  1.0 -0.1237761793
C  C38  1  0.86380000  0.48194000  0.01570000  1.0 -0.1237761793
C  C39  1  0.51806000  0.38186000  0.01570000  1.0 -0.1237761793
C  C40  1  0.38186000  0.86380000  0.51570000  1.0 -0.1237761793
C  C41  1  0.13620000  0.51806000  0.51570000  1.0 -0.1237761793
C  C42  1  0.48194000  0.61814000  0.51570000  1.0 -0.1237761793
C  C43  1  0.60130000  0.10543000  0.89390000  1.0 0.0045176646
C  C44  1  0.89457000  0.49587000  0.89390000  1.0 0.0045176646
C  C45  1  0.50413000  0.39870000  0.89390000  1.0 0.0045176646
C  C46  1  0.39870000  0.89457000  0.39390000  1.0 0.0045176646
C  C47  1  0.10543000  0.50413000  0.39390000  1.0 0.0045176646
C  C48  1  0.49587000  0.60130000  0.39390000  1.0 0.0045176646
C  C49  1  0.60371000  0.09113000  0.12380000  1.0 -0.0030881287
C  C50  1  0.90887000  0.51258000  0.12380000  1.0 -0.0030881287
C  C51  1  0.48742000  0.39629000  0.12380000  1.0 -0.0030881287
C  C52  1  0.39629000  0.90887000  0.62380000  1.0 -0.0030881287
C  C53  1  0.09113000  0.48742000  0.62380000  1.0 -0.0030881287
C  C54  1  0.51258000  0.60371000  0.62380000  1.0 -0.0030881287
C  C55  1  0.54985000  0.86399000  0.02270000  1.0 0.0473012708
C  C56  1  0.13601000  0.68586000  0.02270000  1.0 0.0473012708
C  C57  1  0.31414000  0.45015000  0.02270000  1.0 0.0473012708
C  C58  1  0.45015000  0.13601000  0.52270000  1.0 0.0473012708
C  C59  1  0.86399000  0.31414000  0.52270000  1.0 0.0473012708
C  C60  1  0.68586000  0.54985000  0.52270000  1.0 0.0473012708
C  C61  1  0.62600000  0.88700000  0.00260000  1.0 -0.3622622806
C  C62  1  0.11300000  0.73900000  0.00260000  1.0 -0.3665630835
C  C63  1  0.26100000  0.37400000  0.00260000  1.0 -0.3622622806
C  C64  1  0.37400000  0.11300000  0.50260000  1.0 -0.3622622806
C  C65  1  0.88700000  0.26100000  0.50260000  1.0 -0.3622622806
C  C66  1  0.73900000  0.62600000  0.50260000  1.0 -0.3622622806
O  O1  1  0.42414000  0.75874000  0.00266000  1.0 -0.6006298281
O  O2  1  0.24126000  0.66540000  0.00266000  1.0 -0.6006298281
O  O3  1  0.33460000  0.57586000  0.00266000  1.0 -0.6006298281
O  O4  1  0.57586000  0.24126000  0.50266000  1.0 -0.6006298281
O  O5  1  0.75874000  0.33460000  0.50266000  1.0 -0.6006298281
O  O6  1  0.66540000  0.42414000  0.50266000  1.0 -0.6006298281
O  O7  1  0.51577000  0.90422000  0.96983000  1.0 -0.2268012333
O  O8  1  0.09578000  0.61155000  0.96983000  1.0 -0.2268012333
O  O9  1  0.38845000  0.48423000  0.96983000  1.0 -0.2268012333
O  O10  1  0.48423000  0.09578000  0.46983000  1.0 -0.2268012333
O  O11  1  0.90422000  0.38845000  0.46983000  1.0 -0.2268012333
O  O12  1  0.61155000  0.51577000  0.46983000  1.0 -0.2268012333
O  O13  1  0.63410000  0.19155000  0.27162000  1.0 -0.623901061
O  O14  1  0.80845000  0.44255000  0.27162000  1.0 -0.623901061
O  O15  1  0.55745000  0.36590000  0.27162000  1.0 -0.623901061
O  O16  1  0.36590000  0.80845000  0.77162000  1.0 -0.623901061
O  O17  1  0.19155000  0.55745000  0.77162000  1.0 -0.623901061
O  O18  1  0.44255000  0.63410000  0.77162000  1.0 -0.623901061
O  O19  1  0.51966000  0.73742000  0.01760000  1.0 -0.48125751
O  O20  1  0.26258000  0.78224000  0.01760000  1.0 -0.48125751
O  O21  1  0.21776000  0.48034000  0.01760000  1.0 -0.48125751
O  O22  1  0.48034000  0.26258000  0.51760000  1.0 -0.48125751
O  O23  1  0.73742000  0.21776000  0.51760000  1.0 -0.48125751
O  O24  1  0.78224000  0.51966000  0.51760000  1.0 -0.48125751
O  O25  1  0.59863000  0.11666000  0.67057000  1.0 -0.5658634621
O  O26  1  0.88334000  0.48197000  0.67057000  1.0 -0.5658634621
O  O27  1  0.51803000  0.40137000  0.67057000  1.0 -0.5658634621
O  O28  1  0.40137000  0.88334000  0.17057000  1.0 -0.5658634621
O  O29  1  0.11666000  0.51803000  0.17057000  1.0 -0.5658634621
O  O30  1  0.48197000  0.59863000  0.17057000  1.0 -0.5658634621
O  O31  1  0.61036000  0.08228000  0.35168000  1.0 -0.518196664
O  O32  1  0.91772000  0.52808000  0.35168000  1.0 -0.518196664
O  O33  1  0.47192000  0.38964000  0.35168000  1.0 -0.518196664
O  O34  1  0.38964000  0.91772000  0.85168000  1.0 -0.518196664
O  O35  1  0.08228000  0.47192000  0.85168000  1.0 -0.518196664
O  O36  1  0.52808000  0.61036000  0.85168000  1.0 -0.518196664
O  O37  1  0.64123000  0.22165000  0.78750000  1.0 -0.5807426888
O  O38  1  0.77835000  0.41958000  0.78750000  1.0 -0.5807426888
O  O39  1  0.58042000  0.35877000  0.78750000  1.0 -0.5807426888
O  O40  1  0.35877000  0.77835000  0.28750000  1.0 -0.5807426888
O  O41  1  0.22165000  0.58042000  0.28750000  1.0 -0.5807426888
O  O42  1  0.41958000  0.64123000  0.28750000  1.0 -0.5807426888
