# DDEC6 charges by PACMAN v1.1 (https://github.com/mtap-research/PACMAN-charge/)
data_OTUDEO_ASR_pacman
_symmetry_space_group_name_H-M   'P 1'
_cell_length_a   20.47510000
_cell_length_b   20.47510000
_cell_length_c   10.40750000
_cell_angle_alpha   90.00000000
_cell_angle_beta   90.00000000
_cell_angle_gamma   120.00000000
_symmetry_Int_Tables_number   1
_chemical_formula_structural   KNaMn3H21(C11O7)3
_chemical_formula_sum   'K2 Na2 Mn6 H42 C66 O42'
_cell_volume   3778.58428743
_cell_formula_units_Z   2
loop_
 _symmetry_equiv_pos_site_id
 _symmetry_equiv_pos_as_xyz
  1  'x, y, z'
loop_
 _atom_site_type_symbol
 _atom_site_label
 _atom_site_symmetry_multiplicity
 _atom_site_fract_x
 _atom_site_fract_y
 _atom_site_fract_z
 _atom_site_occupancy
 _atom_site_charge
K  K1  1  0.33333333  0.66666667  0.93620000  1.0 0.9035387008
K  K2  1  0.66666667  0.33333333  0.43620000  1.0 0.9035387008
Na  Na1  1  0.66666667  0.33333333  0.02826000  1.0 0.8748408525
Na  Na2  1  0.33333333  0.66666667  0.52826000  1.0 0.8748408525
Mn  Mn1  1  0.37972000  0.83466000  0.71282000  1.0 0.9716393618
Mn  Mn2  1  0.16534000  0.54506000  0.71282000  1.0 0.9716393618
Mn  Mn3  1  0.45494000  0.62028000  0.71282000  1.0 0.9716393618
Mn  Mn4  1  0.62028000  0.16534000  0.21282000  1.0 0.9716393618
Mn  Mn5  1  0.83466000  0.45494000  0.21282000  1.0 0.9716393618
Mn  Mn6  1  0.54506000  0.37972000  0.21282000  1.0 0.9716393618
H  H1  1  0.55700000  0.00570000  0.90400000  1.0 0.1503652303
H  H2  1  0.99430000  0.55130000  0.90400000  1.0 0.1503652303
H  H3  1  0.44870000  0.44300000  0.90400000  1.0 0.1503652303
H  H4  1  0.44300000  0.99430000  0.40400000  1.0 0.1503652303
H  H5  1  0.00570000  0.44870000  0.40400000  1.0 0.1503652303
H  H6  1  0.55130000  0.55700000  0.40400000  1.0 0.1503652303
H  H7  1  0.56100000  0.98310000  0.52100000  1.0 0.1419138405
H  H8  1  0.01690000  0.57790000  0.52100000  1.0 0.1419138405
H  H9  1  0.42210000  0.43900000  0.52100000  1.0 0.1419138405
H  H10  1  0.43900000  0.01690000  0.02100000  1.0 0.1419138405
H  H11  1  0.98310000  0.42210000  0.02100000  1.0 0.1419138405
H  H12  1  0.57790000  0.56100000  0.02100000  1.0 0.1419138405
H  H13  1  0.63800000  0.18830000  0.67750000  1.0 0.1260299204
H  H14  1  0.81170000  0.44970000  0.67750000  1.0 0.1260299204
H  H15  1  0.55030000  0.36200000  0.67750000  1.0 0.1260299204
H  H16  1  0.36200000  0.81170000  0.17750000  1.0 0.1260299204
H  H17  1  0.18830000  0.55030000  0.17750000  1.0 0.1260299204
H  H18  1  0.44970000  0.63800000  0.17750000  1.0 0.1260299204
H  H19  1  0.54760000  0.87380000  0.58630000  1.0 0.108564229
H  H20  1  0.12620000  0.67380000  0.58630000  1.0 0.108564229
H  H21  1  0.32620000  0.45240000  0.58630000  1.0 0.108564229
H  H22  1  0.45240000  0.12620000  0.08630000  1.0 0.108564229
H  H23  1  0.87380000  0.32620000  0.08630000  1.0 0.108564229
H  H24  1  0.67380000  0.54760000  0.08630000  1.0 0.108564229
H  H25  1  0.65660000  0.94120000  0.68950000  1.0 0.108564229
H  H26  1  0.05880000  0.71540000  0.68950000  1.0 0.108564229
H  H27  1  0.28460000  0.34340000  0.68950000  1.0 0.108564229
H  H28  1  0.34340000  0.05880000  0.18950000  1.0 0.108564229
H  H29  1  0.94120000  0.28460000  0.18950000  1.0 0.108564229
H  H30  1  0.71540000  0.65660000  0.18950000  1.0 0.108564229
H  H31  1  0.64200000  0.86230000  0.64210000  1.0 0.1419138405
H  H32  1  0.13770000  0.77970000  0.64210000  1.0 0.1419138405
H  H33  1  0.22030000  0.35800000  0.64210000  1.0 0.1419138405
H  H34  1  0.35800000  0.13770000  0.14210000  1.0 0.1419138405
H  H35  1  0.86230000  0.22030000  0.14210000  1.0 0.1419138405
H  H36  1  0.77970000  0.64200000  0.14210000  1.0 0.1419138405
H  H37  1  0.63200000  0.87490000  0.78770000  1.0 0.1419138405
H  H38  1  0.12510000  0.75710000  0.78770000  1.0 0.1419138405
H  H39  1  0.24290000  0.36800000  0.78770000  1.0 0.1419138405
H  H40  1  0.36800000  0.12510000  0.28770000  1.0 0.1419138405
H  H41  1  0.87490000  0.24290000  0.28770000  1.0 0.1419138405
H  H42  1  0.75710000  0.63200000  0.28770000  1.0 0.1419138405
C  C1  1  0.49204000  0.78096000  0.69100000  1.0 0.566869375
C  C2  1  0.21904000  0.71108000  0.69100000  1.0 0.566869375
C  C3  1  0.28892000  0.50796000  0.69100000  1.0 0.566869375
C  C4  1  0.50796000  0.21904000  0.19100000  1.0 0.566869375
C  C5  1  0.78096000  0.28892000  0.19100000  1.0 0.566869375
C  C6  1  0.71108000  0.49204000  0.19100000  1.0 0.566869375
C  C7  1  0.61539000  0.15371000  0.92760000  1.0 0.566869375
C  C8  1  0.84629000  0.46168000  0.92760000  1.0 0.566869375
C  C9  1  0.53832000  0.38461000  0.92760000  1.0 0.566869375
C  C10  1  0.38461000  0.84629000  0.42760000  1.0 0.566869375
C  C11  1  0.15371000  0.53832000  0.42760000  1.0 0.566869375
C  C12  1  0.46168000  0.61539000  0.42760000  1.0 0.566869375
C  C13  1  0.60076000  0.10543000  0.80900000  1.0 0.0046255632
C  C14  1  0.89457000  0.49533000  0.80900000  1.0 0.0046255632
C  C15  1  0.50467000  0.39924000  0.80900000  1.0 0.0046255632
C  C16  1  0.39924000  0.89457000  0.30900000  1.0 0.0046255632
C  C17  1  0.10543000  0.50467000  0.30900000  1.0 0.0046255632
C  C18  1  0.49533000  0.60076000  0.30900000  1.0 0.0046255632
C  C19  1  0.56827000  0.02725000  0.82250000  1.0 -0.1865057083
C  C20  1  0.97275000  0.54102000  0.82250000  1.0 -0.1865057083
C  C21  1  0.45898000  0.43173000  0.82250000  1.0 -0.1865057083
C  C22  1  0.43173000  0.97275000  0.32250000  1.0 -0.1865057083
C  C23  1  0.02725000  0.45898000  0.32250000  1.0 -0.1865057083
C  C24  1  0.54102000  0.56827000  0.32250000  1.0 -0.1865057083
C  C25  1  0.57070000  0.01362000  0.59290000  1.0 -0.2012526325
C  C26  1  0.98638000  0.55708000  0.59290000  1.0 -0.2012526325
C  C27  1  0.44292000  0.42930000  0.59290000  1.0 -0.2012526325
C  C28  1  0.42930000  0.98638000  0.09290000  1.0 -0.2012526325
C  C29  1  0.01362000  0.44292000  0.09290000  1.0 -0.2012526325
C  C30  1  0.55708000  0.57070000  0.09290000  1.0 -0.2012526325
C  C31  1  0.55295000  0.98215000  0.71580000  1.0 0.2490433671
C  C32  1  0.01785000  0.57080000  0.71580000  1.0 0.2490433671
C  C33  1  0.42920000  0.44705000  0.71580000  1.0 0.2490433671
C  C34  1  0.44705000  0.01785000  0.21580000  1.0 0.2490433671
C  C35  1  0.98215000  0.42920000  0.21580000  1.0 0.2490433671
C  C36  1  0.57080000  0.55295000  0.21580000  1.0 0.2490433671
C  C37  1  0.60310000  0.09121000  0.57970000  1.0 -0.0059984745
C  C38  1  0.90879000  0.51189000  0.57970000  1.0 -0.0059984745
C  C39  1  0.48811000  0.39690000  0.57970000  1.0 -0.0059984745
C  C40  1  0.39690000  0.90879000  0.07970000  1.0 -0.0059984745
C  C41  1  0.09121000  0.48811000  0.07970000  1.0 -0.0059984745
C  C42  1  0.51189000  0.60310000  0.07970000  1.0 -0.0059984745
C  C43  1  0.61721000  0.13651000  0.68750000  1.0 -0.1222402894
C  C44  1  0.86349000  0.48070000  0.68750000  1.0 -0.1222402894
C  C45  1  0.51930000  0.38279000  0.68750000  1.0 -0.1222402894
C  C46  1  0.38279000  0.86349000  0.18750000  1.0 -0.1222402894
C  C47  1  0.13651000  0.51930000  0.18750000  1.0 -0.1222402894
C  C48  1  0.48070000  0.61721000  0.18750000  1.0 -0.1222402894
C  C49  1  0.61775000  0.12455000  0.44780000  1.0 0.5613660682
C  C50  1  0.87545000  0.49320000  0.44780000  1.0 0.5613660682
C  C51  1  0.50680000  0.38225000  0.44780000  1.0 0.5613660682
C  C52  1  0.38225000  0.87545000  0.94780000  1.0 0.5613660682
C  C53  1  0.12455000  0.50680000  0.94780000  1.0 0.5613660682
C  C54  1  0.49320000  0.61775000  0.94780000  1.0 0.5613660682
C  C55  1  0.54854000  0.86457000  0.67840000  1.0 0.0531928962
C  C56  1  0.13543000  0.68397000  0.67840000  1.0 0.0531928962
C  C57  1  0.31603000  0.45146000  0.67840000  1.0 0.0531928962
C  C58  1  0.45146000  0.13543000  0.17840000  1.0 0.0531928962
C  C59  1  0.86457000  0.31603000  0.17840000  1.0 0.0531928962
C  C60  1  0.68397000  0.54854000  0.17840000  1.0 0.0531928962
C  C61  1  0.62620000  0.88760000  0.70130000  1.0 -0.3684791556
C  C62  1  0.11240000  0.73860000  0.70130000  1.0 -0.3684791556
C  C63  1  0.26140000  0.37380000  0.70130000  1.0 -0.3684791556
C  C64  1  0.37380000  0.11240000  0.20130000  1.0 -0.3684791556
C  C65  1  0.88760000  0.26140000  0.20130000  1.0 -0.3684791556
C  C66  1  0.73860000  0.62620000  0.20130000  1.0 -0.3684791556
O  O1  1  0.42351000  0.75904000  0.69959000  1.0 -0.6025391252
O  O2  1  0.24096000  0.66447000  0.69959000  1.0 -0.6025391252
O  O3  1  0.33553000  0.57649000  0.69959000  1.0 -0.6025391252
O  O4  1  0.57649000  0.24096000  0.19959000  1.0 -0.6025391252
O  O5  1  0.75904000  0.33553000  0.19959000  1.0 -0.6025391252
O  O6  1  0.66447000  0.42351000  0.19959000  1.0 -0.6025391252
O  O7  1  0.51925000  0.73846000  0.68630000  1.0 -0.4829368672
O  O8  1  0.26154000  0.78079000  0.68630000  1.0 -0.4829368672
O  O9  1  0.21921000  0.48075000  0.68630000  1.0 -0.4829368672
O  O10  1  0.48075000  0.26154000  0.18630000  1.0 -0.4829368672
O  O11  1  0.73846000  0.21921000  0.18630000  1.0 -0.4829368672
O  O12  1  0.78079000  0.51925000  0.18630000  1.0 -0.4829368672
O  O13  1  0.51498000  0.90452000  0.73422000  1.0 -0.228575054
O  O14  1  0.09548000  0.61046000  0.73422000  1.0 -0.228575054
O  O15  1  0.38954000  0.48502000  0.73422000  1.0 -0.228575054
O  O16  1  0.48502000  0.09548000  0.23422000  1.0 -0.228575054
O  O17  1  0.90452000  0.38954000  0.23422000  1.0 -0.228575054
O  O18  1  0.61046000  0.51498000  0.23422000  1.0 -0.228575054
O  O19  1  0.63338000  0.19156000  0.43195000  1.0 -0.6173527868
O  O20  1  0.80844000  0.44182000  0.43195000  1.0 -0.6173527868
O  O21  1  0.55818000  0.36662000  0.43195000  1.0 -0.6173527868
O  O22  1  0.36662000  0.80844000  0.93195000  1.0 -0.6173527868
O  O23  1  0.19156000  0.55818000  0.93195000  1.0 -0.6173527868
O  O24  1  0.44182000  0.63338000  0.93195000  1.0 -0.6173527868
O  O25  1  0.59971000  0.11777000  0.03277000  1.0 -0.561851147
O  O26  1  0.88223000  0.48194000  0.03277000  1.0 -0.561851147
O  O27  1  0.51806000  0.40029000  0.03277000  1.0 -0.561851147
O  O28  1  0.40029000  0.88223000  0.53277000  1.0 -0.561851147
O  O29  1  0.11777000  0.51806000  0.53277000  1.0 -0.561851147
O  O30  1  0.48194000  0.59971000  0.53277000  1.0 -0.561851147
O  O31  1  0.61117000  0.08281000  0.35269000  1.0 -0.5230687491
O  O32  1  0.91719000  0.52836000  0.35269000  1.0 -0.5230687491
O  O33  1  0.47164000  0.38883000  0.35269000  1.0 -0.5230687491
O  O34  1  0.38883000  0.91719000  0.85269000  1.0 -0.5230687491
O  O35  1  0.08281000  0.47164000  0.85269000  1.0 -0.5230687491
O  O36  1  0.52836000  0.61117000  0.85269000  1.0 -0.5230687491
O  O37  1  0.64057000  0.22188000  0.91580000  1.0 -0.5847901137
O  O38  1  0.77812000  0.41869000  0.91580000  1.0 -0.58523542
O  O39  1  0.58131000  0.35943000  0.91580000  1.0 -0.5847901137
O  O40  1  0.35943000  0.77812000  0.41580000  1.0 -0.5847901137
O  O41  1  0.22188000  0.58131000  0.41580000  1.0 -0.5847901137
O  O42  1  0.41869000  0.64057000  0.41580000  1.0 -0.5847901137
