# DDEC6 charges by PACMAN v1.1 (https://github.com/mtap-research/PACMAN-charge/)
data_OVEJIJ_FSR_pacman
_symmetry_space_group_name_H-M   'P 1'
_cell_length_a   14.30490000
_cell_length_b   10.15370000
_cell_length_c   23.21660000
_cell_angle_alpha   90.00000000
_cell_angle_beta   127.92800000
_cell_angle_gamma   90.00000000
_symmetry_Int_Tables_number   1
_chemical_formula_structural   V9(P4O23)2
_chemical_formula_sum   'V18 P16 O92'
_cell_volume   2659.90271107
_cell_formula_units_Z   2
loop_
 _symmetry_equiv_pos_site_id
 _symmetry_equiv_pos_as_xyz
  1  'x, y, z'
loop_
 _atom_site_type_symbol
 _atom_site_label
 _atom_site_symmetry_multiplicity
 _atom_site_fract_x
 _atom_site_fract_y
 _atom_site_fract_z
 _atom_site_occupancy
 _atom_site_charge
V  V1  1  0.09141000  0.20040000  0.80320000  1.0 1.9219691479
V  V2  1  0.90859000  0.70040000  0.69680000  1.0 1.9219691479
V  V3  1  0.90859000  0.79960000  0.19680000  1.0 1.9219691479
V  V4  1  0.09141000  0.29960000  0.30320000  1.0 1.9219691479
V  V5  1  0.00000000  0.50000000  0.00000000  1.0 1.8486607595
V  V6  1  0.00000000  0.00000000  0.50000000  1.0 1.8446156307
V  V7  1  0.13852000  0.68450000  0.89617000  1.0 1.9133206381
V  V8  1  0.86148000  0.18450000  0.60383000  1.0 1.9133206381
V  V9  1  0.86148000  0.31550000  0.10383000  1.0 1.9133206381
V  V10  1  0.13852000  0.81550000  0.39617000  1.0 1.9133206381
V  V11  1  0.44983000  0.84789000  0.19661000  1.0 1.9219691479
V  V12  1  0.55017000  0.34789000  0.30339000  1.0 1.9219691479
V  V13  1  0.55017000  0.15211000  0.80339000  1.0 1.9252490326
V  V14  1  0.44983000  0.65211000  0.69661000  1.0 1.9252490326
V  V15  1  0.36080000  0.36237000  0.10754000  1.0 1.9133206381
V  V16  1  0.63920000  0.86237000  0.39246000  1.0 1.9133206381
V  V17  1  0.63920000  0.63763000  0.89246000  1.0 1.9133206381
V  V18  1  0.36080000  0.13763000  0.60754000  1.0 1.9133206381
P  P1  1  0.64816000  0.63699000  0.30221000  1.0 1.5035124345
P  P2  1  0.35184000  0.13699000  0.19779000  1.0 1.5055761858
P  P3  1  0.35184000  0.36301000  0.69779000  1.0 1.5055761858
P  P4  1  0.64816000  0.86301000  0.80221000  1.0 1.5035124345
P  P5  1  0.25368000  0.64285000  0.06954000  1.0 1.5928145273
P  P6  1  0.74632000  0.14285000  0.43046000  1.0 1.5928145273
P  P7  1  0.74632000  0.35715000  0.93046000  1.0 1.5928145273
P  P8  1  0.25368000  0.85715000  0.56954000  1.0 1.5928145273
P  P9  1  0.01955000  0.42923000  0.68635000  1.0 1.4715786501
P  P10  1  0.98045000  0.92923000  0.81365000  1.0 1.4715786501
P  P11  1  0.98045000  0.57077000  0.31365000  1.0 1.4715786501
P  P12  1  0.01955000  0.07077000  0.18635000  1.0 1.4752334877
P  P13  1  0.13148000  0.38912000  0.93315000  1.0 1.5684896036
P  P14  1  0.86852000  0.88912000  0.56685000  1.0 1.5684896036
P  P15  1  0.86852000  0.61088000  0.06685000  1.0 1.5684896036
P  P16  1  0.13148000  0.11088000  0.43315000  1.0 1.5684896036
O  O1  1  0.19312000  0.71240000  0.99612000  1.0 -0.7509449589
O  O2  1  0.80688000  0.21240000  0.50388000  1.0 -0.7509449589
O  O3  1  0.80688000  0.28760000  0.00388000  1.0 -0.7509449589
O  O4  1  0.19312000  0.78760000  0.49612000  1.0 -0.7509449589
O  O5  1  0.13500000  0.48740000  0.70520000  1.0 -0.4601903313
O  O6  1  0.86500000  0.98740000  0.79480000  1.0 -0.4601903313
O  O7  1  0.86500000  0.51260000  0.29480000  1.0 -0.4601903313
O  O8  1  0.13500000  0.01260000  0.20520000  1.0 -0.4601903313
O  O9  1  0.71980000  0.67430000  0.27540000  1.0 -0.4601903313
O  O10  1  0.28020000  0.17430000  0.22460000  1.0 -0.4601903313
O  O11  1  0.28020000  0.32570000  0.72460000  1.0 -0.4601903313
O  O12  1  0.71980000  0.82570000  0.77540000  1.0 -0.4601903313
O  O13  1  0.04178000  0.37140000  0.75448000  1.0 -0.7509449589
O  O14  1  0.95822000  0.87140000  0.74552000  1.0 -0.7509449589
O  O15  1  0.95822000  0.62860000  0.24552000  1.0 -0.7509449589
O  O16  1  0.04178000  0.12860000  0.25448000  1.0 -0.7509449589
O  O17  1  0.16759000  0.55870000  0.07149000  1.0 -0.78441038
O  O18  1  0.83241000  0.05870000  0.42851000  1.0 -0.78441038
O  O19  1  0.83241000  0.44130000  0.92851000  1.0 -0.78441038
O  O20  1  0.16759000  0.94130000  0.57149000  1.0 -0.78441038
O  O21  1  0.22446000  0.32600000  0.00646000  1.0 -0.7389542536
O  O22  1  0.77554000  0.82600000  0.49354000  1.0 -0.7389542536
O  O23  1  0.77554000  0.67400000  0.99354000  1.0 -0.7389542536
O  O24  1  0.22446000  0.17400000  0.50646000  1.0 -0.7389542536
O  O25  1  0.69938000  0.70880000  0.37348000  1.0 -0.7006241904
O  O26  1  0.30062000  0.20880000  0.12652000  1.0 -0.7006241904
O  O27  1  0.30062000  0.29120000  0.62652000  1.0 -0.7006241904
O  O28  1  0.69938000  0.79120000  0.87348000  1.0 -0.7006241904
O  O29  1  0.22360000  0.18460000  0.83100000  1.0 -0.4601903313
O  O30  1  0.77640000  0.68460000  0.66900000  1.0 -0.4601903313
O  O31  1  0.77640000  0.81540000  0.16900000  1.0 -0.4601903313
O  O32  1  0.22360000  0.31540000  0.33100000  1.0 -0.4601903313
O  O33  1  0.02723000  0.44400000  0.92913000  1.0 -0.7389542536
O  O34  1  0.97277000  0.94400000  0.57087000  1.0 -0.7389542536
O  O35  1  0.97277000  0.55600000  0.07087000  1.0 -0.7389542536
O  O36  1  0.02723000  0.05600000  0.42913000  1.0 -0.7348787264
O  O37  1  0.08053000  0.28400000  0.87403000  1.0 -0.680379279
O  O38  1  0.91947000  0.78400000  0.62597000  1.0 -0.680379279
O  O39  1  0.91947000  0.71600000  0.12597000  1.0 -0.680379279
O  O40  1  0.08053000  0.21600000  0.37403000  1.0 -0.680379279
O  O41  1  0.51802000  0.67680000  0.24342000  1.0 -0.7509449589
O  O42  1  0.48198000  0.17680000  0.25658000  1.0 -0.7509449589
O  O43  1  0.48198000  0.32320000  0.75658000  1.0 -0.7509449589
O  O44  1  0.51802000  0.82320000  0.74342000  1.0 -0.7509449589
O  O45  1  0.23540000  0.74890000  0.89200000  1.0 -0.46684099
O  O46  1  0.76460000  0.24890000  0.60800000  1.0 -0.46684099
O  O47  1  0.76460000  0.25110000  0.10800000  1.0 -0.46684099
O  O48  1  0.23540000  0.75110000  0.39200000  1.0 -0.4601903313
O  O49  1  0.30104000  0.74860000  0.12854000  1.0 -0.6645569877
O  O50  1  0.69896000  0.24860000  0.37146000  1.0 -0.6645569877
O  O51  1  0.69896000  0.25140000  0.87146000  1.0 -0.6645569877
O  O52  1  0.30104000  0.75140000  0.62854000  1.0 -0.6645569877
O  O53  1  0.57553000  0.92570000  0.29383000  1.0 -0.7680795566
O  O54  1  0.42447000  0.42570000  0.20617000  1.0 -0.7680795566
O  O55  1  0.42447000  0.07430000  0.70617000  1.0 -0.7680795566
O  O56  1  0.57553000  0.57430000  0.79383000  1.0 -0.7680795566
O  O57  1  0.93118000  0.54020000  0.65888000  1.0 -0.7108185814
O  O58  1  0.06882000  0.04020000  0.84112000  1.0 -0.7108185814
O  O59  1  0.06882000  0.45980000  0.34112000  1.0 -0.7108185814
O  O60  1  0.93118000  0.95980000  0.15888000  1.0 -0.7108185814
O  O61  1  0.18639000  0.50050000  0.91839000  1.0 -0.7509449589
O  O62  1  0.81361000  0.00050000  0.58161000  1.0 -0.7509449589
O  O63  1  0.81361000  0.49950000  0.08161000  1.0 -0.7556298451
O  O64  1  0.18639000  0.99950000  0.41839000  1.0 -0.7509449589
O  O65  1  0.47350000  0.31250000  0.11580000  1.0 -0.4789118321
O  O66  1  0.52650000  0.81250000  0.38420000  1.0 -0.4789118321
O  O67  1  0.52650000  0.68750000  0.88420000  1.0 -0.4789118321
O  O68  1  0.47350000  0.18750000  0.61580000  1.0 -0.4789118321
O  O69  1  0.98859000  0.11890000  0.70479000  1.0 -0.7509449589
O  O70  1  0.01141000  0.61890000  0.79521000  1.0 -0.7509449589
O  O71  1  0.01141000  0.88110000  0.29521000  1.0 -0.7509449589
O  O72  1  0.98859000  0.38110000  0.20479000  1.0 -0.7509449589
O  O73  1  0.95090000  0.67300000  0.95280000  1.0 -0.2165979024
O  O74  1  0.04910000  0.17300000  0.54720000  1.0 -0.2165979024
O  O75  1  0.04910000  0.32700000  0.04720000  1.0 -0.2165979024
O  O76  1  0.95090000  0.82700000  0.45280000  1.0 -0.2126852946
O  O77  1  0.97376000  0.32540000  0.62716000  1.0 -0.7006241904
O  O78  1  0.02624000  0.82540000  0.87284000  1.0 -0.7006241904
O  O79  1  0.02624000  0.67460000  0.37284000  1.0 -0.7006241904
O  O80  1  0.97376000  0.17460000  0.12716000  1.0 -0.7006241904
O  O81  1  0.65656000  0.48840000  0.31566000  1.0 -0.721462913
O  O82  1  0.34344000  0.98840000  0.18434000  1.0 -0.721462913
O  O83  1  0.34344000  0.51160000  0.68434000  1.0 -0.721462913
O  O84  1  0.65656000  0.01160000  0.81566000  1.0 -0.721462913
O  O85  1  0.35376000  0.55390000  0.08576000  1.0 -0.7509449589
O  O86  1  0.64624000  0.05390000  0.41424000  1.0 -0.7509449589
O  O87  1  0.64624000  0.44610000  0.91424000  1.0 -0.7509449589
O  O88  1  0.35376000  0.94610000  0.58576000  1.0 -0.7509449589
O  O89  1  0.49330000  0.88560000  0.15040000  1.0 -0.4789118321
O  O90  1  0.50670000  0.38560000  0.34960000  1.0 -0.4789118321
O  O91  1  0.50670000  0.11440000  0.84960000  1.0 -0.4789118321
O  O92  1  0.49330000  0.61440000  0.65040000  1.0 -0.4789118321
