# DDEC6 charges by PACMAN v1.1 (https://github.com/mtap-research/PACMAN-charge/)
data_OVEKEI_FSR_pacman
_symmetry_space_group_name_H-M   'P 1'
_cell_length_a   12.57270000
_cell_length_b   15.77750000
_cell_length_c   14.02480000
_cell_angle_alpha   90.00000000
_cell_angle_beta   102.53900000
_cell_angle_gamma   90.00000000
_symmetry_Int_Tables_number   1
_chemical_formula_structural   GaC6SO5
_chemical_formula_sum   'Ga8 C48 S8 O40'
_cell_volume   2715.68435157
_cell_formula_units_Z   8
loop_
 _symmetry_equiv_pos_site_id
 _symmetry_equiv_pos_as_xyz
  1  'x, y, z'
loop_
 _atom_site_type_symbol
 _atom_site_label
 _atom_site_symmetry_multiplicity
 _atom_site_fract_x
 _atom_site_fract_y
 _atom_site_fract_z
 _atom_site_occupancy
 _atom_site_charge
Ga  Ga1  1  0.22130000  0.45020000  0.44160000  1.0 1.3132076444
Ga  Ga2  1  0.77870000  0.95020000  0.05840000  1.0 1.3132076444
Ga  Ga3  1  0.77870000  0.54980000  0.55840000  1.0 1.3132076444
Ga  Ga4  1  0.22130000  0.04980000  0.94160000  1.0 1.3132076444
Ga  Ga5  1  0.50000000  0.50000000  0.50000000  1.0 1.2539736511
Ga  Ga6  1  0.50000000  0.00000000  0.00000000  1.0 1.2539736511
Ga  Ga7  1  0.00000000  0.50000000  0.50000000  1.0 1.293602872
Ga  Ga8  1  0.00000000  0.00000000  0.00000000  1.0 1.2963877202
C  C1  1  0.40350000  0.33500000  0.26400000  1.0 -0.1503648205
C  C2  1  0.39270000  0.25500000  0.29800000  1.0 -0.0216067448
C  C3  1  0.39410000  0.19100000  0.23000000  1.0 0.0062389675
C  C4  1  0.40610000  0.21700000  0.14100000  1.0 -0.1120679571
C  C5  1  0.40860000  0.15400000  0.06300000  1.0 0.6315515072
C  C6  1  0.40320000  0.40800000  0.32900000  1.0 0.6376904876
C  C7  1  0.06900000  0.84800000  0.77160000  1.0 -0.1887917189
C  C8  1  0.15300000  0.82500000  0.72900000  1.0 0.0516910514
C  C9  1  0.12200000  0.75600000  0.66500000  1.0 0.0516910514
C  C10  1  0.01700000  0.73150000  0.66610000  1.0 -0.1776529221
C  C11  1  0.96900000  0.66200000  0.60700000  1.0 0.6211026268
C  C12  1  0.08200000  0.91700000  0.83900000  1.0 0.6211026268
C  C13  1  0.59650000  0.83500000  0.23600000  1.0 -0.1503648205
C  C14  1  0.60730000  0.75500000  0.20200000  1.0 -0.0216067448
C  C15  1  0.60590000  0.69100000  0.27000000  1.0 0.0062389675
C  C16  1  0.59390000  0.71700000  0.35900000  1.0 -0.1120679571
C  C17  1  0.59140000  0.65400000  0.43700000  1.0 0.6315515072
C  C18  1  0.59680000  0.90800000  0.17100000  1.0 0.6376904876
C  C19  1  0.93100000  0.34800000  0.72840000  1.0 -0.1887917189
C  C20  1  0.84700000  0.32500000  0.77100000  1.0 0.0516910514
C  C21  1  0.87800000  0.25600000  0.83500000  1.0 0.0516910514
C  C22  1  0.98300000  0.23150000  0.83390000  1.0 -0.1776529221
C  C23  1  0.03100000  0.16200000  0.89300000  1.0 0.6211026268
C  C24  1  0.91800000  0.41700000  0.66100000  1.0 0.6211026268
C  C25  1  0.59650000  0.66500000  0.73600000  1.0 -0.1503648205
C  C26  1  0.60730000  0.74500000  0.70200000  1.0 -0.0216067448
C  C27  1  0.60590000  0.80900000  0.77000000  1.0 0.0062389675
C  C28  1  0.59390000  0.78300000  0.85900000  1.0 -0.1120679571
C  C29  1  0.59140000  0.84600000  0.93700000  1.0 0.6315515072
C  C30  1  0.59680000  0.59200000  0.67100000  1.0 0.6376904876
C  C31  1  0.93100000  0.15200000  0.22840000  1.0 -0.1887917189
C  C32  1  0.84700000  0.17500000  0.27100000  1.0 0.0516910514
C  C33  1  0.87800000  0.24400000  0.33500000  1.0 0.0516910514
C  C34  1  0.98300000  0.26850000  0.33390000  1.0 -0.1776529221
C  C35  1  0.03100000  0.33800000  0.39300000  1.0 0.6211026268
C  C36  1  0.91800000  0.08300000  0.16100000  1.0 0.6211026268
C  C37  1  0.40350000  0.16500000  0.76400000  1.0 -0.1503648205
C  C38  1  0.39270000  0.24500000  0.79800000  1.0 -0.0216067448
C  C39  1  0.39410000  0.30900000  0.73000000  1.0 0.0062389675
C  C40  1  0.40610000  0.28300000  0.64100000  1.0 -0.1120679571
C  C41  1  0.40860000  0.34600000  0.56300000  1.0 0.6315515072
C  C42  1  0.40320000  0.09200000  0.82900000  1.0 0.6376904876
C  C43  1  0.06900000  0.65200000  0.27160000  1.0 -0.1887917189
C  C44  1  0.15300000  0.67500000  0.22900000  1.0 0.0516910514
C  C45  1  0.12200000  0.74400000  0.16500000  1.0 0.0516910514
C  C46  1  0.01700000  0.76850000  0.16610000  1.0 -0.1776529221
C  C47  1  0.96900000  0.83800000  0.10700000  1.0 0.6211026268
C  C48  1  0.08200000  0.58300000  0.33900000  1.0 0.6211026268
S  S1  1  0.41530000  0.32450000  0.14600000  1.0 0.1830390425
S  S2  1  0.95480000  0.78900000  0.73950000  1.0 0.1986583353
S  S3  1  0.58470000  0.82450000  0.35400000  1.0 0.1830390425
S  S4  1  0.04520000  0.28900000  0.76050000  1.0 0.1986583353
S  S5  1  0.58470000  0.67550000  0.85400000  1.0 0.1830390425
S  S6  1  0.04520000  0.21100000  0.26050000  1.0 0.1986583353
S  S7  1  0.41530000  0.17550000  0.64600000  1.0 0.1830390425
S  S8  1  0.95480000  0.71100000  0.23950000  1.0 0.1986583353
O  O1  1  0.15900000  0.46300000  0.55400000  1.0 -0.6238158066
O  O2  1  0.34400000  0.52400000  0.48600000  1.0 -0.5664496092
O  O3  1  0.31400000  0.43400000  0.34700000  1.0 -0.4481620906
O  O4  1  0.49700000  0.11700000  0.05900000  1.0 -0.4689856085
O  O5  1  0.01800000  0.92600000  0.89600000  1.0 -0.4689856085
O  O6  1  0.32200000  0.13600000  0.00100000  1.0 -0.4563184647
O  O7  1  0.49200000  0.44500000  0.36700000  1.0 -0.4689856085
O  O8  1  0.86600000  0.65000000  0.59200000  1.0 -0.4888045011
O  O9  1  0.02800000  0.61200000  0.57000000  1.0 -0.4689856085
O  O10  1  0.15900000  0.97000000  0.84100000  1.0 -0.4798492386
O  O11  1  0.84100000  0.96300000  0.94600000  1.0 -0.6263418315
O  O12  1  0.65600000  0.02400000  0.01400000  1.0 -0.5664496092
O  O13  1  0.68600000  0.93400000  0.15300000  1.0 -0.4481620906
O  O14  1  0.50300000  0.61700000  0.44100000  1.0 -0.4689856085
O  O15  1  0.98200000  0.42600000  0.60400000  1.0 -0.4689856085
O  O16  1  0.67800000  0.63600000  0.49900000  1.0 -0.4563184647
O  O17  1  0.50800000  0.94500000  0.13300000  1.0 -0.4689856085
O  O18  1  0.13400000  0.15000000  0.90800000  1.0 -0.4888045011
O  O19  1  0.97200000  0.11200000  0.93000000  1.0 -0.4689856085
O  O20  1  0.84100000  0.47000000  0.65900000  1.0 -0.4798492386
O  O21  1  0.84100000  0.53700000  0.44600000  1.0 -0.6238158066
O  O22  1  0.65600000  0.47600000  0.51400000  1.0 -0.5664496092
O  O23  1  0.68600000  0.56600000  0.65300000  1.0 -0.4481620906
O  O24  1  0.50300000  0.88300000  0.94100000  1.0 -0.4689856085
O  O25  1  0.98200000  0.07400000  0.10400000  1.0 -0.4689856085
O  O26  1  0.67800000  0.86400000  0.99900000  1.0 -0.4563184647
O  O27  1  0.50800000  0.55500000  0.63300000  1.0 -0.4689856085
O  O28  1  0.13400000  0.35000000  0.40800000  1.0 -0.4888045011
O  O29  1  0.97200000  0.38800000  0.43000000  1.0 -0.4689856085
O  O30  1  0.84100000  0.03000000  0.15900000  1.0 -0.4798492386
O  O31  1  0.15900000  0.03700000  0.05400000  1.0 -0.6238158066
O  O32  1  0.34400000  0.97600000  0.98600000  1.0 -0.5664496092
O  O33  1  0.31400000  0.06600000  0.84700000  1.0 -0.4481620906
O  O34  1  0.49700000  0.38300000  0.55900000  1.0 -0.4689856085
O  O35  1  0.01800000  0.57400000  0.39600000  1.0 -0.4689856085
O  O36  1  0.32200000  0.36400000  0.50100000  1.0 -0.4563184647
O  O37  1  0.49200000  0.05500000  0.86700000  1.0 -0.4689856085
O  O38  1  0.86600000  0.85000000  0.09200000  1.0 -0.4888045011
O  O39  1  0.02800000  0.88800000  0.07000000  1.0 -0.4689856085
O  O40  1  0.15900000  0.53000000  0.34100000  1.0 -0.4798492386
