# DDEC6 charges by PACMAN v1.1 (https://github.com/mtap-research/PACMAN-charge/)
data_OVUVIL_ASR_pacman
_symmetry_space_group_name_H-M   'P 1'
_cell_length_a   14.35580000
_cell_length_b   14.35580000
_cell_length_c   14.35580000
_cell_angle_alpha   116.84500000
_cell_angle_beta   116.84500000
_cell_angle_gamma   95.55810000
_symmetry_Int_Tables_number   1
_chemical_formula_structural   ZnH4C16NO8
_chemical_formula_sum   'Zn4 H16 C64 N4 O32'
_cell_volume   2180.67247475
_cell_formula_units_Z   4
loop_
 _symmetry_equiv_pos_site_id
 _symmetry_equiv_pos_as_xyz
  1  'x, y, z'
loop_
 _atom_site_type_symbol
 _atom_site_label
 _atom_site_symmetry_multiplicity
 _atom_site_fract_x
 _atom_site_fract_y
 _atom_site_fract_z
 _atom_site_occupancy
 _atom_site_charge
Zn  Zn1  1  0.07719000  0.07719000  0.00000000  1.0 0.7862617573
Zn  Zn2  1  0.42281000  0.42281000  0.00000000  1.0 0.7862617573
Zn  Zn3  1  0.92281000  0.92281000  0.00000000  1.0 0.7862617573
Zn  Zn4  1  0.57719000  0.57719000  0.00000000  1.0 0.7862617573
H  H1  1  0.91820000  0.22440000  0.90720000  1.0 0.3409219733
H  H2  1  0.31720000  0.01100000  0.09280000  1.0 0.3409219733
H  H3  1  0.58180000  0.48900000  0.30620000  1.0 0.3409219733
H  H4  1  0.18280000  0.27560000  0.69380000  1.0 0.3409219733
H  H5  1  0.27560000  0.58180000  0.09280000  1.0 0.3409219733
H  H6  1  0.48900000  0.18280000  0.90720000  1.0 0.3409219733
H  H7  1  0.01100000  0.91820000  0.69380000  1.0 0.3409219733
H  H8  1  0.22440000  0.31720000  0.30620000  1.0 0.3409219733
H  H9  1  0.08180000  0.77560000  0.09280000  1.0 0.3409219733
H  H10  1  0.68280000  0.98900000  0.90720000  1.0 0.3409219733
H  H11  1  0.41820000  0.51100000  0.69380000  1.0 0.3409219733
H  H12  1  0.81720000  0.72440000  0.30620000  1.0 0.3409219733
H  H13  1  0.72440000  0.41820000  0.90720000  1.0 0.3409219733
H  H14  1  0.51100000  0.81720000  0.09280000  1.0 0.3409219733
H  H15  1  0.98900000  0.08180000  0.30620000  1.0 0.3409219733
H  H16  1  0.77560000  0.68280000  0.69380000  1.0 0.3409219733
C  C1  1  0.84800000  0.07670000  0.92470000  1.0 0.606502173
C  C2  1  0.15200000  0.92330000  0.07530000  1.0 0.606502173
C  C3  1  0.65200000  0.57670000  0.22870000  1.0 0.606502173
C  C4  1  0.34800000  0.42330000  0.77130000  1.0 0.606502173
C  C5  1  0.42330000  0.65200000  0.07530000  1.0 0.606502173
C  C6  1  0.57670000  0.34800000  0.92470000  1.0 0.606502173
C  C7  1  0.92330000  0.84800000  0.77130000  1.0 0.606502173
C  C8  1  0.07670000  0.15200000  0.22870000  1.0 0.606502173
C  C9  1  0.76990000  0.13750000  0.90740000  1.0 -0.3091495359
C  C10  1  0.23010000  0.86250000  0.09260000  1.0 -0.3091495359
C  C11  1  0.73010000  0.63750000  0.36760000  1.0 -0.3091495359
C  C12  1  0.26990000  0.36250000  0.63240000  1.0 -0.3091495359
C  C13  1  0.36250000  0.73010000  0.09260000  1.0 -0.3091495359
C  C14  1  0.63750000  0.26990000  0.90740000  1.0 -0.3091495359
C  C15  1  0.86250000  0.76990000  0.63240000  1.0 -0.3091495359
C  C16  1  0.13750000  0.23010000  0.36760000  1.0 -0.3091495359
C  C17  1  0.79650000  0.23130000  0.90320000  1.0 0.21482401
C  C18  1  0.32810000  0.89330000  0.09680000  1.0 0.21482401
C  C19  1  0.70350000  0.60670000  0.43480000  1.0 0.21482401
C  C20  1  0.17190000  0.26870000  0.56520000  1.0 0.21482401
C  C21  1  0.26870000  0.70350000  0.09680000  1.0 0.2155386707
C  C22  1  0.60670000  0.17190000  0.90320000  1.0 0.21482401
C  C23  1  0.89330000  0.79650000  0.56520000  1.0 0.21482401
C  C24  1  0.23130000  0.32810000  0.43480000  1.0 0.21482401
C  C25  1  0.20350000  0.76870000  0.09680000  1.0 0.2155386707
C  C26  1  0.67190000  0.10670000  0.90320000  1.0 0.21482401
C  C27  1  0.29650000  0.39330000  0.56520000  1.0 0.21482401
C  C28  1  0.82810000  0.73130000  0.43480000  1.0 0.21482401
C  C29  1  0.73130000  0.29650000  0.90320000  1.0 0.21482401
C  C30  1  0.39330000  0.82810000  0.09680000  1.0 0.21482401
C  C31  1  0.10670000  0.20350000  0.43480000  1.0 0.21482401
C  C32  1  0.76870000  0.67190000  0.56520000  1.0 0.21482401
C  C33  1  0.11850000  0.23220000  0.93230000  1.0 -0.0081766749
C  C34  1  0.29990000  0.18620000  0.06770000  1.0 -0.0081766749
C  C35  1  0.38150000  0.31380000  0.11370000  1.0 -0.0081766749
C  C36  1  0.20010000  0.26780000  0.88630000  1.0 -0.0081766749
C  C37  1  0.26780000  0.38150000  0.06770000  1.0 -0.0081766749
C  C38  1  0.31380000  0.20010000  0.93230000  1.0 -0.0081766749
C  C39  1  0.18620000  0.11850000  0.88630000  1.0 -0.0081766749
C  C40  1  0.23220000  0.29990000  0.11370000  1.0 -0.0081766749
C  C41  1  0.88150000  0.76780000  0.06770000  1.0 -0.0081766749
C  C42  1  0.70010000  0.81380000  0.93230000  1.0 -0.0081766749
C  C43  1  0.61850000  0.68620000  0.88630000  1.0 -0.0081766749
C  C44  1  0.79990000  0.73220000  0.11370000  1.0 -0.0081766749
C  C45  1  0.73220000  0.61850000  0.93230000  1.0 -0.0081766749
C  C46  1  0.68620000  0.79990000  0.06770000  1.0 -0.0081766749
C  C47  1  0.81380000  0.88150000  0.11370000  1.0 -0.0081766749
C  C48  1  0.76780000  0.70010000  0.88630000  1.0 -0.0081766749
C  C49  1  0.25930000  0.13130000  0.97400000  1.0 -0.0081766749
C  C50  1  0.15730000  0.28530000  0.02600000  1.0 -0.0081766749
C  C51  1  0.24070000  0.21470000  0.87200000  1.0 -0.0081766749
C  C52  1  0.34270000  0.36870000  0.12800000  1.0 -0.0081766749
C  C53  1  0.36870000  0.24070000  0.02600000  1.0 -0.0081766749
C  C54  1  0.21470000  0.34270000  0.97400000  1.0 -0.0081766749
C  C55  1  0.28530000  0.25930000  0.12800000  1.0 -0.0081766749
C  C56  1  0.13130000  0.15730000  0.87200000  1.0 -0.0081766749
C  C57  1  0.74070000  0.86870000  0.02600000  1.0 -0.0081766749
C  C58  1  0.84270000  0.71470000  0.97400000  1.0 -0.0081766749
C  C59  1  0.75930000  0.78530000  0.12800000  1.0 -0.0081766749
C  C60  1  0.65730000  0.63130000  0.87200000  1.0 -0.0081766749
C  C61  1  0.63130000  0.75930000  0.97400000  1.0 -0.0081766749
C  C62  1  0.78530000  0.65730000  0.02600000  1.0 -0.0081766749
C  C63  1  0.71470000  0.74070000  0.87200000  1.0 -0.0081766749
C  C64  1  0.86870000  0.84270000  0.12800000  1.0 -0.0081766749
N  N1  1  0.18400000  0.18400000  0.00000000  1.0 0.033989333
N  N2  1  0.31600000  0.31600000  0.00000000  1.0 0.033989333
N  N3  1  0.81600000  0.81600000  0.00000000  1.0 0.033989333
N  N4  1  0.68400000  0.68400000  0.00000000  1.0 0.033989333
O  O1  1  0.93520000  0.10960000  0.93020000  1.0 -0.5245332965
O  O2  1  0.17940000  0.00500000  0.06980000  1.0 -0.5253548711
O  O3  1  0.56480000  0.49500000  0.17440000  1.0 -0.5253548711
O  O4  1  0.32060000  0.39040000  0.82560000  1.0 -0.5253548711
O  O5  1  0.39040000  0.56480000  0.06980000  1.0 -0.5253548711
O  O6  1  0.49500000  0.32060000  0.93020000  1.0 -0.5253548711
O  O7  1  0.00500000  0.93520000  0.82560000  1.0 -0.5253548711
O  O8  1  0.10960000  0.17940000  0.17440000  1.0 -0.5253548711
O  O9  1  0.06480000  0.89040000  0.06980000  1.0 -0.5253548711
O  O10  1  0.82060000  0.99500000  0.93020000  1.0 -0.5253548711
O  O11  1  0.43520000  0.50500000  0.82560000  1.0 -0.5253548711
O  O12  1  0.67940000  0.60960000  0.17440000  1.0 -0.5253548711
O  O13  1  0.60960000  0.43520000  0.93020000  1.0 -0.5253548711
O  O14  1  0.50500000  0.67940000  0.06980000  1.0 -0.5253548711
O  O15  1  0.99500000  0.06480000  0.17440000  1.0 -0.5253548711
O  O16  1  0.89040000  0.82060000  0.82560000  1.0 -0.5253548711
O  O17  1  0.87880000  0.26320000  0.89880000  1.0 -0.3679175345
O  O18  1  0.36440000  0.98000000  0.10120000  1.0 -0.3679175345
O  O19  1  0.62120000  0.52000000  0.38440000  1.0 -0.3679175345
O  O20  1  0.13560000  0.23680000  0.61560000  1.0 -0.3679175345
O  O21  1  0.23680000  0.62120000  0.10120000  1.0 -0.3679175345
O  O22  1  0.52000000  0.13560000  0.89880000  1.0 -0.3679175345
O  O23  1  0.98000000  0.87880000  0.61560000  1.0 -0.3679175345
O  O24  1  0.26320000  0.36440000  0.38440000  1.0 -0.3679175345
O  O25  1  0.12120000  0.73680000  0.10120000  1.0 -0.3679175345
O  O26  1  0.63560000  0.02000000  0.89880000  1.0 -0.3679175345
O  O27  1  0.37880000  0.48000000  0.61560000  1.0 -0.3679175345
O  O28  1  0.86440000  0.76320000  0.38440000  1.0 -0.3679175345
O  O29  1  0.76320000  0.37880000  0.89880000  1.0 -0.3679175345
O  O30  1  0.48000000  0.86440000  0.10120000  1.0 -0.3679175345
O  O31  1  0.02000000  0.12120000  0.38440000  1.0 -0.3679175345
O  O32  1  0.73680000  0.63560000  0.61560000  1.0 -0.3679175345
