# DDEC6 charges by PACMAN v1.1 (https://github.com/mtap-research/PACMAN-charge/)
data_OWIHOT_ASR_pacman
_symmetry_space_group_name_H-M   'P 1'
_cell_length_a   12.57040000
_cell_length_b   12.57040000
_cell_length_c   12.57040000
_cell_angle_alpha   103.86300000
_cell_angle_beta   103.86300000
_cell_angle_gamma   121.38700000
_symmetry_Int_Tables_number   1
_chemical_formula_structural   InH20(C2O)5
_chemical_formula_sum   'In4 H80 C40 O20'
_cell_volume   1478.61438675
_cell_formula_units_Z   4
loop_
 _symmetry_equiv_pos_site_id
 _symmetry_equiv_pos_as_xyz
  1  'x, y, z'
loop_
 _atom_site_type_symbol
 _atom_site_label
 _atom_site_symmetry_multiplicity
 _atom_site_fract_x
 _atom_site_fract_y
 _atom_site_fract_z
 _atom_site_occupancy
 _atom_site_charge
In  In1  1  0.17190000  0.82810000  0.00000000  1.0 1.6224419824
In  In2  1  0.42190000  0.92190000  0.84380000  1.0 1.6224419824
In  In3  1  0.82810000  0.17190000  0.00000000  1.0 1.6224419824
In  In4  1  0.07810000  0.57810000  0.15620000  1.0 1.6224419824
H  H1  1  0.20300000  0.37400000  0.42500000  1.0 0.0488553738
H  H2  1  0.02800000  0.95300000  0.32900000  1.0 0.0488553738
H  H3  1  0.94900000  0.77800000  0.57500000  1.0 0.0488553738
H  H4  1  0.62400000  0.69900000  0.67100000  1.0 0.0488553738
H  H5  1  0.30100000  0.37600000  0.32900000  1.0 0.0488553738
H  H6  1  0.22200000  0.05100000  0.42500000  1.0 0.0488553738
H  H7  1  0.04700000  0.97200000  0.67100000  1.0 0.0488553738
H  H8  1  0.62600000  0.79700000  0.57500000  1.0 0.0488553738
H  H9  1  0.31000000  0.37300000  0.36700000  1.0 0.030851155
H  H10  1  0.19300000  0.06000000  0.43700000  1.0 0.030851155
H  H11  1  0.00600000  0.94300000  0.63300000  1.0 0.030851155
H  H12  1  0.62300000  0.75600000  0.56300000  1.0 0.030851155
H  H13  1  0.24400000  0.37700000  0.43700000  1.0 0.030851155
H  H14  1  0.05700000  0.99400000  0.36700000  1.0 0.030851155
H  H15  1  0.94000000  0.80700000  0.56300000  1.0 0.030851155
H  H16  1  0.62700000  0.69000000  0.63300000  1.0 0.030851155
H  H17  1  0.17000000  0.11390000  0.21190000  1.0 0.0018088142
H  H18  1  0.20810000  0.92000000  0.55610000  1.0 0.0018088142
H  H19  1  0.90200000  0.95810000  0.78810000  1.0 0.0018088142
H  H20  1  0.36390000  0.65200000  0.44390000  1.0 0.0018088142
H  H21  1  0.34800000  0.63610000  0.55610000  1.0 0.0018088142
H  H22  1  0.04190000  0.09800000  0.21190000  1.0 0.0018088142
H  H23  1  0.08000000  0.79190000  0.44390000  1.0 0.0018088142
H  H24  1  0.88610000  0.83000000  0.78810000  1.0 0.0018088142
H  H25  1  0.03790000  0.05390000  0.25400000  1.0 0.022652925
H  H26  1  0.03390000  0.78790000  0.48400000  1.0 0.022652925
H  H27  1  0.79990000  0.78390000  0.74600000  1.0 0.022652925
H  H28  1  0.30390000  0.54990000  0.51600000  1.0 0.022652925
H  H29  1  0.45010000  0.69610000  0.48400000  1.0 0.022652925
H  H30  1  0.21610000  0.20010000  0.25400000  1.0 0.022652925
H  H31  1  0.21210000  0.96610000  0.51600000  1.0 0.022652925
H  H32  1  0.94610000  0.96210000  0.74600000  1.0 0.022652925
H  H33  1  0.20700000  0.16400000  0.36300000  1.0 0.0385871152
H  H34  1  0.09400000  0.95700000  0.54300000  1.0 0.0385871152
H  H35  1  0.80100000  0.84400000  0.63700000  1.0 0.0385871152
H  H36  1  0.41400000  0.55100000  0.45700000  1.0 0.0385871152
H  H37  1  0.44900000  0.58600000  0.54300000  1.0 0.0385871152
H  H38  1  0.15600000  0.19900000  0.36300000  1.0 0.0385871152
H  H39  1  0.04300000  0.90600000  0.45700000  1.0 0.0385871152
H  H40  1  0.83600000  0.79300000  0.63700000  1.0 0.0385871152
H  H41  1  0.14100000  0.22400000  0.28100000  1.0 -0.2197877192
H  H42  1  0.11000000  0.89100000  0.41700000  1.0 -0.2197877192
H  H43  1  0.94300000  0.86000000  0.71900000  1.0 -0.2197877192
H  H44  1  0.47400000  0.69300000  0.58300000  1.0 -0.2197877192
H  H45  1  0.30700000  0.52600000  0.41700000  1.0 -0.2197877192
H  H46  1  0.14000000  0.05700000  0.28100000  1.0 -0.2197877192
H  H47  1  0.10900000  0.89000000  0.58300000  1.0 -0.2197877192
H  H48  1  0.77600000  0.85900000  0.71900000  1.0 -0.2197877192
H  H49  1  0.14300000  0.29000000  0.27300000  1.0 0.1027097498
H  H50  1  0.12000000  0.89300000  0.35300000  1.0 0.1027097498
H  H51  1  0.01700000  0.87000000  0.72700000  1.0 0.1027097498
H  H52  1  0.54000000  0.76700000  0.64700000  1.0 0.1027097498
H  H53  1  0.23300000  0.46000000  0.35300000  1.0 0.1027097498
H  H54  1  0.13000000  0.98300000  0.27300000  1.0 0.1053509316
H  H55  1  0.10700000  0.88000000  0.64700000  1.0 0.1027097498
H  H56  1  0.71000000  0.85700000  0.72700000  1.0 0.1027097498
H  H57  1  0.25200000  0.46400000  0.34400000  1.0 0.1027097498
H  H58  1  0.15800000  0.00200000  0.28800000  1.0 0.1027097498
H  H59  1  0.12000000  0.90800000  0.65600000  1.0 0.1027097498
H  H60  1  0.71400000  0.87000000  0.71200000  1.0 0.1027097498
H  H61  1  0.13000000  0.28600000  0.28800000  1.0 0.1027097498
H  H62  1  0.09200000  0.88000000  0.34400000  1.0 0.1027097498
H  H63  1  0.99800000  0.84200000  0.71200000  1.0 0.1027097498
H  H64  1  0.53600000  0.74800000  0.65600000  1.0 0.1027097498
H  H65  1  0.44050000  0.87500000  0.06550000  1.0 0.4389100722
H  H66  1  0.62500000  0.19050000  0.06550000  1.0 0.4389100722
H  H67  1  0.80950000  0.37500000  0.93450000  1.0 0.4389100722
H  H68  1  0.12500000  0.55950000  0.93450000  1.0 0.4389100722
H  H69  1  0.12730000  0.12730000  0.00000000  1.0 0.225419072
H  H70  1  0.37730000  0.87730000  0.50000000  1.0 0.225419072
H  H71  1  0.12270000  0.62270000  0.50000000  1.0 0.225419072
H  H72  1  0.87270000  0.87270000  0.00000000  1.0 0.225419072
H  H73  1  0.49380000  0.30710000  0.95010000  1.0 0.1829182054
H  H74  1  0.79370000  0.24380000  0.68670000  1.0 0.1829182054
H  H75  1  0.35700000  0.54370000  0.04990000  1.0 0.1829182054
H  H76  1  0.55710000  0.10700000  0.31330000  1.0 0.1829182054
H  H77  1  0.89300000  0.44290000  0.68670000  1.0 0.1829182054
H  H78  1  0.45630000  0.64300000  0.95010000  1.0 0.1829182054
H  H79  1  0.75620000  0.20630000  0.31330000  1.0 0.1829182054
H  H80  1  0.69290000  0.50620000  0.04990000  1.0 0.1829182054
C  C1  1  0.13890000  0.13890000  0.27780000  1.0 -0.3434847343
C  C2  1  0.11110000  0.88890000  0.50000000  1.0 -0.3434847343
C  C3  1  0.86110000  0.86110000  0.72220000  1.0 -0.3451863178
C  C4  1  0.38890000  0.61110000  0.50000000  1.0 -0.3434847343
C  C5  1  0.22710000  0.37500000  0.35210000  1.0 -0.4945974597
C  C6  1  0.12500000  0.97710000  0.35210000  1.0 -0.4951377162
C  C7  1  0.02290000  0.87500000  0.64790000  1.0 -0.4951377162
C  C8  1  0.62500000  0.77290000  0.64790000  1.0 -0.4951377162
C  C9  1  0.29330000  0.07470000  0.94720000  1.0 0.5449475995
C  C10  1  0.59610000  0.04330000  0.71860000  1.0 0.5449475995
C  C11  1  0.12750000  0.34610000  0.05280000  1.0 0.5449475995
C  C12  1  0.32470000  0.87750000  0.28140000  1.0 0.5449475995
C  C13  1  0.12250000  0.67530000  0.71860000  1.0 0.5449475995
C  C14  1  0.65390000  0.87250000  0.94720000  1.0 0.5449475995
C  C15  1  0.95670000  0.40390000  0.28140000  1.0 0.5449475995
C  C16  1  0.92530000  0.70670000  0.05280000  1.0 0.5449475995
C  C17  1  0.30840000  0.20178000  0.97158000  1.0 -0.0021680965
C  C18  1  0.58682000  0.05840000  0.60662000  1.0 -0.0021680965
C  C19  1  0.23020000  0.33682000  0.02842000  1.0 -0.0021680965
C  C20  1  0.45178000  0.98020000  0.39338000  1.0 -0.0021680965
C  C21  1  0.01980000  0.54822000  0.60662000  1.0 -0.0021680965
C  C22  1  0.66318000  0.76980000  0.97158000  1.0 -0.0021680965
C  C23  1  0.94160000  0.41318000  0.39338000  1.0 -0.0021680965
C  C24  1  0.79822000  0.69160000  0.02842000  1.0 -0.0021680965
C  C25  1  0.21260000  0.21260000  0.00000000  1.0 -0.0021680965
C  C26  1  0.46260000  0.96260000  0.50000000  1.0 -0.0021680965
C  C27  1  0.03740000  0.53740000  0.50000000  1.0 -0.0021680965
C  C28  1  0.78740000  0.78740000  0.00000000  1.0 -0.0021680965
C  C29  1  0.42190000  0.31528000  0.97158000  1.0 -0.0482786396
C  C30  1  0.70032000  0.17190000  0.60662000  1.0 -0.0482786396
C  C31  1  0.34370000  0.45032000  0.02842000  1.0 -0.0482786396
C  C32  1  0.56528000  0.09370000  0.39338000  1.0 -0.0482786396
C  C33  1  0.90630000  0.43472000  0.60662000  1.0 -0.0482786396
C  C34  1  0.54968000  0.65630000  0.97158000  1.0 -0.0482786396
C  C35  1  0.82810000  0.29968000  0.39338000  1.0 -0.0482786396
C  C36  1  0.68472000  0.57810000  0.02842000  1.0 -0.0482786396
C  C37  1  0.43950000  0.43950000  0.00000000  1.0 0.1027097498
C  C38  1  0.68950000  0.18950000  0.50000000  1.0 0.1027097498
C  C39  1  0.81050000  0.31050000  0.50000000  1.0 0.1027097498
C  C40  1  0.56050000  0.56050000  0.00000000  1.0 0.1027097498
O  O1  1  0.38250000  0.87500000  0.00750000  1.0 -0.8923621127
O  O2  1  0.62500000  0.13250000  0.00750000  1.0 -0.8923621127
O  O3  1  0.86750000  0.37500000  0.99250000  1.0 -0.8923621127
O  O4  1  0.12500000  0.61750000  0.99250000  1.0 -0.8923621127
O  O5  1  0.23170000  0.99990000  0.99520000  1.0 -0.5595239648
O  O6  1  0.48650000  0.98170000  0.73180000  1.0 -0.5595239648
O  O7  1  0.00470000  0.23650000  0.00480000  1.0 -0.5595239648
O  O8  1  0.24990000  0.75470000  0.26820000  1.0 -0.5595239648
O  O9  1  0.24530000  0.75010000  0.73180000  1.0 -0.5595239648
O  O10  1  0.76350000  0.99530000  0.99520000  1.0 -0.5595239648
O  O11  1  0.01830000  0.51350000  0.26820000  1.0 -0.5595239648
O  O12  1  0.00010000  0.76830000  0.00480000  1.0 -0.5595239648
O  O13  1  0.34260000  0.04570000  0.87930000  1.0 -0.5744035491
O  O14  1  0.71330000  0.09260000  0.79690000  1.0 -0.5744035491
O  O15  1  0.16640000  0.46330000  0.12070000  1.0 -0.5744035491
O  O16  1  0.29570000  0.91640000  0.20310000  1.0 -0.5750110396
O  O17  1  0.08360000  0.70430000  0.79690000  1.0 -0.5744035491
O  O18  1  0.53670000  0.83360000  0.87930000  1.0 -0.5744035491
O  O19  1  0.90740000  0.28670000  0.20310000  1.0 -0.5750110396
O  O20  1  0.95430000  0.65740000  0.12070000  1.0 -0.5750110396
