# DDEC6 charges by PACMAN v1.1 (https://github.com/mtap-research/PACMAN-charge/)
data_OWIKAI_FSR_pacman
_symmetry_space_group_name_H-M   'P 1'
_cell_length_a   10.52680000
_cell_length_b   10.52680000
_cell_length_c   10.52680000
_cell_angle_alpha   123.88300000
_cell_angle_beta   123.88300000
_cell_angle_gamma   83.39570000
_symmetry_Int_Tables_number   1
_chemical_formula_structural   NbNiH16C16N4(OF2)2
_chemical_formula_sum   'Nb2 Ni2 H32 C32 N8 O4 F8'
_cell_volume   770.82938827
_cell_formula_units_Z   2
loop_
 _symmetry_equiv_pos_site_id
 _symmetry_equiv_pos_as_xyz
  1  'x, y, z'
loop_
 _atom_site_type_symbol
 _atom_site_label
 _atom_site_symmetry_multiplicity
 _atom_site_fract_x
 _atom_site_fract_y
 _atom_site_fract_z
 _atom_site_occupancy
 _atom_site_charge
Nb  Nb1  1  0.00000000  0.50000000  0.50000000  1.0 2.2021542555
Nb  Nb2  1  0.50000000  0.00000000  0.50000000  1.0 2.2021542555
Ni  Ni1  1  0.25000000  0.75000000  0.50000000  1.0 0.3911567098
Ni  Ni2  1  0.75000000  0.25000000  0.50000000  1.0 0.3911567098
H  H1  1  0.24270000  0.87950000  0.83700000  1.0 0.1034337234
H  H2  1  0.87950000  0.04250000  0.63680000  1.0 0.1034337234
H  H3  1  0.04250000  0.40570000  0.16300000  1.0 0.1034337234
H  H4  1  0.40570000  0.24270000  0.36320000  1.0 0.1034337234
H  H5  1  0.25730000  0.09430000  0.63680000  1.0 0.1034337234
H  H6  1  0.45750000  0.62050000  0.36320000  1.0 0.1034337234
H  H7  1  0.09430000  0.45750000  0.83700000  1.0 0.1034337234
H  H8  1  0.62050000  0.25730000  0.16300000  1.0 0.1034337234
H  H9  1  0.75730000  0.12050000  0.16300000  1.0 0.1034337234
H  H10  1  0.12050000  0.95750000  0.36320000  1.0 0.1034337234
H  H11  1  0.95750000  0.59430000  0.83700000  1.0 0.1034337234
H  H12  1  0.59430000  0.75730000  0.63680000  1.0 0.1034337234
H  H13  1  0.74270000  0.90570000  0.36320000  1.0 0.1034337234
H  H14  1  0.54250000  0.37950000  0.63680000  1.0 0.1034337234
H  H15  1  0.90570000  0.54250000  0.16300000  1.0 0.1034337234
H  H16  1  0.37950000  0.74270000  0.83700000  1.0 0.1034337234
H  H17  1  0.59440000  0.95660000  0.83440000  1.0 0.1034337234
H  H18  1  0.95660000  0.12220000  0.36220000  1.0 0.1034337234
H  H19  1  0.12220000  0.76000000  0.16560000  1.0 0.1034337234
H  H20  1  0.76000000  0.59440000  0.63780000  1.0 0.1034337234
H  H21  1  0.90560000  0.74000000  0.36220000  1.0 0.1034337234
H  H22  1  0.37780000  0.54340000  0.63780000  1.0 0.1034337234
H  H23  1  0.74000000  0.37780000  0.83440000  1.0 0.1034337234
H  H24  1  0.54340000  0.90560000  0.16560000  1.0 0.1034337234
H  H25  1  0.40560000  0.04340000  0.16560000  1.0 0.1034337234
H  H26  1  0.04340000  0.87780000  0.63780000  1.0 0.1034337234
H  H27  1  0.87780000  0.24000000  0.83440000  1.0 0.1034337234
H  H28  1  0.24000000  0.40560000  0.36220000  1.0 0.1034337234
H  H29  1  0.09440000  0.26000000  0.63780000  1.0 0.1034337234
H  H30  1  0.62220000  0.45660000  0.36220000  1.0 0.1034337234
H  H31  1  0.26000000  0.62220000  0.16560000  1.0 0.1034337234
H  H32  1  0.45660000  0.09440000  0.83440000  1.0 0.1034337234
C  C1  1  0.34870000  0.92840000  0.90210000  1.0 0.0077177812
C  C2  1  0.92840000  0.02630000  0.57970000  1.0 0.0077177812
C  C3  1  0.02630000  0.44660000  0.09790000  1.0 0.0077177812
C  C4  1  0.44660000  0.34870000  0.42030000  1.0 0.0077177812
C  C5  1  0.15130000  0.05340000  0.57970000  1.0 0.0077177812
C  C6  1  0.47370000  0.57160000  0.42030000  1.0 0.0077177812
C  C7  1  0.05340000  0.47370000  0.90210000  1.0 0.0077177812
C  C8  1  0.57160000  0.15130000  0.09790000  1.0 0.0077177812
C  C9  1  0.65130000  0.07160000  0.09790000  1.0 0.0077177812
C  C10  1  0.07160000  0.97370000  0.42030000  1.0 0.0077177812
C  C11  1  0.97370000  0.55340000  0.90210000  1.0 0.0077177812
C  C12  1  0.55340000  0.65130000  0.57970000  1.0 0.0077177812
C  C13  1  0.84870000  0.94660000  0.42030000  1.0 0.0077177812
C  C14  1  0.52630000  0.42840000  0.57970000  1.0 0.0077177812
C  C15  1  0.94660000  0.52630000  0.09790000  1.0 0.0077177812
C  C16  1  0.42840000  0.84870000  0.90210000  1.0 0.0077177812
C  C17  1  0.55330000  0.97270000  0.89920000  1.0 0.0026879691
C  C18  1  0.97270000  0.07350000  0.41940000  1.0 0.0026879691
C  C19  1  0.07350000  0.65410000  0.10080000  1.0 0.0026879691
C  C20  1  0.65410000  0.55330000  0.58060000  1.0 0.0026879691
C  C21  1  0.94670000  0.84590000  0.41940000  1.0 0.0026879691
C  C22  1  0.42650000  0.52730000  0.58060000  1.0 0.0026879691
C  C23  1  0.84590000  0.42650000  0.89920000  1.0 0.0026879691
C  C24  1  0.52730000  0.94670000  0.10080000  1.0 0.0026879691
C  C25  1  0.44670000  0.02730000  0.10080000  1.0 0.0026879691
C  C26  1  0.02730000  0.92650000  0.58060000  1.0 0.0026879691
C  C27  1  0.92650000  0.34590000  0.89920000  1.0 0.0026879691
C  C28  1  0.34590000  0.44670000  0.41940000  1.0 0.0026879691
C  C29  1  0.05330000  0.15410000  0.58060000  1.0 0.0026879691
C  C30  1  0.57350000  0.47270000  0.41940000  1.0 0.0026879691
C  C31  1  0.15410000  0.57350000  0.10080000  1.0 0.0026879691
C  C32  1  0.47270000  0.05330000  0.89920000  1.0 0.0026879691
N  N1  1  0.40070000  0.90070000  0.80120000  1.0 -0.0794619284
N  N2  1  0.90070000  0.09950000  0.50000000  1.0 -0.0794619284
N  N3  1  0.09950000  0.59950000  0.19880000  1.0 -0.0794619284
N  N4  1  0.59950000  0.40070000  0.50000000  1.0 -0.0794619284
N  N5  1  0.09930000  0.90050000  0.50000000  1.0 -0.0794619284
N  N6  1  0.40050000  0.59930000  0.50000000  1.0 -0.0794619284
N  N7  1  0.90050000  0.40050000  0.80120000  1.0 -0.0794619284
N  N8  1  0.59930000  0.09930000  0.19880000  1.0 -0.0794619284
O  O1  1  0.12280000  0.62280000  0.50000000  1.0 -0.9409060413
O  O2  1  0.62280000  0.12280000  0.50000000  1.0 -0.9409060413
O  O3  1  0.37720000  0.87720000  0.50000000  1.0 -0.9409060413
O  O4  1  0.87720000  0.37720000  0.50000000  1.0 -0.9409060413
F  F1  1  0.00960000  0.69220000  0.70180000  1.0 -0.5329591864
F  F2  1  0.69220000  0.99040000  0.68260000  1.0 -0.5329591864
F  F3  1  0.99040000  0.30780000  0.29820000  1.0 -0.5329591864
F  F4  1  0.30780000  0.00960000  0.31740000  1.0 -0.5329591864
F  F5  1  0.49040000  0.19220000  0.68260000  1.0 -0.5329591864
F  F6  1  0.50960000  0.80780000  0.31740000  1.0 -0.5329591864
F  F7  1  0.19220000  0.50960000  0.70180000  1.0 -0.5329591864
F  F8  1  0.80780000  0.49040000  0.29820000  1.0 -0.5329591864
