# DDEC6 charges by PACMAN v1.1 (https://github.com/mtap-research/PACMAN-charge/)
data_OXALUV_ASR_pacman
_symmetry_space_group_name_H-M   'P 1'
_cell_length_a   21.65610000
_cell_length_b   21.65610000
_cell_length_c   21.54940000
_cell_angle_alpha   101.98000000
_cell_angle_beta   101.98000000
_cell_angle_gamma   126.03670000
_symmetry_Int_Tables_number   1
_chemical_formula_structural   In2H26C33O14
_chemical_formula_sum   'In8 H104 C132 O56'
_cell_volume   7266.99977803
_cell_formula_units_Z   4
loop_
 _symmetry_equiv_pos_site_id
 _symmetry_equiv_pos_as_xyz
  1  'x, y, z'
loop_
 _atom_site_type_symbol
 _atom_site_label
 _atom_site_symmetry_multiplicity
 _atom_site_fract_x
 _atom_site_fract_y
 _atom_site_fract_z
 _atom_site_occupancy
 _atom_site_charge
In  In1  1  0.47674000  0.81757000  0.91837000  1.0 1.5532405043
In  In2  1  0.18243000  0.52326000  0.58163000  1.0 1.5532405043
In  In3  1  0.52326000  0.18243000  0.08163000  1.0 1.5532405043
In  In4  1  0.81757000  0.47674000  0.41837000  1.0 1.5532405043
In  In5  1  0.35871000  0.64129000  0.75000000  1.0 1.5315232837
In  In6  1  0.64129000  0.35871000  0.25000000  1.0 1.5315232837
In  In7  1  0.50000000  0.00000000  0.00000000  1.0 1.6157578194
In  In8  1  0.00000000  0.50000000  0.50000000  1.0 1.6157578194
H  H1  1  0.13710000  0.22910000  0.05520000  1.0 0.1010589196
H  H2  1  0.16910000  0.27850000  0.00690000  1.0 0.1010589196
H  H3  1  0.37660000  0.41560000  0.19810000  1.0 0.1373021518
H  H4  1  0.46900000  0.38940000  0.21530000  1.0 0.1181590491
H  H5  1  0.32200000  0.19540000  0.02900000  1.0 0.128626119
H  H6  1  0.22250000  0.21570000  0.01570000  1.0 0.1181590491
H  H7  1  0.00380000  0.28620000  0.02310000  1.0 0.0942655282
H  H8  1  0.02110000  0.24370000  0.96710000  1.0 0.1010589196
H  H9  1  0.87650000  0.05870000  0.97010000  1.0 0.1373021518
H  H10  1  0.73280000  0.96700000  0.94760000  1.0 0.1373021518
H  H11  1  0.75660000  0.16900000  0.01220000  1.0 0.128626119
H  H12  1  0.89780000  0.25440000  0.03530000  1.0 0.128626119
H  H13  1  0.11410000  0.28950000  0.15250000  1.0 0.1010589196
H  H14  1  0.19040000  0.38740000  0.17540000  1.0 0.0942655282
H  H15  1  0.18040000  0.38740000  0.27480000  1.0 0.1181590491
H  H16  1  0.17480000  0.42420000  0.38260000  1.0 0.128626119
H  H17  1  0.99050000  0.41970000  0.29300000  1.0 0.128626119
H  H18  1  0.99310000  0.37910000  0.18390000  1.0 0.1373021518
H  H19  1  0.15270000  0.43810000  0.06990000  1.0 0.1010589196
H  H20  1  0.23300000  0.44500000  0.08260000  1.0 0.0942655282
H  H21  1  0.25970000  0.53990000  0.05930000  1.0 0.1132677758
H  H22  1  0.33800000  0.65300000  0.01860000  1.0 0.128626119
H  H23  1  0.21660000  0.46580000  0.82860000  1.0 0.128626119
H  H24  1  0.15130000  0.36590000  0.87270000  1.0 0.1373021518
H  H25  1  0.23647000  0.63563000  0.70051000  1.0 0.361207422
H  H26  1  0.18427000  0.66104000  0.60624000  1.0 0.4086182529
H  H27  1  0.77090000  0.86290000  0.44480000  1.0 0.1010589196
H  H28  1  0.72150000  0.83090000  0.49310000  1.0 0.1010589196
H  H29  1  0.58440000  0.62340000  0.30190000  1.0 0.1373021518
H  H30  1  0.61060000  0.53100000  0.28470000  1.0 0.1181590491
H  H31  1  0.80460000  0.67800000  0.47100000  1.0 0.128626119
H  H32  1  0.78430000  0.77750000  0.48430000  1.0 0.1181590491
H  H33  1  0.71380000  0.99620000  0.47690000  1.0 0.0942655282
H  H34  1  0.75630000  0.97890000  0.53290000  1.0 0.1010589196
H  H35  1  0.94130000  0.12350000  0.52990000  1.0 0.1373021518
H  H36  1  0.03300000  0.26720000  0.55240000  1.0 0.1373021518
H  H37  1  0.83100000  0.24340000  0.48780000  1.0 0.128626119
H  H38  1  0.74560000  0.10220000  0.46470000  1.0 0.128626119
H  H39  1  0.71050000  0.88590000  0.34750000  1.0 0.1010589196
H  H40  1  0.61260000  0.80960000  0.32460000  1.0 0.0942655282
H  H41  1  0.61260000  0.81960000  0.22520000  1.0 0.1181590491
H  H42  1  0.57580000  0.82520000  0.11740000  1.0 0.128626119
H  H43  1  0.58030000  0.00950000  0.20700000  1.0 0.128626119
H  H44  1  0.62090000  0.00690000  0.31610000  1.0 0.1373021518
H  H45  1  0.56190000  0.84730000  0.43010000  1.0 0.1010589196
H  H46  1  0.55500000  0.76700000  0.41740000  1.0 0.0942655282
H  H47  1  0.46010000  0.74030000  0.44070000  1.0 0.1132677758
H  H48  1  0.34700000  0.66200000  0.48140000  1.0 0.128626119
H  H49  1  0.53420000  0.78340000  0.67140000  1.0 0.128626119
H  H50  1  0.63410000  0.84870000  0.62730000  1.0 0.1373021518
H  H51  1  0.36437000  0.76353000  0.79949000  1.0 0.361207422
H  H52  1  0.33896000  0.81573000  0.89376000  1.0 0.4086182529
H  H53  1  0.86290000  0.77090000  0.94480000  1.0 0.1010589196
H  H54  1  0.83090000  0.72150000  0.99310000  1.0 0.1010589196
H  H55  1  0.62340000  0.58440000  0.80190000  1.0 0.1373021518
H  H56  1  0.53100000  0.61060000  0.78470000  1.0 0.1181590491
H  H57  1  0.67800000  0.80460000  0.97100000  1.0 0.128626119
H  H58  1  0.77750000  0.78430000  0.98430000  1.0 0.1181590491
H  H59  1  0.99620000  0.71380000  0.97690000  1.0 0.0942655282
H  H60  1  0.97890000  0.75630000  0.03290000  1.0 0.1010589196
H  H61  1  0.12350000  0.94130000  0.02990000  1.0 0.1451434458
H  H62  1  0.26720000  0.03300000  0.05240000  1.0 0.1373021518
H  H63  1  0.24340000  0.83100000  0.98780000  1.0 0.128626119
H  H64  1  0.10220000  0.74560000  0.96470000  1.0 0.128626119
H  H65  1  0.88590000  0.71050000  0.84750000  1.0 0.1010589196
H  H66  1  0.80960000  0.61260000  0.82460000  1.0 0.0942655282
H  H67  1  0.81960000  0.61260000  0.72520000  1.0 0.1181590491
H  H68  1  0.82520000  0.57580000  0.61740000  1.0 0.128626119
H  H69  1  0.00950000  0.58030000  0.70700000  1.0 0.128626119
H  H70  1  0.00690000  0.62090000  0.81610000  1.0 0.1373021518
H  H71  1  0.84730000  0.56190000  0.93010000  1.0 0.1010589196
H  H72  1  0.76700000  0.55500000  0.91740000  1.0 0.0942655282
H  H73  1  0.74030000  0.46010000  0.94070000  1.0 0.1132677758
H  H74  1  0.66200000  0.34700000  0.98140000  1.0 0.128626119
H  H75  1  0.78340000  0.53420000  0.17140000  1.0 0.128626119
H  H76  1  0.84870000  0.63410000  0.12730000  1.0 0.1373021518
H  H77  1  0.76353000  0.36437000  0.29949000  1.0 0.361207422
H  H78  1  0.81573000  0.33896000  0.39376000  1.0 0.4086182529
H  H79  1  0.22910000  0.13710000  0.55520000  1.0 0.1010589196
H  H80  1  0.27850000  0.16910000  0.50690000  1.0 0.1010589196
H  H81  1  0.41560000  0.37660000  0.69810000  1.0 0.1373021518
H  H82  1  0.38940000  0.46900000  0.71530000  1.0 0.1181590491
H  H83  1  0.19540000  0.32200000  0.52900000  1.0 0.128626119
H  H84  1  0.21570000  0.22250000  0.51570000  1.0 0.1181590491
H  H85  1  0.28620000  0.00380000  0.52310000  1.0 0.0942655282
H  H86  1  0.24370000  0.02110000  0.46710000  1.0 0.1010589196
H  H87  1  0.05870000  0.87650000  0.47010000  1.0 0.1451434458
H  H88  1  0.96700000  0.73280000  0.44760000  1.0 0.1373021518
H  H89  1  0.16900000  0.75660000  0.51220000  1.0 0.128626119
H  H90  1  0.25440000  0.89780000  0.53530000  1.0 0.128626119
H  H91  1  0.28950000  0.11410000  0.65250000  1.0 0.1010589196
H  H92  1  0.38740000  0.19040000  0.67540000  1.0 0.0942655282
H  H93  1  0.38740000  0.18040000  0.77480000  1.0 0.1181590491
H  H94  1  0.42420000  0.17480000  0.88260000  1.0 0.128626119
H  H95  1  0.41970000  0.99050000  0.79300000  1.0 0.128626119
H  H96  1  0.37910000  0.99310000  0.68390000  1.0 0.1373021518
H  H97  1  0.43810000  0.15270000  0.56990000  1.0 0.1010589196
H  H98  1  0.44500000  0.23300000  0.58260000  1.0 0.0942655282
H  H99  1  0.53990000  0.25970000  0.55930000  1.0 0.1132677758
H  H100  1  0.65300000  0.33800000  0.51860000  1.0 0.128626119
H  H101  1  0.46580000  0.21660000  0.32860000  1.0 0.128626119
H  H102  1  0.36590000  0.15130000  0.37270000  1.0 0.1373021518
H  H103  1  0.63563000  0.23647000  0.20051000  1.0 0.361207422
H  H104  1  0.66104000  0.18427000  0.10624000  1.0 0.4086182529
C  C1  1  0.12145000  0.32055000  0.06660000  1.0 -0.0172588721
C  C2  1  0.16720000  0.28440000  0.05310000  1.0 -0.0618073583
C  C3  1  0.29424000  0.31916000  0.10710000  1.0 0.2259186881
C  C4  1  0.36370000  0.36950000  0.16360000  1.0 -0.2135396912
C  C5  1  0.41963000  0.35457000  0.17310000  1.0 -0.0896231772
C  C6  1  0.40395000  0.29065000  0.12240000  1.0 -0.0526654569
C  C7  1  0.33356000  0.23984000  0.06450000  1.0 -0.0618073583
C  C8  1  0.27421000  0.25259000  0.05590000  1.0 -0.2568925356
C  C9  1  0.46645000  0.28075000  0.13570000  1.0 0.60246277
C  C10  1  0.02740000  0.25900000  0.01600000  1.0 -0.0172588721
C  C11  1  0.89650000  0.16210000  0.00340000  1.0 0.1580067391
C  C12  1  0.85090000  0.08130000  0.97890000  1.0 -0.2135396912
C  C13  1  0.76480000  0.02600000  0.96490000  1.0 -0.0805776713
C  C14  1  0.72940000  0.05820000  0.97650000  1.0 -0.0384793466
C  C15  1  0.78000000  0.14420000  0.00300000  1.0 -0.0896231772
C  C16  1  0.86380000  0.19520000  0.01650000  1.0 -0.1988290546
C  C17  1  0.63729000  0.00351000  0.96160000  1.0 0.60246277
C  C18  1  0.13093000  0.33887000  0.14300000  1.0 -0.0618073583
C  C19  1  0.08569000  0.37671000  0.21940000  1.0 0.2451674754
C  C20  1  0.14031000  0.39249000  0.27760000  1.0 -0.2451284265
C  C21  1  0.13797000  0.41643000  0.34260000  1.0 -0.0618073583
C  C22  1  0.08471000  0.42869000  0.34940000  1.0 -0.0618073583
C  C23  1  0.02975000  0.41325000  0.28990000  1.0 -0.0805776713
C  C24  1  0.03047000  0.38813000  0.22430000  1.0 -0.242614237
C  C25  1  0.08426000  0.45654000  0.41820000  1.0 0.60246277
C  C26  1  0.17152000  0.40768000  0.05560000  1.0 -0.0384793466
C  C27  1  0.25180000  0.52660000  0.01190000  1.0 -0.2203854626
C  C28  1  0.30020000  0.59520000  0.98760000  1.0 -0.0618073583
C  C29  1  0.28703000  0.57017000  0.91970000  1.0 -0.0722661342
C  C30  1  0.22840000  0.48380000  0.87680000  1.0 -0.0722661342
C  C31  1  0.18740000  0.42420000  0.90200000  1.0 -0.1812644721
C  C32  1  0.19911000  0.44929000  0.96610000  1.0 0.1865117217
C  C33  1  0.33246000  0.62974000  0.88930000  1.0 0.6073633099
C  C34  1  0.67945000  0.87855000  0.43340000  1.0 -0.013969241
C  C35  1  0.71560000  0.83280000  0.44690000  1.0 -0.0618073583
C  C36  1  0.68084000  0.70576000  0.39290000  1.0 0.2259186881
C  C37  1  0.63050000  0.63630000  0.33640000  1.0 -0.2135396912
C  C38  1  0.64543000  0.58037000  0.32690000  1.0 -0.0896231772
C  C39  1  0.70935000  0.59605000  0.37760000  1.0 -0.0526654569
C  C40  1  0.76016000  0.66644000  0.43550000  1.0 -0.0618073583
C  C41  1  0.74741000  0.72579000  0.44410000  1.0 -0.2568925356
C  C42  1  0.71925000  0.53355000  0.36430000  1.0 0.60246277
C  C43  1  0.74100000  0.97260000  0.48400000  1.0 -0.0172588721
C  C44  1  0.83790000  0.10350000  0.49660000  1.0 0.1580067391
C  C45  1  0.91870000  0.14910000  0.52110000  1.0 -0.2135396912
C  C46  1  0.97400000  0.23520000  0.53510000  1.0 -0.0805776713
C  C47  1  0.94180000  0.27060000  0.52350000  1.0 -0.0384793466
C  C48  1  0.85580000  0.22000000  0.49700000  1.0 -0.0896231772
C  C49  1  0.80480000  0.13620000  0.48350000  1.0 -0.1988290546
C  C50  1  0.99649000  0.36271000  0.53840000  1.0 0.60246277
C  C51  1  0.66113000  0.86907000  0.35700000  1.0 -0.0618073583
C  C52  1  0.62329000  0.91431000  0.28060000  1.0 0.243990388
C  C53  1  0.60751000  0.85969000  0.22240000  1.0 -0.242614237
C  C54  1  0.58357000  0.86203000  0.15740000  1.0 -0.0618073583
C  C55  1  0.57131000  0.91529000  0.15060000  1.0 -0.0618073583
C  C56  1  0.58675000  0.97025000  0.21010000  1.0 -0.0805776713
C  C57  1  0.61187000  0.96953000  0.27570000  1.0 -0.242614237
C  C58  1  0.54346000  0.91574000  0.08180000  1.0 0.60246277
C  C59  1  0.59232000  0.82848000  0.44440000  1.0 -0.0384793466
C  C60  1  0.47340000  0.74820000  0.48810000  1.0 -0.2203854626
C  C61  1  0.40480000  0.69980000  0.51240000  1.0 -0.0618073583
C  C62  1  0.42983000  0.71297000  0.58030000  1.0 -0.0722661342
C  C63  1  0.51620000  0.77160000  0.62320000  1.0 -0.0722661342
C  C64  1  0.57580000  0.81260000  0.59800000  1.0 -0.1812644721
C  C65  1  0.55071000  0.80089000  0.53390000  1.0 0.1865117217
C  C66  1  0.37026000  0.66754000  0.61070000  1.0 0.6073633099
C  C67  1  0.87855000  0.67945000  0.93340000  1.0 -0.013969241
C  C68  1  0.83280000  0.71560000  0.94690000  1.0 -0.0618073583
C  C69  1  0.70576000  0.68084000  0.89290000  1.0 0.2259186881
C  C70  1  0.63630000  0.63050000  0.83640000  1.0 -0.2135396912
C  C71  1  0.58037000  0.64543000  0.82690000  1.0 -0.0896231772
C  C72  1  0.59605000  0.70935000  0.87760000  1.0 -0.0526654569
C  C73  1  0.66644000  0.76016000  0.93550000  1.0 -0.0618073583
C  C74  1  0.72579000  0.74741000  0.94410000  1.0 -0.2568925356
C  C75  1  0.53355000  0.71925000  0.86430000  1.0 0.60246277
C  C76  1  0.97260000  0.74100000  0.98400000  1.0 -0.0172588721
C  C77  1  0.10350000  0.83790000  0.99660000  1.0 0.1580067391
C  C78  1  0.14910000  0.91870000  0.02110000  1.0 -0.2135396912
C  C79  1  0.23520000  0.97400000  0.03510000  1.0 -0.0805776713
C  C80  1  0.27060000  0.94180000  0.02350000  1.0 -0.0384793466
C  C81  1  0.22000000  0.85580000  0.99700000  1.0 -0.0896231772
C  C82  1  0.13620000  0.80480000  0.98350000  1.0 -0.1988290546
C  C83  1  0.36271000  0.99649000  0.03840000  1.0 0.60246277
C  C84  1  0.86907000  0.66113000  0.85700000  1.0 -0.0618073583
C  C85  1  0.91431000  0.62329000  0.78060000  1.0 0.2451674754
C  C86  1  0.85969000  0.60751000  0.72240000  1.0 -0.2451284265
C  C87  1  0.86203000  0.58357000  0.65740000  1.0 -0.0618073583
C  C88  1  0.91529000  0.57131000  0.65060000  1.0 -0.0618073583
C  C89  1  0.97025000  0.58675000  0.71010000  1.0 -0.0805776713
C  C90  1  0.96953000  0.61187000  0.77570000  1.0 -0.242614237
C  C91  1  0.91574000  0.54346000  0.58180000  1.0 0.60246277
C  C92  1  0.82848000  0.59232000  0.94440000  1.0 -0.0384793466
C  C93  1  0.74820000  0.47340000  0.98810000  1.0 -0.2203854626
C  C94  1  0.69980000  0.40480000  0.01240000  1.0 -0.0618073583
C  C95  1  0.71297000  0.42983000  0.08030000  1.0 -0.0722661342
C  C96  1  0.77160000  0.51620000  0.12320000  1.0 -0.0722661342
C  C97  1  0.81260000  0.57580000  0.09800000  1.0 -0.1889572626
C  C98  1  0.80089000  0.55071000  0.03390000  1.0 0.1865117217
C  C99  1  0.66754000  0.37026000  0.11070000  1.0 0.6073633099
C  C100  1  0.32055000  0.12145000  0.56660000  1.0 -0.0172588721
C  C101  1  0.28440000  0.16720000  0.55310000  1.0 -0.0618073583
C  C102  1  0.31916000  0.29424000  0.60710000  1.0 0.2259186881
C  C103  1  0.36950000  0.36370000  0.66360000  1.0 -0.2135396912
C  C104  1  0.35457000  0.41963000  0.67310000  1.0 -0.0896231772
C  C105  1  0.29065000  0.40395000  0.62240000  1.0 -0.0526654569
C  C106  1  0.23984000  0.33356000  0.56450000  1.0 -0.0618073583
C  C107  1  0.25259000  0.27421000  0.55590000  1.0 -0.2568925356
C  C108  1  0.28075000  0.46645000  0.63570000  1.0 0.60246277
C  C109  1  0.25900000  0.02740000  0.51600000  1.0 -0.0172588721
C  C110  1  0.16210000  0.89650000  0.50340000  1.0 0.1580067391
C  C111  1  0.08130000  0.85090000  0.47890000  1.0 -0.2203854626
C  C112  1  0.02600000  0.76480000  0.46490000  1.0 -0.0805776713
C  C113  1  0.05820000  0.72940000  0.47650000  1.0 -0.0384793466
C  C114  1  0.14420000  0.78000000  0.50300000  1.0 -0.0896231772
C  C115  1  0.19520000  0.86380000  0.51650000  1.0 -0.1988290546
C  C116  1  0.00351000  0.63729000  0.46160000  1.0 0.60246277
C  C117  1  0.33887000  0.13093000  0.64300000  1.0 -0.0618073583
C  C118  1  0.37671000  0.08569000  0.71940000  1.0 0.243990388
C  C119  1  0.39249000  0.14031000  0.77760000  1.0 -0.2451284265
C  C120  1  0.41643000  0.13797000  0.84260000  1.0 -0.0618073583
C  C121  1  0.42869000  0.08471000  0.84940000  1.0 -0.0618073583
C  C122  1  0.41325000  0.02975000  0.78990000  1.0 -0.0805776713
C  C123  1  0.38813000  0.03047000  0.72430000  1.0 -0.242614237
C  C124  1  0.45654000  0.08426000  0.91820000  1.0 0.60246277
C  C125  1  0.40768000  0.17152000  0.55560000  1.0 -0.0384793466
C  C126  1  0.52660000  0.25180000  0.51190000  1.0 -0.2203854626
C  C127  1  0.59520000  0.30020000  0.48760000  1.0 -0.0618073583
C  C128  1  0.57017000  0.28703000  0.41970000  1.0 -0.0722661342
C  C129  1  0.48380000  0.22840000  0.37680000  1.0 -0.0722661342
C  C130  1  0.42420000  0.18740000  0.40200000  1.0 -0.1812644721
C  C131  1  0.44929000  0.19911000  0.46610000  1.0 0.1865117217
C  C132  1  0.62974000  0.33246000  0.38930000  1.0 0.6073633099
O  O1  1  0.24549000  0.34171000  0.10470000  1.0 -0.1889572626
O  O2  1  0.98700000  0.19160000  0.02780000  1.0 -0.1574524565
O  O3  1  0.08188000  0.35592000  0.15350000  1.0 -0.1812644721
O  O4  1  0.15113000  0.38127000  0.98740000  1.0 -0.1988290546
O  O5  1  0.46132000  0.23222000  0.08697000  1.0 -0.5591893083
O  O6  1  0.52270000  0.32370000  0.19760000  1.0 -0.5679392664
O  O7  1  0.59481000  0.92879000  0.92770000  1.0 -0.5264233982
O  O8  1  0.61285000  0.03895000  0.98580000  1.0 -0.5679392664
O  O9  1  0.03390000  0.46808000  0.41959000  1.0 -0.5679392664
O  O10  1  0.13411000  0.46587000  0.46979000  1.0 -0.5755211151
O  O11  1  0.37853000  0.70647000  0.92760000  1.0 -0.5679392664
O  O12  1  0.32120000  0.59940000  0.82830000  1.0 -0.5591893083
O  O13  1  0.41157000  0.76353000  0.80934000  1.0 -0.8987423068
O  O14  1  0.42761000  0.87855000  0.92536000  1.0 -1.0623241698
O  O15  1  0.65829000  0.75451000  0.39530000  1.0 -0.1889572626
O  O16  1  0.80840000  0.01300000  0.47220000  1.0 -0.1574524565
O  O17  1  0.64408000  0.91812000  0.34650000  1.0 -0.1812644721
O  O18  1  0.61873000  0.84887000  0.51260000  1.0 -0.1988290546
O  O19  1  0.76778000  0.53868000  0.41303000  1.0 -0.5591893083
O  O20  1  0.67630000  0.47730000  0.30240000  1.0 -0.5679392664
O  O21  1  0.07121000  0.40519000  0.57230000  1.0 -0.5264233982
O  O22  1  0.96105000  0.38715000  0.51420000  1.0 -0.5679392664
O  O23  1  0.53192000  0.96610000  0.08041000  1.0 -0.5679392664
O  O24  1  0.53413000  0.86589000  0.03021000  1.0 -0.5755211151
O  O25  1  0.29353000  0.62147000  0.57240000  1.0 -0.5679392664
O  O26  1  0.40060000  0.67880000  0.67170000  1.0 -0.5591893083
O  O27  1  0.23647000  0.58843000  0.69066000  1.0 -0.8987423068
O  O28  1  0.12145000  0.57239000  0.57464000  1.0 -1.0623241698
O  O29  1  0.75451000  0.65829000  0.89530000  1.0 -0.1889572626
O  O30  1  0.01300000  0.80840000  0.97220000  1.0 -0.1574524565
O  O31  1  0.91812000  0.64408000  0.84650000  1.0 -0.1812644721
O  O32  1  0.84887000  0.61873000  0.01260000  1.0 -0.1988290546
O  O33  1  0.53868000  0.76778000  0.91303000  1.0 -0.5591893083
O  O34  1  0.47730000  0.67630000  0.80240000  1.0 -0.5679392664
O  O35  1  0.40519000  0.07121000  0.07230000  1.0 -0.5264233982
O  O36  1  0.38715000  0.96105000  0.01420000  1.0 -0.5679392664
O  O37  1  0.96610000  0.53192000  0.58041000  1.0 -0.5679392664
O  O38  1  0.86589000  0.53413000  0.53021000  1.0 -0.5755211151
O  O39  1  0.62147000  0.29353000  0.07240000  1.0 -0.5679392664
O  O40  1  0.67880000  0.40060000  0.17170000  1.0 -0.5591893083
O  O41  1  0.58843000  0.23647000  0.19066000  1.0 -0.8987423068
O  O42  1  0.57239000  0.12145000  0.07464000  1.0 -1.0623241698
O  O43  1  0.34171000  0.24549000  0.60470000  1.0 -0.1889572626
O  O44  1  0.19160000  0.98700000  0.52780000  1.0 -0.1574524565
O  O45  1  0.35592000  0.08188000  0.65350000  1.0 -0.1812644721
O  O46  1  0.38127000  0.15113000  0.48740000  1.0 -0.1988290546
O  O47  1  0.23222000  0.46132000  0.58697000  1.0 -0.5591893083
O  O48  1  0.32370000  0.52270000  0.69760000  1.0 -0.5679392664
O  O49  1  0.92879000  0.59481000  0.42770000  1.0 -0.5264233982
O  O50  1  0.03895000  0.61285000  0.48580000  1.0 -0.5679392664
O  O51  1  0.46808000  0.03390000  0.91959000  1.0 -0.5679392664
O  O52  1  0.46587000  0.13411000  0.96979000  1.0 -0.5755211151
O  O53  1  0.70647000  0.37853000  0.42760000  1.0 -0.5679392664
O  O54  1  0.59940000  0.32120000  0.32830000  1.0 -0.5591893083
O  O55  1  0.76353000  0.41157000  0.30934000  1.0 -0.8987423068
O  O56  1  0.87855000  0.42761000  0.42536000  1.0 -1.0623241698
