# DDEC6 charges by PACMAN v1.1 (https://github.com/mtap-research/PACMAN-charge/)
data_OXALIJ_ASR_pacman
_symmetry_space_group_name_H-M   'P 1'
_cell_length_a   11.97000000
_cell_length_b   16.34100000
_cell_length_c   16.43600000
_cell_angle_alpha   107.91300000
_cell_angle_beta   103.40000000
_cell_angle_gamma   100.53300000
_symmetry_Int_Tables_number   1
_chemical_formula_structural   Cd3H52(C36O13)2
_chemical_formula_sum   'Cd3 H52 C72 O26'
_cell_volume   2861.47927424
_cell_formula_units_Z   1
loop_
 _symmetry_equiv_pos_site_id
 _symmetry_equiv_pos_as_xyz
  1  'x, y, z'
loop_
 _atom_site_type_symbol
 _atom_site_label
 _atom_site_symmetry_multiplicity
 _atom_site_fract_x
 _atom_site_fract_y
 _atom_site_fract_z
 _atom_site_occupancy
 _atom_site_charge
Cd  Cd1  1  0.18207000  0.89609000  0.38394000  1.0 0.9684595924
Cd  Cd2  1  0.81793000  0.10391000  0.61606000  1.0 0.9684595924
Cd  Cd3  1  0.50000000  0.00000000  0.50000000  1.0 1.1128647189
H  H1  1  0.31750000  0.39200000  0.06920000  1.0 0.0909233204
H  H2  1  0.68250000  0.60800000  0.93080000  1.0 0.0909233204
H  H3  1  0.23950000  0.65330000  0.22680000  1.0 0.1456427138
H  H4  1  0.76050000  0.34670000  0.77320000  1.0 0.1456427138
H  H5  1  0.27230000  0.51650000  0.15860000  1.0 0.1098276768
H  H6  1  0.72770000  0.48350000  0.84140000  1.0 0.1098276768
H  H7  1  0.60210000  0.33510000  0.00620000  1.0 0.1199963365
H  H8  1  0.39790000  0.66490000  0.99380000  1.0 0.1199963365
H  H9  1  0.58190000  0.43290000  0.03510000  1.0 0.0909233204
H  H10  1  0.41810000  0.56710000  0.96490000  1.0 0.0909233204
H  H11  1  0.74730000  0.52400000  0.06550000  1.0 0.1199963365
H  H12  1  0.25270000  0.47600000  0.93450000  1.0 0.1199963365
H  H13  1  0.88150000  0.66370000  0.14210000  1.0 0.1199963365
H  H14  1  0.11850000  0.33630000  0.85790000  1.0 0.1199963365
H  H15  1  0.91160000  0.62510000  0.37500000  1.0 0.1316297214
H  H16  1  0.08840000  0.37490000  0.62500000  1.0 0.1316297214
H  H17  1  0.77390000  0.48500000  0.29780000  1.0 0.1405750574
H  H18  1  0.22610000  0.51500000  0.70220000  1.0 0.1405750574
H  H19  1  0.29480000  0.26290000  0.96870000  1.0 0.1098276768
H  H20  1  0.70520000  0.73710000  0.03130000  1.0 0.1098276768
H  H21  1  0.36930000  0.32410000  0.92850000  1.0 0.0909233204
H  H22  1  0.63070000  0.67590000  0.07150000  1.0 0.0909233204
H  H23  1  0.51550000  0.11030000  0.84090000  1.0 0.1405750574
H  H24  1  0.48450000  0.88970000  0.15910000  1.0 0.1405750574
H  H25  1  0.44680000  0.01980000  0.68840000  1.0 0.1199963365
H  H26  1  0.55320000  0.98020000  0.31160000  1.0 0.1199963365
H  H27  1  0.14880000  0.10320000  0.65970000  1.0 0.1316297214
H  H28  1  0.85120000  0.89680000  0.34030000  1.0 0.1316297214
H  H29  1  0.21680000  0.19690000  0.81090000  1.0 0.1199963365
H  H30  1  0.78320000  0.80310000  0.18910000  1.0 0.1199963365
H  H31  1  0.51620000  0.23720000  0.08880000  1.0 0.1199963365
H  H32  1  0.48380000  0.76280000  0.91120000  1.0 0.1199963365
H  H33  1  0.52610000  0.31860000  0.17750000  1.0 0.0997713977
H  H34  1  0.47390000  0.68140000  0.82250000  1.0 0.0997713977
H  H35  1  0.17180000  0.15390000  0.12430000  1.0 0.1405750574
H  H36  1  0.82820000  0.84610000  0.87570000  1.0 0.1405750574
H  H37  1  0.14690000  0.06850000  0.21360000  1.0 0.1199963365
H  H38  1  0.85310000  0.93150000  0.78640000  1.0 0.1199963365
H  H39  1  0.50310000  0.12430000  0.31450000  1.0 0.1199963365
H  H40  1  0.49690000  0.87570000  0.68550000  1.0 0.1199963365
H  H41  1  0.53240000  0.20640000  0.22310000  1.0 0.1199963365
H  H42  1  0.46760000  0.79360000  0.77690000  1.0 0.1199963365
H  H43  1  0.59290000  0.75620000  0.35310000  1.0 0.1098276768
H  H44  1  0.40710000  0.24380000  0.64690000  1.0 0.1098276768
H  H45  1  0.63050000  0.62820000  0.28010000  1.0 0.1098276768
H  H46  1  0.36950000  0.37180000  0.71990000  1.0 0.1098276768
H  H47  1  0.41460000  0.41860000  0.16430000  1.0 0.157280476
H  H48  1  0.58540000  0.58140000  0.83570000  1.0 0.157280476
H  H49  1  0.58940000  0.76990000  0.30930000  1.0 0.1098276768
H  H50  1  0.41060000  0.23010000  0.69070000  1.0 0.1098276768
H  H51  1  0.60200000  0.63060000  0.20720000  1.0 0.0997713977
H  H52  1  0.39800000  0.36940000  0.79280000  1.0 0.0997713977
C  C1  1  0.46080000  0.34160000  0.05980000  1.0 0.0233758904
C  C2  1  0.53920000  0.65840000  0.94020000  1.0 0.0233758904
C  C3  1  0.40440000  0.41340000  0.10120000  1.0 0.0997713977
C  C4  1  0.59560000  0.58660000  0.89880000  1.0 0.0997713977
C  C5  1  0.41270000  0.71970000  0.29250000  1.0 -0.020240913
C  C6  1  0.58730000  0.28030000  0.70750000  1.0 -0.020240913
C  C7  1  0.31870000  0.64850000  0.23280000  1.0 -0.2128572826
C  C8  1  0.68130000  0.35150000  0.76720000  1.0 -0.2128572826
C  C9  1  0.33620000  0.56950000  0.18100000  1.0 -0.1892000631
C  C10  1  0.66380000  0.43050000  0.81900000  1.0 -0.1892000631
C  C11  1  0.39210000  0.80420000  0.34970000  1.0 0.5788912039
C  C12  1  0.60790000  0.19580000  0.65030000  1.0 0.5788912039
C  C13  1  0.58370000  0.38050000  0.05310000  1.0 -0.1105209951
C  C14  1  0.41630000  0.61950000  0.94690000  1.0 -0.1105209951
C  C15  1  0.74770000  0.49050000  0.17250000  1.0 0.2363374318
C  C16  1  0.25230000  0.50950000  0.82750000  1.0 0.2363374318
C  C17  1  0.78000000  0.54430000  0.12900000  1.0 -0.2383032579
C  C18  1  0.22000000  0.45570000  0.87100000  1.0 -0.2383032579
C  C19  1  0.85900000  0.62780000  0.17450000  1.0 -0.1183932264
C  C20  1  0.14100000  0.37220000  0.82550000  1.0 -0.1183932264
C  C21  1  0.90600000  0.65980000  0.26710000  1.0 -0.0307441591
C  C22  1  0.09400000  0.34020000  0.73290000  1.0 -0.0307441591
C  C23  1  0.87660000  0.60530000  0.31180000  1.0 -0.0903173327
C  C24  1  0.12340000  0.39470000  0.68820000  1.0 -0.0903173327
C  C25  1  0.79610000  0.52150000  0.26580000  1.0 -0.2300350729
C  C26  1  0.20390000  0.47850000  0.73420000  1.0 -0.2300350729
C  C27  1  0.99410000  0.75030000  0.31500000  1.0 0.5449181061
C  C28  1  0.00590000  0.24970000  0.68500000  1.0 0.5453567963
C  C29  1  0.37540000  0.28670000  0.96580000  1.0 -0.1285974223
C  C30  1  0.62460000  0.71330000  0.03420000  1.0 -0.1285974223
C  C31  1  0.37310000  0.16320000  0.83970000  1.0 0.2600328337
C  C32  1  0.62690000  0.83680000  0.16030000  1.0 0.2600328337
C  C33  1  0.44140000  0.10980000  0.80370000  1.0 -0.2185346026
C  C34  1  0.55860000  0.89020000  0.19630000  1.0 -0.2185346026
C  C35  1  0.40030000  0.05590000  0.71320000  1.0 -0.082071405
C  C36  1  0.59970000  0.94410000  0.28680000  1.0 -0.082071405
C  C37  1  0.29200000  0.05430000  0.65890000  1.0 -0.0584509287
C  C38  1  0.70800000  0.94570000  0.34110000  1.0 -0.0584509287
C  C39  1  0.22440000  0.10570000  0.69640000  1.0 -0.082071405
C  C40  1  0.77560000  0.89430000  0.30360000  1.0 -0.082071405
C  C41  1  0.26390000  0.16120000  0.78640000  1.0 -0.2555761997
C  C42  1  0.73610000  0.83880000  0.21360000  1.0 -0.2555761997
C  C43  1  0.25150000  0.99890000  0.56240000  1.0 0.5788912039
C  C44  1  0.74850000  0.00110000  0.43760000  1.0 0.5788912039
C  C45  1  0.47630000  0.28210000  0.11480000  1.0 -0.0903173327
C  C46  1  0.52370000  0.71790000  0.88520000  1.0 -0.0903173327
C  C47  1  0.35460000  0.18960000  0.16660000  1.0 0.2673200529
C  C48  1  0.64540000  0.81040000  0.83340000  1.0 0.2673200529
C  C49  1  0.23970000  0.14780000  0.16290000  1.0 -0.2300350729
C  C50  1  0.76030000  0.85220000  0.83710000  1.0 -0.2300350729
C  C51  1  0.22490000  0.09700000  0.21600000  1.0 -0.0740043789
C  C52  1  0.77510000  0.90300000  0.78400000  1.0 -0.0740043789
C  C53  1  0.32310000  0.08820000  0.27170000  1.0 -0.0468548414
C  C54  1  0.67690000  0.91180000  0.72830000  1.0 -0.0468548414
C  C55  1  0.43580000  0.12980000  0.27490000  1.0 -0.0740043789
C  C56  1  0.56420000  0.87020000  0.72510000  1.0 -0.0740043789
C  C57  1  0.45410000  0.17980000  0.22170000  1.0 -0.2555761997
C  C58  1  0.54590000  0.82020000  0.77830000  1.0 -0.2555761997
C  C59  1  0.30730000  0.03400000  0.33010000  1.0 0.5863238435
C  C60  1  0.69270000  0.96600000  0.66990000  1.0 0.5863238435
C  C61  1  0.46060000  0.56230000  0.20500000  1.0 0.0817204166
C  C62  1  0.53940000  0.43770000  0.79500000  1.0 0.0817204166
C  C63  1  0.52840000  0.70810000  0.30950000  1.0 -0.01202274
C  C64  1  0.47160000  0.29190000  0.69050000  1.0 -0.01202274
C  C65  1  0.55080000  0.63290000  0.26710000  1.0 -0.0903173327
C  C66  1  0.44920000  0.36710000  0.73290000  1.0 -0.0903173327
C  C67  1  0.42840000  0.56370000  0.16230000  1.0 0.0817204166
C  C68  1  0.57160000  0.43630000  0.83770000  1.0 0.0817204166
C  C69  1  0.52200000  0.71940000  0.27890000  1.0 -0.01202274
C  C70  1  0.47800000  0.28060000  0.72110000  1.0 -0.01202274
C  C71  1  0.52640000  0.63540000  0.21380000  1.0 -0.082071405
C  C72  1  0.47360000  0.36460000  0.78620000  1.0 -0.082071405
O  O1  1  0.47980000  0.86084000  0.41142000  1.0 -0.5391302446
O  O2  1  0.52020000  0.13916000  0.58858000  1.0 -0.5391302446
O  O3  1  0.28790000  0.80917000  0.33116000  1.0 -0.5080772776
O  O4  1  0.71210000  0.19083000  0.66884000  1.0 -0.5080772776
O  O5  1  0.67190000  0.40620000  0.13390000  1.0 -0.1892000631
O  O6  1  0.32810000  0.59380000  0.86610000  1.0 -0.1892000631
O  O7  1  0.01590000  0.79858000  0.27140000  1.0 -0.5234885354
O  O8  1  0.98410000  0.20142000  0.72860000  1.0 -0.5234885354
O  O9  1  0.04450000  0.77550000  0.39820000  1.0 -0.5288824577
O  O10  1  0.95550000  0.22450000  0.60180000  1.0 -0.5288824577
O  O11  1  0.42310000  0.21514000  0.92827000  1.0 -0.1892000631
O  O12  1  0.57690000  0.78486000  0.07173000  1.0 -0.1892000631
O  O13  1  0.31840000  0.95631000  0.52913000  1.0 -0.5865392823
O  O14  1  0.68160000  0.04369000  0.47087000  1.0 -0.5865392823
O  O15  1  0.14960000  0.99265000  0.51406000  1.0 -0.4977171559
O  O16  1  0.85040000  0.00735000  0.48594000  1.0 -0.4977171559
O  O17  1  0.36040000  0.23838000  0.11324000  1.0 -0.1892000631
O  O18  1  0.63960000  0.76162000  0.88676000  1.0 -0.1892000631
O  O19  1  0.20070000  0.99760000  0.32300000  1.0 -0.5288824577
O  O20  1  0.79930000  0.00240000  0.67700000  1.0 -0.5391302446
O  O21  1  0.39760000  0.02970000  0.38085000  1.0 -0.5736695666
O  O22  1  0.60240000  0.97030000  0.61915000  1.0 -0.5736695666
O  O23  1  0.48980000  0.48560000  0.16490000  1.0 -0.0307441591
O  O24  1  0.51020000  0.51440000  0.83510000  1.0 -0.0307441591
O  O25  1  0.44040000  0.48850000  0.10160000  1.0 -0.0307441591
O  O26  1  0.55960000  0.51150000  0.89840000  1.0 -0.0307441591
