# DDEC6 charges by PACMAN v1.1 (https://github.com/mtap-research/PACMAN-charge/)
data_OXANOR_ASR_pacman
_symmetry_space_group_name_H-M   'P 1'
_cell_length_a   12.08100000
_cell_length_b   18.98600000
_cell_length_c   19.68300000
_cell_angle_alpha   90.00000000
_cell_angle_beta   90.00000000
_cell_angle_gamma   90.00000000
_symmetry_Int_Tables_number   1
_chemical_formula_structural   Co3H21C28N4O9
_chemical_formula_sum   'Co12 H84 C112 N16 O36'
_cell_volume   4514.68707248
_cell_formula_units_Z   4
loop_
 _symmetry_equiv_pos_site_id
 _symmetry_equiv_pos_as_xyz
  1  'x, y, z'
loop_
 _atom_site_type_symbol
 _atom_site_label
 _atom_site_symmetry_multiplicity
 _atom_site_fract_x
 _atom_site_fract_y
 _atom_site_fract_z
 _atom_site_occupancy
 _atom_site_charge
Co  Co1  1  0.67025000  0.30923000  0.16208000  1.0 0.9262863774
Co  Co2  1  0.17025000  0.19077000  0.83792000  1.0 0.9239119369
Co  Co3  1  0.32975000  0.69077000  0.66208000  1.0 0.9239119369
Co  Co4  1  0.82975000  0.80923000  0.33792000  1.0 0.9262863774
Co  Co5  1  0.32975000  0.69077000  0.83792000  1.0 0.9239119369
Co  Co6  1  0.82975000  0.80923000  0.16208000  1.0 0.9262863774
Co  Co7  1  0.67025000  0.30923000  0.33792000  1.0 0.9262863774
Co  Co8  1  0.17025000  0.19077000  0.66208000  1.0 0.9239119369
Co  Co9  1  0.42999000  0.15669000  0.75000000  1.0 0.7361960042
Co  Co10  1  0.92999000  0.34331000  0.25000000  1.0 0.7361960042
Co  Co11  1  0.57001000  0.84331000  0.25000000  1.0 0.7361960042
Co  Co12  1  0.07001000  0.65669000  0.75000000  1.0 0.7361960042
H  H1  1  0.67200000  0.18700000  0.05580000  1.0 0.0963470604
H  H2  1  0.17200000  0.31300000  0.94420000  1.0 0.0963470604
H  H3  1  0.32800000  0.81300000  0.55580000  1.0 0.0963470604
H  H4  1  0.82800000  0.68700000  0.44420000  1.0 0.0963470604
H  H5  1  0.32800000  0.81300000  0.94420000  1.0 0.0963470604
H  H6  1  0.82800000  0.68700000  0.05580000  1.0 0.0963470604
H  H7  1  0.67200000  0.18700000  0.44420000  1.0 0.0963470604
H  H8  1  0.17200000  0.31300000  0.55580000  1.0 0.0963470604
H  H9  1  0.58220000  0.14700000  0.96020000  1.0 0.1206326985
H  H10  1  0.08220000  0.35300000  0.03980000  1.0 0.1206326985
H  H11  1  0.41780000  0.85300000  0.46020000  1.0 0.1206326985
H  H12  1  0.91780000  0.64700000  0.53980000  1.0 0.1206326985
H  H13  1  0.41780000  0.85300000  0.03980000  1.0 0.1206326985
H  H14  1  0.91780000  0.64700000  0.96020000  1.0 0.1206326985
H  H15  1  0.58220000  0.14700000  0.53980000  1.0 0.1206326985
H  H16  1  0.08220000  0.35300000  0.46020000  1.0 0.1206326985
H  H17  1  0.37810000  0.31620000  0.97290000  1.0 0.1206326985
H  H18  1  0.87810000  0.18380000  0.02710000  1.0 0.1206326985
H  H19  1  0.62190000  0.68380000  0.47290000  1.0 0.1206326985
H  H20  1  0.12190000  0.81620000  0.52710000  1.0 0.1206326985
H  H21  1  0.62190000  0.68380000  0.02710000  1.0 0.1206326985
H  H22  1  0.12190000  0.81620000  0.97290000  1.0 0.1206326985
H  H23  1  0.37810000  0.31620000  0.52710000  1.0 0.1206326985
H  H24  1  0.87810000  0.18380000  0.47290000  1.0 0.1206326985
H  H25  1  0.47540000  0.35070000  0.06750000  1.0 0.0907099549
H  H26  1  0.97540000  0.14930000  0.93250000  1.0 0.0907099549
H  H27  1  0.52460000  0.64930000  0.56750000  1.0 0.0907099549
H  H28  1  0.02460000  0.85070000  0.43250000  1.0 0.0907099549
H  H29  1  0.52460000  0.64930000  0.93250000  1.0 0.0907099549
H  H30  1  0.02460000  0.85070000  0.06750000  1.0 0.0907099549
H  H31  1  0.47540000  0.35070000  0.43250000  1.0 0.0907099549
H  H32  1  0.97540000  0.14930000  0.56750000  1.0 0.0907099549
H  H33  1  0.42900000  0.03250000  0.65040000  1.0 0.0963470604
H  H34  1  0.92900000  0.46750000  0.34960000  1.0 0.0963470604
H  H35  1  0.57100000  0.96750000  0.15040000  1.0 0.0963470604
H  H36  1  0.07100000  0.53250000  0.84960000  1.0 0.0963470604
H  H37  1  0.57100000  0.96750000  0.34960000  1.0 0.0963470604
H  H38  1  0.07100000  0.53250000  0.65040000  1.0 0.0963470604
H  H39  1  0.42900000  0.03250000  0.84960000  1.0 0.0963470604
H  H40  1  0.92900000  0.46750000  0.15040000  1.0 0.0963470604
H  H41  1  0.39400000  0.91130000  0.64800000  1.0 0.1206326985
H  H42  1  0.89400000  0.58870000  0.35200000  1.0 0.1206326985
H  H43  1  0.60600000  0.08870000  0.14800000  1.0 0.1206326985
H  H44  1  0.10600000  0.41130000  0.85200000  1.0 0.1206326985
H  H45  1  0.60600000  0.08870000  0.35200000  1.0 0.1206326985
H  H46  1  0.10600000  0.41130000  0.64800000  1.0 0.1206326985
H  H47  1  0.39400000  0.91130000  0.85200000  1.0 0.1206326985
H  H48  1  0.89400000  0.58870000  0.14800000  1.0 0.1206326985
H  H49  1  0.63440000  0.21720000  0.83210000  1.0 0.1088584241
H  H50  1  0.13440000  0.28280000  0.16790000  1.0 0.1088584241
H  H51  1  0.36560000  0.78280000  0.33210000  1.0 0.1088584241
H  H52  1  0.86560000  0.71720000  0.66790000  1.0 0.1088584241
H  H53  1  0.36560000  0.78280000  0.16790000  1.0 0.1088584241
H  H54  1  0.86560000  0.71720000  0.83210000  1.0 0.1088584241
H  H55  1  0.63440000  0.21720000  0.66790000  1.0 0.1088584241
H  H56  1  0.13440000  0.28280000  0.33210000  1.0 0.1088584241
H  H57  1  0.82360000  0.20960000  0.83840000  1.0 0.1088584241
H  H58  1  0.32360000  0.29040000  0.16160000  1.0 0.1088584241
H  H59  1  0.17640000  0.79040000  0.33840000  1.0 0.1088584241
H  H60  1  0.67640000  0.70960000  0.66160000  1.0 0.1088584241
H  H61  1  0.17640000  0.79040000  0.16160000  1.0 0.1088584241
H  H62  1  0.67640000  0.70960000  0.83840000  1.0 0.1088584241
H  H63  1  0.82360000  0.20960000  0.66160000  1.0 0.1088584241
H  H64  1  0.32360000  0.29040000  0.33840000  1.0 0.1088584241
H  H65  1  0.24000000  0.11500000  0.75000000  1.0 0.3232269961
H  H66  1  0.74000000  0.38500000  0.25000000  1.0 0.3232269961
H  H67  1  0.76000000  0.88500000  0.25000000  1.0 0.3232269961
H  H68  1  0.26000000  0.61500000  0.75000000  1.0 0.3232269961
H  H69  1  0.62990000  0.10180000  0.66666667  1.0 0.1088584241
H  H70  1  0.12990000  0.39820000  0.33333333  1.0 0.1088584241
H  H71  1  0.37010000  0.89820000  0.16667000  1.0 0.1088584241
H  H72  1  0.87010000  0.60180000  0.83333000  1.0 0.1088584241
H  H73  1  0.37010000  0.89820000  0.33333333  1.0 0.1088584241
H  H74  1  0.87010000  0.60180000  0.66666667  1.0 0.1088584241
H  H75  1  0.62990000  0.10180000  0.83333000  1.0 0.1088584241
H  H76  1  0.12990000  0.39820000  0.16667000  1.0 0.1088584241
H  H77  1  0.82230000  0.10050000  0.66220000  1.0 0.1088584241
H  H78  1  0.32230000  0.39950000  0.33780000  1.0 0.1088584241
H  H79  1  0.17770000  0.89950000  0.16220000  1.0 0.1088584241
H  H80  1  0.67770000  0.60050000  0.83780000  1.0 0.1088584241
H  H81  1  0.17770000  0.89950000  0.33780000  1.0 0.1088584241
H  H82  1  0.67770000  0.60050000  0.66220000  1.0 0.1088584241
H  H83  1  0.82230000  0.10050000  0.83780000  1.0 0.1088584241
H  H84  1  0.32230000  0.39950000  0.16220000  1.0 0.1088584241
C  C1  1  0.61180000  0.21350000  0.03820000  1.0 0.0486795277
C  C2  1  0.11180000  0.28650000  0.96180000  1.0 0.0486795277
C  C3  1  0.38820000  0.78650000  0.53820000  1.0 0.0486795277
C  C4  1  0.88820000  0.71350000  0.46180000  1.0 0.0486795277
C  C5  1  0.38820000  0.78650000  0.96180000  1.0 0.0486795277
C  C6  1  0.88820000  0.71350000  0.03820000  1.0 0.0486795277
C  C7  1  0.61180000  0.21350000  0.46180000  1.0 0.0486795277
C  C8  1  0.11180000  0.28650000  0.53820000  1.0 0.0486795277
C  C9  1  0.55830000  0.18910000  0.98180000  1.0 -0.1906554621
C  C10  1  0.05830000  0.31090000  0.01820000  1.0 -0.1906554621
C  C11  1  0.44170000  0.81090000  0.48180000  1.0 -0.1906554621
C  C12  1  0.94170000  0.68910000  0.51820000  1.0 -0.1906554621
C  C13  1  0.44170000  0.81090000  0.01820000  1.0 -0.1906554621
C  C14  1  0.94170000  0.68910000  0.98180000  1.0 -0.1906554621
C  C15  1  0.55830000  0.18910000  0.51820000  1.0 -0.1906554621
C  C16  1  0.05830000  0.31090000  0.48180000  1.0 -0.1906554621
C  C17  1  0.46750000  0.22680000  0.95600000  1.0 0.0222205312
C  C18  1  0.96750000  0.27320000  0.04400000  1.0 0.0222205312
C  C19  1  0.53250000  0.77320000  0.45600000  1.0 0.0222205312
C  C20  1  0.03250000  0.72680000  0.54400000  1.0 0.0222205312
C  C21  1  0.53250000  0.77320000  0.04400000  1.0 0.0222205312
C  C22  1  0.03250000  0.72680000  0.95600000  1.0 0.0222205312
C  C23  1  0.46750000  0.22680000  0.54400000  1.0 0.0222205312
C  C24  1  0.96750000  0.27320000  0.45600000  1.0 0.0222205312
C  C25  1  0.43810000  0.28840000  0.98890000  1.0 -0.1906554621
C  C26  1  0.93810000  0.21160000  0.01110000  1.0 -0.1906554621
C  C27  1  0.56190000  0.71160000  0.48890000  1.0 -0.1906554621
C  C28  1  0.06190000  0.78840000  0.51110000  1.0 -0.1906554621
C  C29  1  0.56190000  0.71160000  0.01110000  1.0 -0.1906554621
C  C30  1  0.06190000  0.78840000  0.98890000  1.0 -0.1906554621
C  C31  1  0.43810000  0.28840000  0.51110000  1.0 -0.1906554621
C  C32  1  0.93810000  0.21160000  0.48890000  1.0 -0.1906554621
C  C33  1  0.49760000  0.30870000  0.04520000  1.0 0.079498988
C  C34  1  0.99760000  0.19130000  0.95480000  1.0 0.079498988
C  C35  1  0.50240000  0.69130000  0.54520000  1.0 0.079498988
C  C36  1  0.00240000  0.80870000  0.45480000  1.0 0.079498988
C  C37  1  0.50240000  0.69130000  0.95480000  1.0 0.079498988
C  C38  1  0.00240000  0.80870000  0.04520000  1.0 0.079498988
C  C39  1  0.49760000  0.30870000  0.45480000  1.0 0.079498988
C  C40  1  0.99760000  0.19130000  0.54520000  1.0 0.079498988
C  C41  1  0.40320000  0.20180000  0.89560000  1.0 0.5540635664
C  C42  1  0.90320000  0.29820000  0.10440000  1.0 0.5540635664
C  C43  1  0.59680000  0.79820000  0.39560000  1.0 0.5540635664
C  C44  1  0.09680000  0.70180000  0.60440000  1.0 0.5540635664
C  C45  1  0.59680000  0.79820000  0.10440000  1.0 0.5540635664
C  C46  1  0.09680000  0.70180000  0.89560000  1.0 0.5540635664
C  C47  1  0.40320000  0.20180000  0.60440000  1.0 0.5540635664
C  C48  1  0.90320000  0.29820000  0.39560000  1.0 0.5540635664
C  C49  1  0.42100000  0.00790000  0.69210000  1.0 0.0639846105
C  C50  1  0.92100000  0.49210000  0.30790000  1.0 0.0639846105
C  C51  1  0.57900000  0.99210000  0.19210000  1.0 0.0639846105
C  C52  1  0.07900000  0.50790000  0.80790000  1.0 0.0639846105
C  C53  1  0.57900000  0.99210000  0.30790000  1.0 0.0639846105
C  C54  1  0.07900000  0.50790000  0.69210000  1.0 0.0639846105
C  C55  1  0.42100000  0.00790000  0.80790000  1.0 0.0639846105
C  C56  1  0.92100000  0.49210000  0.19210000  1.0 0.0639846105
C  C57  1  0.40060000  0.93530000  0.69020000  1.0 -0.1671060693
C  C58  1  0.90060000  0.56470000  0.30980000  1.0 -0.1671060693
C  C59  1  0.59940000  0.06470000  0.19020000  1.0 -0.1671060693
C  C60  1  0.09940000  0.43530000  0.80980000  1.0 -0.1671060693
C  C61  1  0.59940000  0.06470000  0.30980000  1.0 -0.1671060693
C  C62  1  0.09940000  0.43530000  0.69020000  1.0 -0.1671060693
C  C63  1  0.40060000  0.93530000  0.80980000  1.0 -0.1671060693
C  C64  1  0.90060000  0.56470000  0.19020000  1.0 -0.1671060693
C  C65  1  0.39050000  0.89960000  0.75000000  1.0 0.0222205312
C  C66  1  0.89050000  0.60040000  0.25000000  1.0 0.0222205312
C  C67  1  0.60950000  0.10040000  0.25000000  1.0 0.0222205312
C  C68  1  0.10950000  0.39960000  0.75000000  1.0 0.0222205312
C  C69  1  0.35910000  0.82200000  0.75000000  1.0 0.5624555577
C  C70  1  0.85910000  0.67800000  0.25000000  1.0 0.5624555577
C  C71  1  0.64090000  0.17800000  0.25000000  1.0 0.5624555577
C  C72  1  0.14090000  0.32200000  0.75000000  1.0 0.5624555577
C  C73  1  0.67290000  0.19120000  0.79830000  1.0 -0.0411659077
C  C74  1  0.17290000  0.30880000  0.20170000  1.0 -0.0411659077
C  C75  1  0.32710000  0.80880000  0.29830000  1.0 -0.0411659077
C  C76  1  0.82710000  0.69120000  0.70170000  1.0 -0.0411659077
C  C77  1  0.32710000  0.80880000  0.20170000  1.0 -0.0411659077
C  C78  1  0.82710000  0.69120000  0.79830000  1.0 -0.0411659077
C  C79  1  0.67290000  0.19120000  0.70170000  1.0 -0.0411659077
C  C80  1  0.17290000  0.30880000  0.29830000  1.0 -0.0411659077
C  C81  1  0.78570000  0.18900000  0.80110000  1.0 -0.0949619334
C  C82  1  0.28570000  0.31100000  0.19890000  1.0 -0.0949619334
C  C83  1  0.21430000  0.81100000  0.30110000  1.0 -0.0949619334
C  C84  1  0.71430000  0.68900000  0.69890000  1.0 -0.0949619334
C  C85  1  0.21430000  0.81100000  0.19890000  1.0 -0.0949619334
C  C86  1  0.71430000  0.68900000  0.80110000  1.0 -0.0949619334
C  C87  1  0.78570000  0.18900000  0.69890000  1.0 -0.0949619334
C  C88  1  0.28570000  0.31100000  0.30110000  1.0 -0.0949619334
C  C89  1  0.84440000  0.15690000  0.75000000  1.0 0.0080795021
C  C90  1  0.34440000  0.34310000  0.25000000  1.0 0.0080795021
C  C91  1  0.15560000  0.84310000  0.25000000  1.0 0.0080795021
C  C92  1  0.65560000  0.65690000  0.75000000  1.0 0.0080795021
C  C93  1  0.97130000  0.15930000  0.75000000  1.0 0.5379905183
C  C94  1  0.47130000  0.34070000  0.25000000  1.0 0.5379905183
C  C95  1  0.02870000  0.84070000  0.25000000  1.0 0.5379905183
C  C96  1  0.52870000  0.65930000  0.75000000  1.0 0.5379905183
C  C97  1  0.67030000  0.12530000  0.70120000  1.0 -0.0411659077
C  C98  1  0.17030000  0.37470000  0.29880000  1.0 -0.0411659077
C  C99  1  0.32970000  0.87470000  0.20120000  1.0 -0.0411659077
C  C100  1  0.82970000  0.62530000  0.79880000  1.0 -0.0411659077
C  C101  1  0.32970000  0.87470000  0.29880000  1.0 -0.0411659077
C  C102  1  0.82970000  0.62530000  0.70120000  1.0 -0.0411659077
C  C103  1  0.67030000  0.12530000  0.79880000  1.0 -0.0411659077
C  C104  1  0.17030000  0.37470000  0.20120000  1.0 -0.0411659077
C  C105  1  0.78510000  0.12370000  0.69840000  1.0 -0.1006580886
C  C106  1  0.28510000  0.37630000  0.30160000  1.0 -0.1006580886
C  C107  1  0.21490000  0.87630000  0.19840000  1.0 -0.1006580886
C  C108  1  0.71490000  0.62370000  0.80160000  1.0 -0.1006580886
C  C109  1  0.21490000  0.87630000  0.30160000  1.0 -0.1006580886
C  C110  1  0.71490000  0.62370000  0.69840000  1.0 -0.1006580886
C  C111  1  0.78510000  0.12370000  0.80160000  1.0 -0.1006580886
C  C112  1  0.28510000  0.37630000  0.19840000  1.0 -0.1006580886
N  N1  1  0.58240000  0.27480000  0.07050000  1.0 -0.2447730076
N  N2  1  0.08240000  0.22520000  0.92950000  1.0 -0.2447730076
N  N3  1  0.41760000  0.72520000  0.57050000  1.0 -0.2447730076
N  N4  1  0.91760000  0.77480000  0.42950000  1.0 -0.2447730076
N  N5  1  0.41760000  0.72520000  0.92950000  1.0 -0.2447730076
N  N6  1  0.91760000  0.77480000  0.07050000  1.0 -0.2447730076
N  N7  1  0.58240000  0.27480000  0.42950000  1.0 -0.2447730076
N  N8  1  0.08240000  0.22520000  0.57050000  1.0 -0.2447730076
N  N9  1  0.42960000  0.04410000  0.75000000  1.0 -0.261200301
N  N10  1  0.92960000  0.45590000  0.25000000  1.0 -0.261200301
N  N11  1  0.57040000  0.95590000  0.25000000  1.0 -0.261200301
N  N12  1  0.07040000  0.54410000  0.75000000  1.0 -0.261200301
N  N13  1  0.61350000  0.15840000  0.75000000  1.0 -0.0605341863
N  N14  1  0.11350000  0.34160000  0.25000000  1.0 -0.0605341863
N  N15  1  0.38650000  0.84160000  0.25000000  1.0 -0.0605341863
N  N16  1  0.88650000  0.65840000  0.75000000  1.0 -0.0605341863
O  O1  1  0.25500000  0.15630000  0.75000000  1.0 -0.8745348674
O  O2  1  0.75500000  0.34370000  0.25000000  1.0 -0.8766069036
O  O3  1  0.74500000  0.84370000  0.25000000  1.0 -0.8766069036
O  O4  1  0.24500000  0.65630000  0.75000000  1.0 -0.8745348674
O  O5  1  0.45040000  0.15990000  0.85490000  1.0 -0.5942010205
O  O6  1  0.95040000  0.34010000  0.14510000  1.0 -0.5942010205
O  O7  1  0.54960000  0.84010000  0.35490000  1.0 -0.5942010205
O  O8  1  0.04960000  0.65990000  0.64510000  1.0 -0.5942010205
O  O9  1  0.54960000  0.84010000  0.14510000  1.0 -0.5942010205
O  O10  1  0.04960000  0.65990000  0.85490000  1.0 -0.5942010205
O  O11  1  0.45040000  0.15990000  0.64510000  1.0 -0.5942010205
O  O12  1  0.95040000  0.34010000  0.35490000  1.0 -0.5942010205
O  O13  1  0.30700000  0.22480000  0.89010000  1.0 -0.5513724308
O  O14  1  0.80700000  0.27520000  0.10990000  1.0 -0.5513724308
O  O15  1  0.69300000  0.77520000  0.39010000  1.0 -0.5513724308
O  O16  1  0.19300000  0.72480000  0.60990000  1.0 -0.5513724308
O  O17  1  0.69300000  0.77520000  0.10990000  1.0 -0.5513724308
O  O18  1  0.19300000  0.72480000  0.89010000  1.0 -0.5513724308
O  O19  1  0.30700000  0.22480000  0.60990000  1.0 -0.5513724308
O  O20  1  0.80700000  0.27520000  0.39010000  1.0 -0.5513724308
O  O21  1  0.34780000  0.79280000  0.69480000  1.0 -0.5235619467
O  O22  1  0.84780000  0.70720000  0.30520000  1.0 -0.5235619467
O  O23  1  0.65220000  0.20720000  0.19480000  1.0 -0.5235619467
O  O24  1  0.15220000  0.29280000  0.80520000  1.0 -0.5235619467
O  O25  1  0.65220000  0.20720000  0.30520000  1.0 -0.5235619467
O  O26  1  0.15220000  0.29280000  0.69480000  1.0 -0.5235619467
O  O27  1  0.34780000  0.79280000  0.80520000  1.0 -0.5235619467
O  O28  1  0.84780000  0.70720000  0.19480000  1.0 -0.5235619467
O  O29  1  0.01560000  0.15910000  0.80540000  1.0 -0.5304368805
O  O30  1  0.51560000  0.34090000  0.19460000  1.0 -0.5304368805
O  O31  1  0.98440000  0.84090000  0.30540000  1.0 -0.5304368805
O  O32  1  0.48440000  0.65910000  0.69460000  1.0 -0.5304368805
O  O33  1  0.98440000  0.84090000  0.19460000  1.0 -0.5304368805
O  O34  1  0.48440000  0.65910000  0.80540000  1.0 -0.5304368805
O  O35  1  0.01560000  0.15910000  0.69460000  1.0 -0.5304368805
O  O36  1  0.51560000  0.34090000  0.30540000  1.0 -0.5304368805
