# DDEC6 charges by PACMAN v1.1 (https://github.com/mtap-research/PACMAN-charge/)
data_OXAPAF_ASR_pacman
_symmetry_space_group_name_H-M   'P 1'
_cell_length_a   18.95420000
_cell_length_b   19.69700000
_cell_length_c   12.02280000
_cell_angle_alpha   90.00000000
_cell_angle_beta   90.00000000
_cell_angle_gamma   90.00000000
_symmetry_Int_Tables_number   1
_chemical_formula_structural   Co3H17C23N4O9
_chemical_formula_sum   'Co12 H68 C92 N16 O36'
_cell_volume   4488.60270080
_cell_formula_units_Z   4
loop_
 _symmetry_equiv_pos_site_id
 _symmetry_equiv_pos_as_xyz
  1  'x, y, z'
loop_
 _atom_site_type_symbol
 _atom_site_label
 _atom_site_symmetry_multiplicity
 _atom_site_fract_x
 _atom_site_fract_y
 _atom_site_fract_z
 _atom_site_occupancy
 _atom_site_charge
Co  Co1  1  0.70506000  0.66496000  0.83235000  1.0 1.0526508772
Co  Co2  1  0.29494000  0.33504000  0.16765000  1.0 1.0526508772
Co  Co3  1  0.79494000  0.33504000  0.33235000  1.0 1.0526508772
Co  Co4  1  0.20506000  0.66496000  0.66765000  1.0 1.0526508772
Co  Co5  1  0.29494000  0.16496000  0.16765000  1.0 1.0526508772
Co  Co6  1  0.70506000  0.83504000  0.83235000  1.0 1.0526508772
Co  Co7  1  0.20506000  0.83504000  0.66765000  1.0 1.0526508772
Co  Co8  1  0.79494000  0.16496000  0.33235000  1.0 1.0526508772
Co  Co9  1  0.65955000  0.75000000  0.55121000  1.0 0.8730083638
Co  Co10  1  0.34045000  0.25000000  0.44879000  1.0 0.8730083638
Co  Co11  1  0.84045000  0.25000000  0.05121000  1.0 0.8730083638
Co  Co12  1  0.15955000  0.75000000  0.94879000  1.0 0.8730083638
H  H1  1  0.64029000  0.54310000  0.40611000  1.0 0.1128477723
H  H2  1  0.35971000  0.45690000  0.59389000  1.0 0.1128477723
H  H3  1  0.85971000  0.45690000  0.90611000  1.0 0.1128477723
H  H4  1  0.14029000  0.54310000  0.09389000  1.0 0.1128477723
H  H5  1  0.35971000  0.04310000  0.59389000  1.0 0.1128477723
H  H6  1  0.64029000  0.95690000  0.40611000  1.0 0.1128477723
H  H7  1  0.14029000  0.95690000  0.09389000  1.0 0.1128477723
H  H8  1  0.85971000  0.04310000  0.90611000  1.0 0.1128477723
H  H9  1  0.68277000  0.43788000  0.31204000  1.0 0.0917890383
H  H10  1  0.31723000  0.56212000  0.68796000  1.0 0.0917890383
H  H11  1  0.81723000  0.56212000  0.81204000  1.0 0.0917890383
H  H12  1  0.18277000  0.43788000  0.18796000  1.0 0.0917890383
H  H13  1  0.31723000  0.93788000  0.68796000  1.0 0.0917890383
H  H14  1  0.68277000  0.06212000  0.31204000  1.0 0.0917890383
H  H15  1  0.18277000  0.06212000  0.18796000  1.0 0.0917890383
H  H16  1  0.81723000  0.93788000  0.81204000  1.0 0.0917890383
H  H17  1  0.85662000  0.42207000  0.52017000  1.0 0.1024106153
H  H18  1  0.14338000  0.57793000  0.47983000  1.0 0.1024106153
H  H19  1  0.64338000  0.57793000  0.02017000  1.0 0.1024106153
H  H20  1  0.35662000  0.42207000  0.97983000  1.0 0.1024106153
H  H21  1  0.14338000  0.92207000  0.47983000  1.0 0.1024106153
H  H22  1  0.85662000  0.07793000  0.52017000  1.0 0.1024106153
H  H23  1  0.35662000  0.07793000  0.97983000  1.0 0.1024106153
H  H24  1  0.64338000  0.92207000  0.02017000  1.0 0.1024106153
H  H25  1  0.82049000  0.52697000  0.62610000  1.0 0.1128477723
H  H26  1  0.17951000  0.47303000  0.37390000  1.0 0.1128477723
H  H27  1  0.67951000  0.47303000  0.12610000  1.0 0.1128477723
H  H28  1  0.32049000  0.52697000  0.87390000  1.0 0.1128477723
H  H29  1  0.17951000  0.02697000  0.37390000  1.0 0.1128477723
H  H30  1  0.82049000  0.97303000  0.62610000  1.0 0.1128477723
H  H31  1  0.32049000  0.97303000  0.87390000  1.0 0.1128477723
H  H32  1  0.67951000  0.02697000  0.12610000  1.0 0.1128477723
H  H33  1  0.91765000  0.64046000  0.89339000  1.0 0.1158160501
H  H34  1  0.08235000  0.35954000  0.10661000  1.0 0.1158160501
H  H35  1  0.58235000  0.35954000  0.39339000  1.0 0.1158160501
H  H36  1  0.41765000  0.64046000  0.60661000  1.0 0.1158160501
H  H37  1  0.08235000  0.14046000  0.10661000  1.0 0.1158160501
H  H38  1  0.91765000  0.85954000  0.89339000  1.0 0.1158160501
H  H39  1  0.41765000  0.85954000  0.60661000  1.0 0.1158160501
H  H40  1  0.58235000  0.14046000  0.39339000  1.0 0.1158160501
H  H41  1  0.04765000  0.64419000  0.93189000  1.0 0.0917890383
H  H42  1  0.95235000  0.35581000  0.06811000  1.0 0.0917890383
H  H43  1  0.45235000  0.35581000  0.43189000  1.0 0.0917890383
H  H44  1  0.54765000  0.64419000  0.56811000  1.0 0.0917890383
H  H45  1  0.95235000  0.14419000  0.06811000  1.0 0.0917890383
H  H46  1  0.04765000  0.85581000  0.93189000  1.0 0.0917890383
H  H47  1  0.54765000  0.85581000  0.56811000  1.0 0.0917890383
H  H48  1  0.45235000  0.14419000  0.43189000  1.0 0.0917890383
H  H49  1  0.69739000  0.63984000  0.16849000  1.0 0.1158160501
H  H50  1  0.30261000  0.36016000  0.83151000  1.0 0.1158160501
H  H51  1  0.80261000  0.36016000  0.66849000  1.0 0.1158160501
H  H52  1  0.19739000  0.63984000  0.33151000  1.0 0.1158160501
H  H53  1  0.30261000  0.13984000  0.83151000  1.0 0.1158160501
H  H54  1  0.69739000  0.86016000  0.16849000  1.0 0.1158160501
H  H55  1  0.19739000  0.86016000  0.33151000  1.0 0.1158160501
H  H56  1  0.80261000  0.13984000  0.66849000  1.0 0.1158160501
H  H57  1  0.69472000  0.64435000  0.37289000  1.0 0.0812105032
H  H58  1  0.30528000  0.35565000  0.62711000  1.0 0.0812105032
H  H59  1  0.80528000  0.35565000  0.87289000  1.0 0.0812105032
H  H60  1  0.19472000  0.64435000  0.12711000  1.0 0.0812105032
H  H61  1  0.30528000  0.14435000  0.62711000  1.0 0.0812105032
H  H62  1  0.69472000  0.85565000  0.37289000  1.0 0.0812105032
H  H63  1  0.19472000  0.85565000  0.12711000  1.0 0.0812105032
H  H64  1  0.80528000  0.14435000  0.87289000  1.0 0.0812105032
H  H65  1  0.62721000  0.75000000  0.78088000  1.0 0.3712947451
H  H66  1  0.37279000  0.25000000  0.21912000  1.0 0.3712947451
H  H67  1  0.87279000  0.25000000  0.28088000  1.0 0.3712947451
H  H68  1  0.12721000  0.75000000  0.71912000  1.0 0.3712947451
C  C1  1  0.72640000  0.54473000  0.52759000  1.0 0.0001454767
C  C2  1  0.27360000  0.45527000  0.47241000  1.0 0.0001454767
C  C3  1  0.77360000  0.45527000  0.02759000  1.0 0.0001454767
C  C4  1  0.22640000  0.54473000  0.97241000  1.0 0.0001454767
C  C5  1  0.27360000  0.04473000  0.47241000  1.0 0.0001454767
C  C6  1  0.72640000  0.95527000  0.52759000  1.0 0.0001454767
C  C7  1  0.22640000  0.95527000  0.97241000  1.0 0.0001454767
C  C8  1  0.77360000  0.04473000  0.02759000  1.0 0.0001454767
C  C9  1  0.68861000  0.51856000  0.43585000  1.0 -0.1689863643
C  C10  1  0.31139000  0.48144000  0.56415000  1.0 -0.1689863643
C  C11  1  0.81139000  0.48144000  0.93585000  1.0 -0.1689863643
C  C12  1  0.18861000  0.51856000  0.06415000  1.0 -0.1689863643
C  C13  1  0.31139000  0.01856000  0.56415000  1.0 -0.1689863643
C  C14  1  0.68861000  0.98144000  0.43585000  1.0 -0.1689863643
C  C15  1  0.18861000  0.98144000  0.06415000  1.0 -0.1689863643
C  C16  1  0.81139000  0.01856000  0.93585000  1.0 -0.1689863643
C  C17  1  0.71183000  0.45936000  0.38227000  1.0 0.0917890383
C  C18  1  0.28817000  0.54064000  0.61773000  1.0 0.0917890383
C  C19  1  0.78817000  0.54064000  0.88227000  1.0 0.0917890383
C  C20  1  0.21183000  0.45936000  0.11773000  1.0 0.0917890383
C  C21  1  0.28817000  0.95936000  0.61773000  1.0 0.0917890383
C  C22  1  0.71183000  0.04064000  0.38227000  1.0 0.0917890383
C  C23  1  0.21183000  0.04064000  0.11773000  1.0 0.0917890383
C  C24  1  0.78817000  0.95936000  0.88227000  1.0 0.0917890383
C  C25  1  0.80896000  0.45062000  0.49842000  1.0 0.0917890383
C  C26  1  0.19104000  0.54938000  0.50158000  1.0 0.0917890383
C  C27  1  0.69104000  0.54938000  0.99842000  1.0 0.0917890383
C  C28  1  0.30896000  0.45062000  0.00158000  1.0 0.0917890383
C  C29  1  0.19104000  0.95062000  0.50158000  1.0 0.0917890383
C  C30  1  0.80896000  0.04938000  0.49842000  1.0 0.0917890383
C  C31  1  0.30896000  0.04938000  0.00158000  1.0 0.0917890383
C  C32  1  0.69104000  0.95062000  0.99842000  1.0 0.0917890383
C  C33  1  0.78811000  0.50900000  0.55666000  1.0 -0.1491567857
C  C34  1  0.21189000  0.49100000  0.44334000  1.0 -0.1491567857
C  C35  1  0.71189000  0.49100000  0.05666000  1.0 -0.1491567857
C  C36  1  0.28811000  0.50900000  0.94334000  1.0 -0.1491567857
C  C37  1  0.21189000  0.00900000  0.44334000  1.0 -0.1491567857
C  C38  1  0.78811000  0.99100000  0.55666000  1.0 -0.1491567857
C  C39  1  0.28811000  0.99100000  0.94334000  1.0 -0.1491567857
C  C40  1  0.71189000  0.00900000  0.05666000  1.0 -0.1491567857
C  C41  1  0.70467000  0.60773000  0.59326000  1.0 0.5726400994
C  C42  1  0.29533000  0.39227000  0.40674000  1.0 0.5726400994
C  C43  1  0.79533000  0.39227000  0.09326000  1.0 0.5726400994
C  C44  1  0.20467000  0.60773000  0.90674000  1.0 0.5726400994
C  C45  1  0.29533000  0.10773000  0.40674000  1.0 0.5726400994
C  C46  1  0.70467000  0.89227000  0.59326000  1.0 0.5726400994
C  C47  1  0.20467000  0.89227000  0.90674000  1.0 0.5726400994
C  C48  1  0.79533000  0.10773000  0.09326000  1.0 0.5726400994
C  C49  1  0.90779000  0.75000000  0.88327000  1.0 0.0001454767
C  C50  1  0.09221000  0.25000000  0.11673000  1.0 0.0001454767
C  C51  1  0.59221000  0.25000000  0.38327000  1.0 0.0001454767
C  C52  1  0.40779000  0.75000000  0.61673000  1.0 0.0001454767
C  C53  1  0.94516000  0.68920000  0.89935000  1.0 -0.1414575941
C  C54  1  0.05484000  0.31080000  0.10065000  1.0 -0.1414575941
C  C55  1  0.55484000  0.31080000  0.39935000  1.0 -0.1414575941
C  C56  1  0.44516000  0.68920000  0.60065000  1.0 -0.1414575941
C  C57  1  0.05484000  0.18920000  0.10065000  1.0 -0.1414575941
C  C58  1  0.94516000  0.81080000  0.89935000  1.0 -0.1414575941
C  C59  1  0.44516000  0.81080000  0.60065000  1.0 -0.1414575941
C  C60  1  0.55484000  0.18920000  0.39935000  1.0 -0.1414575941
C  C61  1  0.01727000  0.69092000  0.92127000  1.0 0.0812105032
C  C62  1  0.98273000  0.30908000  0.07873000  1.0 0.0812105032
C  C63  1  0.48273000  0.30908000  0.42127000  1.0 0.0812105032
C  C64  1  0.51727000  0.69092000  0.57873000  1.0 0.0812105032
C  C65  1  0.98273000  0.19092000  0.07873000  1.0 0.0812105032
C  C66  1  0.01727000  0.80908000  0.92127000  1.0 0.0812105032
C  C67  1  0.51727000  0.80908000  0.57873000  1.0 0.0812105032
C  C68  1  0.48273000  0.19092000  0.42127000  1.0 0.0812105032
C  C69  1  0.83213000  0.75000000  0.84687000  1.0 0.5810076975
C  C70  1  0.16787000  0.25000000  0.15313000  1.0 0.5810076975
C  C71  1  0.66787000  0.25000000  0.34687000  1.0 0.5810076975
C  C72  1  0.33213000  0.75000000  0.65313000  1.0 0.5810076975
C  C73  1  0.69664000  0.75000000  0.14746000  1.0 0.1935468212
C  C74  1  0.30336000  0.25000000  0.85254000  1.0 0.1935468212
C  C75  1  0.80336000  0.25000000  0.64746000  1.0 0.1935468212
C  C76  1  0.19664000  0.75000000  0.35254000  1.0 0.1935468212
C  C77  1  0.69818000  0.68992000  0.20818000  1.0 -0.1689863643
C  C78  1  0.30182000  0.31008000  0.79182000  1.0 -0.1689863643
C  C79  1  0.80182000  0.31008000  0.70818000  1.0 -0.1689863643
C  C80  1  0.19818000  0.68992000  0.29182000  1.0 -0.1689863643
C  C81  1  0.30182000  0.18992000  0.79182000  1.0 -0.1689863643
C  C82  1  0.69818000  0.81008000  0.20818000  1.0 -0.1689863643
C  C83  1  0.19818000  0.81008000  0.29182000  1.0 -0.1689863643
C  C84  1  0.80182000  0.18992000  0.70818000  1.0 -0.1689863643
C  C85  1  0.69601000  0.69137000  0.32520000  1.0 0.1024106153
C  C86  1  0.30399000  0.30863000  0.67480000  1.0 0.1024106153
C  C87  1  0.80399000  0.30863000  0.82520000  1.0 0.1024106153
C  C88  1  0.19601000  0.69137000  0.17480000  1.0 0.1024106153
C  C89  1  0.30399000  0.19137000  0.67480000  1.0 0.1024106153
C  C90  1  0.69601000  0.80863000  0.32520000  1.0 0.1024106153
C  C91  1  0.19601000  0.80863000  0.17480000  1.0 0.1024106153
C  C92  1  0.80399000  0.19137000  0.82520000  1.0 0.1024106153
N  N1  1  0.77084000  0.42416000  0.41217000  1.0 -0.2374143145
N  N2  1  0.22916000  0.57584000  0.58783000  1.0 -0.2374143145
N  N3  1  0.72916000  0.57584000  0.91217000  1.0 -0.2374143145
N  N4  1  0.27084000  0.42416000  0.08783000  1.0 -0.2374143145
N  N5  1  0.22916000  0.92416000  0.58783000  1.0 -0.2374143145
N  N6  1  0.77084000  0.07584000  0.41217000  1.0 -0.2374143145
N  N7  1  0.27084000  0.07584000  0.08783000  1.0 -0.2374143145
N  N8  1  0.72916000  0.92416000  0.91217000  1.0 -0.2374143145
N  N9  1  0.05520000  0.75000000  0.92897000  1.0 -0.2711430705
N  N10  1  0.94480000  0.25000000  0.07103000  1.0 -0.2711430705
N  N11  1  0.44480000  0.25000000  0.42897000  1.0 -0.2711430705
N  N12  1  0.55520000  0.75000000  0.57103000  1.0 -0.2711430705
N  N13  1  0.69225000  0.75000000  0.38543000  1.0 -0.2711430705
N  N14  1  0.30775000  0.25000000  0.61457000  1.0 -0.2711430705
N  N15  1  0.80775000  0.25000000  0.88543000  1.0 -0.2711430705
N  N16  1  0.19225000  0.75000000  0.11457000  1.0 -0.2711430705
O  O1  1  0.67564000  0.75000000  0.75157000  1.0 -0.8457796193
O  O2  1  0.32436000  0.25000000  0.24843000  1.0 -0.8445793606
O  O3  1  0.82436000  0.25000000  0.25157000  1.0 -0.8445793606
O  O4  1  0.17564000  0.75000000  0.74843000  1.0 -0.8457796193
O  O5  1  0.66545000  0.65181000  0.54144000  1.0 -0.566410116
O  O6  1  0.33455000  0.34819000  0.45856000  1.0 -0.566410116
O  O7  1  0.83455000  0.34819000  0.04144000  1.0 -0.566410116
O  O8  1  0.16545000  0.65181000  0.95856000  1.0 -0.566410116
O  O9  1  0.33455000  0.15181000  0.45856000  1.0 -0.566410116
O  O10  1  0.66545000  0.84819000  0.54144000  1.0 -0.566410116
O  O11  1  0.16545000  0.84819000  0.95856000  1.0 -0.566410116
O  O12  1  0.83455000  0.15181000  0.04144000  1.0 -0.566410116
O  O13  1  0.72730000  0.61106000  0.69241000  1.0 -0.5384549937
O  O14  1  0.27270000  0.38894000  0.30759000  1.0 -0.5384549937
O  O15  1  0.77270000  0.38894000  0.19241000  1.0 -0.5384549937
O  O16  1  0.22730000  0.61106000  0.80759000  1.0 -0.5384549937
O  O17  1  0.27270000  0.11106000  0.30759000  1.0 -0.5384549937
O  O18  1  0.72730000  0.88894000  0.69241000  1.0 -0.5384549937
O  O19  1  0.22730000  0.88894000  0.80759000  1.0 -0.5384549937
O  O20  1  0.77270000  0.11106000  0.19241000  1.0 -0.5384549937
O  O21  1  0.80439000  0.69109000  0.83226000  1.0 -0.5318029738
O  O22  1  0.19561000  0.30891000  0.16774000  1.0 -0.5318029738
O  O23  1  0.69561000  0.30891000  0.33226000  1.0 -0.5318029738
O  O24  1  0.30439000  0.69109000  0.66774000  1.0 -0.5318029738
O  O25  1  0.19561000  0.19109000  0.16774000  1.0 -0.5318029738
O  O26  1  0.80439000  0.80891000  0.83226000  1.0 -0.5318029738
O  O27  1  0.30439000  0.80891000  0.66774000  1.0 -0.5318029738
O  O28  1  0.69561000  0.19109000  0.33226000  1.0 -0.5318029738
O  O29  1  0.64525000  0.68143000  0.92703000  1.0 -0.6302617184
O  O30  1  0.35475000  0.31857000  0.07297000  1.0 -0.6302617184
O  O31  1  0.85475000  0.31857000  0.42703000  1.0 -0.6302617184
O  O32  1  0.14525000  0.68143000  0.57297000  1.0 -0.6302617184
O  O33  1  0.35475000  0.18143000  0.07297000  1.0 -0.6302617184
O  O34  1  0.64525000  0.81857000  0.92703000  1.0 -0.6302617184
O  O35  1  0.14525000  0.81857000  0.57297000  1.0 -0.6302617184
O  O36  1  0.85475000  0.18143000  0.42703000  1.0 -0.6302617184
