# DDEC6 charges by PACMAN v1.1 (https://github.com/mtap-research/PACMAN-charge/)
data_OXAPAF_FSR_pacman
_symmetry_space_group_name_H-M   'P 1'
_cell_length_a   12.02280000
_cell_length_b   18.95420000
_cell_length_c   19.69700000
_cell_angle_alpha   90.00000000
_cell_angle_beta   90.00000000
_cell_angle_gamma   90.00000000
_symmetry_Int_Tables_number   1
_chemical_formula_structural   Co3H39C34(NO3)4
_chemical_formula_sum   'Co12 H156 C136 N16 O48'
_cell_volume   4488.60270080
_cell_formula_units_Z   4
loop_
 _symmetry_equiv_pos_site_id
 _symmetry_equiv_pos_as_xyz
  1  'x, y, z'
loop_
 _atom_site_type_symbol
 _atom_site_label
 _atom_site_symmetry_multiplicity
 _atom_site_fract_x
 _atom_site_fract_y
 _atom_site_fract_z
 _atom_site_occupancy
 _atom_site_charge
Co  Co1  1  0.32238000  0.80589000  0.16279000  1.0 0.8662920075
Co  Co2  1  0.82238000  0.69411000  0.83721000  1.0 0.8662920075
Co  Co3  1  0.67762000  0.19411000  0.66279000  1.0 0.8662920075
Co  Co4  1  0.17762000  0.30589000  0.33721000  1.0 0.8662920075
Co  Co5  1  0.67762000  0.19411000  0.83721000  1.0 0.8662920075
Co  Co6  1  0.17762000  0.30589000  0.16279000  1.0 0.8662920075
Co  Co7  1  0.32238000  0.80589000  0.33721000  1.0 0.8662920075
Co  Co8  1  0.82238000  0.69411000  0.66279000  1.0 0.8662920075
Co  Co9  1  0.56412000  0.65833000  0.75000000  1.0 0.7771040129
Co  Co10  1  0.06412000  0.84167000  0.25000000  1.0 0.7771040129
Co  Co11  1  0.43588000  0.34167000  0.25000000  1.0 0.7771040129
Co  Co12  1  0.93588000  0.15833000  0.75000000  1.0 0.7771040129
H  H1  1  0.41050000  0.64650000  0.95910000  1.0 0.1208294106
H  H2  1  0.91050000  0.85350000  0.04090000  1.0 0.1208294106
H  H3  1  0.58950000  0.35350000  0.45910000  1.0 0.1208294106
H  H4  1  0.08950000  0.14650000  0.54090000  1.0 0.1208294106
H  H5  1  0.58950000  0.35350000  0.04090000  1.0 0.1208294106
H  H6  1  0.08950000  0.14650000  0.95910000  1.0 0.1208294106
H  H7  1  0.41050000  0.64650000  0.54090000  1.0 0.1208294106
H  H8  1  0.91050000  0.85350000  0.45910000  1.0 0.1208294106
H  H9  1  0.31840000  0.68590000  0.05490000  1.0 0.1022165494
H  H10  1  0.81840000  0.81410000  0.94510000  1.0 0.1022165494
H  H11  1  0.68160000  0.31410000  0.55490000  1.0 0.1022165494
H  H12  1  0.18160000  0.18590000  0.44510000  1.0 0.1022165494
H  H13  1  0.68160000  0.31410000  0.94510000  1.0 0.1022165494
H  H14  1  0.18160000  0.18590000  0.05490000  1.0 0.1022165494
H  H15  1  0.31840000  0.68590000  0.44510000  1.0 0.1022165494
H  H16  1  0.81840000  0.81410000  0.55490000  1.0 0.1022165494
H  H17  1  0.51880000  0.84830000  0.07200000  1.0 0.0889481004
H  H18  1  0.01880000  0.65170000  0.92800000  1.0 0.0889481004
H  H19  1  0.48120000  0.15170000  0.57200000  1.0 0.0889481004
H  H20  1  0.98120000  0.34830000  0.42800000  1.0 0.0889481004
H  H21  1  0.48120000  0.15170000  0.92800000  1.0 0.0889481004
H  H22  1  0.98120000  0.34830000  0.07200000  1.0 0.0889481004
H  H23  1  0.51880000  0.84830000  0.42800000  1.0 0.0889481004
H  H24  1  0.01880000  0.65170000  0.57200000  1.0 0.0889481004
H  H25  1  0.61510000  0.81550000  0.97540000  1.0 0.1208294106
H  H26  1  0.11510000  0.68450000  0.02460000  1.0 0.1208294106
H  H27  1  0.38490000  0.18450000  0.47540000  1.0 0.1208294106
H  H28  1  0.88490000  0.31550000  0.52460000  1.0 0.1208294106
H  H29  1  0.38490000  0.18450000  0.02460000  1.0 0.1208294106
H  H30  1  0.88490000  0.31550000  0.97540000  1.0 0.1208294106
H  H31  1  0.61510000  0.81550000  0.52460000  1.0 0.1208294106
H  H32  1  0.11510000  0.68450000  0.47540000  1.0 0.1208294106
H  H33  1  0.60500000  0.41430000  0.64830000  1.0 0.1270539316
H  H34  1  0.10500000  0.08570000  0.35170000  1.0 0.1270539316
H  H35  1  0.39500000  0.58570000  0.14830000  1.0 0.1270539316
H  H36  1  0.89500000  0.91430000  0.85170000  1.0 0.1270539316
H  H37  1  0.39500000  0.58570000  0.35170000  1.0 0.1270539316
H  H38  1  0.89500000  0.91430000  0.64830000  1.0 0.1270539316
H  H39  1  0.60500000  0.41430000  0.85170000  1.0 0.1270539316
H  H40  1  0.10500000  0.08570000  0.14830000  1.0 0.1270539316
H  H41  1  0.56660000  0.53360000  0.65070000  1.0 0.1078593323
H  H42  1  0.06660000  0.96640000  0.34930000  1.0 0.1078593323
H  H43  1  0.43340000  0.46640000  0.15070000  1.0 0.1078593323
H  H44  1  0.93340000  0.03360000  0.84930000  1.0 0.1078593323
H  H45  1  0.43340000  0.46640000  0.34930000  1.0 0.1078593323
H  H46  1  0.93340000  0.03360000  0.65070000  1.0 0.1078593323
H  H47  1  0.56660000  0.53360000  0.84930000  1.0 0.1078593323
H  H48  1  0.06660000  0.96640000  0.15070000  1.0 0.1078593323
H  H49  1  0.17220000  0.71810000  0.66540000  1.0 0.1078593323
H  H50  1  0.67220000  0.78190000  0.33460000  1.0 0.1078593323
H  H51  1  0.82780000  0.28190000  0.16540000  1.0 0.1078593323
H  H52  1  0.32780000  0.21810000  0.83460000  1.0 0.1078593323
H  H53  1  0.82780000  0.28190000  0.33460000  1.0 0.1078593323
H  H54  1  0.32780000  0.21810000  0.66540000  1.0 0.1078593323
H  H55  1  0.17220000  0.71810000  0.83460000  1.0 0.1078593323
H  H56  1  0.67220000  0.78190000  0.16540000  1.0 0.1078593323
H  H57  1  0.36170000  0.71850000  0.66870000  1.0 0.1022165494
H  H58  1  0.86170000  0.78150000  0.33130000  1.0 0.1022165494
H  H59  1  0.63830000  0.28150000  0.16870000  1.0 0.1022165494
H  H60  1  0.13830000  0.21850000  0.83130000  1.0 0.1022165494
H  H61  1  0.63830000  0.28150000  0.33130000  1.0 0.1022165494
H  H62  1  0.13830000  0.21850000  0.66870000  1.0 0.1022165494
H  H63  1  0.36170000  0.71850000  0.83130000  1.0 0.1022165494
H  H64  1  0.86170000  0.78150000  0.16870000  1.0 0.1022165494
H  H65  1  0.50830000  0.78850000  0.75000000  1.0 0.3335796224
H  H66  1  0.00830000  0.71150000  0.25000000  1.0 0.3335796224
H  H67  1  0.49170000  0.21150000  0.25000000  1.0 0.3335796224
H  H68  1  0.99170000  0.28850000  0.75000000  1.0 0.3335796224
H  H69  1  0.33680000  0.90900000  0.08010000  1.0 0.310944848
H  H70  1  0.83680000  0.59100000  0.91990000  1.0 0.310944848
H  H71  1  0.66320000  0.09100000  0.58010000  1.0 0.310944848
H  H72  1  0.16320000  0.40900000  0.41990000  1.0 0.310944848
H  H73  1  0.66320000  0.09100000  0.91990000  1.0 0.310944848
H  H74  1  0.16320000  0.40900000  0.08010000  1.0 0.310944848
H  H75  1  0.33680000  0.90900000  0.41990000  1.0 0.310944848
H  H76  1  0.83680000  0.59100000  0.58010000  1.0 0.310944848
H  H77  1  0.29260000  0.99310000  0.17750000  1.0 0.0706919499
H  H78  1  0.79260000  0.50690000  0.82250000  1.0 0.0706919499
H  H79  1  0.70740000  0.00690000  0.67750000  1.0 0.0706919499
H  H80  1  0.20740000  0.49310000  0.32250000  1.0 0.0706919499
H  H81  1  0.70740000  0.00690000  0.82250000  1.0 0.0706919499
H  H82  1  0.20740000  0.49310000  0.17750000  1.0 0.0706919499
H  H83  1  0.29260000  0.99310000  0.32250000  1.0 0.0706919499
H  H84  1  0.79260000  0.50690000  0.67750000  1.0 0.0706919499
H  H85  1  0.41020000  0.95380000  0.18240000  1.0 0.0706919499
H  H86  1  0.91020000  0.54620000  0.81760000  1.0 0.0706919499
H  H87  1  0.58980000  0.04620000  0.68240000  1.0 0.0706919499
H  H88  1  0.08980000  0.45380000  0.31760000  1.0 0.0706919499
H  H89  1  0.58980000  0.04620000  0.81760000  1.0 0.0706919499
H  H90  1  0.08980000  0.45380000  0.18240000  1.0 0.0706919499
H  H91  1  0.41020000  0.95380000  0.31760000  1.0 0.0706919499
H  H92  1  0.91020000  0.54620000  0.68240000  1.0 0.0706919499
H  H93  1  0.46280000  0.00010000  0.07440000  1.0 0.0889481004
H  H94  1  0.96280000  0.49990000  0.92560000  1.0 0.0889481004
H  H95  1  0.53720000  0.99990000  0.57440000  1.0 0.0889481004
H  H96  1  0.03720000  0.50010000  0.42560000  1.0 0.0889481004
H  H97  1  0.53720000  0.99990000  0.92560000  1.0 0.0889481004
H  H98  1  0.03720000  0.50010000  0.07440000  1.0 0.0889481004
H  H99  1  0.46280000  0.00010000  0.42560000  1.0 0.0889481004
H  H100  1  0.96280000  0.49990000  0.57440000  1.0 0.0889481004
H  H101  1  0.34290000  0.03780000  0.06720000  1.0 0.0889481004
H  H102  1  0.84290000  0.46220000  0.93280000  1.0 0.0889481004
H  H103  1  0.65710000  0.96220000  0.56720000  1.0 0.0889481004
H  H104  1  0.15710000  0.53780000  0.43280000  1.0 0.0889481004
H  H105  1  0.65710000  0.96220000  0.93280000  1.0 0.0889481004
H  H106  1  0.15710000  0.53780000  0.06720000  1.0 0.0889481004
H  H107  1  0.34290000  0.03780000  0.43280000  1.0 0.0889481004
H  H108  1  0.84290000  0.46220000  0.56720000  1.0 0.0889481004
H  H109  1  0.45130000  0.12410000  0.12120000  1.0 0.1208294106
H  H110  1  0.95130000  0.37590000  0.87880000  1.0 0.1208294106
H  H111  1  0.54870000  0.87590000  0.62120000  1.0 0.1208294106
H  H112  1  0.04870000  0.62410000  0.37880000  1.0 0.1208294106
H  H113  1  0.54870000  0.87590000  0.87880000  1.0 0.1208294106
H  H114  1  0.04870000  0.62410000  0.12120000  1.0 0.1208294106
H  H115  1  0.45130000  0.12410000  0.37880000  1.0 0.1208294106
H  H116  1  0.95130000  0.37590000  0.62120000  1.0 0.1208294106
H  H117  1  0.38200000  0.08980000  0.18210000  1.0 0.1270539316
H  H118  1  0.88200000  0.41020000  0.81790000  1.0 0.1270539316
H  H119  1  0.61800000  0.91020000  0.68210000  1.0 0.1270539316
H  H120  1  0.11800000  0.58980000  0.31790000  1.0 0.1270539316
H  H121  1  0.61800000  0.91020000  0.81790000  1.0 0.1270539316
H  H122  1  0.11800000  0.58980000  0.18210000  1.0 0.1270539316
H  H123  1  0.38200000  0.08980000  0.31790000  1.0 0.1270539316
H  H124  1  0.88200000  0.41020000  0.68210000  1.0 0.1270539316
H  H125  1  0.50860000  0.06710000  0.16980000  1.0 0.1208294106
H  H126  1  0.00860000  0.43290000  0.83020000  1.0 0.1208294106
H  H127  1  0.49140000  0.93290000  0.66980000  1.0 0.1208294106
H  H128  1  0.99140000  0.56710000  0.33020000  1.0 0.1208294106
H  H129  1  0.49140000  0.93290000  0.83020000  1.0 0.1208294106
H  H130  1  0.99140000  0.56710000  0.16980000  1.0 0.1208294106
H  H131  1  0.50860000  0.06710000  0.33020000  1.0 0.1208294106
H  H132  1  0.00860000  0.43290000  0.66980000  1.0 0.1208294106
H  H133  1  0.17000000  0.60040000  0.83630000  1.0 0.1022165494
H  H134  1  0.67000000  0.89960000  0.16370000  1.0 0.1022165494
H  H135  1  0.83000000  0.39960000  0.33630000  1.0 0.1022165494
H  H136  1  0.33000000  0.10040000  0.66370000  1.0 0.1022165494
H  H137  1  0.83000000  0.39960000  0.16370000  1.0 0.1022165494
H  H138  1  0.33000000  0.10040000  0.83630000  1.0 0.1022165494
H  H139  1  0.17000000  0.60040000  0.66370000  1.0 0.1022165494
H  H140  1  0.67000000  0.89960000  0.33630000  1.0 0.1022165494
H  H141  1  0.36260000  0.59840000  0.83140000  1.0 0.1022165494
H  H142  1  0.86260000  0.90160000  0.16860000  1.0 0.1022165494
H  H143  1  0.63740000  0.40160000  0.33140000  1.0 0.1022165494
H  H144  1  0.13740000  0.09840000  0.66860000  1.0 0.1022165494
H  H145  1  0.63740000  0.40160000  0.16860000  1.0 0.1022165494
H  H146  1  0.13740000  0.09840000  0.83140000  1.0 0.1022165494
H  H147  1  0.36260000  0.59840000  0.66860000  1.0 0.1022165494
H  H148  1  0.86260000  0.90160000  0.33140000  1.0 0.1022165494
H  H149  1  0.76120000  0.61750000  0.75810000  1.0 0.3756419944
H  H150  1  0.26120000  0.88250000  0.24190000  1.0 0.3756419944
H  H151  1  0.23880000  0.38250000  0.25810000  1.0 0.3756419944
H  H152  1  0.73880000  0.11750000  0.74190000  1.0 0.3756419944
H  H153  1  0.23880000  0.38250000  0.24190000  1.0 0.3756419944
H  H154  1  0.73880000  0.11750000  0.75810000  1.0 0.3756419944
H  H155  1  0.76120000  0.61750000  0.74190000  1.0 0.3756419944
H  H156  1  0.26120000  0.88250000  0.25810000  1.0 0.3756419944
C  C1  1  0.52490000  0.72640000  0.95660000  1.0 0.0295445896
C  C2  1  0.02490000  0.77360000  0.04340000  1.0 0.0295445896
C  C3  1  0.47510000  0.27360000  0.45660000  1.0 0.0295445896
C  C4  1  0.97510000  0.22640000  0.54340000  1.0 0.0295445896
C  C5  1  0.47510000  0.27360000  0.04340000  1.0 0.0295445896
C  C6  1  0.97510000  0.22640000  0.95660000  1.0 0.0295445896
C  C7  1  0.52490000  0.72640000  0.54340000  1.0 0.0295445896
C  C8  1  0.02490000  0.77360000  0.45660000  1.0 0.0295445896
C  C9  1  0.43430000  0.68840000  0.98120000  1.0 -0.1872956342
C  C10  1  0.93430000  0.81160000  0.01880000  1.0 -0.1872956342
C  C11  1  0.56570000  0.31160000  0.48120000  1.0 -0.1872956342
C  C12  1  0.06570000  0.18840000  0.51880000  1.0 -0.1872956342
C  C13  1  0.56570000  0.31160000  0.01880000  1.0 -0.1872956342
C  C14  1  0.06570000  0.18840000  0.98120000  1.0 -0.1872956342
C  C15  1  0.43430000  0.68840000  0.51880000  1.0 -0.1872956342
C  C16  1  0.93430000  0.81160000  0.48120000  1.0 -0.1872956342
C  C17  1  0.37970000  0.71240000  0.03820000  1.0 0.0706919499
C  C18  1  0.87970000  0.78760000  0.96180000  1.0 0.0706919499
C  C19  1  0.62030000  0.28760000  0.53820000  1.0 0.0706919499
C  C20  1  0.12030000  0.21240000  0.46180000  1.0 0.0706919499
C  C21  1  0.62030000  0.28760000  0.96180000  1.0 0.0706919499
C  C22  1  0.12030000  0.21240000  0.03820000  1.0 0.0706919499
C  C23  1  0.37970000  0.71240000  0.46180000  1.0 0.0706919499
C  C24  1  0.87970000  0.78760000  0.53820000  1.0 0.0706919499
C  C25  1  0.49580000  0.80720000  0.04820000  1.0 0.0706919499
C  C26  1  0.99580000  0.69280000  0.95180000  1.0 0.0706919499
C  C27  1  0.50420000  0.19280000  0.54820000  1.0 0.0706919499
C  C28  1  0.00420000  0.30720000  0.45180000  1.0 0.0706919499
C  C29  1  0.50420000  0.19280000  0.95180000  1.0 0.0706919499
C  C30  1  0.00420000  0.30720000  0.04820000  1.0 0.0706919499
C  C31  1  0.49580000  0.80720000  0.45180000  1.0 0.0706919499
C  C32  1  0.99580000  0.69280000  0.54820000  1.0 0.0706919499
C  C33  1  0.55470000  0.78750000  0.99100000  1.0 -0.1872956342
C  C34  1  0.05470000  0.71250000  0.00900000  1.0 -0.1872956342
C  C35  1  0.44530000  0.21250000  0.49100000  1.0 -0.1872956342
C  C36  1  0.94530000  0.28750000  0.50900000  1.0 -0.1872956342
C  C37  1  0.44530000  0.21250000  0.00900000  1.0 -0.1872956342
C  C38  1  0.94530000  0.28750000  0.99100000  1.0 -0.1872956342
C  C39  1  0.55470000  0.78750000  0.50900000  1.0 -0.1872956342
C  C40  1  0.05470000  0.71250000  0.49100000  1.0 -0.1872956342
C  C41  1  0.58960000  0.70330000  0.89460000  1.0 0.5486509429
C  C42  1  0.08960000  0.79670000  0.10540000  1.0 0.5486509429
C  C43  1  0.41040000  0.29670000  0.39460000  1.0 0.5486509429
C  C44  1  0.91040000  0.20330000  0.60540000  1.0 0.5486509429
C  C45  1  0.41040000  0.29670000  0.10540000  1.0 0.5486509429
C  C46  1  0.91040000  0.20330000  0.89460000  1.0 0.5486509429
C  C47  1  0.58960000  0.70330000  0.60540000  1.0 0.5486509429
C  C48  1  0.08960000  0.79670000  0.39460000  1.0 0.5486509429
C  C49  1  0.61330000  0.40170000  0.75000000  1.0 0.0295445896
C  C50  1  0.11330000  0.09830000  0.25000000  1.0 0.0295445896
C  C51  1  0.38670000  0.59830000  0.25000000  1.0 0.0295445896
C  C52  1  0.88670000  0.90170000  0.75000000  1.0 0.0295445896
C  C53  1  0.59910000  0.43800000  0.69060000  1.0 -0.1692059187
C  C54  1  0.09910000  0.06200000  0.30940000  1.0 -0.1692059187
C  C55  1  0.40090000  0.56200000  0.19060000  1.0 -0.1692059187
C  C56  1  0.90090000  0.93800000  0.80940000  1.0 -0.1692059187
C  C57  1  0.40090000  0.56200000  0.30940000  1.0 -0.1692059187
C  C58  1  0.90090000  0.93800000  0.69060000  1.0 -0.1692059187
C  C59  1  0.59910000  0.43800000  0.80940000  1.0 -0.1692059187
C  C60  1  0.09910000  0.06200000  0.19060000  1.0 -0.1692059187
C  C61  1  0.57610000  0.50930000  0.69250000  1.0 0.0527239062
C  C62  1  0.07610000  0.99070000  0.30750000  1.0 0.0527239062
C  C63  1  0.42390000  0.49070000  0.19250000  1.0 0.0527239062
C  C64  1  0.92390000  0.00930000  0.80750000  1.0 0.0527239062
C  C65  1  0.42390000  0.49070000  0.30750000  1.0 0.0527239062
C  C66  1  0.92390000  0.00930000  0.69250000  1.0 0.0527239062
C  C67  1  0.57610000  0.50930000  0.80750000  1.0 0.0527239062
C  C68  1  0.07610000  0.99070000  0.19250000  1.0 0.0527239062
C  C69  1  0.64630000  0.32510000  0.75000000  1.0 0.5434871541
C  C70  1  0.14630000  0.17490000  0.25000000  1.0 0.5434871541
C  C71  1  0.35370000  0.67490000  0.25000000  1.0 0.5434871541
C  C72  1  0.85370000  0.82510000  0.75000000  1.0 0.5434871541
C  C73  1  0.14910000  0.65940000  0.75000000  1.0 0.0047320667
C  C74  1  0.64910000  0.84060000  0.25000000  1.0 0.0047320667
C  C75  1  0.85090000  0.34060000  0.25000000  1.0 0.0047320667
C  C76  1  0.35090000  0.15940000  0.75000000  1.0 0.0047320667
C  C77  1  0.20960000  0.69380000  0.70090000  1.0 -0.0911794079
C  C78  1  0.70960000  0.80620000  0.29910000  1.0 -0.0911794079
C  C79  1  0.79040000  0.30620000  0.20090000  1.0 -0.0911794079
C  C80  1  0.29040000  0.19380000  0.79910000  1.0 -0.0911794079
C  C81  1  0.79040000  0.30620000  0.29910000  1.0 -0.0911794079
C  C82  1  0.29040000  0.19380000  0.70090000  1.0 -0.0911794079
C  C83  1  0.20960000  0.69380000  0.79910000  1.0 -0.0911794079
C  C84  1  0.70960000  0.80620000  0.20090000  1.0 -0.0911794079
C  C85  1  0.32250000  0.69320000  0.70280000  1.0 -0.0308327601
C  C86  1  0.82250000  0.80680000  0.29720000  1.0 -0.035173483
C  C87  1  0.67750000  0.30680000  0.20280000  1.0 -0.035173483
C  C88  1  0.17750000  0.19320000  0.79720000  1.0 -0.0308327601
C  C89  1  0.67750000  0.30680000  0.29720000  1.0 -0.0308327601
C  C90  1  0.17750000  0.19320000  0.70280000  1.0 -0.0308327601
C  C91  1  0.32250000  0.69320000  0.79720000  1.0 -0.0308327601
C  C92  1  0.82250000  0.80680000  0.20280000  1.0 -0.035173483
C  C93  1  0.35110000  0.96910000  0.15070000  1.0 -0.0308327601
C  C94  1  0.85110000  0.53090000  0.84930000  1.0 -0.0308327601
C  C95  1  0.64890000  0.03090000  0.65070000  1.0 -0.0308327601
C  C96  1  0.14890000  0.46910000  0.34930000  1.0 -0.0308327601
C  C97  1  0.64890000  0.03090000  0.84930000  1.0 -0.0308327601
C  C98  1  0.14890000  0.46910000  0.15070000  1.0 -0.0308327601
C  C99  1  0.35110000  0.96910000  0.34930000  1.0 -0.0308327601
C  C100  1  0.85110000  0.53090000  0.65070000  1.0 -0.0308327601
C  C101  1  0.39980000  0.02100000  0.09970000  1.0 -0.1692059187
C  C102  1  0.89980000  0.47900000  0.90030000  1.0 -0.1692059187
C  C103  1  0.60020000  0.97900000  0.59970000  1.0 -0.1692059187
C  C104  1  0.10020000  0.52100000  0.40030000  1.0 -0.1692059187
C  C105  1  0.60020000  0.97900000  0.90030000  1.0 -0.1692059187
C  C106  1  0.10020000  0.52100000  0.09970000  1.0 -0.1692059187
C  C107  1  0.39980000  0.02100000  0.40030000  1.0 -0.1692059187
C  C108  1  0.89980000  0.47900000  0.59970000  1.0 -0.1692059187
C  C109  1  0.43900000  0.08100000  0.14760000  1.0 -0.3779160528
C  C110  1  0.93900000  0.41900000  0.85240000  1.0 -0.3779160528
C  C111  1  0.56100000  0.91900000  0.64760000  1.0 -0.3779160528
C  C112  1  0.06100000  0.58100000  0.35240000  1.0 -0.3779160528
C  C113  1  0.56100000  0.91900000  0.85240000  1.0 -0.3779160528
C  C114  1  0.06100000  0.58100000  0.14760000  1.0 -0.3779160528
C  C115  1  0.43900000  0.08100000  0.35240000  1.0 -0.3779160528
C  C116  1  0.93900000  0.41900000  0.64760000  1.0 -0.3779160528
C  C117  1  0.02260000  0.66210000  0.75000000  1.0 0.5257405417
C  C118  1  0.52260000  0.83790000  0.25000000  1.0 0.5257405417
C  C119  1  0.97740000  0.33790000  0.25000000  1.0 0.5257405417
C  C120  1  0.47740000  0.16210000  0.75000000  1.0 0.5257405417
C  C121  1  0.20800000  0.62400000  0.80060000  1.0 -0.1026842667
C  C122  1  0.70800000  0.87600000  0.19940000  1.0 -0.1026842667
C  C123  1  0.79200000  0.37600000  0.30060000  1.0 -0.1026842667
C  C124  1  0.29200000  0.12400000  0.69940000  1.0 -0.1026842667
C  C125  1  0.79200000  0.37600000  0.19940000  1.0 -0.1026842667
C  C126  1  0.29200000  0.12400000  0.80060000  1.0 -0.1026842667
C  C127  1  0.20800000  0.62400000  0.69940000  1.0 -0.1026842667
C  C128  1  0.70800000  0.87600000  0.30060000  1.0 -0.1026842667
C  C129  1  0.32290000  0.62410000  0.79790000  1.0 -0.0308327601
C  C130  1  0.82290000  0.87590000  0.20210000  1.0 -0.035173483
C  C131  1  0.67710000  0.37590000  0.29790000  1.0 -0.0308327601
C  C132  1  0.17710000  0.12410000  0.70210000  1.0 -0.0308327601
C  C133  1  0.67710000  0.37590000  0.20210000  1.0 -0.035173483
C  C134  1  0.17710000  0.12410000  0.79790000  1.0 -0.0308327601
C  C135  1  0.32290000  0.62410000  0.70210000  1.0 -0.0308327601
C  C136  1  0.82290000  0.87590000  0.29790000  1.0 -0.0308327601
N  N1  1  0.40920000  0.77180000  0.07140000  1.0 -0.2506472988
N  N2  1  0.90920000  0.72820000  0.92860000  1.0 -0.2506472988
N  N3  1  0.59080000  0.22820000  0.57140000  1.0 -0.2506472988
N  N4  1  0.09080000  0.27180000  0.42860000  1.0 -0.2506472988
N  N5  1  0.59080000  0.22820000  0.92860000  1.0 -0.2506472988
N  N6  1  0.09080000  0.27180000  0.07140000  1.0 -0.2506472988
N  N7  1  0.40920000  0.77180000  0.42860000  1.0 -0.2506472988
N  N8  1  0.90920000  0.72820000  0.57140000  1.0 -0.2506472988
N  N9  1  0.56650000  0.54550000  0.75000000  1.0 -0.2879396154
N  N10  1  0.06650000  0.95450000  0.25000000  1.0 -0.2879396154
N  N11  1  0.43350000  0.45450000  0.25000000  1.0 -0.2879396154
N  N12  1  0.93350000  0.04550000  0.75000000  1.0 -0.2879396154
N  N13  1  0.38150000  0.65900000  0.75000000  1.0 -0.0493598616
N  N14  1  0.88150000  0.84100000  0.25000000  1.0 -0.0493598616
N  N15  1  0.61850000  0.34100000  0.25000000  1.0 -0.0493598616
N  N16  1  0.11850000  0.15900000  0.75000000  1.0 -0.0493598616
O  O1  1  0.73940000  0.65930000  0.75000000  1.0 -0.7426566852
O  O2  1  0.23940000  0.84070000  0.25000000  1.0 -0.7426566852
O  O3  1  0.26060000  0.34070000  0.25000000  1.0 -0.7426566852
O  O4  1  0.76060000  0.15930000  0.75000000  1.0 -0.7426566852
O  O5  1  0.54370000  0.66090000  0.85470000  1.0 -0.5792919172
O  O6  1  0.04370000  0.83910000  0.14530000  1.0 -0.5792919172
O  O7  1  0.45630000  0.33910000  0.35470000  1.0 -0.5792919172
O  O8  1  0.95630000  0.16090000  0.64530000  1.0 -0.5792919172
O  O9  1  0.45630000  0.33910000  0.14530000  1.0 -0.5792919172
O  O10  1  0.95630000  0.16090000  0.85470000  1.0 -0.5792919172
O  O11  1  0.54370000  0.66090000  0.64530000  1.0 -0.5792919172
O  O12  1  0.04370000  0.83910000  0.35470000  1.0 -0.5792919172
O  O13  1  0.68440000  0.72930000  0.88810000  1.0 -0.5385688318
O  O14  1  0.18440000  0.77070000  0.11190000  1.0 -0.5385688318
O  O15  1  0.31560000  0.27070000  0.38810000  1.0 -0.5385688318
O  O16  1  0.81560000  0.22930000  0.61190000  1.0 -0.5385688318
O  O17  1  0.31560000  0.27070000  0.11190000  1.0 -0.5385688318
O  O18  1  0.81560000  0.22930000  0.88810000  1.0 -0.5385688318
O  O19  1  0.68440000  0.72930000  0.61190000  1.0 -0.5385688318
O  O20  1  0.18440000  0.77070000  0.38810000  1.0 -0.5385688318
O  O21  1  0.65720000  0.29660000  0.69550000  1.0 -0.4957746936
O  O22  1  0.15720000  0.20340000  0.30450000  1.0 -0.4957746936
O  O23  1  0.34280000  0.70340000  0.19550000  1.0 -0.4957746936
O  O24  1  0.84280000  0.79660000  0.80450000  1.0 -0.4957746936
O  O25  1  0.34280000  0.70340000  0.30450000  1.0 -0.4957746936
O  O26  1  0.84280000  0.79660000  0.69550000  1.0 -0.4957746936
O  O27  1  0.65720000  0.29660000  0.80450000  1.0 -0.4957746936
O  O28  1  0.15720000  0.20340000  0.19550000  1.0 -0.4957746936
O  O29  1  0.97710000  0.66250000  0.80520000  1.0 -0.5385688318
O  O30  1  0.47710000  0.83750000  0.19480000  1.0 -0.5385688318
O  O31  1  0.02290000  0.33750000  0.30520000  1.0 -0.5385688318
O  O32  1  0.52290000  0.16250000  0.69480000  1.0 -0.5385688318
O  O33  1  0.02290000  0.33750000  0.19480000  1.0 -0.5385688318
O  O34  1  0.52290000  0.16250000  0.80520000  1.0 -0.5385688318
O  O35  1  0.97710000  0.66250000  0.69480000  1.0 -0.5385688318
O  O36  1  0.47710000  0.83750000  0.30520000  1.0 -0.5385688318
O  O37  1  0.57290000  0.77170000  0.75000000  1.0 -0.7923172487
O  O38  1  0.07290000  0.72830000  0.25000000  1.0 -0.7923172487
O  O39  1  0.42710000  0.22830000  0.25000000  1.0 -0.7923172487
O  O40  1  0.92710000  0.27170000  0.75000000  1.0 -0.7923172487
O  O41  1  0.30490000  0.90920000  0.11860000  1.0 -0.4835324062
O  O42  1  0.80490000  0.59080000  0.88140000  1.0 -0.4835324062
O  O43  1  0.69510000  0.09080000  0.61860000  1.0 -0.4835324062
O  O44  1  0.19510000  0.40920000  0.38140000  1.0 -0.4835324062
O  O45  1  0.69510000  0.09080000  0.88140000  1.0 -0.4835324062
O  O46  1  0.19510000  0.40920000  0.11860000  1.0 -0.4835324062
O  O47  1  0.30490000  0.90920000  0.38140000  1.0 -0.4835324062
O  O48  1  0.80490000  0.59080000  0.61860000  1.0 -0.4835324062
