# DDEC6 charges by PACMAN v1.1 (https://github.com/mtap-research/PACMAN-charge/)
data_OXIBIJ_ASR_pacman
_symmetry_space_group_name_H-M   'P 1'
_cell_length_a   21.67240000
_cell_length_b   21.67240000
_cell_length_c   21.67240000
_cell_angle_alpha   44.25310000
_cell_angle_beta   44.25310000
_cell_angle_gamma   44.25310000
_symmetry_Int_Tables_number   1
_chemical_formula_structural   Re2NiH32C54(N2O)2
_chemical_formula_sum   'Re6 Ni3 H96 C162 N12 O6'
_cell_volume   4504.68196228
_cell_formula_units_Z   3
loop_
 _symmetry_equiv_pos_site_id
 _symmetry_equiv_pos_as_xyz
  1  'x, y, z'
loop_
 _atom_site_type_symbol
 _atom_site_label
 _atom_site_symmetry_multiplicity
 _atom_site_fract_x
 _atom_site_fract_y
 _atom_site_fract_z
 _atom_site_occupancy
 _atom_site_charge
Re  Re1  1  0.30548000  0.98960000  0.30165000  1.0 -0.1410040406
Re  Re2  1  0.01040000  0.69452000  0.69835000  1.0 -0.1493714688
Re  Re3  1  0.98960000  0.30165000  0.30548000  1.0 -0.1410040406
Re  Re4  1  0.69452000  0.69835000  0.01040000  1.0 -0.1410040406
Re  Re5  1  0.30165000  0.30548000  0.98960000  1.0 -0.1736531813
Re  Re6  1  0.69835000  0.01040000  0.69452000  1.0 -0.1493714688
Ni  Ni1  1  0.15050000  0.84950000  0.50000000  1.0 0.645254797
Ni  Ni2  1  0.84950000  0.50000000  0.15050000  1.0 0.645254797
Ni  Ni3  1  0.50000000  0.15050000  0.84950000  1.0 0.645254797
H  H1  1  0.04635000  0.82488000  0.70452000  1.0 0.1082053619
H  H2  1  0.96422000  0.90684000  0.78793000  1.0 0.1293003255
H  H3  1  0.96201000  0.15297000  0.54149000  1.0 0.1364138925
H  H4  1  0.05564000  0.05744000  0.46218000  1.0 0.1018672052
H  H5  1  0.80867000  0.05625000  0.96148000  1.0 0.1198041544
H  H6  1  0.74804000  0.12580000  0.05511000  1.0 0.1198041544
H  H7  1  0.76462000  0.37236000  0.80835000  1.0 0.1198041544
H  H8  1  0.83719000  0.29790000  0.71964000  1.0 0.1198041544
H  H9  1  0.52717000  0.32196000  0.02418000  1.0 0.1198041544
H  H10  1  0.44933000  0.39010000  0.93888000  1.0 0.1293003255
H  H11  1  0.50904000  0.62991000  0.75583000  1.0 0.1198041544
H  H12  1  0.57357000  0.55727000  0.85642000  1.0 0.1198041544
H  H13  1  0.29843000  0.55013000  0.73537000  1.0 0.1364138925
H  H14  1  0.24680000  0.63153000  0.62504000  1.0 0.1082053619
H  H15  1  0.25030000  0.86961000  0.53179000  1.0 0.1018672052
H  H16  1  0.33919000  0.78325000  0.61210000  1.0 0.1293003255
H  H17  1  0.17512000  0.95365000  0.29548000  1.0 0.1082053619
H  H18  1  0.09316000  0.03578000  0.21207000  1.0 0.1293003255
H  H19  1  0.84703000  0.03799000  0.45851000  1.0 0.1364138925
H  H20  1  0.94256000  0.94436000  0.53782000  1.0 0.1018672052
H  H21  1  0.94375000  0.19133000  0.03852000  1.0 0.1198041544
H  H22  1  0.87420000  0.25196000  0.94489000  1.0 0.1198041544
H  H23  1  0.62764000  0.23538000  0.19165000  1.0 0.1198041544
H  H24  1  0.70210000  0.16281000  0.28036000  1.0 0.1198041544
H  H25  1  0.67804000  0.47283000  0.97582000  1.0 0.1198041544
H  H26  1  0.60990000  0.55067000  0.06112000  1.0 0.1293003255
H  H27  1  0.37009000  0.49096000  0.24417000  1.0 0.1198041544
H  H28  1  0.44273000  0.42643000  0.14358000  1.0 0.1198041544
H  H29  1  0.44987000  0.70157000  0.26463000  1.0 0.1364138925
H  H30  1  0.36847000  0.75320000  0.37496000  1.0 0.1082053619
H  H31  1  0.13039000  0.74970000  0.46821000  1.0 0.1018672052
H  H32  1  0.21675000  0.66081000  0.38790000  1.0 0.1293003255
H  H33  1  0.82488000  0.70452000  0.04635000  1.0 0.1082053619
H  H34  1  0.90684000  0.78793000  0.96422000  1.0 0.1293003255
H  H35  1  0.15297000  0.54149000  0.96201000  1.0 0.1364138925
H  H36  1  0.05744000  0.46218000  0.05564000  1.0 0.1018672052
H  H37  1  0.05625000  0.96148000  0.80867000  1.0 0.1198041544
H  H38  1  0.12580000  0.05511000  0.74804000  1.0 0.1198041544
H  H39  1  0.37236000  0.80835000  0.76462000  1.0 0.1198041544
H  H40  1  0.29790000  0.71964000  0.83719000  1.0 0.1198041544
H  H41  1  0.32196000  0.02418000  0.52717000  1.0 0.1198041544
H  H42  1  0.39010000  0.93888000  0.44933000  1.0 0.1293003255
H  H43  1  0.62991000  0.75583000  0.50904000  1.0 0.1198041544
H  H44  1  0.55727000  0.85642000  0.57357000  1.0 0.1198041544
H  H45  1  0.55013000  0.73537000  0.29843000  1.0 0.1364138925
H  H46  1  0.63153000  0.62504000  0.24680000  1.0 0.1082053619
H  H47  1  0.86961000  0.53179000  0.25030000  1.0 0.1018672052
H  H48  1  0.78325000  0.61210000  0.33919000  1.0 0.1293003255
H  H49  1  0.95365000  0.29548000  0.17512000  1.0 0.1082053619
H  H50  1  0.03578000  0.21207000  0.09316000  1.0 0.1293003255
H  H51  1  0.03799000  0.45851000  0.84703000  1.0 0.1364138925
H  H52  1  0.94436000  0.53782000  0.94256000  1.0 0.1018672052
H  H53  1  0.19133000  0.03852000  0.94375000  1.0 0.1198041544
H  H54  1  0.25196000  0.94489000  0.87420000  1.0 0.1198041544
H  H55  1  0.23538000  0.19165000  0.62764000  1.0 0.1198041544
H  H56  1  0.16281000  0.28036000  0.70210000  1.0 0.1198041544
H  H57  1  0.47283000  0.97582000  0.67804000  1.0 0.1198041544
H  H58  1  0.55067000  0.06112000  0.60990000  1.0 0.1293003255
H  H59  1  0.49096000  0.24417000  0.37009000  1.0 0.1198041544
H  H60  1  0.42643000  0.14358000  0.44273000  1.0 0.1198041544
H  H61  1  0.70157000  0.26463000  0.44987000  1.0 0.1364138925
H  H62  1  0.75320000  0.37496000  0.36847000  1.0 0.1082053619
H  H63  1  0.74970000  0.46821000  0.13039000  1.0 0.1018672052
H  H64  1  0.66081000  0.38790000  0.21675000  1.0 0.1293003255
H  H65  1  0.70452000  0.04635000  0.82488000  1.0 0.1082053619
H  H66  1  0.78793000  0.96422000  0.90684000  1.0 0.1293003255
H  H67  1  0.54149000  0.96201000  0.15297000  1.0 0.1364138925
H  H68  1  0.46218000  0.05564000  0.05744000  1.0 0.1018672052
H  H69  1  0.96148000  0.80867000  0.05625000  1.0 0.1198041544
H  H70  1  0.05511000  0.74804000  0.12580000  1.0 0.1198041544
H  H71  1  0.80835000  0.76462000  0.37236000  1.0 0.1198041544
H  H72  1  0.71964000  0.83719000  0.29790000  1.0 0.1198041544
H  H73  1  0.02418000  0.52717000  0.32196000  1.0 0.1198041544
H  H74  1  0.93888000  0.44933000  0.39010000  1.0 0.1293003255
H  H75  1  0.75583000  0.50904000  0.62991000  1.0 0.1198041544
H  H76  1  0.85642000  0.57357000  0.55727000  1.0 0.1198041544
H  H77  1  0.73537000  0.29843000  0.55013000  1.0 0.1364138925
H  H78  1  0.62504000  0.24680000  0.63153000  1.0 0.1082053619
H  H79  1  0.53179000  0.25030000  0.86961000  1.0 0.1018672052
H  H80  1  0.61210000  0.33919000  0.78325000  1.0 0.1293003255
H  H81  1  0.29548000  0.17512000  0.95365000  1.0 0.1082053619
H  H82  1  0.21207000  0.09316000  0.03578000  1.0 0.1293003255
H  H83  1  0.45851000  0.84703000  0.03799000  1.0 0.1364138925
H  H84  1  0.53782000  0.94256000  0.94436000  1.0 0.1018672052
H  H85  1  0.03852000  0.94375000  0.19133000  1.0 0.1198041544
H  H86  1  0.94489000  0.87420000  0.25196000  1.0 0.1198041544
H  H87  1  0.19165000  0.62764000  0.23538000  1.0 0.1198041544
H  H88  1  0.28036000  0.70210000  0.16281000  1.0 0.1198041544
H  H89  1  0.97582000  0.67804000  0.47283000  1.0 0.1198041544
H  H90  1  0.06112000  0.60990000  0.55067000  1.0 0.1293003255
H  H91  1  0.24417000  0.37009000  0.49096000  1.0 0.1198041544
H  H92  1  0.14358000  0.44273000  0.42643000  1.0 0.1198041544
H  H93  1  0.26463000  0.44987000  0.70157000  1.0 0.1364138925
H  H94  1  0.37496000  0.36847000  0.75320000  1.0 0.1082053619
H  H95  1  0.46821000  0.13039000  0.74970000  1.0 0.1018672052
H  H96  1  0.38790000  0.21675000  0.66081000  1.0 0.1293003255
C  C1  1  0.02990000  0.89270000  0.67050000  1.0 0.0421611089
C  C2  1  0.98200000  0.94070000  0.71990000  1.0 -0.1885095822
C  C3  1  0.95740000  0.03980000  0.67390000  1.0 0.1806378625
C  C4  1  0.98100000  0.08460000  0.57670000  1.0 -0.1998266367
C  C5  1  0.03430000  0.02672000  0.53058000  1.0 0.1018672052
C  C6  1  0.90868000  0.08872000  0.72860000  1.0 -0.1048058656
C  C7  1  0.86990000  0.12680000  0.77610000  1.0 -0.0718773318
C  C8  1  0.82943000  0.16973000  0.83313000  1.0 0.1293003255
C  C9  1  0.80160000  0.12010000  0.93030000  1.0 -0.1410040406
C  C10  1  0.76100000  0.16270000  0.98800000  1.0 -0.1493714688
C  C11  1  0.74180000  0.26190000  0.93950000  1.0 0.0775193783
C  C12  1  0.77310000  0.30750000  0.84130000  1.0 -0.1317417361
C  C13  1  0.81620000  0.26340000  0.78830000  1.0 -0.1410040406
C  C14  1  0.55780000  0.43860000  0.94380000  1.0 0.0775193783
C  C15  1  0.52080000  0.38460000  0.97150000  1.0 -0.1579386406
C  C16  1  0.47540000  0.42490000  0.92050000  1.0 -0.1317417361
C  C17  1  0.46770000  0.51300000  0.84490000  1.0 0.1364138925
C  C18  1  0.50960000  0.56950000  0.81130000  1.0 -0.1317417361
C  C19  1  0.54960000  0.52310000  0.87080000  1.0 -0.1317417361
C  C20  1  0.42340000  0.55600000  0.78950000  1.0 -0.0757660742
C  C21  1  0.38530000  0.59790000  0.73650000  1.0 -0.1317417361
C  C22  1  0.33670000  0.64770000  0.68250000  1.0 0.185829586
C  C23  1  0.29760000  0.61310000  0.68690000  1.0 -0.1885095822
C  C24  1  0.26000000  0.66300000  0.62750000  1.0 0.0497781665
C  C25  1  0.26780000  0.80160000  0.56930000  1.0 0.0497781665
C  C26  1  0.31760000  0.75280000  0.61810000  1.0 -0.1736531813
C  C27  1  0.10730000  0.97010000  0.32950000  1.0 0.0421611089
C  C28  1  0.05930000  0.01800000  0.28010000  1.0 -0.1885095822
C  C29  1  0.96020000  0.04260000  0.32610000  1.0 0.1806378625
C  C30  1  0.91540000  0.01900000  0.42330000  1.0 -0.1998266367
C  C31  1  0.97328000  0.96570000  0.46942000  1.0 0.1018672052
C  C32  1  0.91128000  0.09132000  0.27140000  1.0 -0.1048058656
C  C33  1  0.87320000  0.13010000  0.22390000  1.0 -0.0718773318
C  C34  1  0.83027000  0.17057000  0.16687000  1.0 0.1293003255
C  C35  1  0.87990000  0.19840000  0.06970000  1.0 -0.1410040406
C  C36  1  0.83730000  0.23900000  0.01200000  1.0 -0.1493714688
C  C37  1  0.73810000  0.25820000  0.06050000  1.0 0.0775193783
C  C38  1  0.69250000  0.22690000  0.15870000  1.0 -0.1317417361
C  C39  1  0.73660000  0.18380000  0.21170000  1.0 -0.1410040406
C  C40  1  0.56140000  0.44220000  0.05620000  1.0 0.0775193783
C  C41  1  0.61540000  0.47920000  0.02850000  1.0 -0.1579386406
C  C42  1  0.57510000  0.52460000  0.07950000  1.0 -0.1317417361
C  C43  1  0.48700000  0.53230000  0.15510000  1.0 0.1364138925
C  C44  1  0.43050000  0.49040000  0.18870000  1.0 -0.1317417361
C  C45  1  0.47690000  0.45040000  0.12920000  1.0 -0.1317417361
C  C46  1  0.44400000  0.57660000  0.21050000  1.0 -0.0757660742
C  C47  1  0.40210000  0.61470000  0.26350000  1.0 -0.1317417361
C  C48  1  0.35230000  0.66330000  0.31750000  1.0 0.185829586
C  C49  1  0.38690000  0.70240000  0.31310000  1.0 -0.1885095822
C  C50  1  0.33700000  0.74000000  0.37250000  1.0 0.0497781665
C  C51  1  0.19840000  0.73220000  0.43070000  1.0 0.0497781665
C  C52  1  0.24720000  0.68240000  0.38190000  1.0 -0.1736531813
C  C53  1  0.69213000  0.30787000  0.00000000  1.0 -0.0298009664
C  C54  1  0.60763000  0.39237000  0.00000000  1.0 -0.0241739917
C  C55  1  0.89270000  0.67050000  0.02990000  1.0 0.0421611089
C  C56  1  0.94070000  0.71990000  0.98200000  1.0 -0.1885095822
C  C57  1  0.03980000  0.67390000  0.95740000  1.0 0.1806378625
C  C58  1  0.08460000  0.57670000  0.98100000  1.0 -0.1998266367
C  C59  1  0.02672000  0.53058000  0.03430000  1.0 0.1018672052
C  C60  1  0.08872000  0.72860000  0.90868000  1.0 -0.1048058656
C  C61  1  0.12680000  0.77610000  0.86990000  1.0 -0.0718773318
C  C62  1  0.16973000  0.83313000  0.82943000  1.0 0.1293003255
C  C63  1  0.12010000  0.93030000  0.80160000  1.0 -0.1410040406
C  C64  1  0.16270000  0.98800000  0.76100000  1.0 -0.1493714688
C  C65  1  0.26190000  0.93950000  0.74180000  1.0 0.0775193783
C  C66  1  0.30750000  0.84130000  0.77310000  1.0 -0.1317417361
C  C67  1  0.26340000  0.78830000  0.81620000  1.0 -0.1410040406
C  C68  1  0.43860000  0.94380000  0.55780000  1.0 0.0775193783
C  C69  1  0.38460000  0.97150000  0.52080000  1.0 -0.1579386406
C  C70  1  0.42490000  0.92050000  0.47540000  1.0 -0.1317417361
C  C71  1  0.51300000  0.84490000  0.46770000  1.0 0.1364138925
C  C72  1  0.56950000  0.81130000  0.50960000  1.0 -0.1317417361
C  C73  1  0.52310000  0.87080000  0.54960000  1.0 -0.1317417361
C  C74  1  0.55600000  0.78950000  0.42340000  1.0 -0.0757660742
C  C75  1  0.59790000  0.73650000  0.38530000  1.0 -0.1317417361
C  C76  1  0.64770000  0.68250000  0.33670000  1.0 0.185829586
C  C77  1  0.61310000  0.68690000  0.29760000  1.0 -0.1885095822
C  C78  1  0.66300000  0.62750000  0.26000000  1.0 0.0497781665
C  C79  1  0.80160000  0.56930000  0.26780000  1.0 0.0497781665
C  C80  1  0.75280000  0.61810000  0.31760000  1.0 -0.1736531813
C  C81  1  0.97010000  0.32950000  0.10730000  1.0 0.0421611089
C  C82  1  0.01800000  0.28010000  0.05930000  1.0 -0.1885095822
C  C83  1  0.04260000  0.32610000  0.96020000  1.0 0.1806378625
C  C84  1  0.01900000  0.42330000  0.91540000  1.0 -0.1998266367
C  C85  1  0.96570000  0.46942000  0.97328000  1.0 0.1018672052
C  C86  1  0.09132000  0.27140000  0.91128000  1.0 -0.1056717423
C  C87  1  0.13010000  0.22390000  0.87320000  1.0 -0.0718773318
C  C88  1  0.17057000  0.16687000  0.83027000  1.0 0.1293003255
C  C89  1  0.19840000  0.06970000  0.87990000  1.0 -0.1410040406
C  C90  1  0.23900000  0.01200000  0.83730000  1.0 -0.1493714688
C  C91  1  0.25820000  0.06050000  0.73810000  1.0 0.0775193783
C  C92  1  0.22690000  0.15870000  0.69250000  1.0 -0.1317417361
C  C93  1  0.18380000  0.21170000  0.73660000  1.0 -0.1410040406
C  C94  1  0.44220000  0.05620000  0.56140000  1.0 0.0775193783
C  C95  1  0.47920000  0.02850000  0.61540000  1.0 -0.1579386406
C  C96  1  0.52460000  0.07950000  0.57510000  1.0 -0.1317417361
C  C97  1  0.53230000  0.15510000  0.48700000  1.0 0.1364138925
C  C98  1  0.49040000  0.18870000  0.43050000  1.0 -0.1317417361
C  C99  1  0.45040000  0.12920000  0.47690000  1.0 -0.1317417361
C  C100  1  0.57660000  0.21050000  0.44400000  1.0 -0.0757660742
C  C101  1  0.61470000  0.26350000  0.40210000  1.0 -0.1317417361
C  C102  1  0.66330000  0.31750000  0.35230000  1.0 0.185829586
C  C103  1  0.70240000  0.31310000  0.38690000  1.0 -0.1885095822
C  C104  1  0.74000000  0.37250000  0.33700000  1.0 0.0497781665
C  C105  1  0.73220000  0.43070000  0.19840000  1.0 0.0497781665
C  C106  1  0.68240000  0.38190000  0.24720000  1.0 -0.1736531813
C  C107  1  0.30787000  0.00000000  0.69213000  1.0 -0.0298009664
C  C108  1  0.39237000  0.00000000  0.60763000  1.0 -0.0241739917
C  C109  1  0.67050000  0.02990000  0.89270000  1.0 0.0421611089
C  C110  1  0.71990000  0.98200000  0.94070000  1.0 -0.1885095822
C  C111  1  0.67390000  0.95740000  0.03980000  1.0 0.1806378625
C  C112  1  0.57670000  0.98100000  0.08460000  1.0 -0.1998266367
C  C113  1  0.53058000  0.03430000  0.02672000  1.0 0.1018672052
C  C114  1  0.72860000  0.90868000  0.08872000  1.0 -0.1056717423
C  C115  1  0.77610000  0.86990000  0.12680000  1.0 -0.0718773318
C  C116  1  0.83313000  0.82943000  0.16973000  1.0 0.1293003255
C  C117  1  0.93030000  0.80160000  0.12010000  1.0 -0.1410040406
C  C118  1  0.98800000  0.76100000  0.16270000  1.0 -0.1493714688
C  C119  1  0.93950000  0.74180000  0.26190000  1.0 0.0775193783
C  C120  1  0.84130000  0.77310000  0.30750000  1.0 -0.1317417361
C  C121  1  0.78830000  0.81620000  0.26340000  1.0 -0.1410040406
C  C122  1  0.94380000  0.55780000  0.43860000  1.0 0.0775193783
C  C123  1  0.97150000  0.52080000  0.38460000  1.0 -0.1579386406
C  C124  1  0.92050000  0.47540000  0.42490000  1.0 -0.1317417361
C  C125  1  0.84490000  0.46770000  0.51300000  1.0 0.1364138925
C  C126  1  0.81130000  0.50960000  0.56950000  1.0 -0.1317417361
C  C127  1  0.87080000  0.54960000  0.52310000  1.0 -0.1317417361
C  C128  1  0.78950000  0.42340000  0.55600000  1.0 -0.0757660742
C  C129  1  0.73650000  0.38530000  0.59790000  1.0 -0.1317417361
C  C130  1  0.68250000  0.33670000  0.64770000  1.0 0.185829586
C  C131  1  0.68690000  0.29760000  0.61310000  1.0 -0.1885095822
C  C132  1  0.62750000  0.26000000  0.66300000  1.0 0.0497781665
C  C133  1  0.56930000  0.26780000  0.80160000  1.0 0.0497781665
C  C134  1  0.61810000  0.31760000  0.75280000  1.0 -0.1736531813
C  C135  1  0.32950000  0.10730000  0.97010000  1.0 0.0421611089
C  C136  1  0.28010000  0.05930000  0.01800000  1.0 -0.1885095822
C  C137  1  0.32610000  0.96020000  0.04260000  1.0 0.1806378625
C  C138  1  0.42330000  0.91540000  0.01900000  1.0 -0.1998266367
C  C139  1  0.46942000  0.97328000  0.96570000  1.0 0.1018672052
C  C140  1  0.27140000  0.91128000  0.09132000  1.0 -0.1048058656
C  C141  1  0.22390000  0.87320000  0.13010000  1.0 -0.0718773318
C  C142  1  0.16687000  0.83027000  0.17057000  1.0 0.1293003255
C  C143  1  0.06970000  0.87990000  0.19840000  1.0 -0.1410040406
C  C144  1  0.01200000  0.83730000  0.23900000  1.0 -0.1493714688
C  C145  1  0.06050000  0.73810000  0.25820000  1.0 0.0775193783
C  C146  1  0.15870000  0.69250000  0.22690000  1.0 -0.1317417361
C  C147  1  0.21170000  0.73660000  0.18380000  1.0 -0.1410040406
C  C148  1  0.05620000  0.56140000  0.44220000  1.0 0.0775193783
C  C149  1  0.02850000  0.61540000  0.47920000  1.0 -0.1579386406
C  C150  1  0.07950000  0.57510000  0.52460000  1.0 -0.1317417361
C  C151  1  0.15510000  0.48700000  0.53230000  1.0 0.1364138925
C  C152  1  0.18870000  0.43050000  0.49040000  1.0 -0.1317417361
C  C153  1  0.12920000  0.47690000  0.45040000  1.0 -0.1317417361
C  C154  1  0.21050000  0.44400000  0.57660000  1.0 -0.0757660742
C  C155  1  0.26350000  0.40210000  0.61470000  1.0 -0.1317417361
C  C156  1  0.31750000  0.35230000  0.66330000  1.0 0.185829586
C  C157  1  0.31310000  0.38690000  0.70240000  1.0 -0.1885095822
C  C158  1  0.37250000  0.33700000  0.74000000  1.0 0.0497781665
C  C159  1  0.43070000  0.19840000  0.73220000  1.0 0.0497781665
C  C160  1  0.38190000  0.24720000  0.68240000  1.0 -0.1736531813
C  C161  1  0.00000000  0.69213000  0.30787000  1.0 -0.0298009664
C  C162  1  0.00000000  0.60763000  0.39237000  1.0 -0.0241739917
N  N1  1  0.05638000  0.93588000  0.57378000  1.0 -0.2152312485
N  N2  1  0.23939000  0.76099000  0.56869000  1.0 -0.2779735464
N  N3  1  0.06412000  0.94362000  0.42622000  1.0 -0.2152312485
N  N4  1  0.23901000  0.76061000  0.43131000  1.0 -0.2779735464
N  N5  1  0.93588000  0.57378000  0.05638000  1.0 -0.2152312485
N  N6  1  0.76099000  0.56869000  0.23939000  1.0 -0.2779735464
N  N7  1  0.94362000  0.42622000  0.06412000  1.0 -0.2152312485
N  N8  1  0.76061000  0.43131000  0.23901000  1.0 -0.2779735464
N  N9  1  0.57378000  0.05638000  0.93588000  1.0 -0.2152312485
N  N10  1  0.56869000  0.23939000  0.76099000  1.0 -0.2779735464
N  N11  1  0.42622000  0.06412000  0.94362000  1.0 -0.2152312485
N  N12  1  0.43131000  0.23901000  0.76061000  1.0 -0.2779735464
O  O1  1  0.23471000  0.92971000  0.38311000  1.0 -0.3522447137
O  O2  1  0.07029000  0.76529000  0.61689000  1.0 -0.3522447137
O  O3  1  0.92971000  0.38311000  0.23471000  1.0 -0.3522447137
O  O4  1  0.76529000  0.61689000  0.07029000  1.0 -0.3522447137
O  O5  1  0.38311000  0.23471000  0.92971000  1.0 -0.3522447137
O  O6  1  0.61689000  0.07029000  0.76529000  1.0 -0.3522447137
