# DDEC6 charges by PACMAN v1.1 (https://github.com/mtap-research/PACMAN-charge/)
data_OXIBOP_FSR_pacman
_symmetry_space_group_name_H-M   'P 1'
_cell_length_a   21.51380000
_cell_length_b   21.51380000
_cell_length_c   21.51380000
_cell_angle_alpha   44.97760000
_cell_angle_beta   44.97760000
_cell_angle_gamma   44.97760000
_symmetry_Int_Tables_number   1
_chemical_formula_structural   Tc2NiH32C54(NO2)4
_chemical_formula_sum   'Tc6 Ni3 H96 C162 N12 O24'
_cell_volume   4527.81042008
_cell_formula_units_Z   3
loop_
 _symmetry_equiv_pos_site_id
 _symmetry_equiv_pos_as_xyz
  1  'x, y, z'
loop_
 _atom_site_type_symbol
 _atom_site_label
 _atom_site_symmetry_multiplicity
 _atom_site_fract_x
 _atom_site_fract_y
 _atom_site_fract_z
 _atom_site_occupancy
 _atom_site_charge
Tc  Tc1  1  0.80096000  0.81047000  0.48094000  1.0 1.3983299649
Tc  Tc2  1  0.19904000  0.51906000  0.18953000  1.0 1.3983299649
Tc  Tc3  1  0.81047000  0.48094000  0.80096000  1.0 1.3983299649
Tc  Tc4  1  0.51906000  0.18953000  0.19904000  1.0 1.3983299649
Tc  Tc5  1  0.48094000  0.80096000  0.81047000  1.0 1.3983299649
Tc  Tc6  1  0.18953000  0.19904000  0.51906000  1.0 1.3983299649
Ni  Ni1  1  0.00000000  0.65218000  0.34782000  1.0 0.7505607919
Ni  Ni2  1  0.65218000  0.34782000  0.00000000  1.0 0.7505607919
Ni  Ni3  1  0.34782000  0.00000000  0.65218000  1.0 0.7505607919
H  H1  1  0.12643000  0.74105000  0.13964000  1.0 0.1210310273
H  H2  1  0.43441000  0.94820000  0.89403000  1.0 0.1488360927
H  H3  1  0.52302000  0.02350000  0.82403000  1.0 0.1284527801
H  H4  1  0.35172000  0.08309000  0.05365000  1.0 0.1210310273
H  H5  1  0.26311000  0.00779000  0.12365000  1.0 0.1210310273
H  H6  1  0.11790000  0.84037000  0.27427000  1.0 0.1284527801
H  H7  1  0.96229000  0.55461000  0.55718000  1.0 0.1358020297
H  H8  1  0.03662000  0.47216000  0.64874000  1.0 0.1597443835
H  H9  1  0.20024000  0.55009000  0.32724000  1.0 0.1210310273
H  H10  1  0.03115000  0.75495000  0.36478000  1.0 0.1210310273
H  H11  1  0.28344000  0.46481000  0.41316000  1.0 0.1284527801
H  H12  1  0.31145000  0.26172000  0.87392000  1.0 0.1210310273
H  H13  1  0.55074000  0.23942000  0.62965000  1.0 0.1284527801
H  H14  1  0.45797000  0.31320000  0.55681000  1.0 0.1284527801
H  H15  1  0.21868000  0.33551000  0.80108000  1.0 0.1210310273
H  H16  1  0.22583000  0.81315000  0.04568000  1.0 0.1597443835
H  H17  1  0.87357000  0.86036000  0.25895000  1.0 0.1210310273
H  H18  1  0.56559000  0.10597000  0.05180000  1.0 0.1488360927
H  H19  1  0.47698000  0.17597000  0.97650000  1.0 0.1284527801
H  H20  1  0.64828000  0.94635000  0.91691000  1.0 0.1210310273
H  H21  1  0.73689000  0.87635000  0.99221000  1.0 0.1210310273
H  H22  1  0.88210000  0.72573000  0.15963000  1.0 0.1284527801
H  H23  1  0.03771000  0.44282000  0.44539000  1.0 0.1358020297
H  H24  1  0.96338000  0.35126000  0.52784000  1.0 0.1597443835
H  H25  1  0.79976000  0.67276000  0.44991000  1.0 0.1210310273
H  H26  1  0.96885000  0.63522000  0.24505000  1.0 0.1210310273
H  H27  1  0.71656000  0.58684000  0.53519000  1.0 0.1284527801
H  H28  1  0.68855000  0.12608000  0.73828000  1.0 0.1210310273
H  H29  1  0.44926000  0.37035000  0.76058000  1.0 0.1284527801
H  H30  1  0.54203000  0.44319000  0.68680000  1.0 0.1284527801
H  H31  1  0.78132000  0.19892000  0.66449000  1.0 0.1210310273
H  H32  1  0.77417000  0.95432000  0.18685000  1.0 0.1597443835
H  H33  1  0.74105000  0.13964000  0.12643000  1.0 0.1210310273
H  H34  1  0.94820000  0.89403000  0.43441000  1.0 0.1488360927
H  H35  1  0.02350000  0.82403000  0.52302000  1.0 0.1284527801
H  H36  1  0.08309000  0.05365000  0.35172000  1.0 0.1210310273
H  H37  1  0.00779000  0.12365000  0.26311000  1.0 0.1210310273
H  H38  1  0.84037000  0.27427000  0.11790000  1.0 0.1284527801
H  H39  1  0.55461000  0.55718000  0.96229000  1.0 0.1358020297
H  H40  1  0.47216000  0.64874000  0.03662000  1.0 0.1597443835
H  H41  1  0.55009000  0.32724000  0.20024000  1.0 0.1210310273
H  H42  1  0.75495000  0.36478000  0.03115000  1.0 0.1210310273
H  H43  1  0.46481000  0.41316000  0.28344000  1.0 0.1284527801
H  H44  1  0.26172000  0.87392000  0.31145000  1.0 0.1210310273
H  H45  1  0.23942000  0.62965000  0.55074000  1.0 0.1284527801
H  H46  1  0.31320000  0.55681000  0.45797000  1.0 0.1284527801
H  H47  1  0.33551000  0.80108000  0.21868000  1.0 0.1210310273
H  H48  1  0.81315000  0.04568000  0.22583000  1.0 0.1597443835
H  H49  1  0.86036000  0.25895000  0.87357000  1.0 0.1210310273
H  H50  1  0.10597000  0.05180000  0.56559000  1.0 0.1488360927
H  H51  1  0.17597000  0.97650000  0.47698000  1.0 0.1284527801
H  H52  1  0.94635000  0.91691000  0.64828000  1.0 0.1210310273
H  H53  1  0.87635000  0.99221000  0.73689000  1.0 0.1210310273
H  H54  1  0.72573000  0.15963000  0.88210000  1.0 0.1284527801
H  H55  1  0.44282000  0.44539000  0.03771000  1.0 0.1358020297
H  H56  1  0.35126000  0.52784000  0.96338000  1.0 0.1597443835
H  H57  1  0.67276000  0.44991000  0.79976000  1.0 0.1210310273
H  H58  1  0.63522000  0.24505000  0.96885000  1.0 0.1210310273
H  H59  1  0.58684000  0.53519000  0.71656000  1.0 0.1284527801
H  H60  1  0.12608000  0.73828000  0.68855000  1.0 0.1210310273
H  H61  1  0.37035000  0.76058000  0.44926000  1.0 0.1284527801
H  H62  1  0.44319000  0.68680000  0.54203000  1.0 0.1284527801
H  H63  1  0.19892000  0.66449000  0.78132000  1.0 0.1210310273
H  H64  1  0.95432000  0.18685000  0.77417000  1.0 0.1597443835
H  H65  1  0.13964000  0.12643000  0.74105000  1.0 0.1210310273
H  H66  1  0.89403000  0.43441000  0.94820000  1.0 0.1488360927
H  H67  1  0.82403000  0.52302000  0.02350000  1.0 0.1284527801
H  H68  1  0.05365000  0.35172000  0.08309000  1.0 0.1210310273
H  H69  1  0.12365000  0.26311000  0.00779000  1.0 0.1210310273
H  H70  1  0.27427000  0.11790000  0.84037000  1.0 0.1284527801
H  H71  1  0.55718000  0.96229000  0.55461000  1.0 0.1358020297
H  H72  1  0.64874000  0.03662000  0.47216000  1.0 0.1597443835
H  H73  1  0.32724000  0.20024000  0.55009000  1.0 0.1210310273
H  H74  1  0.36478000  0.03115000  0.75495000  1.0 0.1210310273
H  H75  1  0.41316000  0.28344000  0.46481000  1.0 0.1284527801
H  H76  1  0.87392000  0.31145000  0.26172000  1.0 0.1210310273
H  H77  1  0.62965000  0.55074000  0.23942000  1.0 0.1284527801
H  H78  1  0.55681000  0.45797000  0.31320000  1.0 0.1284527801
H  H79  1  0.80108000  0.21868000  0.33551000  1.0 0.1210310273
H  H80  1  0.04568000  0.22583000  0.81315000  1.0 0.1597443835
H  H81  1  0.25895000  0.87357000  0.86036000  1.0 0.1210310273
H  H82  1  0.05180000  0.56559000  0.10597000  1.0 0.1488360927
H  H83  1  0.97650000  0.47698000  0.17597000  1.0 0.1284527801
H  H84  1  0.91691000  0.64828000  0.94635000  1.0 0.1210310273
H  H85  1  0.99221000  0.73689000  0.87635000  1.0 0.1210310273
H  H86  1  0.15963000  0.88210000  0.72573000  1.0 0.1284527801
H  H87  1  0.44539000  0.03771000  0.44282000  1.0 0.1358020297
H  H88  1  0.52784000  0.96338000  0.35126000  1.0 0.1597443835
H  H89  1  0.44991000  0.79976000  0.67276000  1.0 0.1210310273
H  H90  1  0.24505000  0.96885000  0.63522000  1.0 0.1210310273
H  H91  1  0.53519000  0.71656000  0.58684000  1.0 0.1284527801
H  H92  1  0.73828000  0.68855000  0.12608000  1.0 0.1210310273
H  H93  1  0.76058000  0.44926000  0.37035000  1.0 0.1284527801
H  H94  1  0.68680000  0.54203000  0.44319000  1.0 0.1284527801
H  H95  1  0.66449000  0.78132000  0.19892000  1.0 0.1210310273
H  H96  1  0.18685000  0.77417000  0.95432000  1.0 0.1597443835
C  C1  1  0.17480000  0.84430000  0.14920000  1.0 0.1677534844
C  C2  1  0.27170000  0.37350000  0.62810000  1.0 -0.0844747607
C  C3  1  0.12570000  0.76070000  0.16730000  1.0 0.0818710846
C  C4  1  0.33996000  0.97056000  0.01576000  1.0 0.1284527801
C  C5  1  0.41787000  0.97517000  0.92607000  1.0 -0.1112668821
C  C6  1  0.47092000  0.02032000  0.88412000  1.0 -0.1305769822
C  C7  1  0.44617000  0.06077000  0.93187000  1.0 0.0911181775
C  C8  1  0.36827000  0.05607000  0.02167000  1.0 -0.1480815271
C  C9  1  0.31521000  0.01091000  0.06361000  1.0 -0.1378588121
C  C10  1  0.12040000  0.82150000  0.24440000  1.0 -0.1778418952
C  C11  1  0.17360000  0.45730000  0.53890000  1.0 0.1597443835
C  C12  1  0.02840000  0.53630000  0.52740000  1.0 0.0962094568
C  C13  1  0.07210000  0.48680000  0.58300000  1.0 -0.1480815271
C  C14  1  0.22540000  0.41170000  0.58910000  1.0 -0.0892516831
C  C15  1  0.16680000  0.53380000  0.39330000  1.0 0.0911181775
C  C16  1  0.06810000  0.77000000  0.29900000  1.0 0.0911181775
C  C17  1  0.21730000  0.48220000  0.44510000  1.0 -0.1778418952
C  C18  1  0.28340000  0.92510000  0.05940000  1.0 -0.066671504
C  C19  1  0.34077000  0.27207000  0.81037000  1.0 -0.1378588121
C  C20  1  0.44032000  0.24322000  0.75902000  1.0 0.0818710846
C  C21  1  0.48422000  0.25862000  0.66402000  1.0 -0.1305769822
C  C22  1  0.42858000  0.30288000  0.62038000  1.0 -0.1305769822
C  C23  1  0.32914000  0.33164000  0.67174000  1.0 0.1358020297
C  C24  1  0.28523000  0.31623000  0.76673000  1.0 -0.1305769822
C  C25  1  0.23940000  0.88560000  0.09670000  1.0 -0.0524227032
C  C26  1  0.18310000  0.80680000  0.10910000  1.0 -0.1620493714
C  C27  1  0.82520000  0.85080000  0.15570000  1.0 0.1677534844
C  C28  1  0.72830000  0.37190000  0.62650000  1.0 -0.0844747607
C  C29  1  0.87430000  0.83270000  0.23930000  1.0 0.0818710846
C  C30  1  0.66004000  0.98424000  0.02944000  1.0 0.1284527801
C  C31  1  0.58213000  0.07393000  0.02483000  1.0 -0.1112668821
C  C32  1  0.52908000  0.11588000  0.97968000  1.0 -0.1378588121
C  C33  1  0.55383000  0.06813000  0.93923000  1.0 0.0911181775
C  C34  1  0.63173000  0.97833000  0.94393000  1.0 -0.1480815271
C  C35  1  0.68479000  0.93639000  0.98909000  1.0 -0.1378588121
C  C36  1  0.87960000  0.75560000  0.17850000  1.0 -0.1778418952
C  C37  1  0.82640000  0.46110000  0.54270000  1.0 0.1597443835
C  C38  1  0.97160000  0.47260000  0.46370000  1.0 0.0962094568
C  C39  1  0.92790000  0.41700000  0.51320000  1.0 -0.1480815271
C  C40  1  0.77460000  0.41090000  0.58830000  1.0 -0.0892516831
C  C41  1  0.83320000  0.60670000  0.46620000  1.0 0.0911181775
C  C42  1  0.93190000  0.70100000  0.23000000  1.0 0.0911181775
C  C43  1  0.78270000  0.55490000  0.51780000  1.0 -0.1778418952
C  C44  1  0.71660000  0.94060000  0.07490000  1.0 -0.066671504
C  C45  1  0.65923000  0.18963000  0.72793000  1.0 -0.1378588121
C  C46  1  0.55968000  0.24098000  0.75678000  1.0 0.0818710846
C  C47  1  0.51578000  0.33598000  0.74138000  1.0 -0.1305769822
C  C48  1  0.57142000  0.37962000  0.69712000  1.0 -0.1305769822
C  C49  1  0.67086000  0.32826000  0.66836000  1.0 0.1358020297
C  C50  1  0.71477000  0.23327000  0.68377000  1.0 -0.1305769822
C  C51  1  0.76060000  0.90330000  0.11440000  1.0 -0.0524227032
C  C52  1  0.81690000  0.89090000  0.19320000  1.0 -0.1620493714
C  C53  1  0.50000000  0.11493000  0.88507000  1.0 -0.0140917751
C  C54  1  0.50000000  0.19413000  0.80587000  1.0 -0.018850911
C  C55  1  0.84430000  0.14920000  0.17480000  1.0 0.1677534844
C  C56  1  0.37350000  0.62810000  0.27170000  1.0 -0.0844747607
C  C57  1  0.76070000  0.16730000  0.12570000  1.0 0.0818710846
C  C58  1  0.97056000  0.01576000  0.33996000  1.0 0.1284527801
C  C59  1  0.97517000  0.92607000  0.41787000  1.0 -0.1112668821
C  C60  1  0.02032000  0.88412000  0.47092000  1.0 -0.1378588121
C  C61  1  0.06077000  0.93187000  0.44617000  1.0 0.0911181775
C  C62  1  0.05607000  0.02167000  0.36827000  1.0 -0.1480815271
C  C63  1  0.01091000  0.06361000  0.31521000  1.0 -0.1378588121
C  C64  1  0.82150000  0.24440000  0.12040000  1.0 -0.1778418952
C  C65  1  0.45730000  0.53890000  0.17360000  1.0 0.1597443835
C  C66  1  0.53630000  0.52740000  0.02840000  1.0 0.0962094568
C  C67  1  0.48680000  0.58300000  0.07210000  1.0 -0.1480815271
C  C68  1  0.41170000  0.58910000  0.22540000  1.0 -0.0892516831
C  C69  1  0.53380000  0.39330000  0.16680000  1.0 0.0911181775
C  C70  1  0.77000000  0.29900000  0.06810000  1.0 0.0911181775
C  C71  1  0.48220000  0.44510000  0.21730000  1.0 -0.1778418952
C  C72  1  0.92510000  0.05940000  0.28340000  1.0 -0.066671504
C  C73  1  0.27207000  0.81037000  0.34077000  1.0 -0.1378588121
C  C74  1  0.24322000  0.75902000  0.44032000  1.0 0.0818710846
C  C75  1  0.25862000  0.66402000  0.48422000  1.0 -0.1305769822
C  C76  1  0.30288000  0.62038000  0.42858000  1.0 -0.1305769822
C  C77  1  0.33164000  0.67174000  0.32914000  1.0 0.1358020297
C  C78  1  0.31623000  0.76673000  0.28523000  1.0 -0.1305769822
C  C79  1  0.88560000  0.09670000  0.23940000  1.0 -0.0524227032
C  C80  1  0.80680000  0.10910000  0.18310000  1.0 -0.1620493714
C  C81  1  0.85080000  0.15570000  0.82520000  1.0 0.1677534844
C  C82  1  0.37190000  0.62650000  0.72830000  1.0 -0.0844747607
C  C83  1  0.83270000  0.23930000  0.87430000  1.0 0.0818710846
C  C84  1  0.98424000  0.02944000  0.66004000  1.0 0.1284527801
C  C85  1  0.07393000  0.02483000  0.58213000  1.0 -0.1112668821
C  C86  1  0.11588000  0.97968000  0.52908000  1.0 -0.1378588121
C  C87  1  0.06813000  0.93923000  0.55383000  1.0 0.0911181775
C  C88  1  0.97833000  0.94393000  0.63173000  1.0 -0.1480815271
C  C89  1  0.93639000  0.98909000  0.68479000  1.0 -0.1378588121
C  C90  1  0.75560000  0.17850000  0.87960000  1.0 -0.1778418952
C  C91  1  0.46110000  0.54270000  0.82640000  1.0 0.1597443835
C  C92  1  0.47260000  0.46370000  0.97160000  1.0 0.0962094568
C  C93  1  0.41700000  0.51320000  0.92790000  1.0 -0.1480815271
C  C94  1  0.41090000  0.58830000  0.77460000  1.0 -0.0892516831
C  C95  1  0.60670000  0.46620000  0.83320000  1.0 0.0911181775
C  C96  1  0.70100000  0.23000000  0.93190000  1.0 0.0911181775
C  C97  1  0.55490000  0.51780000  0.78270000  1.0 -0.1778418952
C  C98  1  0.94060000  0.07490000  0.71660000  1.0 -0.066671504
C  C99  1  0.18963000  0.72793000  0.65923000  1.0 -0.1378588121
C  C100  1  0.24098000  0.75678000  0.55968000  1.0 0.0818710846
C  C101  1  0.33598000  0.74138000  0.51578000  1.0 -0.1305769822
C  C102  1  0.37962000  0.69712000  0.57142000  1.0 -0.1305769822
C  C103  1  0.32826000  0.66836000  0.67086000  1.0 0.1358020297
C  C104  1  0.23327000  0.68377000  0.71477000  1.0 -0.1305769822
C  C105  1  0.90330000  0.11440000  0.76060000  1.0 -0.0524227032
C  C106  1  0.89090000  0.19320000  0.81690000  1.0 -0.1620493714
C  C107  1  0.11493000  0.88507000  0.50000000  1.0 -0.018850911
C  C108  1  0.19413000  0.80587000  0.50000000  1.0 -0.018850911
C  C109  1  0.14920000  0.17480000  0.84430000  1.0 0.1677534844
C  C110  1  0.62810000  0.27170000  0.37350000  1.0 -0.0844747607
C  C111  1  0.16730000  0.12570000  0.76070000  1.0 0.0818710846
C  C112  1  0.01576000  0.33996000  0.97056000  1.0 0.1284527801
C  C113  1  0.92607000  0.41787000  0.97517000  1.0 -0.1112668821
C  C114  1  0.88412000  0.47092000  0.02032000  1.0 -0.1378588121
C  C115  1  0.93187000  0.44617000  0.06077000  1.0 0.0911181775
C  C116  1  0.02167000  0.36827000  0.05607000  1.0 -0.1480815271
C  C117  1  0.06361000  0.31521000  0.01091000  1.0 -0.1378588121
C  C118  1  0.24440000  0.12040000  0.82150000  1.0 -0.1778418952
C  C119  1  0.53890000  0.17360000  0.45730000  1.0 0.1597443835
C  C120  1  0.52740000  0.02840000  0.53630000  1.0 0.0962094568
C  C121  1  0.58300000  0.07210000  0.48680000  1.0 -0.1480815271
C  C122  1  0.58910000  0.22540000  0.41170000  1.0 -0.0892516831
C  C123  1  0.39330000  0.16680000  0.53380000  1.0 0.0911181775
C  C124  1  0.29900000  0.06810000  0.77000000  1.0 0.0911181775
C  C125  1  0.44510000  0.21730000  0.48220000  1.0 -0.1778418952
C  C126  1  0.05940000  0.28340000  0.92510000  1.0 -0.066671504
C  C127  1  0.81037000  0.34077000  0.27207000  1.0 -0.1378588121
C  C128  1  0.75902000  0.44032000  0.24322000  1.0 0.0818710846
C  C129  1  0.66402000  0.48422000  0.25862000  1.0 -0.1305769822
C  C130  1  0.62038000  0.42858000  0.30288000  1.0 -0.1305769822
C  C131  1  0.67174000  0.32914000  0.33164000  1.0 0.1358020297
C  C132  1  0.76673000  0.28523000  0.31623000  1.0 -0.1305769822
C  C133  1  0.09670000  0.23940000  0.88560000  1.0 -0.0524227032
C  C134  1  0.10910000  0.18310000  0.80680000  1.0 -0.1620493714
C  C135  1  0.15570000  0.82520000  0.85080000  1.0 0.1677534844
C  C136  1  0.62650000  0.72830000  0.37190000  1.0 -0.0844747607
C  C137  1  0.23930000  0.87430000  0.83270000  1.0 0.0818710846
C  C138  1  0.02944000  0.66004000  0.98424000  1.0 0.1284527801
C  C139  1  0.02483000  0.58213000  0.07393000  1.0 -0.1112668821
C  C140  1  0.97968000  0.52908000  0.11588000  1.0 -0.1305769822
C  C141  1  0.93923000  0.55383000  0.06813000  1.0 0.0911181775
C  C142  1  0.94393000  0.63173000  0.97833000  1.0 -0.1480815271
C  C143  1  0.98909000  0.68479000  0.93639000  1.0 -0.1378588121
C  C144  1  0.17850000  0.87960000  0.75560000  1.0 -0.1778418952
C  C145  1  0.54270000  0.82640000  0.46110000  1.0 0.1597443835
C  C146  1  0.46370000  0.97160000  0.47260000  1.0 0.0962094568
C  C147  1  0.51320000  0.92790000  0.41700000  1.0 -0.1480815271
C  C148  1  0.58830000  0.77460000  0.41090000  1.0 -0.0892516831
C  C149  1  0.46620000  0.83320000  0.60670000  1.0 0.0911181775
C  C150  1  0.23000000  0.93190000  0.70100000  1.0 0.0911181775
C  C151  1  0.51780000  0.78270000  0.55490000  1.0 -0.1778418952
C  C152  1  0.07490000  0.71660000  0.94060000  1.0 -0.066671504
C  C153  1  0.72793000  0.65923000  0.18963000  1.0 -0.1378588121
C  C154  1  0.75678000  0.55968000  0.24098000  1.0 0.0818710846
C  C155  1  0.74138000  0.51578000  0.33598000  1.0 -0.1305769822
C  C156  1  0.69712000  0.57142000  0.37962000  1.0 -0.1305769822
C  C157  1  0.66836000  0.67086000  0.32826000  1.0 0.1358020297
C  C158  1  0.68377000  0.71477000  0.23327000  1.0 -0.1305769822
C  C159  1  0.11440000  0.76060000  0.90330000  1.0 -0.0524227032
C  C160  1  0.19320000  0.81690000  0.89090000  1.0 -0.1620493714
C  C161  1  0.88507000  0.50000000  0.11493000  1.0 -0.018850911
C  C162  1  0.80587000  0.50000000  0.19413000  1.0 -0.018850911
N  N1  1  0.06942000  0.74182000  0.25992000  1.0 -0.1878513181
N  N2  1  0.07297000  0.56027000  0.43417000  1.0 -0.1725182319
N  N3  1  0.93058000  0.74008000  0.25818000  1.0 -0.1878513181
N  N4  1  0.92703000  0.56583000  0.43973000  1.0 -0.1725182319
N  N5  1  0.74182000  0.25992000  0.06942000  1.0 -0.1878513181
N  N6  1  0.56027000  0.43417000  0.07297000  1.0 -0.1725182319
N  N7  1  0.74008000  0.25818000  0.93058000  1.0 -0.1878513181
N  N8  1  0.56583000  0.43973000  0.92703000  1.0 -0.1725182319
N  N9  1  0.25992000  0.06942000  0.74182000  1.0 -0.1878513181
N  N10  1  0.43417000  0.07297000  0.56027000  1.0 -0.1725182319
N  N11  1  0.25818000  0.93058000  0.74008000  1.0 -0.1878513181
N  N12  1  0.43973000  0.92703000  0.56583000  1.0 -0.1725182319
O  O1  1  0.88701000  0.73111000  0.42931000  1.0 -0.738040694
O  O2  1  0.69770000  0.79850000  0.55720000  1.0 -0.5633223339
O  O3  1  0.83890000  0.79210000  0.54270000  1.0 -0.6221493467
O  O4  1  0.79470000  0.91810000  0.39820000  1.0 -0.6694736763
O  O5  1  0.11299000  0.57069000  0.26889000  1.0 -0.738040694
O  O6  1  0.30230000  0.44280000  0.20150000  1.0 -0.5633223339
O  O7  1  0.16110000  0.45730000  0.20790000  1.0 -0.6221493467
O  O8  1  0.20530000  0.60180000  0.08190000  1.0 -0.6694736763
O  O9  1  0.73111000  0.42931000  0.88701000  1.0 -0.738040694
O  O10  1  0.79850000  0.55720000  0.69770000  1.0 -0.5633223339
O  O11  1  0.79210000  0.54270000  0.83890000  1.0 -0.6221493467
O  O12  1  0.91810000  0.39820000  0.79470000  1.0 -0.6694736763
O  O13  1  0.57069000  0.26889000  0.11299000  1.0 -0.738040694
O  O14  1  0.44280000  0.20150000  0.30230000  1.0 -0.5633223339
O  O15  1  0.45730000  0.20790000  0.16110000  1.0 -0.6221493467
O  O16  1  0.60180000  0.08190000  0.20530000  1.0 -0.6694736763
O  O17  1  0.42931000  0.88701000  0.73111000  1.0 -0.738040694
O  O18  1  0.55720000  0.69770000  0.79850000  1.0 -0.5633223339
O  O19  1  0.54270000  0.83890000  0.79210000  1.0 -0.6221493467
O  O20  1  0.39820000  0.79470000  0.91810000  1.0 -0.6694736763
O  O21  1  0.26889000  0.11299000  0.57069000  1.0 -0.738040694
O  O22  1  0.20150000  0.30230000  0.44280000  1.0 -0.5633223339
O  O23  1  0.20790000  0.16110000  0.45730000  1.0 -0.6221493467
O  O24  1  0.08190000  0.20530000  0.60180000  1.0 -0.6694736763
