# DDEC6 charges by PACMAN v1.1 (https://github.com/mtap-research/PACMAN-charge/)
data_OXITOF_ASR_pacman
_symmetry_space_group_name_H-M   'P 1'
_cell_length_a   7.33100000
_cell_length_b   11.90100000
_cell_length_c   15.83800000
_cell_angle_alpha   103.50000000
_cell_angle_beta   100.46000000
_cell_angle_gamma   104.75000000
_symmetry_Int_Tables_number   1
_chemical_formula_structural   Co2H6C17O9
_chemical_formula_sum   'Co4 H12 C34 O18'
_cell_volume   1255.95437066
_cell_formula_units_Z   2
loop_
 _symmetry_equiv_pos_site_id
 _symmetry_equiv_pos_as_xyz
  1  'x, y, z'
loop_
 _atom_site_type_symbol
 _atom_site_label
 _atom_site_symmetry_multiplicity
 _atom_site_fract_x
 _atom_site_fract_y
 _atom_site_fract_z
 _atom_site_occupancy
 _atom_site_charge
Co  Co1  1  0.50000000  0.00000000  0.50000000  1.0 1.1091741472
Co  Co2  1  0.97257000  0.04719000  0.66510000  1.0 1.0229085832
Co  Co3  1  0.02743000  0.95281000  0.33490000  1.0 1.0229085832
Co  Co4  1  0.00000000  0.00000000  0.00000000  1.0 1.0762844234
H  H1  1  0.20720000  0.74360000  0.57710000  1.0 0.1259441822
H  H2  1  0.79280000  0.25640000  0.42290000  1.0 0.1259441822
H  H3  1  0.96130000  0.41620000  0.64750000  1.0 0.1186587996
H  H4  1  0.03870000  0.58380000  0.35250000  1.0 0.1186587996
H  H5  1  0.41050000  0.69050000  0.85630000  1.0 0.1186587996
H  H6  1  0.58950000  0.30950000  0.14370000  1.0 0.1186587996
H  H7  1  0.30490000  0.38300000  0.61350000  1.0 0.1186587996
H  H8  1  0.69510000  0.61700000  0.38650000  1.0 0.1186587996
H  H9  1  0.08550000  0.60400000  0.77700000  1.0 0.1186587996
H  H10  1  0.91450000  0.39600000  0.22300000  1.0 0.1186587996
H  H11  1  0.51840000  0.55750000  0.60420000  1.0 0.1141881421
H  H12  1  0.48160000  0.44250000  0.39580000  1.0 0.1141881421
C  C1  1  0.11020000  0.66420000  0.66740000  1.0 -0.0113480661
C  C2  1  0.88980000  0.33580000  0.33260000  1.0 -0.0113480661
C  C3  1  0.76460000  0.50580000  0.62560000  1.0 0.0072471661
C  C4  1  0.23540000  0.49420000  0.37440000  1.0 0.0072471661
C  C5  1  0.24800000  0.73340000  0.63310000  1.0 -0.0779281688
C  C6  1  0.75200000  0.26660000  0.36690000  1.0 -0.0779281688
C  C7  1  0.82920000  0.40850000  0.63880000  1.0 -0.1517305002
C  C8  1  0.17080000  0.59150000  0.36120000  1.0 -0.1517305002
C  C9  1  0.44450000  0.78750000  0.68050000  1.0 -0.0426821039
C  C10  1  0.55550000  0.21250000  0.31950000  1.0 -0.0426821039
C  C11  1  0.69870000  0.29980000  0.63920000  1.0 -0.0113480661
C  C12  1  0.30130000  0.70020000  0.36080000  1.0 -0.0113480661
C  C13  1  0.50700000  0.77020000  0.76500000  1.0 -0.0113480661
C  C14  1  0.49300000  0.22980000  0.23500000  1.0 -0.0113480661
C  C15  1  0.49870000  0.28920000  0.63010000  1.0 -0.032371346
C  C16  1  0.50130000  0.71080000  0.36990000  1.0 -0.032371346
C  C17  1  0.36970000  0.70120000  0.80040000  1.0 -0.1049007476
C  C18  1  0.63030000  0.29880000  0.19960000  1.0 -0.1049007476
C  C19  1  0.43540000  0.38850000  0.61850000  1.0 -0.0779281688
C  C20  1  0.56460000  0.61150000  0.38150000  1.0 -0.0779281688
C  C21  1  0.17410000  0.64890000  0.75270000  1.0 -0.1061667055
C  C22  1  0.82590000  0.35110000  0.24730000  1.0 -0.1061667055
C  C23  1  0.56410000  0.49450000  0.61430000  1.0 -0.0892166496
C  C24  1  0.43590000  0.50550000  0.38570000  1.0 -0.0892166496
C  C25  1  0.58040000  0.86720000  0.64140000  1.0 0.6186351925
C  C26  1  0.41960000  0.13280000  0.35860000  1.0 0.6186351925
C  C27  1  0.78530000  0.20000000  0.65230000  1.0 0.5836148708
C  C28  1  0.21470000  0.80000000  0.34770000  1.0 0.5836148708
C  C29  1  0.71480000  0.82110000  0.82170000  1.0 0.5857793241
C  C30  1  0.28520000  0.17890000  0.17830000  1.0 0.5857793241
C  C31  1  0.34990000  0.17380000  0.63010000  1.0 0.6093660741
C  C32  1  0.65010000  0.82620000  0.36990000  1.0 0.6093660741
C  C33  1  0.90010000  0.62090000  0.61810000  1.0 0.3464834242
C  C34  1  0.09990000  0.37910000  0.38190000  1.0 0.3464834242
O  O1  1  0.51690000  0.86580000  0.56100000  1.0 -0.5899310708
O  O2  1  0.48310000  0.13420000  0.43900000  1.0 -0.5899310708
O  O3  1  0.87810000  0.20640000  0.72940000  1.0 -0.4917384238
O  O4  1  0.12190000  0.79360000  0.27060000  1.0 -0.4917384238
O  O5  1  0.74500000  0.93220000  0.69380000  1.0 -0.5457885117
O  O6  1  0.25500000  0.06780000  0.30620000  1.0 -0.5447172374
O  O7  1  0.77980000  0.11430000  0.58330000  1.0 -0.6053738446
O  O8  1  0.22020000  0.88570000  0.41670000  1.0 -0.6053738446
O  O9  1  0.75130000  0.91550000  0.88980000  1.0 -0.5899310708
O  O10  1  0.24870000  0.08450000  0.11020000  1.0 -0.5899310708
O  O11  1  0.37630000  0.07130000  0.60130000  1.0 -0.6053738446
O  O12  1  0.62370000  0.92870000  0.39870000  1.0 -0.6053738446
O  O13  1  0.83230000  0.76470000  0.80410000  1.0 -0.4808053226
O  O14  1  0.16770000  0.23530000  0.19590000  1.0 -0.4808053226
O  O15  1  0.20810000  0.18770000  0.66230000  1.0 -0.5638123602
O  O16  1  0.79190000  0.81230000  0.33770000  1.0 -0.5638123602
O  O17  1  0.83500000  0.67760000  0.57050000  1.0 -0.3923440427
O  O18  1  0.16500000  0.32240000  0.42950000  1.0 -0.3923440427
