# DDEC6 charges by PACMAN v1.1 (https://github.com/mtap-research/PACMAN-charge/)
data_OXOCEM_ASR_pacman
_symmetry_space_group_name_H-M   'P 1'
_cell_length_a   27.48500000
_cell_length_b   27.48500000
_cell_length_c   27.48500000
_cell_angle_alpha   60.00000000
_cell_angle_beta   60.00000000
_cell_angle_gamma   60.00000000
_symmetry_Int_Tables_number   1
_chemical_formula_structural   Zr3C12(SO6)2
_chemical_formula_sum   'Zr36 C144 S24 O144'
_cell_volume   14681.56073562
_cell_formula_units_Z   12
loop_
 _symmetry_equiv_pos_site_id
 _symmetry_equiv_pos_as_xyz
  1  'x, y, z'
loop_
 _atom_site_type_symbol
 _atom_site_label
 _atom_site_symmetry_multiplicity
 _atom_site_fract_x
 _atom_site_fract_y
 _atom_site_fract_z
 _atom_site_occupancy
 _atom_site_charge
Zr  Zr1  1  0.88921000  0.54553000  0.01973000  1.0 2.0416748068
Zr  Zr2  1  0.01973000  0.54553000  0.88921000  1.0 2.0416748068
Zr  Zr3  1  0.54553000  0.88921000  0.54553000  1.0 2.0416748068
Zr  Zr4  1  0.54553000  0.01973000  0.54553000  1.0 2.0416748068
Zr  Zr5  1  0.54553000  0.01973000  0.88921000  1.0 2.0416748068
Zr  Zr6  1  0.54553000  0.88921000  0.01973000  1.0 2.0416748068
Zr  Zr7  1  0.88921000  0.54553000  0.54553000  1.0 2.0461253168
Zr  Zr8  1  0.01973000  0.54553000  0.54553000  1.0 2.0416748068
Zr  Zr9  1  0.01973000  0.88921000  0.54553000  1.0 2.0416748068
Zr  Zr10  1  0.88921000  0.01973000  0.54553000  1.0 2.0461253168
Zr  Zr11  1  0.54553000  0.54553000  0.88921000  1.0 2.0416748068
Zr  Zr12  1  0.54553000  0.54553000  0.01973000  1.0 2.0416748068
Zr  Zr13  1  0.11079000  0.45447000  0.98027000  1.0 2.0416748068
Zr  Zr14  1  0.98027000  0.45447000  0.11079000  1.0 2.0416748068
Zr  Zr15  1  0.45447000  0.98027000  0.45447000  1.0 2.0416748068
Zr  Zr16  1  0.45447000  0.11079000  0.45447000  1.0 2.0416748068
Zr  Zr17  1  0.45447000  0.45447000  0.11079000  1.0 2.0461253168
Zr  Zr18  1  0.45447000  0.45447000  0.98027000  1.0 2.0416748068
Zr  Zr19  1  0.11079000  0.98027000  0.45447000  1.0 2.0416748068
Zr  Zr20  1  0.98027000  0.11079000  0.45447000  1.0 2.0461253168
Zr  Zr21  1  0.98027000  0.45447000  0.45447000  1.0 2.0461253168
Zr  Zr22  1  0.11079000  0.45447000  0.45447000  1.0 2.0416748068
Zr  Zr23  1  0.45447000  0.98027000  0.11079000  1.0 2.0461253168
Zr  Zr24  1  0.45447000  0.11079000  0.98027000  1.0 2.0416748068
Zr  Zr25  1  0.00000000  0.60078000  0.00000000  1.0 2.032927696
Zr  Zr26  1  0.00000000  0.39922000  0.00000000  1.0 2.032927696
Zr  Zr27  1  0.60078000  0.00000000  0.39922000  1.0 2.0416748068
Zr  Zr28  1  0.39922000  0.00000000  0.60078000  1.0 2.0416748068
Zr  Zr29  1  0.60078000  0.00000000  0.00000000  1.0 2.032927696
Zr  Zr30  1  0.39922000  0.00000000  0.00000000  1.0 2.032927696
Zr  Zr31  1  0.00000000  0.39922000  0.60078000  1.0 2.0416748068
Zr  Zr32  1  0.00000000  0.60078000  0.39922000  1.0 2.0416748068
Zr  Zr33  1  0.00000000  0.00000000  0.60078000  1.0 2.0416748068
Zr  Zr34  1  0.00000000  0.00000000  0.39922000  1.0 2.0416748068
Zr  Zr35  1  0.39922000  0.60078000  0.00000000  1.0 2.032927696
Zr  Zr36  1  0.60078000  0.39922000  0.00000000  1.0 2.032927696
C  C1  1  0.02449000  0.66973000  0.86927000  1.0 0.6356648873
C  C2  1  0.01679000  0.72855000  0.81845000  1.0 -0.1480173506
C  C3  1  0.99618000  0.77972000  0.82950000  1.0 -0.0667707548
C  C4  1  0.86927000  0.43651000  0.02449000  1.0 0.6356648873
C  C5  1  0.81845000  0.43621000  0.01679000  1.0 -0.1429192209
C  C6  1  0.82950000  0.39460000  0.99618000  1.0 -0.0667707548
C  C7  1  0.66973000  0.02449000  0.43651000  1.0 0.6327988862
C  C8  1  0.72855000  0.01679000  0.43621000  1.0 -0.1480173506
C  C9  1  0.77972000  0.99618000  0.39460000  1.0 -0.0667707548
C  C10  1  0.43651000  0.86927000  0.66973000  1.0 0.6327988862
C  C11  1  0.43621000  0.81845000  0.72855000  1.0 -0.1480173506
C  C12  1  0.39460000  0.82950000  0.77972000  1.0 -0.0667707548
C  C13  1  0.66973000  0.86927000  0.02449000  1.0 0.6327988862
C  C14  1  0.72855000  0.81845000  0.01679000  1.0 -0.1480173506
C  C15  1  0.77972000  0.82950000  0.99618000  1.0 -0.0667707548
C  C16  1  0.43651000  0.02449000  0.86927000  1.0 0.6327988862
C  C17  1  0.43621000  0.01679000  0.81845000  1.0 -0.1480173506
C  C18  1  0.39460000  0.99618000  0.82950000  1.0 -0.0667707548
C  C19  1  0.02449000  0.43651000  0.66973000  1.0 0.6327988862
C  C20  1  0.01679000  0.43621000  0.72855000  1.0 -0.1480173506
C  C21  1  0.99618000  0.39460000  0.77972000  1.0 -0.0667707548
C  C22  1  0.86927000  0.66973000  0.43651000  1.0 0.6356648873
C  C23  1  0.81845000  0.72855000  0.43621000  1.0 -0.1480173506
C  C24  1  0.82950000  0.77972000  0.39460000  1.0 -0.0667707548
C  C25  1  0.86927000  0.02449000  0.66973000  1.0 0.6327988862
C  C26  1  0.81845000  0.01679000  0.72855000  1.0 -0.1429192209
C  C27  1  0.82950000  0.99618000  0.77972000  1.0 -0.0667707548
C  C28  1  0.02449000  0.86927000  0.43651000  1.0 0.6327988862
C  C29  1  0.01679000  0.81845000  0.43621000  1.0 -0.1480173506
C  C30  1  0.99618000  0.82950000  0.39460000  1.0 -0.0667707548
C  C31  1  0.43651000  0.66973000  0.02449000  1.0 0.6356648873
C  C32  1  0.43621000  0.72855000  0.01679000  1.0 -0.1429192209
C  C33  1  0.39460000  0.77972000  0.99618000  1.0 -0.0667707548
C  C34  1  0.66973000  0.43651000  0.86927000  1.0 0.6327988862
C  C35  1  0.72855000  0.43621000  0.81845000  1.0 -0.1480173506
C  C36  1  0.77972000  0.39460000  0.82950000  1.0 -0.0667707548
C  C37  1  0.97551000  0.56349000  0.13073000  1.0 0.6327988862
C  C38  1  0.98321000  0.56379000  0.18155000  1.0 -0.1480173506
C  C39  1  0.00382000  0.60540000  0.17050000  1.0 -0.0667707548
C  C40  1  0.13073000  0.33027000  0.97551000  1.0 0.6327988862
C  C41  1  0.18155000  0.27145000  0.98321000  1.0 -0.1429192209
C  C42  1  0.17050000  0.22028000  0.00382000  1.0 -0.0667707548
C  C43  1  0.33027000  0.13073000  0.56349000  1.0 0.6327988862
C  C44  1  0.27145000  0.18155000  0.56379000  1.0 -0.1480173506
C  C45  1  0.22028000  0.17050000  0.60540000  1.0 -0.0667707548
C  C46  1  0.56349000  0.97551000  0.33027000  1.0 0.6327988862
C  C47  1  0.56379000  0.98321000  0.27145000  1.0 -0.1429192209
C  C48  1  0.60540000  0.00382000  0.22028000  1.0 -0.0667707548
C  C49  1  0.33027000  0.56349000  0.97551000  1.0 0.6327988862
C  C50  1  0.27145000  0.56379000  0.98321000  1.0 -0.1480173506
C  C51  1  0.22028000  0.60540000  0.00382000  1.0 -0.0667707548
C  C52  1  0.56349000  0.33027000  0.13073000  1.0 0.6327988862
C  C53  1  0.56379000  0.27145000  0.18155000  1.0 -0.1480173506
C  C54  1  0.60540000  0.22028000  0.17050000  1.0 -0.0667707548
C  C55  1  0.97551000  0.13073000  0.33027000  1.0 0.6327988862
C  C56  1  0.98321000  0.18155000  0.27145000  1.0 -0.1429192209
C  C57  1  0.00382000  0.17050000  0.22028000  1.0 -0.0667707548
C  C58  1  0.13073000  0.97551000  0.56349000  1.0 0.6327988862
C  C59  1  0.18155000  0.98321000  0.56379000  1.0 -0.1480173506
C  C60  1  0.17050000  0.00382000  0.60540000  1.0 -0.0667707548
C  C61  1  0.13073000  0.56349000  0.33027000  1.0 0.6327988862
C  C62  1  0.18155000  0.56379000  0.27145000  1.0 -0.1480173506
C  C63  1  0.17050000  0.60540000  0.22028000  1.0 -0.0667707548
C  C64  1  0.97551000  0.33027000  0.56349000  1.0 0.6327988862
C  C65  1  0.98321000  0.27145000  0.56379000  1.0 -0.1429192209
C  C66  1  0.00382000  0.22028000  0.60540000  1.0 -0.0667707548
C  C67  1  0.56349000  0.13073000  0.97551000  1.0 0.6356648873
C  C68  1  0.56379000  0.18155000  0.98321000  1.0 -0.1429192209
C  C69  1  0.60540000  0.17050000  0.00382000  1.0 -0.0667707548
C  C70  1  0.33027000  0.97551000  0.13073000  1.0 0.6327988862
C  C71  1  0.27145000  0.98321000  0.18155000  1.0 -0.1480173506
C  C72  1  0.22028000  0.00382000  0.17050000  1.0 -0.0667707548
C  C73  1  0.97551000  0.33027000  0.13073000  1.0 0.6327988862
C  C74  1  0.98321000  0.27145000  0.18155000  1.0 -0.1429192209
C  C75  1  0.00382000  0.22028000  0.17050000  1.0 -0.0667707548
C  C76  1  0.13073000  0.56349000  0.97551000  1.0 0.6327988862
C  C77  1  0.18155000  0.56379000  0.98321000  1.0 -0.1480173506
C  C78  1  0.17050000  0.60540000  0.00382000  1.0 -0.0667707548
C  C79  1  0.33027000  0.97551000  0.56349000  1.0 0.6327988862
C  C80  1  0.27145000  0.98321000  0.56379000  1.0 -0.1480173506
C  C81  1  0.22028000  0.00382000  0.60540000  1.0 -0.0667707548
C  C82  1  0.56349000  0.13073000  0.33027000  1.0 0.6327988862
C  C83  1  0.56379000  0.18155000  0.27145000  1.0 -0.1480173506
C  C84  1  0.60540000  0.17050000  0.22028000  1.0 -0.0667707548
C  C85  1  0.33027000  0.13073000  0.97551000  1.0 0.6327988862
C  C86  1  0.27145000  0.18155000  0.98321000  1.0 -0.1480173506
C  C87  1  0.22028000  0.17050000  0.00382000  1.0 -0.0643738715
C  C88  1  0.56349000  0.97551000  0.13073000  1.0 0.6327988862
C  C89  1  0.56379000  0.98321000  0.18155000  1.0 -0.1429192209
C  C90  1  0.60540000  0.00382000  0.17050000  1.0 -0.0667707548
C  C91  1  0.97551000  0.56349000  0.33027000  1.0 0.6327988862
C  C92  1  0.98321000  0.56379000  0.27145000  1.0 -0.1480173506
C  C93  1  0.00382000  0.60540000  0.22028000  1.0 -0.0667707548
C  C94  1  0.13073000  0.33027000  0.56349000  1.0 0.6327988862
C  C95  1  0.18155000  0.27145000  0.56379000  1.0 -0.1480173506
C  C96  1  0.17050000  0.22028000  0.60540000  1.0 -0.0667707548
C  C97  1  0.13073000  0.97551000  0.33027000  1.0 0.6327988862
C  C98  1  0.18155000  0.98321000  0.27145000  1.0 -0.1480173506
C  C99  1  0.17050000  0.00382000  0.22028000  1.0 -0.0667707548
C  C100  1  0.97551000  0.13073000  0.56349000  1.0 0.6327988862
C  C101  1  0.98321000  0.18155000  0.56379000  1.0 -0.1429192209
C  C102  1  0.00382000  0.17050000  0.60540000  1.0 -0.0667707548
C  C103  1  0.56349000  0.33027000  0.97551000  1.0 0.6327988862
C  C104  1  0.56379000  0.27145000  0.98321000  1.0 -0.1429192209
C  C105  1  0.60540000  0.22028000  0.00382000  1.0 -0.0667707548
C  C106  1  0.33027000  0.56349000  0.13073000  1.0 0.6327988862
C  C107  1  0.27145000  0.56379000  0.18155000  1.0 -0.1480173506
C  C108  1  0.22028000  0.60540000  0.17050000  1.0 -0.0667707548
C  C109  1  0.02449000  0.43651000  0.86927000  1.0 0.6327988862
C  C110  1  0.01679000  0.43621000  0.81845000  1.0 -0.1480173506
C  C111  1  0.99618000  0.39460000  0.82950000  1.0 -0.0643738715
C  C112  1  0.86927000  0.66973000  0.02449000  1.0 0.6327988862
C  C113  1  0.81845000  0.72855000  0.01679000  1.0 -0.1480173506
C  C114  1  0.82950000  0.77972000  0.99618000  1.0 -0.0667707548
C  C115  1  0.66973000  0.86927000  0.43651000  1.0 0.6356648873
C  C116  1  0.72855000  0.81845000  0.43621000  1.0 -0.1480173506
C  C117  1  0.77972000  0.82950000  0.39460000  1.0 -0.0667707548
C  C118  1  0.43651000  0.02449000  0.66973000  1.0 0.6327988862
C  C119  1  0.43621000  0.01679000  0.72855000  1.0 -0.1480173506
C  C120  1  0.39460000  0.99618000  0.77972000  1.0 -0.0667707548
C  C121  1  0.66973000  0.43651000  0.02449000  1.0 0.6327988862
C  C122  1  0.72855000  0.43621000  0.01679000  1.0 -0.1429192209
C  C123  1  0.77972000  0.39460000  0.99618000  1.0 -0.0667707548
C  C124  1  0.43651000  0.66973000  0.86927000  1.0 0.6356648873
C  C125  1  0.43621000  0.72855000  0.81845000  1.0 -0.1480173506
C  C126  1  0.39460000  0.77972000  0.82950000  1.0 -0.0667707548
C  C127  1  0.02449000  0.86927000  0.66973000  1.0 0.6327988862
C  C128  1  0.01679000  0.81845000  0.72855000  1.0 -0.1480173506
C  C129  1  0.99618000  0.82950000  0.77972000  1.0 -0.0667707548
C  C130  1  0.86927000  0.02449000  0.43651000  1.0 0.6327988862
C  C131  1  0.81845000  0.01679000  0.43621000  1.0 -0.1480173506
C  C132  1  0.82950000  0.99618000  0.39460000  1.0 -0.0667707548
C  C133  1  0.86927000  0.43651000  0.66973000  1.0 0.6327988862
C  C134  1  0.81845000  0.43621000  0.72855000  1.0 -0.1429192209
C  C135  1  0.82950000  0.39460000  0.77972000  1.0 -0.0667707548
C  C136  1  0.02449000  0.66973000  0.43651000  1.0 0.6327988862
C  C137  1  0.01679000  0.72855000  0.43621000  1.0 -0.1480173506
C  C138  1  0.99618000  0.77972000  0.39460000  1.0 -0.0667707548
C  C139  1  0.43651000  0.86927000  0.02449000  1.0 0.6327988862
C  C140  1  0.43621000  0.81845000  0.01679000  1.0 -0.1429192209
C  C141  1  0.39460000  0.82950000  0.99618000  1.0 -0.0667707548
C  C142  1  0.66973000  0.02449000  0.86927000  1.0 0.6327988862
C  C143  1  0.72855000  0.01679000  0.81845000  1.0 -0.1480173506
C  C144  1  0.77972000  0.99618000  0.82950000  1.0 -0.0667707548
S  S1  1  0.01625000  0.74909000  0.74909000  1.0 0.1315419893
S  S2  1  0.74909000  0.48557000  0.01625000  1.0 0.1315419893
S  S3  1  0.74909000  0.01625000  0.48557000  1.0 0.1388091619
S  S4  1  0.48557000  0.74909000  0.74909000  1.0 0.1315419893
S  S5  1  0.74909000  0.74909000  0.01625000  1.0 0.1315419893
S  S6  1  0.48557000  0.01625000  0.74909000  1.0 0.1315419893
S  S7  1  0.01625000  0.48557000  0.74909000  1.0 0.1388091619
S  S8  1  0.74909000  0.74909000  0.48557000  1.0 0.1315419893
S  S9  1  0.74909000  0.01625000  0.74909000  1.0 0.1315419893
S  S10  1  0.01625000  0.74909000  0.48557000  1.0 0.1315419893
S  S11  1  0.48557000  0.74909000  0.01625000  1.0 0.1238504441
S  S12  1  0.74909000  0.48557000  0.74909000  1.0 0.1315419893
S  S13  1  0.98375000  0.51443000  0.25091000  1.0 0.1388091619
S  S14  1  0.25091000  0.25091000  0.98375000  1.0 0.1315419893
S  S15  1  0.25091000  0.25091000  0.51443000  1.0 0.1388091619
S  S16  1  0.51443000  0.98375000  0.25091000  1.0 0.1315419893
S  S17  1  0.25091000  0.51443000  0.98375000  1.0 0.1388091619
S  S18  1  0.51443000  0.25091000  0.25091000  1.0 0.1388091619
S  S19  1  0.98375000  0.25091000  0.25091000  1.0 0.1315419893
S  S20  1  0.25091000  0.98375000  0.51443000  1.0 0.1388091619
S  S21  1  0.25091000  0.51443000  0.25091000  1.0 0.1388091619
S  S22  1  0.98375000  0.25091000  0.51443000  1.0 0.1315419893
S  S23  1  0.51443000  0.25091000  0.98375000  1.0 0.1315419893
S  S24  1  0.25091000  0.98375000  0.25091000  1.0 0.1388091619
O  O1  1  0.01209000  0.67541000  0.91969000  1.0 -0.6695185201
O  O2  1  0.04484000  0.62268000  0.85320000  1.0 -0.7894699929
O  O3  1  0.91969000  0.39281000  0.01209000  1.0 -0.6695185201
O  O4  1  0.85320000  0.47928000  0.04484000  1.0 -0.7894699929
O  O5  1  0.67541000  0.01209000  0.39281000  1.0 -0.6695185201
O  O6  1  0.62268000  0.04484000  0.47928000  1.0 -0.7894699929
O  O7  1  0.39281000  0.91969000  0.67541000  1.0 -0.6695185201
O  O8  1  0.47928000  0.85320000  0.62268000  1.0 -0.7894699929
O  O9  1  0.67541000  0.91969000  0.01209000  1.0 -0.6695185201
O  O10  1  0.62268000  0.85320000  0.04484000  1.0 -0.7894699929
O  O11  1  0.39281000  0.01209000  0.91969000  1.0 -0.6695185201
O  O12  1  0.47928000  0.04484000  0.85320000  1.0 -0.7894699929
O  O13  1  0.01209000  0.39281000  0.67541000  1.0 -0.6695185201
O  O14  1  0.04484000  0.47928000  0.62268000  1.0 -0.7894699929
O  O15  1  0.91969000  0.67541000  0.39281000  1.0 -0.6695185201
O  O16  1  0.85320000  0.62268000  0.47928000  1.0 -0.7894699929
O  O17  1  0.91969000  0.01209000  0.67541000  1.0 -0.6695185201
O  O18  1  0.85320000  0.04484000  0.62268000  1.0 -0.7894699929
O  O19  1  0.01209000  0.91969000  0.39281000  1.0 -0.6695185201
O  O20  1  0.04484000  0.85320000  0.47928000  1.0 -0.7894699929
O  O21  1  0.39281000  0.67541000  0.01209000  1.0 -0.6695185201
O  O22  1  0.47928000  0.62268000  0.04484000  1.0 -0.7894699929
O  O23  1  0.67541000  0.39281000  0.91969000  1.0 -0.6695185201
O  O24  1  0.62268000  0.47928000  0.85320000  1.0 -0.7894699929
O  O25  1  0.98791000  0.60719000  0.08031000  1.0 -0.6695185201
O  O26  1  0.95516000  0.52072000  0.14680000  1.0 -0.7894699929
O  O27  1  0.08031000  0.32459000  0.98791000  1.0 -0.6695185201
O  O28  1  0.14680000  0.37732000  0.95516000  1.0 -0.7894699929
O  O29  1  0.32459000  0.08031000  0.60719000  1.0 -0.6695185201
O  O30  1  0.37732000  0.14680000  0.52072000  1.0 -0.7894699929
O  O31  1  0.60719000  0.98791000  0.32459000  1.0 -0.6695185201
O  O32  1  0.52072000  0.95516000  0.37732000  1.0 -0.7894699929
O  O33  1  0.32459000  0.60719000  0.98791000  1.0 -0.6695185201
O  O34  1  0.37732000  0.52072000  0.95516000  1.0 -0.7894699929
O  O35  1  0.60719000  0.32459000  0.08031000  1.0 -0.6695185201
O  O36  1  0.52072000  0.37732000  0.14680000  1.0 -0.7894699929
O  O37  1  0.98791000  0.08031000  0.32459000  1.0 -0.6695185201
O  O38  1  0.95516000  0.14680000  0.37732000  1.0 -0.7894699929
O  O39  1  0.08031000  0.98791000  0.60719000  1.0 -0.6695185201
O  O40  1  0.14680000  0.95516000  0.52072000  1.0 -0.7894699929
O  O41  1  0.08031000  0.60719000  0.32459000  1.0 -0.6695185201
O  O42  1  0.14680000  0.52072000  0.37732000  1.0 -0.7894699929
O  O43  1  0.98791000  0.32459000  0.60719000  1.0 -0.6695185201
O  O44  1  0.95516000  0.37732000  0.52072000  1.0 -0.7894699929
O  O45  1  0.60719000  0.08031000  0.98791000  1.0 -0.6695185201
O  O46  1  0.52072000  0.14680000  0.95516000  1.0 -0.7894699929
O  O47  1  0.32459000  0.98791000  0.08031000  1.0 -0.6695185201
O  O48  1  0.37732000  0.95516000  0.14680000  1.0 -0.7894699929
O  O49  1  0.98791000  0.32459000  0.08031000  1.0 -0.6695185201
O  O50  1  0.95516000  0.37732000  0.14680000  1.0 -0.7894699929
O  O51  1  0.08031000  0.60719000  0.98791000  1.0 -0.6695185201
O  O52  1  0.14680000  0.52072000  0.95516000  1.0 -0.7894699929
O  O53  1  0.32459000  0.98791000  0.60719000  1.0 -0.6695185201
O  O54  1  0.37732000  0.95516000  0.52072000  1.0 -0.7894699929
O  O55  1  0.60719000  0.08031000  0.32459000  1.0 -0.6695185201
O  O56  1  0.52072000  0.14680000  0.37732000  1.0 -0.7894699929
O  O57  1  0.32459000  0.08031000  0.98791000  1.0 -0.6695185201
O  O58  1  0.37732000  0.14680000  0.95516000  1.0 -0.7894699929
O  O59  1  0.60719000  0.98791000  0.08031000  1.0 -0.6695185201
O  O60  1  0.52072000  0.95516000  0.14680000  1.0 -0.7894699929
O  O61  1  0.98791000  0.60719000  0.32459000  1.0 -0.6695185201
O  O62  1  0.95516000  0.52072000  0.37732000  1.0 -0.7894699929
O  O63  1  0.08031000  0.32459000  0.60719000  1.0 -0.6695185201
O  O64  1  0.14680000  0.37732000  0.52072000  1.0 -0.7894699929
O  O65  1  0.08031000  0.98791000  0.32459000  1.0 -0.6695185201
O  O66  1  0.14680000  0.95516000  0.37732000  1.0 -0.7894699929
O  O67  1  0.98791000  0.08031000  0.60719000  1.0 -0.6695185201
O  O68  1  0.95516000  0.14680000  0.52072000  1.0 -0.7894699929
O  O69  1  0.60719000  0.32459000  0.98791000  1.0 -0.6695185201
O  O70  1  0.52072000  0.37732000  0.95516000  1.0 -0.7894699929
O  O71  1  0.32459000  0.60719000  0.08031000  1.0 -0.6695185201
O  O72  1  0.37732000  0.52072000  0.14680000  1.0 -0.7894699929
O  O73  1  0.01209000  0.39281000  0.91969000  1.0 -0.6695185201
O  O74  1  0.04484000  0.47928000  0.85320000  1.0 -0.7894699929
O  O75  1  0.91969000  0.67541000  0.01209000  1.0 -0.6695185201
O  O76  1  0.85320000  0.62268000  0.04484000  1.0 -0.7894699929
O  O77  1  0.67541000  0.91969000  0.39281000  1.0 -0.6695185201
O  O78  1  0.62268000  0.85320000  0.47928000  1.0 -0.7894699929
O  O79  1  0.39281000  0.01209000  0.67541000  1.0 -0.6695185201
O  O80  1  0.47928000  0.04484000  0.62268000  1.0 -0.7894699929
O  O81  1  0.67541000  0.39281000  0.01209000  1.0 -0.6695185201
O  O82  1  0.62268000  0.47928000  0.04484000  1.0 -0.7894699929
O  O83  1  0.39281000  0.67541000  0.91969000  1.0 -0.6695185201
O  O84  1  0.47928000  0.62268000  0.85320000  1.0 -0.7894699929
O  O85  1  0.01209000  0.91969000  0.67541000  1.0 -0.6695185201
O  O86  1  0.04484000  0.85320000  0.62268000  1.0 -0.7894699929
O  O87  1  0.91969000  0.01209000  0.39281000  1.0 -0.6695185201
O  O88  1  0.85320000  0.04484000  0.47928000  1.0 -0.7894699929
O  O89  1  0.91969000  0.39281000  0.67541000  1.0 -0.6695185201
O  O90  1  0.85320000  0.47928000  0.62268000  1.0 -0.7894699929
O  O91  1  0.01209000  0.67541000  0.39281000  1.0 -0.6695185201
O  O92  1  0.04484000  0.62268000  0.47928000  1.0 -0.7894699929
O  O93  1  0.39281000  0.91969000  0.01209000  1.0 -0.6695185201
O  O94  1  0.47928000  0.85320000  0.04484000  1.0 -0.7894699929
O  O95  1  0.67541000  0.01209000  0.91969000  1.0 -0.6695185201
O  O96  1  0.62268000  0.04484000  0.85320000  1.0 -0.7894699929
O  O97  1  0.97819000  0.55045000  0.97819000  1.0 -0.3518552527
O  O98  1  0.97819000  0.49317000  0.97819000  1.0 -0.3518552527
O  O99  1  0.55045000  0.97819000  0.49317000  1.0 -0.3518552527
O  O100  1  0.49317000  0.97819000  0.55045000  1.0 -0.3518552527
O  O101  1  0.55045000  0.97819000  0.97819000  1.0 -0.3518552527
O  O102  1  0.49317000  0.97819000  0.97819000  1.0 -0.3518552527
O  O103  1  0.97819000  0.49317000  0.55045000  1.0 -0.3518552527
O  O104  1  0.97819000  0.55045000  0.49317000  1.0 -0.3518552527
O  O105  1  0.97819000  0.97819000  0.55045000  1.0 -0.3518552527
O  O106  1  0.97819000  0.97819000  0.49317000  1.0 -0.3518552527
O  O107  1  0.49317000  0.55045000  0.97819000  1.0 -0.3518552527
O  O108  1  0.55045000  0.49317000  0.97819000  1.0 -0.3518552527
O  O109  1  0.02181000  0.50683000  0.02181000  1.0 -0.3518552527
O  O110  1  0.02181000  0.44955000  0.02181000  1.0 -0.3557891606
O  O111  1  0.44955000  0.02181000  0.50683000  1.0 -0.3518552527
O  O112  1  0.50683000  0.02181000  0.44955000  1.0 -0.3518552527
O  O113  1  0.44955000  0.50683000  0.02181000  1.0 -0.3518552527
O  O114  1  0.50683000  0.44955000  0.02181000  1.0 -0.3518552527
O  O115  1  0.02181000  0.02181000  0.44955000  1.0 -0.3518552527
O  O116  1  0.02181000  0.02181000  0.50683000  1.0 -0.3518552527
O  O117  1  0.02181000  0.50683000  0.44955000  1.0 -0.3518552527
O  O118  1  0.02181000  0.44955000  0.50683000  1.0 -0.3518552527
O  O119  1  0.50683000  0.02181000  0.02181000  1.0 -0.3518552527
O  O120  1  0.44955000  0.02181000  0.02181000  1.0 -0.3518552527
O  O121  1  0.05431000  0.54403000  0.94569000  1.0 -0.766272126
O  O122  1  0.94569000  0.45597000  0.05431000  1.0 -0.7643520965
O  O123  1  0.54403000  0.05431000  0.45597000  1.0 -0.766272126
O  O124  1  0.45597000  0.94569000  0.54403000  1.0 -0.766272126
O  O125  1  0.54403000  0.94569000  0.05431000  1.0 -0.766272126
O  O126  1  0.45597000  0.05431000  0.94569000  1.0 -0.766272126
O  O127  1  0.05431000  0.45597000  0.54403000  1.0 -0.766272126
O  O128  1  0.94569000  0.54403000  0.45597000  1.0 -0.7643520965
O  O129  1  0.94569000  0.05431000  0.54403000  1.0 -0.7643520965
O  O130  1  0.05431000  0.94569000  0.45597000  1.0 -0.766272126
O  O131  1  0.45597000  0.54403000  0.05431000  1.0 -0.766272126
O  O132  1  0.54403000  0.45597000  0.94569000  1.0 -0.766272126
O  O133  1  0.94569000  0.54403000  0.05431000  1.0 -0.766272126
O  O134  1  0.05431000  0.45597000  0.94569000  1.0 -0.766272126
O  O135  1  0.45597000  0.05431000  0.54403000  1.0 -0.766272126
O  O136  1  0.54403000  0.94569000  0.45597000  1.0 -0.7643520965
O  O137  1  0.45597000  0.54403000  0.94569000  1.0 -0.7643520965
O  O138  1  0.54403000  0.45597000  0.05431000  1.0 -0.766272126
O  O139  1  0.94569000  0.05431000  0.45597000  1.0 -0.7643520965
O  O140  1  0.05431000  0.94569000  0.54403000  1.0 -0.766272126
O  O141  1  0.05431000  0.54403000  0.45597000  1.0 -0.766272126
O  O142  1  0.94569000  0.45597000  0.54403000  1.0 -0.7643520965
O  O143  1  0.54403000  0.05431000  0.94569000  1.0 -0.7643520965
O  O144  1  0.45597000  0.94569000  0.05431000  1.0 -0.766272126
