# DDEC6 charges by PACMAN v1.1 (https://github.com/mtap-research/PACMAN-charge/)
data_OXOCUC_ASR_pacman
_symmetry_space_group_name_H-M   'P 1'
_cell_length_a   27.50260000
_cell_length_b   27.50260000
_cell_length_c   27.50260000
_cell_angle_alpha   60.00000000
_cell_angle_beta   60.00000000
_cell_angle_gamma   60.00000000
_symmetry_Int_Tables_number   1
_chemical_formula_structural   Zr3C12(SO6)2
_chemical_formula_sum   'Zr36 C144 S24 O144'
_cell_volume   14709.78278048
_cell_formula_units_Z   12
loop_
 _symmetry_equiv_pos_site_id
 _symmetry_equiv_pos_as_xyz
  1  'x, y, z'
loop_
 _atom_site_type_symbol
 _atom_site_label
 _atom_site_symmetry_multiplicity
 _atom_site_fract_x
 _atom_site_fract_y
 _atom_site_fract_z
 _atom_site_occupancy
 _atom_site_charge
Zr  Zr1  1  0.88594000  0.54562000  0.02282000  1.0 2.1504343855
Zr  Zr2  1  0.02282000  0.54562000  0.88594000  1.0 2.1504343855
Zr  Zr3  1  0.54562000  0.88594000  0.54562000  1.0 2.1504343855
Zr  Zr4  1  0.54562000  0.02282000  0.54562000  1.0 2.1504343855
Zr  Zr5  1  0.54562000  0.02282000  0.88594000  1.0 2.1504343855
Zr  Zr6  1  0.54562000  0.88594000  0.02282000  1.0 2.1504343855
Zr  Zr7  1  0.88594000  0.54562000  0.54562000  1.0 2.1504343855
Zr  Zr8  1  0.02282000  0.54562000  0.54562000  1.0 2.1504343855
Zr  Zr9  1  0.02282000  0.88594000  0.54562000  1.0 2.1504343855
Zr  Zr10  1  0.88594000  0.02282000  0.54562000  1.0 2.1504343855
Zr  Zr11  1  0.54562000  0.54562000  0.88594000  1.0 2.1504343855
Zr  Zr12  1  0.54562000  0.54562000  0.02282000  1.0 2.1504343855
Zr  Zr13  1  0.11406000  0.45438000  0.97718000  1.0 2.1504343855
Zr  Zr14  1  0.97718000  0.45438000  0.11406000  1.0 2.1504343855
Zr  Zr15  1  0.45438000  0.97718000  0.45438000  1.0 2.1504343855
Zr  Zr16  1  0.45438000  0.11406000  0.45438000  1.0 2.1504343855
Zr  Zr17  1  0.45438000  0.45438000  0.11406000  1.0 2.1504343855
Zr  Zr18  1  0.45438000  0.45438000  0.97718000  1.0 2.1504343855
Zr  Zr19  1  0.11406000  0.97718000  0.45438000  1.0 2.1504343855
Zr  Zr20  1  0.97718000  0.11406000  0.45438000  1.0 2.1504343855
Zr  Zr21  1  0.97718000  0.45438000  0.45438000  1.0 2.1504343855
Zr  Zr22  1  0.11406000  0.45438000  0.45438000  1.0 2.1504343855
Zr  Zr23  1  0.45438000  0.97718000  0.11406000  1.0 2.1504343855
Zr  Zr24  1  0.45438000  0.11406000  0.97718000  1.0 2.1504343855
Zr  Zr25  1  0.00000000  0.59040000  0.00000000  1.0 1.9523115364
Zr  Zr26  1  0.00000000  0.40960000  0.00000000  1.0 1.9523115364
Zr  Zr27  1  0.59040000  0.00000000  0.40960000  1.0 1.9523115364
Zr  Zr28  1  0.40960000  0.00000000  0.59040000  1.0 1.9523115364
Zr  Zr29  1  0.59040000  0.00000000  0.00000000  1.0 1.9523115364
Zr  Zr30  1  0.40960000  0.00000000  0.00000000  1.0 1.9523115364
Zr  Zr31  1  0.00000000  0.40960000  0.59040000  1.0 1.9523115364
Zr  Zr32  1  0.00000000  0.59040000  0.40960000  1.0 1.9523115364
Zr  Zr33  1  0.00000000  0.00000000  0.59040000  1.0 1.9523115364
Zr  Zr34  1  0.00000000  0.00000000  0.40960000  1.0 1.9523115364
Zr  Zr35  1  0.40960000  0.59040000  0.00000000  1.0 1.9523115364
Zr  Zr36  1  0.59040000  0.40960000  0.00000000  1.0 1.9523115364
C  C1  1  0.03952000  0.67398000  0.86522000  1.0 0.6110743217
C  C2  1  0.01936000  0.74296000  0.83230000  1.0 -0.1005516222
C  C3  1  0.06338000  0.76870000  0.81994000  1.0 -0.1005516222
C  C4  1  0.86522000  0.42128000  0.03952000  1.0 0.6110743217
C  C5  1  0.83230000  0.40538000  0.01936000  1.0 -0.1005516222
C  C6  1  0.81994000  0.34798000  0.06338000  1.0 -0.1005516222
C  C7  1  0.67398000  0.03952000  0.42128000  1.0 0.6110743217
C  C8  1  0.74296000  0.01936000  0.40538000  1.0 -0.1005516222
C  C9  1  0.76870000  0.06338000  0.34798000  1.0 -0.1005516222
C  C10  1  0.42128000  0.86522000  0.67398000  1.0 0.6110743217
C  C11  1  0.40538000  0.83230000  0.74296000  1.0 -0.1005516222
C  C12  1  0.34798000  0.81994000  0.76870000  1.0 -0.1005516222
C  C13  1  0.67398000  0.86522000  0.03952000  1.0 0.6110743217
C  C14  1  0.74296000  0.83230000  0.01936000  1.0 -0.1005516222
C  C15  1  0.76870000  0.81994000  0.06338000  1.0 -0.0942511787
C  C16  1  0.42128000  0.03952000  0.86522000  1.0 0.6110743217
C  C17  1  0.40538000  0.01936000  0.83230000  1.0 -0.1005516222
C  C18  1  0.34798000  0.06338000  0.81994000  1.0 -0.1005516222
C  C19  1  0.03952000  0.42128000  0.67398000  1.0 0.6110743217
C  C20  1  0.01936000  0.40538000  0.74296000  1.0 -0.1005516222
C  C21  1  0.06338000  0.34798000  0.76870000  1.0 -0.1005516222
C  C22  1  0.86522000  0.67398000  0.42128000  1.0 0.6110743217
C  C23  1  0.83230000  0.74296000  0.40538000  1.0 -0.1005516222
C  C24  1  0.81994000  0.76870000  0.34798000  1.0 -0.1005516222
C  C25  1  0.86522000  0.03952000  0.67398000  1.0 0.6110743217
C  C26  1  0.83230000  0.01936000  0.74296000  1.0 -0.1005516222
C  C27  1  0.81994000  0.06338000  0.76870000  1.0 -0.1005516222
C  C28  1  0.03952000  0.86522000  0.42128000  1.0 0.6110743217
C  C29  1  0.01936000  0.83230000  0.40538000  1.0 -0.1005516222
C  C30  1  0.06338000  0.81994000  0.34798000  1.0 -0.1005516222
C  C31  1  0.42128000  0.67398000  0.03952000  1.0 0.6110743217
C  C32  1  0.40538000  0.74296000  0.01936000  1.0 -0.1005516222
C  C33  1  0.34798000  0.76870000  0.06338000  1.0 -0.1005516222
C  C34  1  0.67398000  0.42128000  0.86522000  1.0 0.6110743217
C  C35  1  0.74296000  0.40538000  0.83230000  1.0 -0.1005516222
C  C36  1  0.76870000  0.34798000  0.81994000  1.0 -0.1005516222
C  C37  1  0.96048000  0.57872000  0.13478000  1.0 0.6110743217
C  C38  1  0.98064000  0.59462000  0.16770000  1.0 -0.1005516222
C  C39  1  0.93662000  0.65202000  0.18006000  1.0 -0.1005516222
C  C40  1  0.13478000  0.32602000  0.96048000  1.0 0.6110743217
C  C41  1  0.16770000  0.25704000  0.98064000  1.0 -0.1005516222
C  C42  1  0.18006000  0.23130000  0.93662000  1.0 -0.1005516222
C  C43  1  0.32602000  0.13478000  0.57872000  1.0 0.6110743217
C  C44  1  0.25704000  0.16770000  0.59462000  1.0 -0.1005516222
C  C45  1  0.23130000  0.18006000  0.65202000  1.0 -0.1005516222
C  C46  1  0.57872000  0.96048000  0.32602000  1.0 0.6110743217
C  C47  1  0.59462000  0.98064000  0.25704000  1.0 -0.1005516222
C  C48  1  0.65202000  0.93662000  0.23130000  1.0 -0.1005516222
C  C49  1  0.32602000  0.57872000  0.96048000  1.0 0.6110743217
C  C50  1  0.25704000  0.59462000  0.98064000  1.0 -0.1005516222
C  C51  1  0.23130000  0.65202000  0.93662000  1.0 -0.1005516222
C  C52  1  0.57872000  0.32602000  0.13478000  1.0 0.6110743217
C  C53  1  0.59462000  0.25704000  0.16770000  1.0 -0.1005516222
C  C54  1  0.65202000  0.23130000  0.18006000  1.0 -0.0942511787
C  C55  1  0.96048000  0.13478000  0.32602000  1.0 0.6110743217
C  C56  1  0.98064000  0.16770000  0.25704000  1.0 -0.1005516222
C  C57  1  0.93662000  0.18006000  0.23130000  1.0 -0.1005516222
C  C58  1  0.13478000  0.96048000  0.57872000  1.0 0.6110743217
C  C59  1  0.16770000  0.98064000  0.59462000  1.0 -0.1005516222
C  C60  1  0.18006000  0.93662000  0.65202000  1.0 -0.1005516222
C  C61  1  0.13478000  0.57872000  0.32602000  1.0 0.6110743217
C  C62  1  0.16770000  0.59462000  0.25704000  1.0 -0.1005516222
C  C63  1  0.18006000  0.65202000  0.23130000  1.0 -0.1005516222
C  C64  1  0.96048000  0.32602000  0.57872000  1.0 0.6110743217
C  C65  1  0.98064000  0.25704000  0.59462000  1.0 -0.1005516222
C  C66  1  0.93662000  0.23130000  0.65202000  1.0 -0.1005516222
C  C67  1  0.57872000  0.13478000  0.96048000  1.0 0.6110743217
C  C68  1  0.59462000  0.16770000  0.98064000  1.0 -0.1005516222
C  C69  1  0.65202000  0.18006000  0.93662000  1.0 -0.1005516222
C  C70  1  0.32602000  0.96048000  0.13478000  1.0 0.6110743217
C  C71  1  0.25704000  0.98064000  0.16770000  1.0 -0.1005516222
C  C72  1  0.23130000  0.93662000  0.18006000  1.0 -0.1005516222
C  C73  1  0.96048000  0.32602000  0.13478000  1.0 0.6110743217
C  C74  1  0.98064000  0.25704000  0.16770000  1.0 -0.1005516222
C  C75  1  0.93662000  0.23130000  0.18006000  1.0 -0.1005516222
C  C76  1  0.13478000  0.57872000  0.96048000  1.0 0.6110743217
C  C77  1  0.16770000  0.59462000  0.98064000  1.0 -0.1005516222
C  C78  1  0.18006000  0.65202000  0.93662000  1.0 -0.1005516222
C  C79  1  0.32602000  0.96048000  0.57872000  1.0 0.6110743217
C  C80  1  0.25704000  0.98064000  0.59462000  1.0 -0.1005516222
C  C81  1  0.23130000  0.93662000  0.65202000  1.0 -0.1005516222
C  C82  1  0.57872000  0.13478000  0.32602000  1.0 0.6110743217
C  C83  1  0.59462000  0.16770000  0.25704000  1.0 -0.1005516222
C  C84  1  0.65202000  0.18006000  0.23130000  1.0 -0.1005516222
C  C85  1  0.32602000  0.13478000  0.96048000  1.0 0.6110743217
C  C86  1  0.25704000  0.16770000  0.98064000  1.0 -0.1005516222
C  C87  1  0.23130000  0.18006000  0.93662000  1.0 -0.1005516222
C  C88  1  0.57872000  0.96048000  0.13478000  1.0 0.6110743217
C  C89  1  0.59462000  0.98064000  0.16770000  1.0 -0.1005516222
C  C90  1  0.65202000  0.93662000  0.18006000  1.0 -0.1005516222
C  C91  1  0.96048000  0.57872000  0.32602000  1.0 0.6110743217
C  C92  1  0.98064000  0.59462000  0.25704000  1.0 -0.1005516222
C  C93  1  0.93662000  0.65202000  0.23130000  1.0 -0.1005516222
C  C94  1  0.13478000  0.32602000  0.57872000  1.0 0.6110743217
C  C95  1  0.16770000  0.25704000  0.59462000  1.0 -0.1005516222
C  C96  1  0.18006000  0.23130000  0.65202000  1.0 -0.1005516222
C  C97  1  0.13478000  0.96048000  0.32602000  1.0 0.6110743217
C  C98  1  0.16770000  0.98064000  0.25704000  1.0 -0.1005516222
C  C99  1  0.18006000  0.93662000  0.23130000  1.0 -0.0942511787
C  C100  1  0.96048000  0.13478000  0.57872000  1.0 0.6110743217
C  C101  1  0.98064000  0.16770000  0.59462000  1.0 -0.1005516222
C  C102  1  0.93662000  0.18006000  0.65202000  1.0 -0.1005516222
C  C103  1  0.57872000  0.32602000  0.96048000  1.0 0.6110743217
C  C104  1  0.59462000  0.25704000  0.98064000  1.0 -0.1005516222
C  C105  1  0.65202000  0.23130000  0.93662000  1.0 -0.1005516222
C  C106  1  0.32602000  0.57872000  0.13478000  1.0 0.6110743217
C  C107  1  0.25704000  0.59462000  0.16770000  1.0 -0.1005516222
C  C108  1  0.23130000  0.65202000  0.18006000  1.0 -0.1005516222
C  C109  1  0.03952000  0.42128000  0.86522000  1.0 0.6110743217
C  C110  1  0.01936000  0.40538000  0.83230000  1.0 -0.1005516222
C  C111  1  0.06338000  0.34798000  0.81994000  1.0 -0.1005516222
C  C112  1  0.86522000  0.67398000  0.03952000  1.0 0.6110743217
C  C113  1  0.83230000  0.74296000  0.01936000  1.0 -0.1005516222
C  C114  1  0.81994000  0.76870000  0.06338000  1.0 -0.1005516222
C  C115  1  0.67398000  0.86522000  0.42128000  1.0 0.6110743217
C  C116  1  0.74296000  0.83230000  0.40538000  1.0 -0.1005516222
C  C117  1  0.76870000  0.81994000  0.34798000  1.0 -0.1005516222
C  C118  1  0.42128000  0.03952000  0.67398000  1.0 0.6110743217
C  C119  1  0.40538000  0.01936000  0.74296000  1.0 -0.1005516222
C  C120  1  0.34798000  0.06338000  0.76870000  1.0 -0.1005516222
C  C121  1  0.67398000  0.42128000  0.03952000  1.0 0.6110743217
C  C122  1  0.74296000  0.40538000  0.01936000  1.0 -0.1005516222
C  C123  1  0.76870000  0.34798000  0.06338000  1.0 -0.1005516222
C  C124  1  0.42128000  0.67398000  0.86522000  1.0 0.6110743217
C  C125  1  0.40538000  0.74296000  0.83230000  1.0 -0.1005516222
C  C126  1  0.34798000  0.76870000  0.81994000  1.0 -0.1005516222
C  C127  1  0.03952000  0.86522000  0.67398000  1.0 0.6110743217
C  C128  1  0.01936000  0.83230000  0.74296000  1.0 -0.1005516222
C  C129  1  0.06338000  0.81994000  0.76870000  1.0 -0.1005516222
C  C130  1  0.86522000  0.03952000  0.42128000  1.0 0.6110743217
C  C131  1  0.83230000  0.01936000  0.40538000  1.0 -0.1005516222
C  C132  1  0.81994000  0.06338000  0.34798000  1.0 -0.1005516222
C  C133  1  0.86522000  0.42128000  0.67398000  1.0 0.6110743217
C  C134  1  0.83230000  0.40538000  0.74296000  1.0 -0.1005516222
C  C135  1  0.81994000  0.34798000  0.76870000  1.0 -0.1005516222
C  C136  1  0.03952000  0.67398000  0.42128000  1.0 0.6110743217
C  C137  1  0.01936000  0.74296000  0.40538000  1.0 -0.1005516222
C  C138  1  0.06338000  0.76870000  0.34798000  1.0 -0.1005516222
C  C139  1  0.42128000  0.86522000  0.03952000  1.0 0.6110743217
C  C140  1  0.40538000  0.83230000  0.01936000  1.0 -0.1005516222
C  C141  1  0.34798000  0.81994000  0.06338000  1.0 -0.0942511787
C  C142  1  0.67398000  0.03952000  0.86522000  1.0 0.6110743217
C  C143  1  0.74296000  0.01936000  0.83230000  1.0 -0.1005516222
C  C144  1  0.76870000  0.06338000  0.81994000  1.0 -0.1005516222
S  S1  1  0.03917000  0.75395000  0.75395000  1.0 0.0372790781
S  S2  1  0.75395000  0.45293000  0.03917000  1.0 0.0372790781
S  S3  1  0.75395000  0.03917000  0.45293000  1.0 0.0372790781
S  S4  1  0.45293000  0.75395000  0.75395000  1.0 0.0372790781
S  S5  1  0.75395000  0.75395000  0.03917000  1.0 0.0372790781
S  S6  1  0.45293000  0.03917000  0.75395000  1.0 0.0372790781
S  S7  1  0.03917000  0.45293000  0.75395000  1.0 0.0372790781
S  S8  1  0.75395000  0.75395000  0.45293000  1.0 0.0372790781
S  S9  1  0.75395000  0.03917000  0.75395000  1.0 0.0372790781
S  S10  1  0.03917000  0.75395000  0.45293000  1.0 0.0372790781
S  S11  1  0.45293000  0.75395000  0.03917000  1.0 0.0372790781
S  S12  1  0.75395000  0.45293000  0.75395000  1.0 0.0372790781
S  S13  1  0.96083000  0.54707000  0.24605000  1.0 0.0372790781
S  S14  1  0.24605000  0.24605000  0.96083000  1.0 0.0372790781
S  S15  1  0.24605000  0.24605000  0.54707000  1.0 0.0372790781
S  S16  1  0.54707000  0.96083000  0.24605000  1.0 0.0372790781
S  S17  1  0.24605000  0.54707000  0.96083000  1.0 0.0348312962
S  S18  1  0.54707000  0.24605000  0.24605000  1.0 0.0372790781
S  S19  1  0.96083000  0.24605000  0.24605000  1.0 0.0372790781
S  S20  1  0.24605000  0.96083000  0.54707000  1.0 0.0372790781
S  S21  1  0.24605000  0.54707000  0.24605000  1.0 0.0372790781
S  S22  1  0.96083000  0.24605000  0.54707000  1.0 0.0348312962
S  S23  1  0.54707000  0.24605000  0.96083000  1.0 0.0372790781
S  S24  1  0.24605000  0.96083000  0.24605000  1.0 0.0372790781
O  O1  1  0.02552000  0.66332000  0.92340000  1.0 -0.5763873781
O  O2  1  0.03404000  0.62816000  0.85918000  1.0 -0.8512924734
O  O3  1  0.92340000  0.38776000  0.02552000  1.0 -0.5763873781
O  O4  1  0.85918000  0.47862000  0.03404000  1.0 -0.8512924734
O  O5  1  0.66332000  0.02552000  0.38776000  1.0 -0.5763873781
O  O6  1  0.62816000  0.03404000  0.47862000  1.0 -0.8512924734
O  O7  1  0.38776000  0.92340000  0.66332000  1.0 -0.5763873781
O  O8  1  0.47862000  0.85918000  0.62816000  1.0 -0.8512924734
O  O9  1  0.66332000  0.92340000  0.02552000  1.0 -0.5763873781
O  O10  1  0.62816000  0.85918000  0.03404000  1.0 -0.8512924734
O  O11  1  0.38776000  0.02552000  0.92340000  1.0 -0.5763873781
O  O12  1  0.47862000  0.03404000  0.85918000  1.0 -0.8512924734
O  O13  1  0.02552000  0.38776000  0.66332000  1.0 -0.5763873781
O  O14  1  0.03404000  0.47862000  0.62816000  1.0 -0.8512924734
O  O15  1  0.92340000  0.66332000  0.38776000  1.0 -0.5763873781
O  O16  1  0.85918000  0.62816000  0.47862000  1.0 -0.8512924734
O  O17  1  0.92340000  0.02552000  0.66332000  1.0 -0.5741318953
O  O18  1  0.85918000  0.03404000  0.62816000  1.0 -0.8512924734
O  O19  1  0.02552000  0.92340000  0.38776000  1.0 -0.5763873781
O  O20  1  0.03404000  0.85918000  0.47862000  1.0 -0.8512924734
O  O21  1  0.38776000  0.66332000  0.02552000  1.0 -0.5763873781
O  O22  1  0.47862000  0.62816000  0.03404000  1.0 -0.8512924734
O  O23  1  0.66332000  0.38776000  0.92340000  1.0 -0.5763873781
O  O24  1  0.62816000  0.47862000  0.85918000  1.0 -0.8512924734
O  O25  1  0.97448000  0.61224000  0.07660000  1.0 -0.5763873781
O  O26  1  0.96596000  0.52138000  0.14082000  1.0 -0.8512924734
O  O27  1  0.07660000  0.33668000  0.97448000  1.0 -0.5763873781
O  O28  1  0.14082000  0.37184000  0.96596000  1.0 -0.8512924734
O  O29  1  0.33668000  0.07660000  0.61224000  1.0 -0.5741318953
O  O30  1  0.37184000  0.14082000  0.52138000  1.0 -0.8588009379
O  O31  1  0.61224000  0.97448000  0.33668000  1.0 -0.5741318953
O  O32  1  0.52138000  0.96596000  0.37184000  1.0 -0.8512924734
O  O33  1  0.33668000  0.61224000  0.97448000  1.0 -0.5741318953
O  O34  1  0.37184000  0.52138000  0.96596000  1.0 -0.8512924734
O  O35  1  0.61224000  0.33668000  0.07660000  1.0 -0.5763873781
O  O36  1  0.52138000  0.37184000  0.14082000  1.0 -0.8588009379
O  O37  1  0.97448000  0.07660000  0.33668000  1.0 -0.5763873781
O  O38  1  0.96596000  0.14082000  0.37184000  1.0 -0.8512924734
O  O39  1  0.07660000  0.97448000  0.61224000  1.0 -0.5763873781
O  O40  1  0.14082000  0.96596000  0.52138000  1.0 -0.8512924734
O  O41  1  0.07660000  0.61224000  0.33668000  1.0 -0.5763873781
O  O42  1  0.14082000  0.52138000  0.37184000  1.0 -0.8588009379
O  O43  1  0.97448000  0.33668000  0.61224000  1.0 -0.5741318953
O  O44  1  0.96596000  0.37184000  0.52138000  1.0 -0.8512924734
O  O45  1  0.61224000  0.07660000  0.97448000  1.0 -0.5763873781
O  O46  1  0.52138000  0.14082000  0.96596000  1.0 -0.8512924734
O  O47  1  0.33668000  0.97448000  0.07660000  1.0 -0.5763873781
O  O48  1  0.37184000  0.96596000  0.14082000  1.0 -0.8512924734
O  O49  1  0.97448000  0.33668000  0.07660000  1.0 -0.5763873781
O  O50  1  0.96596000  0.37184000  0.14082000  1.0 -0.8512924734
O  O51  1  0.07660000  0.61224000  0.97448000  1.0 -0.5741318953
O  O52  1  0.14082000  0.52138000  0.96596000  1.0 -0.8588009379
O  O53  1  0.33668000  0.97448000  0.61224000  1.0 -0.5763873781
O  O54  1  0.37184000  0.96596000  0.52138000  1.0 -0.8588009379
O  O55  1  0.61224000  0.07660000  0.33668000  1.0 -0.5763873781
O  O56  1  0.52138000  0.14082000  0.37184000  1.0 -0.8512924734
O  O57  1  0.33668000  0.07660000  0.97448000  1.0 -0.5763873781
O  O58  1  0.37184000  0.14082000  0.96596000  1.0 -0.8512924734
O  O59  1  0.61224000  0.97448000  0.07660000  1.0 -0.5763873781
O  O60  1  0.52138000  0.96596000  0.14082000  1.0 -0.8512924734
O  O61  1  0.97448000  0.61224000  0.33668000  1.0 -0.5741318953
O  O62  1  0.96596000  0.52138000  0.37184000  1.0 -0.8588009379
O  O63  1  0.07660000  0.33668000  0.61224000  1.0 -0.5741318953
O  O64  1  0.14082000  0.37184000  0.52138000  1.0 -0.8588009379
O  O65  1  0.07660000  0.97448000  0.33668000  1.0 -0.5763873781
O  O66  1  0.14082000  0.96596000  0.37184000  1.0 -0.8588009379
O  O67  1  0.97448000  0.07660000  0.61224000  1.0 -0.5741318953
O  O68  1  0.96596000  0.14082000  0.52138000  1.0 -0.8512924734
O  O69  1  0.61224000  0.33668000  0.97448000  1.0 -0.5763873781
O  O70  1  0.52138000  0.37184000  0.96596000  1.0 -0.8512924734
O  O71  1  0.33668000  0.61224000  0.07660000  1.0 -0.5763873781
O  O72  1  0.37184000  0.52138000  0.14082000  1.0 -0.8512924734
O  O73  1  0.02552000  0.38776000  0.92340000  1.0 -0.5763873781
O  O74  1  0.03404000  0.47862000  0.85918000  1.0 -0.8512924734
O  O75  1  0.92340000  0.66332000  0.02552000  1.0 -0.5763873781
O  O76  1  0.85918000  0.62816000  0.03404000  1.0 -0.8512924734
O  O77  1  0.66332000  0.92340000  0.38776000  1.0 -0.5741318953
O  O78  1  0.62816000  0.85918000  0.47862000  1.0 -0.8512924734
O  O79  1  0.38776000  0.02552000  0.66332000  1.0 -0.5741318953
O  O80  1  0.47862000  0.03404000  0.62816000  1.0 -0.8512924734
O  O81  1  0.66332000  0.38776000  0.02552000  1.0 -0.5763873781
O  O82  1  0.62816000  0.47862000  0.03404000  1.0 -0.8512924734
O  O83  1  0.38776000  0.66332000  0.92340000  1.0 -0.5741318953
O  O84  1  0.47862000  0.62816000  0.85918000  1.0 -0.8588009379
O  O85  1  0.02552000  0.92340000  0.66332000  1.0 -0.5763873781
O  O86  1  0.03404000  0.85918000  0.62816000  1.0 -0.8512924734
O  O87  1  0.92340000  0.02552000  0.38776000  1.0 -0.5763873781
O  O88  1  0.85918000  0.03404000  0.47862000  1.0 -0.8512924734
O  O89  1  0.92340000  0.38776000  0.66332000  1.0 -0.5763873781
O  O90  1  0.85918000  0.47862000  0.62816000  1.0 -0.8512924734
O  O91  1  0.02552000  0.66332000  0.38776000  1.0 -0.5763873781
O  O92  1  0.03404000  0.62816000  0.47862000  1.0 -0.8512924734
O  O93  1  0.38776000  0.92340000  0.02552000  1.0 -0.5763873781
O  O94  1  0.47862000  0.85918000  0.03404000  1.0 -0.8512924734
O  O95  1  0.66332000  0.02552000  0.92340000  1.0 -0.5763873781
O  O96  1  0.62816000  0.03404000  0.85918000  1.0 -0.8512924734
O  O97  1  0.97776000  0.54134000  0.97776000  1.0 -0.2686280589
O  O98  1  0.97776000  0.50314000  0.97776000  1.0 -0.2686280589
O  O99  1  0.54134000  0.97776000  0.50314000  1.0 -0.2686280589
O  O100  1  0.50314000  0.97776000  0.54134000  1.0 -0.2686280589
O  O101  1  0.54134000  0.97776000  0.97776000  1.0 -0.2609556956
O  O102  1  0.50314000  0.97776000  0.97776000  1.0 -0.2609556956
O  O103  1  0.97776000  0.50314000  0.54134000  1.0 -0.2686280589
O  O104  1  0.97776000  0.54134000  0.50314000  1.0 -0.2686280589
O  O105  1  0.97776000  0.97776000  0.54134000  1.0 -0.2686280589
O  O106  1  0.97776000  0.97776000  0.50314000  1.0 -0.2686280589
O  O107  1  0.50314000  0.54134000  0.97776000  1.0 -0.2686280589
O  O108  1  0.54134000  0.50314000  0.97776000  1.0 -0.2686280589
O  O109  1  0.02224000  0.49686000  0.02224000  1.0 -0.2686280589
O  O110  1  0.02224000  0.45866000  0.02224000  1.0 -0.2686280589
O  O111  1  0.45866000  0.02224000  0.49686000  1.0 -0.2686280589
O  O112  1  0.49686000  0.02224000  0.45866000  1.0 -0.2686280589
O  O113  1  0.45866000  0.49686000  0.02224000  1.0 -0.2686280589
O  O114  1  0.49686000  0.45866000  0.02224000  1.0 -0.2686280589
O  O115  1  0.02224000  0.02224000  0.45866000  1.0 -0.2686280589
O  O116  1  0.02224000  0.02224000  0.49686000  1.0 -0.2686280589
O  O117  1  0.02224000  0.49686000  0.45866000  1.0 -0.2686280589
O  O118  1  0.02224000  0.45866000  0.49686000  1.0 -0.2686280589
O  O119  1  0.49686000  0.02224000  0.02224000  1.0 -0.2686280589
O  O120  1  0.45866000  0.02224000  0.02224000  1.0 -0.2686280589
O  O121  1  0.94290000  0.46168000  0.05710000  1.0 -0.8588009379
O  O122  1  0.05710000  0.53832000  0.94290000  1.0 -0.8588009379
O  O123  1  0.46168000  0.94290000  0.53832000  1.0 -0.8588009379
O  O124  1  0.53832000  0.05710000  0.46168000  1.0 -0.8588009379
O  O125  1  0.46168000  0.05710000  0.94290000  1.0 -0.8588009379
O  O126  1  0.53832000  0.94290000  0.05710000  1.0 -0.8686434519
O  O127  1  0.94290000  0.53832000  0.46168000  1.0 -0.8588009379
O  O128  1  0.05710000  0.46168000  0.53832000  1.0 -0.8588009379
O  O129  1  0.05710000  0.94290000  0.46168000  1.0 -0.8588009379
O  O130  1  0.94290000  0.05710000  0.53832000  1.0 -0.8588009379
O  O131  1  0.53832000  0.46168000  0.94290000  1.0 -0.8588009379
O  O132  1  0.46168000  0.53832000  0.05710000  1.0 -0.8588009379
O  O133  1  0.05710000  0.46168000  0.94290000  1.0 -0.8588009379
O  O134  1  0.94290000  0.53832000  0.05710000  1.0 -0.8588009379
O  O135  1  0.53832000  0.94290000  0.46168000  1.0 -0.8686434519
O  O136  1  0.46168000  0.05710000  0.53832000  1.0 -0.8588009379
O  O137  1  0.53832000  0.46168000  0.05710000  1.0 -0.8588009379
O  O138  1  0.46168000  0.53832000  0.94290000  1.0 -0.8588009379
O  O139  1  0.05710000  0.94290000  0.53832000  1.0 -0.8588009379
O  O140  1  0.94290000  0.05710000  0.46168000  1.0 -0.8588009379
O  O141  1  0.94290000  0.46168000  0.53832000  1.0 -0.8588009379
O  O142  1  0.05710000  0.53832000  0.46168000  1.0 -0.8588009379
O  O143  1  0.46168000  0.94290000  0.05710000  1.0 -0.8588009379
O  O144  1  0.53832000  0.05710000  0.94290000  1.0 -0.8588009379
