# DDEC6 charges by PACMAN v1.1 (https://github.com/mtap-research/PACMAN-charge/)
data_OXUPUT_ASR_pacman
_symmetry_space_group_name_H-M   'P 1'
_cell_length_a   20.35390000
_cell_length_b   20.35390000
_cell_length_c   7.80100000
_cell_angle_alpha   90.00000000
_cell_angle_beta   90.00000000
_cell_angle_gamma   90.00000000
_symmetry_Int_Tables_number   1
_chemical_formula_structural   UP2H2C6(O3F)2
_chemical_formula_sum   'U8 P16 H16 C48 O48 F16'
_cell_volume   3231.80799388
_cell_formula_units_Z   8
loop_
 _symmetry_equiv_pos_site_id
 _symmetry_equiv_pos_as_xyz
  1  'x, y, z'
loop_
 _atom_site_type_symbol
 _atom_site_label
 _atom_site_symmetry_multiplicity
 _atom_site_fract_x
 _atom_site_fract_y
 _atom_site_fract_z
 _atom_site_occupancy
 _atom_site_charge
U  U1  1  0.00000000  0.65258000  0.95838000  1.0 2.2792745338
U  U2  1  0.00000000  0.34742000  0.95838000  1.0 2.2792745338
U  U3  1  0.15258000  0.50000000  0.45838000  1.0 2.2792745338
U  U4  1  0.84742000  0.50000000  0.45838000  1.0 2.2792745338
U  U5  1  0.50000000  0.84742000  0.54162000  1.0 2.2792745338
U  U6  1  0.50000000  0.15258000  0.54162000  1.0 2.2792745338
U  U7  1  0.65258000  0.00000000  0.04162000  1.0 2.2792745338
U  U8  1  0.34742000  0.00000000  0.04162000  1.0 2.2792745338
P  P1  1  0.88573000  0.67561000  0.31850000  1.0 1.3749421642
P  P2  1  0.11427000  0.32439000  0.31850000  1.0 1.3757031963
P  P3  1  0.17561000  0.61427000  0.81850000  1.0 1.3757031963
P  P4  1  0.82439000  0.38573000  0.81850000  1.0 1.3757031963
P  P5  1  0.38573000  0.82439000  0.18150000  1.0 1.3757031963
P  P6  1  0.61427000  0.17561000  0.18150000  1.0 1.3749421642
P  P7  1  0.67561000  0.88573000  0.68150000  1.0 1.3757031963
P  P8  1  0.32439000  0.11427000  0.68150000  1.0 1.3757031963
P  P9  1  0.61427000  0.82439000  0.18150000  1.0 1.3757031963
P  P10  1  0.38573000  0.17561000  0.18150000  1.0 1.3749421642
P  P11  1  0.32439000  0.88573000  0.68150000  1.0 1.3757031963
P  P12  1  0.67561000  0.11427000  0.68150000  1.0 1.3749421642
P  P13  1  0.11427000  0.67561000  0.31850000  1.0 1.3757031963
P  P14  1  0.88573000  0.32439000  0.31850000  1.0 1.3749421642
P  P15  1  0.82439000  0.61427000  0.81850000  1.0 1.3757031963
P  P16  1  0.17561000  0.38573000  0.81850000  1.0 1.3757031963
H  H1  1  0.75150000  0.64100000  0.33100000  1.0 0.1535750314
H  H2  1  0.24850000  0.35900000  0.33100000  1.0 0.1535750314
H  H3  1  0.14100000  0.74850000  0.83100000  1.0 0.1535750314
H  H4  1  0.85900000  0.25150000  0.83100000  1.0 0.1535750314
H  H5  1  0.25150000  0.85900000  0.16900000  1.0 0.1535750314
H  H6  1  0.74850000  0.14100000  0.16900000  1.0 0.1535750314
H  H7  1  0.64100000  0.75150000  0.66900000  1.0 0.1535750314
H  H8  1  0.35900000  0.24850000  0.66900000  1.0 0.1535750314
H  H9  1  0.74850000  0.85900000  0.16900000  1.0 0.1535750314
H  H10  1  0.25150000  0.14100000  0.16900000  1.0 0.1535750314
H  H11  1  0.35900000  0.75150000  0.66900000  1.0 0.1535750314
H  H12  1  0.64100000  0.24850000  0.66900000  1.0 0.1535750314
H  H13  1  0.24850000  0.64100000  0.33100000  1.0 0.1535750314
H  H14  1  0.75150000  0.35900000  0.33100000  1.0 0.1535750314
H  H15  1  0.85900000  0.74850000  0.83100000  1.0 0.1535750314
H  H16  1  0.14100000  0.25150000  0.83100000  1.0 0.1535750314
C  C1  1  0.80930000  0.71790000  0.28290000  1.0 -0.2075887664
C  C2  1  0.19070000  0.28210000  0.28290000  1.0 -0.2075887664
C  C3  1  0.21790000  0.69070000  0.78290000  1.0 -0.2075887664
C  C4  1  0.78210000  0.30930000  0.78290000  1.0 -0.2075887664
C  C5  1  0.30930000  0.78210000  0.21710000  1.0 -0.2075887664
C  C6  1  0.69070000  0.21790000  0.21710000  1.0 -0.2075887664
C  C7  1  0.71790000  0.80930000  0.71710000  1.0 -0.2075887664
C  C8  1  0.28210000  0.19070000  0.71710000  1.0 -0.2075887664
C  C9  1  0.69070000  0.78210000  0.21710000  1.0 -0.2075887664
C  C10  1  0.30930000  0.21790000  0.21710000  1.0 -0.2075887664
C  C11  1  0.28210000  0.80930000  0.71710000  1.0 -0.2075887664
C  C12  1  0.71790000  0.19070000  0.71710000  1.0 -0.2075887664
C  C13  1  0.19070000  0.71790000  0.28290000  1.0 -0.2075887664
C  C14  1  0.80930000  0.28210000  0.28290000  1.0 -0.2075887664
C  C15  1  0.78210000  0.69070000  0.78290000  1.0 -0.2075887664
C  C16  1  0.21790000  0.30930000  0.78290000  1.0 -0.2075887664
C  C17  1  0.80800000  0.78390000  0.23950000  1.0 0.1386684648
C  C18  1  0.19200000  0.21610000  0.23950000  1.0 0.1386684648
C  C19  1  0.28390000  0.69200000  0.73950000  1.0 0.1386684648
C  C20  1  0.71610000  0.30800000  0.73950000  1.0 0.1386684648
C  C21  1  0.30800000  0.71610000  0.26050000  1.0 0.1386684648
C  C22  1  0.69200000  0.28390000  0.26050000  1.0 0.1386684648
C  C23  1  0.78390000  0.80800000  0.76050000  1.0 0.1386684648
C  C24  1  0.21610000  0.19200000  0.76050000  1.0 0.1386684648
C  C25  1  0.69200000  0.71610000  0.26050000  1.0 0.1386684648
C  C26  1  0.30800000  0.28390000  0.26050000  1.0 0.1386684648
C  C27  1  0.21610000  0.80800000  0.76050000  1.0 0.1386684648
C  C28  1  0.78390000  0.19200000  0.76050000  1.0 0.1386684648
C  C29  1  0.19200000  0.78390000  0.23950000  1.0 0.1386684648
C  C30  1  0.80800000  0.21610000  0.23950000  1.0 0.1386684648
C  C31  1  0.71610000  0.69200000  0.73950000  1.0 0.1386684648
C  C32  1  0.28390000  0.30800000  0.73950000  1.0 0.1386684648
C  C33  1  0.75150000  0.68570000  0.29620000  1.0 -0.1224772248
C  C34  1  0.24850000  0.31430000  0.29620000  1.0 -0.1224772248
C  C35  1  0.18570000  0.74850000  0.79620000  1.0 -0.1224772248
C  C36  1  0.81430000  0.25150000  0.79620000  1.0 -0.1224772248
C  C37  1  0.25150000  0.81430000  0.20380000  1.0 -0.1224772248
C  C38  1  0.74850000  0.18570000  0.20380000  1.0 -0.1224772248
C  C39  1  0.68570000  0.75150000  0.70380000  1.0 -0.1224772248
C  C40  1  0.31430000  0.24850000  0.70380000  1.0 -0.1224772248
C  C41  1  0.74850000  0.81430000  0.20380000  1.0 -0.1224772248
C  C42  1  0.25150000  0.18570000  0.20380000  1.0 -0.1224772248
C  C43  1  0.31430000  0.75150000  0.70380000  1.0 -0.1224772248
C  C44  1  0.68570000  0.24850000  0.70380000  1.0 -0.1224772248
C  C45  1  0.24850000  0.68570000  0.29620000  1.0 -0.1224772248
C  C46  1  0.75150000  0.31430000  0.29620000  1.0 -0.1224772248
C  C47  1  0.81430000  0.74850000  0.79620000  1.0 -0.1224772248
C  C48  1  0.18570000  0.25150000  0.79620000  1.0 -0.1224772248
O  O1  1  0.92990000  0.68940000  0.16850000  1.0 -0.8431512235
O  O2  1  0.07010000  0.31060000  0.16850000  1.0 -0.8431512235
O  O3  1  0.18940000  0.57010000  0.66850000  1.0 -0.8431512235
O  O4  1  0.81060000  0.42990000  0.66850000  1.0 -0.8431512235
O  O5  1  0.42990000  0.81060000  0.33150000  1.0 -0.8431512235
O  O6  1  0.57010000  0.18940000  0.33150000  1.0 -0.8431512235
O  O7  1  0.68940000  0.92990000  0.83150000  1.0 -0.8431512235
O  O8  1  0.31060000  0.07010000  0.83150000  1.0 -0.8431512235
O  O9  1  0.57010000  0.81060000  0.33150000  1.0 -0.8431512235
O  O10  1  0.42990000  0.18940000  0.33150000  1.0 -0.8431512235
O  O11  1  0.31060000  0.92990000  0.83150000  1.0 -0.8431512235
O  O12  1  0.68940000  0.07010000  0.83150000  1.0 -0.8431512235
O  O13  1  0.07010000  0.68940000  0.16850000  1.0 -0.8431512235
O  O14  1  0.92990000  0.31060000  0.16850000  1.0 -0.8431512235
O  O15  1  0.81060000  0.57010000  0.66850000  1.0 -0.8431512235
O  O16  1  0.18940000  0.42990000  0.66850000  1.0 -0.8431512235
O  O17  1  0.87170000  0.60490000  0.35160000  1.0 -0.8921590938
O  O18  1  0.12830000  0.39510000  0.35160000  1.0 -0.8921590938
O  O19  1  0.10490000  0.62830000  0.85160000  1.0 -0.8921590938
O  O20  1  0.89510000  0.37170000  0.85160000  1.0 -0.8921590938
O  O21  1  0.37170000  0.89510000  0.14840000  1.0 -0.8921590938
O  O22  1  0.62830000  0.10490000  0.14840000  1.0 -0.8921590938
O  O23  1  0.60490000  0.87170000  0.64840000  1.0 -0.8921590938
O  O24  1  0.39510000  0.12830000  0.64840000  1.0 -0.8921590938
O  O25  1  0.62830000  0.89510000  0.14840000  1.0 -0.8921590938
O  O26  1  0.37170000  0.10490000  0.14840000  1.0 -0.8921590938
O  O27  1  0.39510000  0.87170000  0.64840000  1.0 -0.8921590938
O  O28  1  0.60490000  0.12830000  0.64840000  1.0 -0.8921590938
O  O29  1  0.12830000  0.60490000  0.35160000  1.0 -0.8921590938
O  O30  1  0.87170000  0.39510000  0.35160000  1.0 -0.8921590938
O  O31  1  0.89510000  0.62830000  0.85160000  1.0 -0.8921590938
O  O32  1  0.10490000  0.37170000  0.85160000  1.0 -0.8921590938
O  O33  1  0.91640000  0.70660000  0.48370000  1.0 -0.6741643145
O  O34  1  0.08360000  0.29340000  0.48370000  1.0 -0.6741643145
O  O35  1  0.20660000  0.58360000  0.98370000  1.0 -0.6741643145
O  O36  1  0.79340000  0.41640000  0.98370000  1.0 -0.6741643145
O  O37  1  0.41640000  0.79340000  0.01630000  1.0 -0.6741643145
O  O38  1  0.58360000  0.20660000  0.01630000  1.0 -0.6741643145
O  O39  1  0.70660000  0.91640000  0.51630000  1.0 -0.6741643145
O  O40  1  0.29340000  0.08360000  0.51630000  1.0 -0.6741643145
O  O41  1  0.58360000  0.79340000  0.01630000  1.0 -0.6741643145
O  O42  1  0.41640000  0.20660000  0.01630000  1.0 -0.6741643145
O  O43  1  0.29340000  0.91640000  0.51630000  1.0 -0.6741643145
O  O44  1  0.70660000  0.08360000  0.51630000  1.0 -0.6741643145
O  O45  1  0.08360000  0.70660000  0.48370000  1.0 -0.6741643145
O  O46  1  0.91640000  0.29340000  0.48370000  1.0 -0.6741643145
O  O47  1  0.79340000  0.58360000  0.98370000  1.0 -0.6741643145
O  O48  1  0.20660000  0.41640000  0.98370000  1.0 -0.6741643145
F  F1  1  0.87650000  0.83280000  0.23280000  1.0 -0.0678055139
F  F2  1  0.12350000  0.16720000  0.23280000  1.0 -0.0678055139
F  F3  1  0.33280000  0.62350000  0.73280000  1.0 -0.0678055139
F  F4  1  0.66720000  0.37650000  0.73280000  1.0 -0.0678055139
F  F5  1  0.37650000  0.66720000  0.26720000  1.0 -0.0678055139
F  F6  1  0.62350000  0.33280000  0.26720000  1.0 -0.0678055139
F  F7  1  0.83280000  0.87650000  0.76720000  1.0 -0.0678055139
F  F8  1  0.16720000  0.12350000  0.76720000  1.0 -0.0678055139
F  F9  1  0.62350000  0.66720000  0.26720000  1.0 -0.0678055139
F  F10  1  0.37650000  0.33280000  0.26720000  1.0 -0.0678055139
F  F11  1  0.16720000  0.87650000  0.76720000  1.0 -0.0678055139
F  F12  1  0.83280000  0.12350000  0.76720000  1.0 -0.0678055139
F  F13  1  0.12350000  0.83280000  0.23280000  1.0 -0.0678055139
F  F14  1  0.87650000  0.16720000  0.23280000  1.0 -0.0678055139
F  F15  1  0.66720000  0.62350000  0.73280000  1.0 -0.0678055139
F  F16  1  0.33280000  0.37650000  0.73280000  1.0 -0.0678055139
