# DDEC6 charges by PACMAN v1.1 (https://github.com/mtap-research/PACMAN-charge/)
data_OXUROQ_ASR_pacman
_symmetry_space_group_name_H-M   'P 1'
_cell_length_a   14.05410000
_cell_length_b   12.98610000
_cell_length_c   18.19850000
_cell_angle_alpha   90.00000000
_cell_angle_beta   110.13400000
_cell_angle_gamma   90.00000000
_symmetry_Int_Tables_number   1
_chemical_formula_structural   ZnC29N6(O2F3)2
_chemical_formula_sum   'Zn4 C116 N24 O16 F24'
_cell_volume   3118.40243145
_cell_formula_units_Z   4
loop_
 _symmetry_equiv_pos_site_id
 _symmetry_equiv_pos_as_xyz
  1  'x, y, z'
loop_
 _atom_site_type_symbol
 _atom_site_label
 _atom_site_symmetry_multiplicity
 _atom_site_fract_x
 _atom_site_fract_y
 _atom_site_fract_z
 _atom_site_occupancy
 _atom_site_charge
Zn  Zn1  1  0.64483000  0.74742000  0.12383000  1.0 0.8618381091
Zn  Zn2  1  0.35517000  0.24742000  0.37617000  1.0 0.8618381091
Zn  Zn3  1  0.35517000  0.25258000  0.87617000  1.0 0.8618381091
Zn  Zn4  1  0.64483000  0.75258000  0.62383000  1.0 0.8618381091
C  C1  1  0.74080000  0.78330000  0.03010000  1.0 0.5815515736
C  C2  1  0.81280000  0.79590000  0.98650000  1.0 -0.0418115423
C  C3  1  0.90760000  0.74980000  0.01140000  1.0 0.050847309
C  C4  1  0.97390000  0.76700000  0.97060000  1.0 -0.0181808152
C  C5  1  0.94580000  0.82910000  0.90420000  1.0 0.0708875762
C  C6  1  0.85000000  0.87440000  0.87870000  1.0 -0.0795019266
C  C7  1  0.78530000  0.85710000  0.92010000  1.0 0.0563560606
C  C8  1  0.01770000  0.83870000  0.85630000  1.0 -0.2580915621
C  C9  1  0.98760000  0.75370000  0.79320000  1.0 0.668210096
C  C10  1  0.00880000  0.94500000  0.81610000  1.0 0.668210096
C  C11  1  0.13030000  0.82820000  0.91130000  1.0 0.0708875762
C  C12  1  0.16650000  0.89620000  0.97370000  1.0 -0.0464351314
C  C13  1  0.26730000  0.89290000  0.02250000  1.0 0.0758216971
C  C14  1  0.33260000  0.81790000  0.01140000  1.0 -0.0418115423
C  C15  1  0.29600000  0.74880000  0.95170000  1.0 0.0163095864
C  C16  1  0.19630000  0.75320000  0.89990000  1.0 -0.0464351314
C  C17  1  0.44200000  0.81740000  0.06610000  1.0 0.6086851277
C  C18  1  0.69170000  0.86620000  0.27620000  1.0 0.0399304786
C  C19  1  0.68680000  0.96530000  0.29770000  1.0 0.0399304786
C  C20  1  0.68720000  0.96040000  0.17640000  1.0 0.1377828152
C  C21  1  0.67170000  0.13460000  0.22760000  1.0 0.08815399
C  C22  1  0.74380000  0.19640000  0.28210000  1.0 -0.0795019266
C  C23  1  0.73170000  0.30290000  0.27860000  1.0 -0.0901111613
C  C24  1  0.64810000  0.34340000  0.22010000  1.0 0.08815399
C  C25  1  0.57430000  0.28420000  0.16600000  1.0 0.1059086577
C  C26  1  0.58660000  0.17470000  0.16910000  1.0 0.0988773455
C  C27  1  0.67030000  0.52190000  0.17550000  1.0 0.08815399
C  C28  1  0.57840000  0.50840000  0.25190000  1.0 0.050847309
C  C29  1  0.58240000  0.60810000  0.23260000  1.0 0.0295151131
C  C30  1  0.25920000  0.28330000  0.46990000  1.0 0.5815515736
C  C31  1  0.18720000  0.29590000  0.51350000  1.0 -0.0418115423
C  C32  1  0.09240000  0.24980000  0.48860000  1.0 0.050847309
C  C33  1  0.02610000  0.26700000  0.52940000  1.0 -0.0181808152
C  C34  1  0.05420000  0.32910000  0.59580000  1.0 0.0708875762
C  C35  1  0.15000000  0.37440000  0.62130000  1.0 -0.0795019266
C  C36  1  0.21470000  0.35710000  0.57990000  1.0 0.050847309
C  C37  1  0.98230000  0.33870000  0.64370000  1.0 -0.2580915621
C  C38  1  0.01240000  0.25370000  0.70680000  1.0 0.668210096
C  C39  1  0.99120000  0.44500000  0.68390000  1.0 0.668210096
C  C40  1  0.86970000  0.32820000  0.58870000  1.0 0.0758216971
C  C41  1  0.83350000  0.39620000  0.52630000  1.0 -0.0464351314
C  C42  1  0.73270000  0.39290000  0.47750000  1.0 0.0758216971
C  C43  1  0.66740000  0.31790000  0.48860000  1.0 -0.0418115423
C  C44  1  0.70400000  0.24880000  0.54830000  1.0 0.0163095864
C  C45  1  0.80370000  0.25320000  0.60010000  1.0 -0.0464351314
C  C46  1  0.55800000  0.31740000  0.43390000  1.0 0.6086851277
C  C47  1  0.30830000  0.36620000  0.22380000  1.0 0.0399304786
C  C48  1  0.31320000  0.46530000  0.20230000  1.0 0.0295151131
C  C49  1  0.31280000  0.46040000  0.32360000  1.0 0.1377828152
C  C50  1  0.32830000  0.63460000  0.27240000  1.0 0.08815399
C  C51  1  0.25620000  0.69640000  0.21790000  1.0 -0.0795019266
C  C52  1  0.26830000  0.80290000  0.22140000  1.0 -0.0901111613
C  C53  1  0.35190000  0.84340000  0.27990000  1.0 0.08815399
C  C54  1  0.42570000  0.78420000  0.33400000  1.0 0.1059086577
C  C55  1  0.41340000  0.67470000  0.33090000  1.0 0.0988773455
C  C56  1  0.32970000  0.02190000  0.32450000  1.0 0.08815399
C  C57  1  0.42160000  0.00840000  0.24810000  1.0 0.050847309
C  C58  1  0.41760000  0.10810000  0.26740000  1.0 0.0295151131
C  C59  1  0.25920000  0.21670000  0.96990000  1.0 0.5815515736
C  C60  1  0.18720000  0.20410000  0.01350000  1.0 -0.0418115423
C  C61  1  0.09240000  0.25020000  0.98860000  1.0 0.050847309
C  C62  1  0.02610000  0.23300000  0.02940000  1.0 -0.0181808152
C  C63  1  0.05420000  0.17090000  0.09580000  1.0 0.0708875762
C  C64  1  0.15000000  0.12560000  0.12130000  1.0 -0.0795019266
C  C65  1  0.21470000  0.14290000  0.07990000  1.0 0.050847309
C  C66  1  0.98230000  0.16130000  0.14370000  1.0 -0.2580915621
C  C67  1  0.01240000  0.24630000  0.20680000  1.0 0.668210096
C  C68  1  0.99120000  0.05500000  0.18390000  1.0 0.668210096
C  C69  1  0.86970000  0.17180000  0.08870000  1.0 0.0758216971
C  C70  1  0.83350000  0.10380000  0.02630000  1.0 -0.0464351314
C  C71  1  0.73270000  0.10710000  0.97750000  1.0 0.0758216971
C  C72  1  0.66740000  0.18210000  0.98860000  1.0 -0.0418115423
C  C73  1  0.70400000  0.25120000  0.04830000  1.0 0.0163095864
C  C74  1  0.80370000  0.24680000  0.10010000  1.0 -0.0464351314
C  C75  1  0.55800000  0.18260000  0.93390000  1.0 0.6086851277
C  C76  1  0.30830000  0.13380000  0.72380000  1.0 0.0399304786
C  C77  1  0.31320000  0.03470000  0.70230000  1.0 0.0399304786
C  C78  1  0.31280000  0.03960000  0.82360000  1.0 0.1377828152
C  C79  1  0.32830000  0.86540000  0.77240000  1.0 0.08815399
C  C80  1  0.25620000  0.80360000  0.71790000  1.0 -0.0795019266
C  C81  1  0.26830000  0.69710000  0.72140000  1.0 -0.0901111613
C  C82  1  0.35190000  0.65660000  0.77990000  1.0 0.08815399
C  C83  1  0.42570000  0.71580000  0.83400000  1.0 0.1059086577
C  C84  1  0.41340000  0.82530000  0.83090000  1.0 0.0988773455
C  C85  1  0.32970000  0.47810000  0.82450000  1.0 0.08815399
C  C86  1  0.42160000  0.49160000  0.74810000  1.0 0.050847309
C  C87  1  0.41760000  0.39190000  0.76740000  1.0 0.0295151131
C  C88  1  0.74080000  0.71670000  0.53010000  1.0 0.5815515736
C  C89  1  0.81280000  0.70410000  0.48650000  1.0 -0.0418115423
C  C90  1  0.90760000  0.75020000  0.51140000  1.0 0.050847309
C  C91  1  0.97390000  0.73300000  0.47060000  1.0 -0.0181808152
C  C92  1  0.94580000  0.67090000  0.40420000  1.0 0.0708875762
C  C93  1  0.85000000  0.62560000  0.37870000  1.0 -0.0795019266
C  C94  1  0.78530000  0.64290000  0.42010000  1.0 0.050847309
C  C95  1  0.01770000  0.66130000  0.35630000  1.0 -0.2580915621
C  C96  1  0.98760000  0.74630000  0.29320000  1.0 0.668210096
C  C97  1  0.00880000  0.55500000  0.31610000  1.0 0.668210096
C  C98  1  0.13030000  0.67180000  0.41130000  1.0 0.0708875762
C  C99  1  0.16650000  0.60380000  0.47370000  1.0 -0.0464351314
C  C100  1  0.26730000  0.60710000  0.52250000  1.0 0.0758216971
C  C101  1  0.33260000  0.68210000  0.51140000  1.0 -0.0418115423
C  C102  1  0.29600000  0.75120000  0.45170000  1.0 0.0163095864
C  C103  1  0.19630000  0.74680000  0.39990000  1.0 -0.0464351314
C  C104  1  0.44200000  0.68260000  0.56610000  1.0 0.6086851277
C  C105  1  0.69170000  0.63380000  0.77620000  1.0 0.050847309
C  C106  1  0.68680000  0.53470000  0.79770000  1.0 0.0295151131
C  C107  1  0.68720000  0.53960000  0.67640000  1.0 0.1377828152
C  C108  1  0.67170000  0.36540000  0.72760000  1.0 0.08815399
C  C109  1  0.74380000  0.30360000  0.78210000  1.0 -0.0795019266
C  C110  1  0.73170000  0.19710000  0.77860000  1.0 -0.0901111613
C  C111  1  0.64810000  0.15660000  0.72010000  1.0 0.08815399
C  C112  1  0.57430000  0.21580000  0.66600000  1.0 0.1059086577
C  C113  1  0.58660000  0.32530000  0.66910000  1.0 0.0988773455
C  C114  1  0.67030000  0.97810000  0.67550000  1.0 0.08815399
C  C115  1  0.57840000  0.99160000  0.75190000  1.0 0.050847309
C  C116  1  0.58240000  0.89190000  0.73260000  1.0 0.0295151131
N  N1  1  0.69240000  0.86350000  0.20020000  1.0 -0.2342489741
N  N2  1  0.68410000  0.02490000  0.23320000  1.0 -0.0181808152
N  N3  1  0.51530000  0.11470000  0.11500000  1.0 0.0016853686
N  N4  1  0.48790000  0.32410000  0.11070000  1.0 -0.1392009749
N  N5  1  0.63450000  0.45450000  0.21650000  1.0 -0.0115703272
N  N6  1  0.64060000  0.61670000  0.18410000  1.0 -0.2000155027
N  N7  1  0.30760000  0.36350000  0.29980000  1.0 -0.2342489741
N  N8  1  0.31590000  0.52490000  0.26680000  1.0 -0.0181808152
N  N9  1  0.48470000  0.61470000  0.38500000  1.0 0.0016853686
N  N10  1  0.51210000  0.82410000  0.38930000  1.0 -0.1392009749
N  N11  1  0.36550000  0.95450000  0.28350000  1.0 -0.0115703272
N  N12  1  0.35940000  0.11670000  0.31590000  1.0 -0.2000155027
N  N13  1  0.30760000  0.13650000  0.79980000  1.0 -0.2342489741
N  N14  1  0.31590000  0.97510000  0.76680000  1.0 -0.0181808152
N  N15  1  0.48470000  0.88530000  0.88500000  1.0 0.0016853686
N  N16  1  0.51210000  0.67590000  0.88930000  1.0 -0.1392009749
N  N17  1  0.36550000  0.54550000  0.78350000  1.0 -0.0115703272
N  N18  1  0.35940000  0.38330000  0.81590000  1.0 -0.2000155027
N  N19  1  0.69240000  0.63650000  0.70020000  1.0 -0.2342489741
N  N20  1  0.68410000  0.47510000  0.73320000  1.0 -0.0181808152
N  N21  1  0.51530000  0.38530000  0.61500000  1.0 0.0051218706
N  N22  1  0.48790000  0.17590000  0.61070000  1.0 -0.1392009749
N  N23  1  0.63450000  0.04550000  0.71650000  1.0 -0.0115703272
N  N24  1  0.64060000  0.88330000  0.68410000  1.0 -0.2000155027
O  O1  1  0.75210000  0.70830000  0.07590000  1.0 -0.5058946542
O  O2  1  0.67210000  0.84690000  0.02140000  1.0 -0.4893768808
O  O3  1  0.49770000  0.74310000  0.05860000  1.0 -0.5295155874
O  O4  1  0.47200000  0.88740000  0.11370000  1.0 -0.5179380408
O  O5  1  0.24790000  0.20830000  0.42410000  1.0 -0.5058946542
O  O6  1  0.32790000  0.34690000  0.47860000  1.0 -0.4893768808
O  O7  1  0.50230000  0.24310000  0.44140000  1.0 -0.5295155874
O  O8  1  0.52800000  0.38740000  0.38630000  1.0 -0.5179380408
O  O9  1  0.24790000  0.29170000  0.92410000  1.0 -0.5058946542
O  O10  1  0.32790000  0.15310000  0.97860000  1.0 -0.4893768808
O  O11  1  0.50230000  0.25690000  0.94140000  1.0 -0.5295155874
O  O12  1  0.52800000  0.11260000  0.88630000  1.0 -0.5179380408
O  O13  1  0.75210000  0.79170000  0.57590000  1.0 -0.5058946542
O  O14  1  0.67210000  0.65310000  0.52140000  1.0 -0.4893768808
O  O15  1  0.49770000  0.75690000  0.55860000  1.0 -0.5295155874
O  O16  1  0.47200000  0.61260000  0.61370000  1.0 -0.5179380408
F  F1  1  0.88850000  0.76060000  0.75110000  1.0 -0.1897447315
F  F2  1  0.00220000  0.66050000  0.82510000  1.0 -0.1897447315
F  F3  1  0.03720000  0.76000000  0.74330000  1.0 -0.1897447315
F  F4  1  0.00900000  0.02160000  0.86310000  1.0 -0.1897447315
F  F5  1  0.92480000  0.95470000  0.75240000  1.0 -0.1897447315
F  F6  1  0.08540000  0.96190000  0.79020000  1.0 -0.2000155027
F  F7  1  0.11150000  0.26060000  0.74890000  1.0 -0.1897447315
F  F8  1  0.99780000  0.16050000  0.67490000  1.0 -0.1897447315
F  F9  1  0.96280000  0.26000000  0.75670000  1.0 -0.1897447315
F  F10  1  0.99100000  0.52160000  0.63690000  1.0 -0.1897447315
F  F11  1  0.07520000  0.45470000  0.74760000  1.0 -0.1897447315
F  F12  1  0.91460000  0.46190000  0.70980000  1.0 -0.2000155027
F  F13  1  0.11150000  0.23940000  0.24890000  1.0 -0.1897447315
F  F14  1  0.99780000  0.33950000  0.17490000  1.0 -0.1897447315
F  F15  1  0.96280000  0.24000000  0.25670000  1.0 -0.1897447315
F  F16  1  0.99100000  0.97840000  0.13690000  1.0 -0.1845400712
F  F17  1  0.07520000  0.04530000  0.24760000  1.0 -0.1897447315
F  F18  1  0.91460000  0.03810000  0.20980000  1.0 -0.2000155027
F  F19  1  0.88850000  0.73940000  0.25110000  1.0 -0.1897447315
F  F20  1  0.00220000  0.83950000  0.32510000  1.0 -0.1897447315
F  F21  1  0.03720000  0.74000000  0.24330000  1.0 -0.1897447315
F  F22  1  0.00900000  0.47840000  0.36310000  1.0 -0.1897447315
F  F23  1  0.92480000  0.54530000  0.25240000  1.0 -0.1897447315
F  F24  1  0.08540000  0.53810000  0.29020000  1.0 -0.2000155027
