# DDEC6 charges by PACMAN v1.1 (https://github.com/mtap-research/PACMAN-charge/)
data_OYADOK_ASR_pacman
_symmetry_space_group_name_H-M   'P 1'
_cell_length_a   27.46260000
_cell_length_b   27.46260000
_cell_length_c   27.46260000
_cell_angle_alpha   60.00000000
_cell_angle_beta   60.00000000
_cell_angle_gamma   60.00000000
_symmetry_Int_Tables_number   1
_chemical_formula_structural   Zr3C12(SO6)2
_chemical_formula_sum   'Zr36 C144 S24 O144'
_cell_volume   14645.69400723
_cell_formula_units_Z   12
loop_
 _symmetry_equiv_pos_site_id
 _symmetry_equiv_pos_as_xyz
  1  'x, y, z'
loop_
 _atom_site_type_symbol
 _atom_site_label
 _atom_site_symmetry_multiplicity
 _atom_site_fract_x
 _atom_site_fract_y
 _atom_site_fract_z
 _atom_site_occupancy
 _atom_site_charge
Zr  Zr1  1  0.88050000  0.54972000  0.02006000  1.0 1.4925080317
Zr  Zr2  1  0.02006000  0.54972000  0.88050000  1.0 1.4984360183
Zr  Zr3  1  0.54972000  0.88050000  0.54972000  1.0 1.483521456
Zr  Zr4  1  0.54972000  0.02006000  0.54972000  1.0 1.4925080317
Zr  Zr5  1  0.54972000  0.02006000  0.88050000  1.0 1.4984360183
Zr  Zr6  1  0.54972000  0.88050000  0.02006000  1.0 1.4984360183
Zr  Zr7  1  0.88050000  0.54972000  0.54972000  1.0 1.483521456
Zr  Zr8  1  0.02006000  0.54972000  0.54972000  1.0 1.4984360183
Zr  Zr9  1  0.02006000  0.88050000  0.54972000  1.0 1.4925080317
Zr  Zr10  1  0.88050000  0.02006000  0.54972000  1.0 1.483521456
Zr  Zr11  1  0.54972000  0.54972000  0.88050000  1.0 1.483521456
Zr  Zr12  1  0.54972000  0.54972000  0.02006000  1.0 1.5089729672
Zr  Zr13  1  0.11950000  0.45028000  0.97994000  1.0 1.4925080317
Zr  Zr14  1  0.97994000  0.45028000  0.11950000  1.0 1.5089729672
Zr  Zr15  1  0.45028000  0.97994000  0.45028000  1.0 1.4925080317
Zr  Zr16  1  0.45028000  0.11950000  0.45028000  1.0 1.4984360183
Zr  Zr17  1  0.45028000  0.45028000  0.11950000  1.0 1.4925080317
Zr  Zr18  1  0.45028000  0.45028000  0.97994000  1.0 1.4925080317
Zr  Zr19  1  0.11950000  0.97994000  0.45028000  1.0 1.4925080317
Zr  Zr20  1  0.97994000  0.11950000  0.45028000  1.0 1.4925080317
Zr  Zr21  1  0.97994000  0.45028000  0.45028000  1.0 1.4984360183
Zr  Zr22  1  0.11950000  0.45028000  0.45028000  1.0 1.4984360183
Zr  Zr23  1  0.45028000  0.97994000  0.11950000  1.0 1.4984360183
Zr  Zr24  1  0.45028000  0.11950000  0.97994000  1.0 1.4984360183
Zr  Zr25  1  0.00000000  0.58640000  0.00000000  1.0 1.5286203965
Zr  Zr26  1  0.00000000  0.41360000  0.00000000  1.0 1.5286203965
Zr  Zr27  1  0.58640000  0.00000000  0.41360000  1.0 1.5286203965
Zr  Zr28  1  0.41360000  0.00000000  0.58640000  1.0 1.5286203965
Zr  Zr29  1  0.58640000  0.00000000  0.00000000  1.0 1.5286203965
Zr  Zr30  1  0.41360000  0.00000000  0.00000000  1.0 1.5286203965
Zr  Zr31  1  0.00000000  0.41360000  0.58640000  1.0 1.5286203965
Zr  Zr32  1  0.00000000  0.58640000  0.41360000  1.0 1.5286203965
Zr  Zr33  1  0.00000000  0.00000000  0.58640000  1.0 1.5286203965
Zr  Zr34  1  0.00000000  0.00000000  0.41360000  1.0 1.5286203965
Zr  Zr35  1  0.41360000  0.58640000  0.00000000  1.0 1.5286203965
Zr  Zr36  1  0.58640000  0.41360000  0.00000000  1.0 1.5286203965
C  C1  1  0.02063000  0.68061000  0.86796000  1.0 0.5165061629
C  C2  1  0.99439000  0.73241000  0.82183000  1.0 -0.2429338651
C  C3  1  0.00099000  0.77637000  0.82631000  1.0 -0.0913437101
C  C4  1  0.86796000  0.43080000  0.02064000  1.0 0.5165061629
C  C5  1  0.82183000  0.45137000  0.99439000  1.0 -0.2429338651
C  C6  1  0.82631000  0.39633000  0.00099000  1.0 -0.0913437101
C  C7  1  0.68060000  0.02064000  0.43080000  1.0 0.5132999602
C  C8  1  0.73241000  0.99439000  0.45137000  1.0 -0.2466465617
C  C9  1  0.77637000  0.00099000  0.39633000  1.0 -0.0913437101
C  C10  1  0.43080000  0.86795000  0.68060000  1.0 0.5165061629
C  C11  1  0.45137000  0.82183000  0.73241000  1.0 -0.2466465617
C  C12  1  0.39633000  0.82631000  0.77637000  1.0 -0.0913437101
C  C13  1  0.68060000  0.86795000  0.02064000  1.0 0.5132999602
C  C14  1  0.73241000  0.82183000  0.99439000  1.0 -0.2466465617
C  C15  1  0.77637000  0.82631000  0.00099000  1.0 -0.0913437101
C  C16  1  0.43080000  0.02064000  0.86796000  1.0 0.5132999602
C  C17  1  0.45137000  0.99439000  0.82183000  1.0 -0.2429338651
C  C18  1  0.39633000  0.00099000  0.82631000  1.0 -0.0913437101
C  C19  1  0.02064000  0.43081000  0.68060000  1.0 0.5132999602
C  C20  1  0.99439000  0.45137000  0.73241000  1.0 -0.2466465617
C  C21  1  0.00099000  0.39633000  0.77637000  1.0 -0.0913437101
C  C22  1  0.86796000  0.68061000  0.43080000  1.0 0.5165061629
C  C23  1  0.82183000  0.73241000  0.45137000  1.0 -0.2466465617
C  C24  1  0.82631000  0.77637000  0.39633000  1.0 -0.0913437101
C  C25  1  0.86796000  0.02064000  0.68060000  1.0 0.5165061629
C  C26  1  0.82183000  0.99439000  0.73241000  1.0 -0.2466465617
C  C27  1  0.82631000  0.00099000  0.77637000  1.0 -0.0913437101
C  C28  1  0.02063000  0.86795000  0.43080000  1.0 0.5132999602
C  C29  1  0.99439000  0.82183000  0.45137000  1.0 -0.2466465617
C  C30  1  0.00099000  0.82631000  0.39633000  1.0 -0.0913437101
C  C31  1  0.43080000  0.68060000  0.02064000  1.0 0.5132999602
C  C32  1  0.45137000  0.73241000  0.99439000  1.0 -0.2429338651
C  C33  1  0.39633000  0.77637000  0.00099000  1.0 -0.0913437101
C  C34  1  0.68060000  0.43080000  0.86796000  1.0 0.5132999602
C  C35  1  0.73241000  0.45137000  0.82183000  1.0 -0.2466465617
C  C36  1  0.77637000  0.39633000  0.82631000  1.0 -0.0913437101
C  C37  1  0.97937000  0.56920000  0.13204000  1.0 0.5165061629
C  C38  1  0.00561000  0.54863000  0.17817000  1.0 -0.2466465617
C  C39  1  0.99901000  0.60367000  0.17369000  1.0 -0.0913437101
C  C40  1  0.13205000  0.31940000  0.97936000  1.0 0.5132999602
C  C41  1  0.17817000  0.26759000  0.00561000  1.0 -0.2429338651
C  C42  1  0.17369000  0.22363000  0.99901000  1.0 -0.0913437101
C  C43  1  0.31940000  0.13204000  0.56920000  1.0 0.5165061629
C  C44  1  0.26759000  0.17817000  0.54863000  1.0 -0.2429338651
C  C45  1  0.22363000  0.17369000  0.60367000  1.0 -0.0913437101
C  C46  1  0.56920000  0.97937000  0.31939000  1.0 0.5132999602
C  C47  1  0.54863000  0.00561000  0.26759000  1.0 -0.2429338651
C  C48  1  0.60367000  0.99901000  0.22363000  1.0 -0.0913437101
C  C49  1  0.31940000  0.56919000  0.97936000  1.0 0.5132999602
C  C50  1  0.26759000  0.54863000  0.00561000  1.0 -0.2429338651
C  C51  1  0.22363000  0.60367000  0.99901000  1.0 -0.0913437101
C  C52  1  0.56919000  0.31940000  0.13204000  1.0 0.5132999602
C  C53  1  0.54863000  0.26759000  0.17817000  1.0 -0.2429338651
C  C54  1  0.60367000  0.22363000  0.17369000  1.0 -0.0913437101
C  C55  1  0.97937000  0.13204000  0.31939000  1.0 0.5132999602
C  C56  1  0.00561000  0.17817000  0.26759000  1.0 -0.2466465617
C  C57  1  0.99901000  0.17369000  0.22363000  1.0 -0.0913437101
C  C58  1  0.13204000  0.97937000  0.56920000  1.0 0.5132999602
C  C59  1  0.17817000  0.00561000  0.54863000  1.0 -0.2429338651
C  C60  1  0.17369000  0.99901000  0.60367000  1.0 -0.0913437101
C  C61  1  0.13204000  0.56920000  0.31939000  1.0 0.5165061629
C  C62  1  0.17817000  0.54863000  0.26759000  1.0 -0.2466465617
C  C63  1  0.17369000  0.60367000  0.22363000  1.0 -0.0913437101
C  C64  1  0.97936000  0.31939000  0.56920000  1.0 0.5165061629
C  C65  1  0.00561000  0.26759000  0.54863000  1.0 -0.2429338651
C  C66  1  0.99901000  0.22363000  0.60367000  1.0 -0.0913437101
C  C67  1  0.56919000  0.13204000  0.97936000  1.0 0.5132999602
C  C68  1  0.54863000  0.17817000  0.00561000  1.0 -0.2466465617
C  C69  1  0.60367000  0.17369000  0.99901000  1.0 -0.0913437101
C  C70  1  0.31940000  0.97937000  0.13204000  1.0 0.5132999602
C  C71  1  0.26759000  0.00561000  0.17817000  1.0 -0.2429338651
C  C72  1  0.22363000  0.99901000  0.17369000  1.0 -0.0913437101
C  C73  1  0.97937000  0.31940000  0.13204000  1.0 0.5165061629
C  C74  1  0.00561000  0.26759000  0.17817000  1.0 -0.2466465617
C  C75  1  0.99901000  0.22363000  0.17369000  1.0 -0.0913437101
C  C76  1  0.13205000  0.56919000  0.97936000  1.0 0.5132999602
C  C77  1  0.17817000  0.54863000  0.00561000  1.0 -0.2429338651
C  C78  1  0.17369000  0.60367000  0.99901000  1.0 -0.0913437101
C  C79  1  0.31940000  0.97937000  0.56920000  1.0 0.5132999602
C  C80  1  0.26759000  0.00561000  0.54863000  1.0 -0.2429338651
C  C81  1  0.22363000  0.99901000  0.60367000  1.0 -0.0913437101
C  C82  1  0.56919000  0.13204000  0.31939000  1.0 0.5132999602
C  C83  1  0.54863000  0.17817000  0.26759000  1.0 -0.2429338651
C  C84  1  0.60367000  0.17369000  0.22363000  1.0 -0.0913437101
C  C85  1  0.31940000  0.13204000  0.97936000  1.0 0.5165061629
C  C86  1  0.26759000  0.17817000  0.00561000  1.0 -0.2429338651
C  C87  1  0.22363000  0.17369000  0.99901000  1.0 -0.0913437101
C  C88  1  0.56920000  0.97937000  0.13204000  1.0 0.5165061629
C  C89  1  0.54863000  0.00561000  0.17817000  1.0 -0.2466465617
C  C90  1  0.60367000  0.99901000  0.17369000  1.0 -0.0913437101
C  C91  1  0.97937000  0.56920000  0.31939000  1.0 0.5165061629
C  C92  1  0.00561000  0.54863000  0.26759000  1.0 -0.2466465617
C  C93  1  0.99901000  0.60367000  0.22363000  1.0 -0.0913437101
C  C94  1  0.13204000  0.31939000  0.56920000  1.0 0.5132999602
C  C95  1  0.17817000  0.26759000  0.54863000  1.0 -0.2429338651
C  C96  1  0.17369000  0.22363000  0.60367000  1.0 -0.0913437101
C  C97  1  0.13204000  0.97937000  0.31939000  1.0 0.5132999602
C  C98  1  0.17817000  0.00561000  0.26759000  1.0 -0.2429338651
C  C99  1  0.17369000  0.99901000  0.22363000  1.0 -0.0913437101
C  C100  1  0.97937000  0.13204000  0.56920000  1.0 0.5132999602
C  C101  1  0.00561000  0.17817000  0.54863000  1.0 -0.2429338651
C  C102  1  0.99901000  0.17369000  0.60367000  1.0 -0.0913437101
C  C103  1  0.56919000  0.31940000  0.97936000  1.0 0.5132999602
C  C104  1  0.54863000  0.26759000  0.00561000  1.0 -0.2466465617
C  C105  1  0.60367000  0.22363000  0.99901000  1.0 -0.0913437101
C  C106  1  0.31939000  0.56920000  0.13204000  1.0 0.5132999602
C  C107  1  0.26759000  0.54863000  0.17817000  1.0 -0.2466465617
C  C108  1  0.22363000  0.60367000  0.17369000  1.0 -0.0913437101
C  C109  1  0.02063000  0.43080000  0.86796000  1.0 0.5132999602
C  C110  1  0.99439000  0.45137000  0.82183000  1.0 -0.2466465617
C  C111  1  0.00099000  0.39633000  0.82631000  1.0 -0.0913437101
C  C112  1  0.86796000  0.68060000  0.02064000  1.0 0.5132999602
C  C113  1  0.82183000  0.73241000  0.99439000  1.0 -0.2466465617
C  C114  1  0.82631000  0.77637000  0.00099000  1.0 -0.0913437101
C  C115  1  0.68060000  0.86795000  0.43080000  1.0 0.5132999602
C  C116  1  0.73241000  0.82183000  0.45137000  1.0 -0.2466465617
C  C117  1  0.77637000  0.82631000  0.39633000  1.0 -0.0913437101
C  C118  1  0.43081000  0.02064000  0.68060000  1.0 0.5165061629
C  C119  1  0.45137000  0.99439000  0.73241000  1.0 -0.2429338651
C  C120  1  0.39633000  0.00099000  0.77637000  1.0 -0.0913437101
C  C121  1  0.68060000  0.43080000  0.02064000  1.0 0.5165061629
C  C122  1  0.73241000  0.45137000  0.99439000  1.0 -0.2429338651
C  C123  1  0.77637000  0.39633000  0.00099000  1.0 -0.0913437101
C  C124  1  0.43080000  0.68061000  0.86796000  1.0 0.5165061629
C  C125  1  0.45137000  0.73241000  0.82183000  1.0 -0.2466465617
C  C126  1  0.39633000  0.77637000  0.82631000  1.0 -0.0913437101
C  C127  1  0.02064000  0.86795000  0.68060000  1.0 0.5165061629
C  C128  1  0.99439000  0.82183000  0.73241000  1.0 -0.2429338651
C  C129  1  0.00099000  0.82631000  0.77637000  1.0 -0.0913437101
C  C130  1  0.86796000  0.02064000  0.43080000  1.0 0.5132999602
C  C131  1  0.82183000  0.99439000  0.45137000  1.0 -0.2466465617
C  C132  1  0.82631000  0.00099000  0.39633000  1.0 -0.0913437101
C  C133  1  0.86796000  0.43081000  0.68060000  1.0 0.5132999602
C  C134  1  0.82183000  0.45137000  0.73241000  1.0 -0.2466465617
C  C135  1  0.82631000  0.39633000  0.77637000  1.0 -0.0913437101
C  C136  1  0.02064000  0.68061000  0.43080000  1.0 0.5165061629
C  C137  1  0.99439000  0.73241000  0.45137000  1.0 -0.2466465617
C  C138  1  0.00099000  0.77637000  0.39633000  1.0 -0.0913437101
C  C139  1  0.43080000  0.86795000  0.02064000  1.0 0.5165061629
C  C140  1  0.45137000  0.82183000  0.99439000  1.0 -0.2429338651
C  C141  1  0.39633000  0.82631000  0.00099000  1.0 -0.0913437101
C  C142  1  0.68060000  0.02064000  0.86796000  1.0 0.5132999602
C  C143  1  0.73241000  0.99439000  0.82183000  1.0 -0.2466465617
C  C144  1  0.77637000  0.00099000  0.82631000  1.0 -0.0913437101
S  S1  1  0.98856000  0.75412000  0.75412000  1.0 0.0634662305
S  S2  1  0.75412000  0.50320000  0.98856000  1.0 0.0634662305
S  S3  1  0.75412000  0.98856000  0.50320000  1.0 0.0680931528
S  S4  1  0.50320000  0.75412000  0.75412000  1.0 0.0680931528
S  S5  1  0.75412000  0.75412000  0.98856000  1.0 0.0680931528
S  S6  1  0.50320000  0.98856000  0.75412000  1.0 0.0634662305
S  S7  1  0.98856000  0.50320000  0.75412000  1.0 0.0680931528
S  S8  1  0.75412000  0.75412000  0.50320000  1.0 0.0680931528
S  S9  1  0.75412000  0.98856000  0.75412000  1.0 0.0680931528
S  S10  1  0.98856000  0.75412000  0.50320000  1.0 0.0680931528
S  S11  1  0.50320000  0.75412000  0.98856000  1.0 0.0634662305
S  S12  1  0.75412000  0.50320000  0.75412000  1.0 0.0680931528
S  S13  1  0.01144000  0.49680000  0.24588000  1.0 0.0680931528
S  S14  1  0.24588000  0.24588000  0.01144000  1.0 0.0680931528
S  S15  1  0.24588000  0.24588000  0.49680000  1.0 0.0634662305
S  S16  1  0.49680000  0.01144000  0.24588000  1.0 0.0634662305
S  S17  1  0.24588000  0.49680000  0.01144000  1.0 0.0680931528
S  S18  1  0.49680000  0.24588000  0.24588000  1.0 0.0680931528
S  S19  1  0.01144000  0.24588000  0.24588000  1.0 0.0634662305
S  S20  1  0.24588000  0.01144000  0.49680000  1.0 0.0680931528
S  S21  1  0.24588000  0.49680000  0.24588000  1.0 0.0680931528
S  S22  1  0.01144000  0.24588000  0.49680000  1.0 0.0634662305
S  S23  1  0.49680000  0.24588000  0.01144000  1.0 0.0680931528
S  S24  1  0.24588000  0.01144000  0.24588000  1.0 0.0680931528
O  O1  1  0.00028000  0.66638000  0.92366000  1.0 -0.4667333379
O  O2  1  0.02810000  0.62852000  0.87158000  1.0 -0.6502117145
O  O3  1  0.92366000  0.40968000  0.00028000  1.0 -0.4667333379
O  O4  1  0.87158000  0.47180000  0.02810000  1.0 -0.6502117145
O  O5  1  0.66638000  0.00028000  0.40968000  1.0 -0.4630069111
O  O6  1  0.62852000  0.02810000  0.47180000  1.0 -0.6502117145
O  O7  1  0.40968000  0.92366000  0.66638000  1.0 -0.4630069111
O  O8  1  0.47180000  0.87158000  0.62852000  1.0 -0.6502117145
O  O9  1  0.66638000  0.92366000  0.00028000  1.0 -0.4630069111
O  O10  1  0.62852000  0.87158000  0.02810000  1.0 -0.6502117145
O  O11  1  0.40968000  0.00028000  0.92366000  1.0 -0.4630069111
O  O12  1  0.47180000  0.02810000  0.87158000  1.0 -0.6502117145
O  O13  1  0.00028000  0.40968000  0.66638000  1.0 -0.4630069111
O  O14  1  0.02810000  0.47180000  0.62852000  1.0 -0.6502117145
O  O15  1  0.92366000  0.66638000  0.40968000  1.0 -0.4667333379
O  O16  1  0.87158000  0.62852000  0.47180000  1.0 -0.6502117145
O  O17  1  0.92366000  0.00028000  0.66638000  1.0 -0.4667333379
O  O18  1  0.87158000  0.02810000  0.62852000  1.0 -0.6502117145
O  O19  1  0.00028000  0.92366000  0.40968000  1.0 -0.4630069111
O  O20  1  0.02810000  0.87158000  0.47180000  1.0 -0.6502117145
O  O21  1  0.40968000  0.66638000  0.00028000  1.0 -0.4630069111
O  O22  1  0.47180000  0.62852000  0.02810000  1.0 -0.6502117145
O  O23  1  0.66638000  0.40968000  0.92366000  1.0 -0.4667333379
O  O24  1  0.62852000  0.47180000  0.87158000  1.0 -0.6502117145
O  O25  1  0.99972000  0.59032000  0.07634000  1.0 -0.4667333379
O  O26  1  0.97190000  0.52820000  0.12842000  1.0 -0.6502117145
O  O27  1  0.07634000  0.33362000  0.99972000  1.0 -0.4630069111
O  O28  1  0.12842000  0.37148000  0.97190000  1.0 -0.6502117145
O  O29  1  0.33362000  0.07634000  0.59032000  1.0 -0.4630069111
O  O30  1  0.37148000  0.12842000  0.52820000  1.0 -0.6502117145
O  O31  1  0.59032000  0.99972000  0.33362000  1.0 -0.4630069111
O  O32  1  0.52820000  0.97190000  0.37148000  1.0 -0.6502117145
O  O33  1  0.33362000  0.59032000  0.99972000  1.0 -0.4630069111
O  O34  1  0.37148000  0.52820000  0.97190000  1.0 -0.6502117145
O  O35  1  0.59032000  0.33362000  0.07634000  1.0 -0.4667333379
O  O36  1  0.52820000  0.37148000  0.12842000  1.0 -0.6502117145
O  O37  1  0.99972000  0.07634000  0.33362000  1.0 -0.4667333379
O  O38  1  0.97190000  0.12842000  0.37148000  1.0 -0.6502117145
O  O39  1  0.07634000  0.99972000  0.59032000  1.0 -0.4630069111
O  O40  1  0.12842000  0.97190000  0.52820000  1.0 -0.6502117145
O  O41  1  0.07634000  0.59032000  0.33362000  1.0 -0.4667333379
O  O42  1  0.12842000  0.52820000  0.37148000  1.0 -0.6502117145
O  O43  1  0.99972000  0.33362000  0.59032000  1.0 -0.4667333379
O  O44  1  0.97190000  0.37148000  0.52820000  1.0 -0.6502117145
O  O45  1  0.59032000  0.07634000  0.99972000  1.0 -0.4630069111
O  O46  1  0.52820000  0.12842000  0.97190000  1.0 -0.6502117145
O  O47  1  0.33362000  0.99972000  0.07634000  1.0 -0.4630069111
O  O48  1  0.37148000  0.97190000  0.12842000  1.0 -0.6502117145
O  O49  1  0.99972000  0.33362000  0.07634000  1.0 -0.4667333379
O  O50  1  0.97190000  0.37148000  0.12842000  1.0 -0.6558394785
O  O51  1  0.07634000  0.59032000  0.99972000  1.0 -0.4630069111
O  O52  1  0.12842000  0.52820000  0.97190000  1.0 -0.6502117145
O  O53  1  0.33362000  0.99972000  0.59032000  1.0 -0.4630069111
O  O54  1  0.37148000  0.97190000  0.52820000  1.0 -0.6502117145
O  O55  1  0.59032000  0.07634000  0.33362000  1.0 -0.4667333379
O  O56  1  0.52820000  0.12842000  0.37148000  1.0 -0.6502117145
O  O57  1  0.33362000  0.07634000  0.99972000  1.0 -0.4667333379
O  O58  1  0.37148000  0.12842000  0.97190000  1.0 -0.6502117145
O  O59  1  0.59032000  0.99972000  0.07634000  1.0 -0.4630069111
O  O60  1  0.52820000  0.97190000  0.12842000  1.0 -0.6502117145
O  O61  1  0.99972000  0.59032000  0.33362000  1.0 -0.4667333379
O  O62  1  0.97190000  0.52820000  0.37148000  1.0 -0.6502117145
O  O63  1  0.07634000  0.33362000  0.59032000  1.0 -0.4630069111
O  O64  1  0.12842000  0.37148000  0.52820000  1.0 -0.6502117145
O  O65  1  0.07634000  0.99972000  0.33362000  1.0 -0.4667333379
O  O66  1  0.12842000  0.97190000  0.37148000  1.0 -0.6502117145
O  O67  1  0.99972000  0.07634000  0.59032000  1.0 -0.4667333379
O  O68  1  0.97190000  0.12842000  0.52820000  1.0 -0.6502117145
O  O69  1  0.59032000  0.33362000  0.99972000  1.0 -0.4630069111
O  O70  1  0.52820000  0.37148000  0.97190000  1.0 -0.6502117145
O  O71  1  0.33362000  0.59032000  0.07634000  1.0 -0.4667333379
O  O72  1  0.37148000  0.52820000  0.12842000  1.0 -0.6502117145
O  O73  1  0.00028000  0.40968000  0.92366000  1.0 -0.4667333379
O  O74  1  0.02810000  0.47180000  0.87158000  1.0 -0.6502117145
O  O75  1  0.92366000  0.66638000  0.00028000  1.0 -0.4630069111
O  O76  1  0.87158000  0.62852000  0.02810000  1.0 -0.6502117145
O  O77  1  0.66638000  0.92366000  0.40968000  1.0 -0.4630069111
O  O78  1  0.62852000  0.87158000  0.47180000  1.0 -0.6502117145
O  O79  1  0.40968000  0.00028000  0.66638000  1.0 -0.4630069111
O  O80  1  0.47180000  0.02810000  0.62852000  1.0 -0.6502117145
O  O81  1  0.66638000  0.40968000  0.00028000  1.0 -0.4667333379
O  O82  1  0.62852000  0.47180000  0.02810000  1.0 -0.6502117145
O  O83  1  0.40968000  0.66638000  0.92366000  1.0 -0.4667333379
O  O84  1  0.47180000  0.62852000  0.87158000  1.0 -0.6502117145
O  O85  1  0.00028000  0.92366000  0.66638000  1.0 -0.4667333379
O  O86  1  0.02810000  0.87158000  0.62852000  1.0 -0.6502117145
O  O87  1  0.92366000  0.00028000  0.40968000  1.0 -0.4630069111
O  O88  1  0.87158000  0.02810000  0.47180000  1.0 -0.6502117145
O  O89  1  0.92366000  0.40968000  0.66638000  1.0 -0.4630069111
O  O90  1  0.87158000  0.47180000  0.62852000  1.0 -0.6502117145
O  O91  1  0.00028000  0.66638000  0.40968000  1.0 -0.4667333379
O  O92  1  0.02810000  0.62852000  0.47180000  1.0 -0.6502117145
O  O93  1  0.40968000  0.92366000  0.00028000  1.0 -0.4630069111
O  O94  1  0.47180000  0.87158000  0.02810000  1.0 -0.6502117145
O  O95  1  0.66638000  0.00028000  0.92366000  1.0 -0.4630069111
O  O96  1  0.62852000  0.02810000  0.87158000  1.0 -0.6502117145
O  O97  1  0.97437000  0.54227000  0.97437000  1.0 -0.1627772276
O  O98  1  0.97437000  0.50899000  0.97437000  1.0 -0.1627772276
O  O99  1  0.54227000  0.97437000  0.50899000  1.0 -0.1627772276
O  O100  1  0.50899000  0.97437000  0.54227000  1.0 -0.1627772276
O  O101  1  0.54227000  0.97437000  0.97437000  1.0 -0.1627772276
O  O102  1  0.50899000  0.97437000  0.97437000  1.0 -0.1627772276
O  O103  1  0.97437000  0.50899000  0.54227000  1.0 -0.1627772276
O  O104  1  0.97437000  0.54227000  0.50899000  1.0 -0.1627772276
O  O105  1  0.97437000  0.97437000  0.54227000  1.0 -0.1627772276
O  O106  1  0.97437000  0.97437000  0.50899000  1.0 -0.1627772276
O  O107  1  0.50899000  0.54227000  0.97437000  1.0 -0.1669279879
O  O108  1  0.54227000  0.50899000  0.97437000  1.0 -0.1627772276
O  O109  1  0.02563000  0.49101000  0.02563000  1.0 -0.1669279879
O  O110  1  0.02563000  0.45773000  0.02563000  1.0 -0.1669279879
O  O111  1  0.45773000  0.02563000  0.49101000  1.0 -0.1627772276
O  O112  1  0.49101000  0.02563000  0.45773000  1.0 -0.1669279879
O  O113  1  0.45773000  0.49101000  0.02563000  1.0 -0.1669279879
O  O114  1  0.49101000  0.45773000  0.02563000  1.0 -0.1627772276
O  O115  1  0.02563000  0.02563000  0.45773000  1.0 -0.1669279879
O  O116  1  0.02563000  0.02563000  0.49101000  1.0 -0.1669279879
O  O117  1  0.02563000  0.49101000  0.45773000  1.0 -0.1669279879
O  O118  1  0.02563000  0.45773000  0.49101000  1.0 -0.1669279879
O  O119  1  0.49101000  0.02563000  0.02563000  1.0 -0.1669279879
O  O120  1  0.45773000  0.02563000  0.02563000  1.0 -0.1669279879
O  O121  1  0.04706000  0.52392000  0.95294000  1.0 -0.2823668922
O  O122  1  0.95294000  0.47608000  0.04706000  1.0 -0.2900392138
O  O123  1  0.52392000  0.04706000  0.47608000  1.0 -0.2900392138
O  O124  1  0.47608000  0.95294000  0.52392000  1.0 -0.2900392138
O  O125  1  0.52392000  0.95294000  0.04706000  1.0 -0.2823668922
O  O126  1  0.47608000  0.04706000  0.95294000  1.0 -0.2823668922
O  O127  1  0.04706000  0.47608000  0.52392000  1.0 -0.2900392138
O  O128  1  0.95294000  0.52392000  0.47608000  1.0 -0.2823668922
O  O129  1  0.95294000  0.04706000  0.52392000  1.0 -0.2900392138
O  O130  1  0.04706000  0.95294000  0.47608000  1.0 -0.2900392138
O  O131  1  0.47608000  0.52392000  0.04706000  1.0 -0.2900392138
O  O132  1  0.52392000  0.47608000  0.95294000  1.0 -0.2900392138
O  O133  1  0.95294000  0.52392000  0.04706000  1.0 -0.2823668922
O  O134  1  0.04706000  0.47608000  0.95294000  1.0 -0.2900392138
O  O135  1  0.47608000  0.04706000  0.52392000  1.0 -0.2900392138
O  O136  1  0.52392000  0.95294000  0.47608000  1.0 -0.2900392138
O  O137  1  0.47608000  0.52392000  0.95294000  1.0 -0.2823668922
O  O138  1  0.52392000  0.47608000  0.04706000  1.0 -0.2900392138
O  O139  1  0.95294000  0.04706000  0.47608000  1.0 -0.2900392138
O  O140  1  0.04706000  0.95294000  0.52392000  1.0 -0.2900392138
O  O141  1  0.04706000  0.52392000  0.47608000  1.0 -0.2961021418
O  O142  1  0.95294000  0.47608000  0.52392000  1.0 -0.2823668922
O  O143  1  0.52392000  0.04706000  0.95294000  1.0 -0.2823668922
O  O144  1  0.47608000  0.95294000  0.04706000  1.0 -0.2823668922
