# DDEC6 charges by PACMAN v1.1 (https://github.com/mtap-research/PACMAN-charge/)
data_OYEDII_ASR_pacman
_symmetry_space_group_name_H-M   'P 1'
_cell_length_a   14.13600000
_cell_length_b   14.13600000
_cell_length_c   26.52000000
_cell_angle_alpha   90.00000000
_cell_angle_beta   90.00000000
_cell_angle_gamma   90.00000000
_symmetry_Int_Tables_number   1
_chemical_formula_structural   InH10(C13O8)2
_chemical_formula_sum   'In4 H40 C104 O64'
_cell_volume   5299.39867392
_cell_formula_units_Z   4
loop_
 _symmetry_equiv_pos_site_id
 _symmetry_equiv_pos_as_xyz
  1  'x, y, z'
loop_
 _atom_site_type_symbol
 _atom_site_label
 _atom_site_symmetry_multiplicity
 _atom_site_fract_x
 _atom_site_fract_y
 _atom_site_fract_z
 _atom_site_occupancy
 _atom_site_charge
In  In1  1  0.50000000  0.50000000  0.00000000  1.0 1.3178074133
In  In2  1  0.00000000  0.00000000  0.50000000  1.0 1.3146049749
In  In3  1  0.00000000  0.00000000  0.00000000  1.0 1.3357038271
In  In4  1  0.50000000  0.50000000  0.50000000  1.0 1.3357038271
H  H1  1  0.35220000  0.15540000  0.79150000  1.0 0.2282156913
H  H2  1  0.64780000  0.84460000  0.79150000  1.0 0.2282156913
H  H3  1  0.34460000  0.85220000  0.29150000  1.0 0.2282156913
H  H4  1  0.65540000  0.14780000  0.29150000  1.0 0.2282156913
H  H5  1  0.64780000  0.15540000  0.20850000  1.0 0.2282156913
H  H6  1  0.35220000  0.84460000  0.20850000  1.0 0.2282156913
H  H7  1  0.65540000  0.85220000  0.70850000  1.0 0.2282156913
H  H8  1  0.34460000  0.14780000  0.70850000  1.0 0.2282156913
H  H9  1  0.14780000  0.34460000  0.70850000  1.0 0.2282156913
H  H10  1  0.85220000  0.65540000  0.70850000  1.0 0.2282156913
H  H11  1  0.15540000  0.64780000  0.20850000  1.0 0.2282156913
H  H12  1  0.84460000  0.35220000  0.20850000  1.0 0.2282156913
H  H13  1  0.85220000  0.34460000  0.29150000  1.0 0.2282156913
H  H14  1  0.14780000  0.65540000  0.29150000  1.0 0.2282156913
H  H15  1  0.84460000  0.64780000  0.79150000  1.0 0.2282156913
H  H16  1  0.15540000  0.35220000  0.79150000  1.0 0.2282156913
H  H17  1  0.24750000  0.24750000  0.99850000  1.0 0.1474131106
H  H18  1  0.15620000  0.15620000  0.86400000  1.0 0.1474131106
H  H19  1  0.35600000  0.35600000  0.87200000  1.0 0.1474131106
H  H20  1  0.75250000  0.75250000  0.99850000  1.0 0.1474131106
H  H21  1  0.84380000  0.84380000  0.86400000  1.0 0.1474131106
H  H22  1  0.64400000  0.64400000  0.87200000  1.0 0.1474131106
H  H23  1  0.25250000  0.74750000  0.49850000  1.0 0.1474131106
H  H24  1  0.34380000  0.65620000  0.36400000  1.0 0.1474131106
H  H25  1  0.14400000  0.85600000  0.37200000  1.0 0.1474131106
H  H26  1  0.74750000  0.25250000  0.49850000  1.0 0.1474131106
H  H27  1  0.65620000  0.34380000  0.36400000  1.0 0.1474131106
H  H28  1  0.85600000  0.14400000  0.37200000  1.0 0.1474131106
H  H29  1  0.75250000  0.24750000  0.00150000  1.0 0.1474131106
H  H30  1  0.84380000  0.15620000  0.13600000  1.0 0.1474131106
H  H31  1  0.64400000  0.35600000  0.12800000  1.0 0.1474131106
H  H32  1  0.24750000  0.75250000  0.00150000  1.0 0.1474131106
H  H33  1  0.15620000  0.84380000  0.13600000  1.0 0.1474131106
H  H34  1  0.35600000  0.64400000  0.12800000  1.0 0.1474131106
H  H35  1  0.74750000  0.74750000  0.50150000  1.0 0.1474131106
H  H36  1  0.65620000  0.65620000  0.63600000  1.0 0.1474131106
H  H37  1  0.85600000  0.85600000  0.62800000  1.0 0.1474131106
H  H38  1  0.25250000  0.25250000  0.50150000  1.0 0.1474131106
H  H39  1  0.34380000  0.34380000  0.63600000  1.0 0.1474131106
H  H40  1  0.14400000  0.14400000  0.62800000  1.0 0.1474131106
C  C1  1  0.30940000  0.19470000  0.77500000  1.0 -0.1267087799
C  C2  1  0.38300000  0.12500000  0.79370000  1.0 0.2829252279
C  C3  1  0.69060000  0.80530000  0.77500000  1.0 -0.1267087799
C  C4  1  0.61700000  0.87500000  0.79370000  1.0 0.2829252279
C  C5  1  0.30530000  0.80940000  0.27500000  1.0 -0.1267087799
C  C6  1  0.37500000  0.88300000  0.29370000  1.0 0.2829252279
C  C7  1  0.69470000  0.19060000  0.27500000  1.0 -0.1267087799
C  C8  1  0.62500000  0.11700000  0.29370000  1.0 0.2829252279
C  C9  1  0.69060000  0.19470000  0.22500000  1.0 -0.1240041669
C  C10  1  0.61700000  0.12500000  0.20630000  1.0 0.2862607535
C  C11  1  0.30940000  0.80530000  0.22500000  1.0 -0.1240041669
C  C12  1  0.38300000  0.87500000  0.20630000  1.0 0.2862607535
C  C13  1  0.69470000  0.80940000  0.72500000  1.0 -0.1240041669
C  C14  1  0.62500000  0.88300000  0.70630000  1.0 0.2829252279
C  C15  1  0.30530000  0.19060000  0.72500000  1.0 -0.1240041669
C  C16  1  0.37500000  0.11700000  0.70630000  1.0 0.2829252279
C  C17  1  0.19060000  0.30530000  0.72500000  1.0 -0.1240041669
C  C18  1  0.11700000  0.37500000  0.70630000  1.0 0.2829252279
C  C19  1  0.80940000  0.69470000  0.72500000  1.0 -0.1240041669
C  C20  1  0.88300000  0.62500000  0.70630000  1.0 0.2829252279
C  C21  1  0.19470000  0.69060000  0.22500000  1.0 -0.1240041669
C  C22  1  0.12500000  0.61700000  0.20630000  1.0 0.2829252279
C  C23  1  0.80530000  0.30940000  0.22500000  1.0 -0.1240041669
C  C24  1  0.87500000  0.38300000  0.20630000  1.0 0.2862607535
C  C25  1  0.80940000  0.30530000  0.27500000  1.0 -0.1267087799
C  C26  1  0.88300000  0.37500000  0.29370000  1.0 0.2862607535
C  C27  1  0.19060000  0.69470000  0.27500000  1.0 -0.1267087799
C  C28  1  0.11700000  0.62500000  0.29370000  1.0 0.2829252279
C  C29  1  0.80530000  0.69060000  0.77500000  1.0 -0.1267087799
C  C30  1  0.87500000  0.61700000  0.79370000  1.0 0.2829252279
C  C31  1  0.19470000  0.30940000  0.77500000  1.0 -0.1267087799
C  C32  1  0.12500000  0.38300000  0.79370000  1.0 0.2829252279
C  C33  1  0.37760000  0.37760000  0.96530000  1.0 0.5330695059
C  C34  1  0.12610000  0.12610000  0.96530000  1.0 0.544800229
C  C35  1  0.31150000  0.31150000  0.94000000  1.0 0.013441544
C  C36  1  0.24940000  0.24940000  0.96350000  1.0 -0.0611652791
C  C37  1  0.18970000  0.18970000  0.93600000  1.0 0.0246722294
C  C38  1  0.19480000  0.19480000  0.88360000  1.0 -0.1118852395
C  C39  1  0.25780000  0.25780000  0.86020000  1.0 0.0833525654
C  C40  1  0.31460000  0.31460000  0.88800000  1.0 -0.1118852395
C  C41  1  0.25390000  0.25390000  0.80390000  1.0 0.0515347343
C  C42  1  0.62240000  0.62240000  0.96530000  1.0 0.5330695059
C  C43  1  0.87390000  0.87390000  0.96530000  1.0 0.544800229
C  C44  1  0.68850000  0.68850000  0.94000000  1.0 0.013441544
C  C45  1  0.75060000  0.75060000  0.96350000  1.0 -0.0611652791
C  C46  1  0.81030000  0.81030000  0.93600000  1.0 0.0246722294
C  C47  1  0.80520000  0.80520000  0.88360000  1.0 -0.1118852395
C  C48  1  0.74220000  0.74220000  0.86020000  1.0 0.0833525654
C  C49  1  0.68540000  0.68540000  0.88800000  1.0 -0.1118852395
C  C50  1  0.74610000  0.74610000  0.80390000  1.0 0.0515347343
C  C51  1  0.12240000  0.87760000  0.46530000  1.0 0.5330695059
C  C52  1  0.37390000  0.62610000  0.46530000  1.0 0.544800229
C  C53  1  0.18850000  0.81150000  0.44000000  1.0 0.013441544
C  C54  1  0.25060000  0.74940000  0.46350000  1.0 -0.0611652791
C  C55  1  0.31030000  0.68970000  0.43600000  1.0 0.0246722294
C  C56  1  0.30520000  0.69480000  0.38360000  1.0 -0.1118852395
C  C57  1  0.24220000  0.75780000  0.36020000  1.0 0.0833525654
C  C58  1  0.18540000  0.81460000  0.38800000  1.0 -0.1118852395
C  C59  1  0.24610000  0.75390000  0.30390000  1.0 0.0515347343
C  C60  1  0.87760000  0.12240000  0.46530000  1.0 0.5330695059
C  C61  1  0.62610000  0.37390000  0.46530000  1.0 0.544800229
C  C62  1  0.81150000  0.18850000  0.44000000  1.0 0.013441544
C  C63  1  0.74940000  0.25060000  0.46350000  1.0 -0.0611652791
C  C64  1  0.68970000  0.31030000  0.43600000  1.0 0.0246722294
C  C65  1  0.69480000  0.30520000  0.38360000  1.0 -0.1118852395
C  C66  1  0.75780000  0.24220000  0.36020000  1.0 0.0833525654
C  C67  1  0.81460000  0.18540000  0.38800000  1.0 -0.1118852395
C  C68  1  0.75390000  0.24610000  0.30390000  1.0 0.0515347343
C  C69  1  0.62240000  0.37760000  0.03470000  1.0 0.5330695059
C  C70  1  0.87390000  0.12610000  0.03470000  1.0 0.544800229
C  C71  1  0.68850000  0.31150000  0.06000000  1.0 0.013441544
C  C72  1  0.75060000  0.24940000  0.03650000  1.0 -0.0611652791
C  C73  1  0.81030000  0.18970000  0.06400000  1.0 0.0246722294
C  C74  1  0.80520000  0.19480000  0.11640000  1.0 -0.1118852395
C  C75  1  0.74220000  0.25780000  0.13980000  1.0 0.0833525654
C  C76  1  0.68540000  0.31460000  0.11200000  1.0 -0.1118852395
C  C77  1  0.74610000  0.25390000  0.19610000  1.0 0.0515347343
C  C78  1  0.37760000  0.62240000  0.03470000  1.0 0.5330695059
C  C79  1  0.12610000  0.87390000  0.03470000  1.0 0.544800229
C  C80  1  0.31150000  0.68850000  0.06000000  1.0 0.013441544
C  C81  1  0.24940000  0.75060000  0.03650000  1.0 -0.0611652791
C  C82  1  0.18970000  0.81030000  0.06400000  1.0 0.0246722294
C  C83  1  0.19480000  0.80520000  0.11640000  1.0 -0.1118852395
C  C84  1  0.25780000  0.74220000  0.13980000  1.0 0.0833525654
C  C85  1  0.31460000  0.68540000  0.11200000  1.0 -0.1118852395
C  C86  1  0.25390000  0.74610000  0.19610000  1.0 0.0515347343
C  C87  1  0.87760000  0.87760000  0.53470000  1.0 0.5330695059
C  C88  1  0.62610000  0.62610000  0.53470000  1.0 0.544800229
C  C89  1  0.81150000  0.81150000  0.56000000  1.0 0.013441544
C  C90  1  0.74940000  0.74940000  0.53650000  1.0 -0.0611652791
C  C91  1  0.68970000  0.68970000  0.56400000  1.0 0.0246722294
C  C92  1  0.69480000  0.69480000  0.61640000  1.0 -0.1118852395
C  C93  1  0.75780000  0.75780000  0.63980000  1.0 0.0833525654
C  C94  1  0.81460000  0.81460000  0.61200000  1.0 -0.1118852395
C  C95  1  0.75390000  0.75390000  0.69610000  1.0 0.0515347343
C  C96  1  0.12240000  0.12240000  0.53470000  1.0 0.5330695059
C  C97  1  0.37390000  0.37390000  0.53470000  1.0 0.544800229
C  C98  1  0.18850000  0.18850000  0.56000000  1.0 0.013441544
C  C99  1  0.25060000  0.25060000  0.53650000  1.0 -0.0611652791
C  C100  1  0.31030000  0.31030000  0.56400000  1.0 0.0246722294
C  C101  1  0.30520000  0.30520000  0.61640000  1.0 -0.1118852395
C  C102  1  0.24220000  0.24220000  0.63980000  1.0 0.0833525654
C  C103  1  0.18540000  0.18540000  0.61200000  1.0 -0.1118852395
C  C104  1  0.24610000  0.24610000  0.69610000  1.0 0.0515347343
O  O1  1  0.41340000  0.13820000  0.83690000  1.0 -0.3484590653
O  O2  1  0.40500000  0.06300000  0.76360000  1.0 -0.1118852395
O  O3  1  0.58660000  0.86180000  0.83690000  1.0 -0.3484590653
O  O4  1  0.59500000  0.93700000  0.76360000  1.0 -0.1118852395
O  O5  1  0.36180000  0.91340000  0.33690000  1.0 -0.3484590653
O  O6  1  0.43700000  0.90500000  0.26360000  1.0 -0.1118852395
O  O7  1  0.63820000  0.08660000  0.33690000  1.0 -0.3484590653
O  O8  1  0.56300000  0.09500000  0.26360000  1.0 -0.1118852395
O  O9  1  0.58660000  0.13820000  0.16310000  1.0 -0.3484590653
O  O10  1  0.59500000  0.06300000  0.23640000  1.0 -0.1118852395
O  O11  1  0.41340000  0.86180000  0.16310000  1.0 -0.3484590653
O  O12  1  0.40500000  0.93700000  0.23640000  1.0 -0.1118852395
O  O13  1  0.63820000  0.91340000  0.66310000  1.0 -0.3484590653
O  O14  1  0.56300000  0.90500000  0.73640000  1.0 -0.1118852395
O  O15  1  0.36180000  0.08660000  0.66310000  1.0 -0.3484590653
O  O16  1  0.43700000  0.09500000  0.73640000  1.0 -0.1118852395
O  O17  1  0.08660000  0.36180000  0.66310000  1.0 -0.3484590653
O  O18  1  0.09500000  0.43700000  0.73640000  1.0 -0.1118852395
O  O19  1  0.91340000  0.63820000  0.66310000  1.0 -0.3484590653
O  O20  1  0.90500000  0.56300000  0.73640000  1.0 -0.1118852395
O  O21  1  0.13820000  0.58660000  0.16310000  1.0 -0.3484590653
O  O22  1  0.06300000  0.59500000  0.23640000  1.0 -0.1118852395
O  O23  1  0.86180000  0.41340000  0.16310000  1.0 -0.3484590653
O  O24  1  0.93700000  0.40500000  0.23640000  1.0 -0.1118852395
O  O25  1  0.91340000  0.36180000  0.33690000  1.0 -0.3484590653
O  O26  1  0.90500000  0.43700000  0.26360000  1.0 -0.1118852395
O  O27  1  0.08660000  0.63820000  0.33690000  1.0 -0.3484590653
O  O28  1  0.09500000  0.56300000  0.26360000  1.0 -0.1118852395
O  O29  1  0.86180000  0.58660000  0.83690000  1.0 -0.3484590653
O  O30  1  0.93700000  0.59500000  0.76360000  1.0 -0.1118852395
O  O31  1  0.13820000  0.41340000  0.83690000  1.0 -0.3484590653
O  O32  1  0.06300000  0.40500000  0.76360000  1.0 -0.1118852395
O  O33  1  0.42770000  0.42770000  0.93880000  1.0 -0.4625746314
O  O34  1  0.38160000  0.38160000  0.01130000  1.0 -0.4720280994
O  O35  1  0.07390000  0.07390000  0.94040000  1.0 -0.5014927465
O  O36  1  0.12660000  0.12660000  0.01190000  1.0 -0.4886435795
O  O37  1  0.57230000  0.57230000  0.93880000  1.0 -0.4625746314
O  O38  1  0.61840000  0.61840000  0.01130000  1.0 -0.4720280994
O  O39  1  0.92610000  0.92610000  0.94040000  1.0 -0.5014927465
O  O40  1  0.87340000  0.87340000  0.01190000  1.0 -0.4886435795
O  O41  1  0.07230000  0.92770000  0.43880000  1.0 -0.4625746314
O  O42  1  0.11840000  0.88160000  0.51130000  1.0 -0.4720280994
O  O43  1  0.42610000  0.57390000  0.44040000  1.0 -0.5014927465
O  O44  1  0.37340000  0.62660000  0.51190000  1.0 -0.4886435795
O  O45  1  0.92770000  0.07230000  0.43880000  1.0 -0.4625746314
O  O46  1  0.88160000  0.11840000  0.51130000  1.0 -0.4720280994
O  O47  1  0.57390000  0.42610000  0.44040000  1.0 -0.5014927465
O  O48  1  0.62660000  0.37340000  0.51190000  1.0 -0.4886435795
O  O49  1  0.57230000  0.42770000  0.06120000  1.0 -0.4625746314
O  O50  1  0.61840000  0.38160000  0.98870000  1.0 -0.4720280994
O  O51  1  0.92610000  0.07390000  0.05960000  1.0 -0.5014927465
O  O52  1  0.87340000  0.12660000  0.98810000  1.0 -0.4886435795
O  O53  1  0.42770000  0.57230000  0.06120000  1.0 -0.4625746314
O  O54  1  0.38160000  0.61840000  0.98870000  1.0 -0.4720280994
O  O55  1  0.07390000  0.92610000  0.05960000  1.0 -0.5014927465
O  O56  1  0.12660000  0.87340000  0.98810000  1.0 -0.4886435795
O  O57  1  0.92770000  0.92770000  0.56120000  1.0 -0.4625746314
O  O58  1  0.88160000  0.88160000  0.48870000  1.0 -0.4720280994
O  O59  1  0.57390000  0.57390000  0.55960000  1.0 -0.5014927465
O  O60  1  0.62660000  0.62660000  0.48810000  1.0 -0.4844870794
O  O61  1  0.07230000  0.07230000  0.56120000  1.0 -0.4625746314
O  O62  1  0.11840000  0.11840000  0.48870000  1.0 -0.4720280994
O  O63  1  0.42610000  0.42610000  0.55960000  1.0 -0.5014927465
O  O64  1  0.37340000  0.37340000  0.48810000  1.0 -0.4844870794
