# DDEC6 charges by PACMAN v1.1 (https://github.com/mtap-research/PACMAN-charge/)
data_OYERUH_ASR_pacman
_symmetry_space_group_name_H-M   'P 1'
_cell_length_a   19.37070000
_cell_length_b   19.37070000
_cell_length_c   23.76400000
_cell_angle_alpha   90.00000000
_cell_angle_beta   90.00000000
_cell_angle_gamma   104.37700000
_symmetry_Int_Tables_number   1
_chemical_formula_structural   Cr3Cd2H24C36N6Cl8O13
_chemical_formula_sum   'Cr12 Cd8 H96 C144 N24 Cl32 O52'
_cell_volume   8637.57464112
_cell_formula_units_Z   4
loop_
 _symmetry_equiv_pos_site_id
 _symmetry_equiv_pos_as_xyz
  1  'x, y, z'
loop_
 _atom_site_type_symbol
 _atom_site_label
 _atom_site_symmetry_multiplicity
 _atom_site_fract_x
 _atom_site_fract_y
 _atom_site_fract_z
 _atom_site_occupancy
 _atom_site_charge
Cr  Cr1  1  0.00000000  0.50000000  0.41102000  1.0 1.5581204611
Cr  Cr2  1  0.50000000  0.00000000  0.58898000  1.0 1.5503186899
Cr  Cr3  1  0.50000000  0.00000000  0.08898000  1.0 1.5503186899
Cr  Cr4  1  0.00000000  0.50000000  0.91102000  1.0 1.5581204611
Cr  Cr5  1  0.08025000  0.48467000  0.53013000  1.0 1.3926868158
Cr  Cr6  1  0.91975000  0.51533000  0.53013000  1.0 1.3926868158
Cr  Cr7  1  0.48467000  0.08025000  0.46987000  1.0 1.3926868158
Cr  Cr8  1  0.51533000  0.91975000  0.46987000  1.0 1.3995982922
Cr  Cr9  1  0.41975000  0.01533000  0.96987000  1.0 1.3995982922
Cr  Cr10  1  0.58025000  0.98467000  0.96987000  1.0 1.3926868158
Cr  Cr11  1  0.01533000  0.41975000  0.03013000  1.0 1.4054387527
Cr  Cr12  1  0.98467000  0.58025000  0.03013000  1.0 1.3995982922
Cd  Cd1  1  0.13050000  0.13050000  0.50000000  1.0 0.5809087472
Cd  Cd2  1  0.86950000  0.86950000  0.50000000  1.0 0.5809087472
Cd  Cd3  1  0.36950000  0.36950000  0.00000000  1.0 0.5809087472
Cd  Cd4  1  0.63050000  0.63050000  0.00000000  1.0 0.5809087472
Cd  Cd5  1  0.75000000  0.25000000  0.25000000  1.0 0.6933265345
Cd  Cd6  1  0.25000000  0.75000000  0.25000000  1.0 0.6933265345
Cd  Cd7  1  0.25000000  0.75000000  0.75000000  1.0 0.6933265345
Cd  Cd8  1  0.75000000  0.25000000  0.75000000  1.0 0.6933265345
H  H1  1  0.02770000  0.11070000  0.38650000  1.0 0.0889466394
H  H2  1  0.97230000  0.88930000  0.38650000  1.0 0.0889466394
H  H3  1  0.11070000  0.02770000  0.61350000  1.0 0.0889466394
H  H4  1  0.88930000  0.97230000  0.61350000  1.0 0.0889466394
H  H5  1  0.47230000  0.38930000  0.11350000  1.0 0.0889466394
H  H6  1  0.52770000  0.61070000  0.11350000  1.0 0.0889466394
H  H7  1  0.38930000  0.47230000  0.88650000  1.0 0.0889466394
H  H8  1  0.61070000  0.52770000  0.88650000  1.0 0.0889466394
H  H9  1  0.10290000  0.28010000  0.48880000  1.0 0.0889466394
H  H10  1  0.89710000  0.71990000  0.48880000  1.0 0.0889466394
H  H11  1  0.28010000  0.10290000  0.51120000  1.0 0.0889466394
H  H12  1  0.71990000  0.89710000  0.51120000  1.0 0.0889466394
H  H13  1  0.39710000  0.21990000  0.01120000  1.0 0.0889466394
H  H14  1  0.60290000  0.78010000  0.01120000  1.0 0.0889466394
H  H15  1  0.21990000  0.39710000  0.98880000  1.0 0.0889466394
H  H16  1  0.78010000  0.60290000  0.98880000  1.0 0.0889466394
H  H17  1  0.97560000  0.18140000  0.32850000  1.0 0.1292969361
H  H18  1  0.02440000  0.81860000  0.32850000  1.0 0.1292969361
H  H19  1  0.18140000  0.97560000  0.67150000  1.0 0.1292969361
H  H20  1  0.81860000  0.02440000  0.67150000  1.0 0.1292969361
H  H21  1  0.52440000  0.31860000  0.17150000  1.0 0.1292969361
H  H22  1  0.47560000  0.68140000  0.17150000  1.0 0.1292969361
H  H23  1  0.31860000  0.52440000  0.82850000  1.0 0.1292969361
H  H24  1  0.68140000  0.47560000  0.82850000  1.0 0.1292969361
H  H25  1  0.98720000  0.30140000  0.35070000  1.0 0.1292969361
H  H26  1  0.01280000  0.69860000  0.35070000  1.0 0.1292969361
H  H27  1  0.30140000  0.98720000  0.64930000  1.0 0.1292969361
H  H28  1  0.69860000  0.01280000  0.64930000  1.0 0.1292969361
H  H29  1  0.51280000  0.19860000  0.14930000  1.0 0.1292969361
H  H30  1  0.48720000  0.80140000  0.14930000  1.0 0.1292969361
H  H31  1  0.19860000  0.51280000  0.85070000  1.0 0.1292969361
H  H32  1  0.80140000  0.48720000  0.85070000  1.0 0.1292969361
H  H33  1  0.71310000  0.40790000  0.46740000  1.0 0.1194266111
H  H34  1  0.28690000  0.59210000  0.46740000  1.0 0.1194266111
H  H35  1  0.40790000  0.71310000  0.53260000  1.0 0.1194266111
H  H36  1  0.59210000  0.28690000  0.53260000  1.0 0.1194266111
H  H37  1  0.78690000  0.09210000  0.03260000  1.0 0.1194266111
H  H38  1  0.21310000  0.90790000  0.03260000  1.0 0.1194266111
H  H39  1  0.09210000  0.78690000  0.96740000  1.0 0.1194266111
H  H40  1  0.90790000  0.21310000  0.96740000  1.0 0.1194266111
H  H41  1  0.83330000  0.36010000  0.34240000  1.0 0.1092994941
H  H42  1  0.16670000  0.63990000  0.34240000  1.0 0.1092994941
H  H43  1  0.36010000  0.83330000  0.65760000  1.0 0.1092994941
H  H44  1  0.63990000  0.16670000  0.65760000  1.0 0.1092994941
H  H45  1  0.66666667  0.13990000  0.15760000  1.0 0.1092994941
H  H46  1  0.33333333  0.86010000  0.15760000  1.0 0.1092994941
H  H47  1  0.13990000  0.66666667  0.84240000  1.0 0.1092994941
H  H48  1  0.86010000  0.33333333  0.84240000  1.0 0.1092994941
H  H49  1  0.01850000  0.28670000  0.60750000  1.0 0.1194266111
H  H50  1  0.98150000  0.71330000  0.60750000  1.0 0.1194266111
H  H51  1  0.28670000  0.01850000  0.39250000  1.0 0.1194266111
H  H52  1  0.71330000  0.98150000  0.39250000  1.0 0.1194266111
H  H53  1  0.48150000  0.21330000  0.89250000  1.0 0.1194266111
H  H54  1  0.51850000  0.78670000  0.89250000  1.0 0.1194266111
H  H55  1  0.21330000  0.48150000  0.10750000  1.0 0.1194266111
H  H56  1  0.78670000  0.51850000  0.10750000  1.0 0.1194266111
H  H57  1  0.84560000  0.36140000  0.66270000  1.0 0.1047137248
H  H58  1  0.15440000  0.63860000  0.66270000  1.0 0.1047137248
H  H59  1  0.36140000  0.84560000  0.33730000  1.0 0.1047137248
H  H60  1  0.63860000  0.15440000  0.33730000  1.0 0.1047137248
H  H61  1  0.65440000  0.13860000  0.83730000  1.0 0.1047137248
H  H62  1  0.34560000  0.86140000  0.83730000  1.0 0.1047137248
H  H63  1  0.13860000  0.65440000  0.16270000  1.0 0.1047137248
H  H64  1  0.86140000  0.34560000  0.16270000  1.0 0.1047137248
H  H65  1  0.60810000  0.33890000  0.42180000  1.0 0.1292969361
H  H66  1  0.39190000  0.66110000  0.42180000  1.0 0.1292969361
H  H67  1  0.33890000  0.60810000  0.57820000  1.0 0.1292969361
H  H68  1  0.66110000  0.39190000  0.57820000  1.0 0.1292969361
H  H69  1  0.89190000  0.16110000  0.07820000  1.0 0.1292969361
H  H70  1  0.10810000  0.83890000  0.07820000  1.0 0.1292969361
H  H71  1  0.16110000  0.89190000  0.92180000  1.0 0.1292969361
H  H72  1  0.83890000  0.10810000  0.92180000  1.0 0.1292969361
H  H73  1  0.97800000  0.18440000  0.66450000  1.0 0.1292969361
H  H74  1  0.02200000  0.81560000  0.66450000  1.0 0.1292969361
H  H75  1  0.18440000  0.97800000  0.33550000  1.0 0.1292969361
H  H76  1  0.81560000  0.02200000  0.33550000  1.0 0.1292969361
H  H77  1  0.52200000  0.31560000  0.83550000  1.0 0.1194266111
H  H78  1  0.47800000  0.68440000  0.83550000  1.0 0.1292969361
H  H79  1  0.31560000  0.52200000  0.16450000  1.0 0.1292969361
H  H80  1  0.68440000  0.47800000  0.16450000  1.0 0.1292969361
H  H81  1  0.62550000  0.28270000  0.33880000  1.0 0.1092994941
H  H82  1  0.37450000  0.71730000  0.33880000  1.0 0.1092994941
H  H83  1  0.28270000  0.62550000  0.66120000  1.0 0.1092994941
H  H84  1  0.71730000  0.37450000  0.66120000  1.0 0.1092994941
H  H85  1  0.87450000  0.21730000  0.16120000  1.0 0.1092994941
H  H86  1  0.12550000  0.78270000  0.16120000  1.0 0.1092994941
H  H87  1  0.21730000  0.87450000  0.83880000  1.0 0.1092994941
H  H88  1  0.78270000  0.12550000  0.83880000  1.0 0.1092994941
H  H89  1  0.88160000  0.18080000  0.71940000  1.0 0.1092994941
H  H90  1  0.11840000  0.81920000  0.71940000  1.0 0.1092994941
H  H91  1  0.18080000  0.88160000  0.28060000  1.0 0.1092994941
H  H92  1  0.81920000  0.11840000  0.28060000  1.0 0.1092994941
H  H93  1  0.61840000  0.31920000  0.78060000  1.0 0.1092994941
H  H94  1  0.38160000  0.68080000  0.78060000  1.0 0.1092994941
H  H95  1  0.31920000  0.61840000  0.21940000  1.0 0.1092994941
H  H96  1  0.68080000  0.38160000  0.21940000  1.0 0.1092994941
C  C1  1  0.03240000  0.15940000  0.39550000  1.0 0.0707088074
C  C2  1  0.96760000  0.84060000  0.39550000  1.0 0.0707088074
C  C3  1  0.15940000  0.03240000  0.60450000  1.0 0.0707088074
C  C4  1  0.84060000  0.96760000  0.60450000  1.0 0.0707088074
C  C5  1  0.46760000  0.34060000  0.10450000  1.0 0.0707088074
C  C6  1  0.53240000  0.65940000  0.10450000  1.0 0.0707088074
C  C7  1  0.34060000  0.46760000  0.89550000  1.0 0.0707088074
C  C8  1  0.65940000  0.53240000  0.89550000  1.0 0.0707088074
C  C9  1  0.07710000  0.26010000  0.45630000  1.0 0.0522621887
C  C10  1  0.92290000  0.73990000  0.45630000  1.0 0.0522621887
C  C11  1  0.26010000  0.07710000  0.54370000  1.0 0.0522621887
C  C12  1  0.73990000  0.92290000  0.54370000  1.0 0.0522621887
C  C13  1  0.42290000  0.23990000  0.04370000  1.0 0.0522621887
C  C14  1  0.57710000  0.76010000  0.04370000  1.0 0.0522621887
C  C15  1  0.23990000  0.42290000  0.95630000  1.0 0.0522621887
C  C16  1  0.76010000  0.57710000  0.95630000  1.0 0.0522621887
C  C17  1  0.00150000  0.20150000  0.36110000  1.0 -0.1232485978
C  C18  1  0.99850000  0.79850000  0.36110000  1.0 -0.1257040633
C  C19  1  0.20150000  0.00150000  0.63890000  1.0 -0.1232485978
C  C20  1  0.79850000  0.99850000  0.63890000  1.0 -0.1257040633
C  C21  1  0.49850000  0.29850000  0.13890000  1.0 -0.1232485978
C  C22  1  0.50150000  0.70150000  0.13890000  1.0 -0.1257040633
C  C23  1  0.29850000  0.49850000  0.86110000  1.0 -0.1232485978
C  C24  1  0.70150000  0.50150000  0.86110000  1.0 -0.1232485978
C  C25  1  0.04610000  0.30210000  0.42190000  1.0 -0.0991493051
C  C26  1  0.95390000  0.69790000  0.42190000  1.0 -0.0991493051
C  C27  1  0.30210000  0.04610000  0.57810000  1.0 -0.0991493051
C  C28  1  0.69790000  0.95390000  0.57810000  1.0 -0.0991493051
C  C29  1  0.45390000  0.19790000  0.07810000  1.0 -0.0991493051
C  C30  1  0.54610000  0.80210000  0.07810000  1.0 -0.0991493051
C  C31  1  0.19790000  0.45390000  0.92190000  1.0 -0.0991493051
C  C32  1  0.80210000  0.54610000  0.92190000  1.0 -0.0991493051
C  C33  1  0.00840000  0.27280000  0.37430000  1.0 -0.0239561037
C  C34  1  0.99160000  0.72720000  0.37430000  1.0 -0.0239561037
C  C35  1  0.27280000  0.00840000  0.62570000  1.0 -0.0239561037
C  C36  1  0.72720000  0.99160000  0.62570000  1.0 -0.0239561037
C  C37  1  0.49160000  0.22720000  0.12570000  1.0 -0.0239561037
C  C38  1  0.50840000  0.77280000  0.12570000  1.0 -0.0239561037
C  C39  1  0.22720000  0.49160000  0.87430000  1.0 -0.0239561037
C  C40  1  0.77280000  0.50840000  0.87430000  1.0 -0.0239561037
C  C41  1  0.05380000  0.37500000  0.43840000  1.0 0.6082131167
C  C42  1  0.94620000  0.62500000  0.43840000  1.0 0.6082131167
C  C43  1  0.37500000  0.05380000  0.56160000  1.0 0.6082131167
C  C44  1  0.62500000  0.94620000  0.56160000  1.0 0.6082131167
C  C45  1  0.44620000  0.12500000  0.06160000  1.0 0.6082131167
C  C46  1  0.55380000  0.87500000  0.06160000  1.0 0.6082131167
C  C47  1  0.12500000  0.44620000  0.93840000  1.0 0.6082131167
C  C48  1  0.87500000  0.55380000  0.93840000  1.0 0.6082131167
C  C49  1  0.84690000  0.43150000  0.43410000  1.0 0.6082131167
C  C50  1  0.15310000  0.56850000  0.43410000  1.0 0.6082131167
C  C51  1  0.43150000  0.84690000  0.56590000  1.0 0.6082131167
C  C52  1  0.56850000  0.15310000  0.56590000  1.0 0.6048959809
C  C53  1  0.65310000  0.06850000  0.06590000  1.0 0.6082131167
C  C54  1  0.34690000  0.93150000  0.06590000  1.0 0.6082131167
C  C55  1  0.06850000  0.65310000  0.93410000  1.0 0.6082131167
C  C56  1  0.93150000  0.34690000  0.93410000  1.0 0.6082131167
C  C57  1  0.95570000  0.40130000  0.59310000  1.0 0.6082131167
C  C58  1  0.04430000  0.59870000  0.59310000  1.0 0.6082131167
C  C59  1  0.40130000  0.95570000  0.40690000  1.0 0.6082131167
C  C60  1  0.59870000  0.04430000  0.40690000  1.0 0.6082131167
C  C61  1  0.54430000  0.09870000  0.90690000  1.0 0.6082131167
C  C62  1  0.45570000  0.90130000  0.90690000  1.0 0.6082131167
C  C63  1  0.09870000  0.54430000  0.09310000  1.0 0.6082131167
C  C64  1  0.90130000  0.45570000  0.09310000  1.0 0.6082131167
C  C65  1  0.78160000  0.38840000  0.40900000  1.0 -0.0991493051
C  C66  1  0.21840000  0.61160000  0.40900000  1.0 -0.0991493051
C  C67  1  0.38840000  0.78160000  0.59100000  1.0 -0.0991493051
C  C68  1  0.61160000  0.21840000  0.59100000  1.0 -0.0991493051
C  C69  1  0.71840000  0.11160000  0.09100000  1.0 -0.0991493051
C  C70  1  0.28160000  0.88840000  0.09100000  1.0 -0.0991493051
C  C71  1  0.11160000  0.71840000  0.90900000  1.0 -0.0991493051
C  C72  1  0.88840000  0.28160000  0.90900000  1.0 -0.0991493051
C  C73  1  0.93340000  0.33360000  0.62870000  1.0 -0.0497506396
C  C74  1  0.06660000  0.66640000  0.62870000  1.0 -0.0497506396
C  C75  1  0.33360000  0.93340000  0.37130000  1.0 -0.0497506396
C  C76  1  0.66640000  0.06660000  0.37130000  1.0 -0.0497506396
C  C77  1  0.56660000  0.16640000  0.87130000  1.0 -0.0497506396
C  C78  1  0.43340000  0.83360000  0.87130000  1.0 -0.0497506396
C  C79  1  0.16640000  0.56660000  0.12870000  1.0 -0.0497506396
C  C80  1  0.83360000  0.43340000  0.12870000  1.0 -0.0497506396
C  C81  1  0.71650000  0.38390000  0.43300000  1.0 -0.0497506396
C  C82  1  0.28350000  0.61610000  0.43300000  1.0 -0.0497506396
C  C83  1  0.38390000  0.71650000  0.56700000  1.0 -0.0497506396
C  C84  1  0.61610000  0.28350000  0.56700000  1.0 -0.0497506396
C  C85  1  0.78350000  0.11610000  0.06700000  1.0 -0.0497506396
C  C86  1  0.21650000  0.88390000  0.06700000  1.0 -0.0497506396
C  C87  1  0.11610000  0.78350000  0.93300000  1.0 -0.0497506396
C  C88  1  0.88390000  0.21650000  0.93300000  1.0 -0.0497506396
C  C89  1  0.78760000  0.35500000  0.35870000  1.0 0.0889466394
C  C90  1  0.21240000  0.64500000  0.35870000  1.0 0.0889466394
C  C91  1  0.35500000  0.78760000  0.64130000  1.0 0.0889466394
C  C92  1  0.64500000  0.21240000  0.64130000  1.0 0.0889466394
C  C93  1  0.71240000  0.14500000  0.14130000  1.0 0.0889466394
C  C94  1  0.28760000  0.85500000  0.14130000  1.0 0.0889466394
C  C95  1  0.14500000  0.71240000  0.85870000  1.0 0.0889466394
C  C96  1  0.85500000  0.28760000  0.85870000  1.0 0.0889466394
C  C97  1  0.97650000  0.28030000  0.62950000  1.0 -0.0696542251
C  C98  1  0.02350000  0.71970000  0.62950000  1.0 -0.0696542251
C  C99  1  0.28030000  0.97650000  0.37050000  1.0 -0.0696542251
C  C100  1  0.71970000  0.02350000  0.37050000  1.0 -0.0696542251
C  C101  1  0.52350000  0.21970000  0.87050000  1.0 -0.0696542251
C  C102  1  0.47650000  0.78030000  0.87050000  1.0 -0.0696542251
C  C103  1  0.21970000  0.52350000  0.12950000  1.0 -0.0696542251
C  C104  1  0.78030000  0.47650000  0.12950000  1.0 -0.0696542251
C  C105  1  0.87180000  0.32600000  0.66240000  1.0 0.0400899489
C  C106  1  0.12820000  0.67400000  0.66240000  1.0 0.0400899489
C  C107  1  0.32600000  0.87180000  0.33760000  1.0 0.0400899489
C  C108  1  0.67400000  0.12820000  0.33760000  1.0 0.0400899489
C  C109  1  0.62820000  0.17400000  0.83760000  1.0 0.0400899489
C  C110  1  0.37180000  0.82600000  0.83760000  1.0 0.0400899489
C  C111  1  0.17400000  0.62820000  0.16240000  1.0 0.0400899489
C  C112  1  0.82600000  0.37180000  0.16240000  1.0 0.0400899489
C  C113  1  0.65450000  0.34350000  0.40670000  1.0 -0.1627294349
C  C114  1  0.34550000  0.65650000  0.40670000  1.0 -0.1627294349
C  C115  1  0.34350000  0.65450000  0.59330000  1.0 -0.1627294349
C  C116  1  0.65650000  0.34550000  0.59330000  1.0 -0.1627294349
C  C117  1  0.84550000  0.15650000  0.09330000  1.0 -0.1627294349
C  C118  1  0.15450000  0.84350000  0.09330000  1.0 -0.1627294349
C  C119  1  0.15650000  0.84550000  0.90670000  1.0 -0.1627294349
C  C120  1  0.84350000  0.15450000  0.90670000  1.0 -0.1627294349
C  C121  1  0.95390000  0.22150000  0.66310000  1.0 -0.1627294349
C  C122  1  0.04610000  0.77850000  0.66310000  1.0 -0.1627294349
C  C123  1  0.22150000  0.95390000  0.33690000  1.0 -0.1627294349
C  C124  1  0.77850000  0.04610000  0.33690000  1.0 -0.1627294349
C  C125  1  0.54610000  0.27850000  0.83690000  1.0 -0.1627294349
C  C126  1  0.45390000  0.72150000  0.83690000  1.0 -0.1627294349
C  C127  1  0.27850000  0.54610000  0.16310000  1.0 -0.1627294349
C  C128  1  0.72150000  0.45390000  0.16310000  1.0 -0.1627294349
C  C129  1  0.66610000  0.31110000  0.35740000  1.0 0.0591335588
C  C130  1  0.33390000  0.68890000  0.35740000  1.0 0.0591335588
C  C131  1  0.31110000  0.66610000  0.64260000  1.0 0.0591335588
C  C132  1  0.68890000  0.33390000  0.64260000  1.0 0.0591335588
C  C133  1  0.83390000  0.18890000  0.14260000  1.0 0.0591335588
C  C134  1  0.16610000  0.81110000  0.14260000  1.0 0.0591335588
C  C135  1  0.18890000  0.83390000  0.85740000  1.0 0.0591335588
C  C136  1  0.81110000  0.16610000  0.85740000  1.0 0.0591335588
C  C137  1  0.89490000  0.21990000  0.69410000  1.0 0.0591335588
C  C138  1  0.10510000  0.78010000  0.69410000  1.0 0.0591335588
C  C139  1  0.21990000  0.89490000  0.30590000  1.0 0.0591335588
C  C140  1  0.78010000  0.10510000  0.30590000  1.0 0.0591335588
C  C141  1  0.60510000  0.28010000  0.80590000  1.0 0.0591335588
C  C142  1  0.39490000  0.71990000  0.80590000  1.0 0.0591335588
C  C143  1  0.28010000  0.60510000  0.19410000  1.0 0.0591335588
C  C144  1  0.71990000  0.39490000  0.19410000  1.0 0.0591335588
N  N1  1  0.07020000  0.18880000  0.44310000  1.0 -0.2787757424
N  N2  1  0.92980000  0.81120000  0.44310000  1.0 -0.2787757424
N  N3  1  0.18880000  0.07020000  0.55690000  1.0 -0.2787757424
N  N4  1  0.81120000  0.92980000  0.55690000  1.0 -0.2787757424
N  N5  1  0.42980000  0.31120000  0.05690000  1.0 -0.2787757424
N  N6  1  0.57020000  0.68880000  0.05690000  1.0 -0.2787757424
N  N7  1  0.31120000  0.42980000  0.94310000  1.0 -0.2787757424
N  N8  1  0.68880000  0.57020000  0.94310000  1.0 -0.2787757424
N  N9  1  0.73080000  0.31600000  0.33270000  1.0 -0.2214447243
N  N10  1  0.26920000  0.68400000  0.33270000  1.0 -0.2214447243
N  N11  1  0.31600000  0.73080000  0.66730000  1.0 -0.2214447243
N  N12  1  0.68400000  0.26920000  0.66730000  1.0 -0.2214447243
N  N13  1  0.76920000  0.18400000  0.16730000  1.0 -0.2214447243
N  N14  1  0.23080000  0.81600000  0.16730000  1.0 -0.2214447243
N  N15  1  0.18400000  0.76920000  0.83270000  1.0 -0.2214447243
N  N16  1  0.81600000  0.23080000  0.83270000  1.0 -0.2214447243
N  N17  1  0.85140000  0.26540000  0.69500000  1.0 -0.232619865
N  N18  1  0.14860000  0.73460000  0.69500000  1.0 -0.232619865
N  N19  1  0.26540000  0.85140000  0.30500000  1.0 -0.232619865
N  N20  1  0.73460000  0.14860000  0.30500000  1.0 -0.232619865
N  N21  1  0.64860000  0.23460000  0.80500000  1.0 -0.232619865
N  N22  1  0.35140000  0.76540000  0.80500000  1.0 -0.232619865
N  N23  1  0.23460000  0.64860000  0.19500000  1.0 -0.232619865
N  N24  1  0.76540000  0.35140000  0.19500000  1.0 -0.232619865
Cl  Cl1  1  0.24690000  0.21590000  0.46370000  1.0 -0.0414591204
Cl  Cl2  1  0.75310000  0.78410000  0.46370000  1.0 -0.0497506396
Cl  Cl3  1  0.21590000  0.24690000  0.53630000  1.0 -0.0497506396
Cl  Cl4  1  0.78410000  0.75310000  0.53630000  1.0 -0.0497506396
Cl  Cl5  1  0.25310000  0.28410000  0.03630000  1.0 -0.0497506396
Cl  Cl6  1  0.74690000  0.71590000  0.03630000  1.0 -0.0497506396
Cl  Cl7  1  0.28410000  0.25310000  0.96370000  1.0 -0.0414591204
Cl  Cl8  1  0.71590000  0.74690000  0.96370000  1.0 -0.0414591204
Cl  Cl9  1  0.08690000  0.02170000  0.44910000  1.0 -0.1232485978
Cl  Cl10  1  0.91310000  0.97830000  0.44910000  1.0 -0.1232485978
Cl  Cl11  1  0.02170000  0.08690000  0.55090000  1.0 -0.1232485978
Cl  Cl12  1  0.97830000  0.91310000  0.55090000  1.0 -0.1232485978
Cl  Cl13  1  0.41310000  0.47830000  0.05090000  1.0 -0.1232485978
Cl  Cl14  1  0.58690000  0.52170000  0.05090000  1.0 -0.1232485978
Cl  Cl15  1  0.47830000  0.41310000  0.94910000  1.0 -0.1232485978
Cl  Cl16  1  0.52170000  0.58690000  0.94910000  1.0 -0.1232485978
Cl  Cl17  1  0.16860000  0.08060000  0.41740000  1.0 -0.0639001151
Cl  Cl18  1  0.83140000  0.91940000  0.41740000  1.0 -0.0696542251
Cl  Cl19  1  0.08060000  0.16860000  0.58260000  1.0 -0.0696542251
Cl  Cl20  1  0.91940000  0.83140000  0.58260000  1.0 -0.0696542251
Cl  Cl21  1  0.33140000  0.41940000  0.08260000  1.0 -0.0696542251
Cl  Cl22  1  0.66860000  0.58060000  0.08260000  1.0 -0.0696542251
Cl  Cl23  1  0.41940000  0.33140000  0.91740000  1.0 -0.0639001151
Cl  Cl24  1  0.58060000  0.66860000  0.91740000  1.0 -0.0696542251
Cl  Cl25  1  0.88452000  0.28332000  0.26642000  1.0 -0.6267653815
Cl  Cl26  1  0.11548000  0.71668000  0.26642000  1.0 -0.6244458241
Cl  Cl27  1  0.28332000  0.88452000  0.73358000  1.0 -0.6267653815
Cl  Cl28  1  0.71668000  0.11548000  0.73358000  1.0 -0.6267653815
Cl  Cl29  1  0.61548000  0.21668000  0.23358000  1.0 -0.6267653815
Cl  Cl30  1  0.38452000  0.78332000  0.23358000  1.0 -0.6267653815
Cl  Cl31  1  0.21668000  0.61548000  0.76642000  1.0 -0.6267653815
Cl  Cl32  1  0.78332000  0.38452000  0.76642000  1.0 -0.6267653815
O  O1  1  0.02450000  0.41110000  0.40590000  1.0 -0.5616505092
O  O2  1  0.97550000  0.58890000  0.40590000  1.0 -0.5616505092
O  O3  1  0.41110000  0.02450000  0.59410000  1.0 -0.5616505092
O  O4  1  0.58890000  0.97550000  0.59410000  1.0 -0.5616505092
O  O5  1  0.47550000  0.08890000  0.09410000  1.0 -0.5616505092
O  O6  1  0.52450000  0.91110000  0.09410000  1.0 -0.5616505092
O  O7  1  0.08890000  0.47550000  0.90590000  1.0 -0.5616505092
O  O8  1  0.91110000  0.52450000  0.90590000  1.0 -0.5616505092
O  O9  1  0.08290000  0.39910000  0.48500000  1.0 -0.5835112465
O  O10  1  0.91710000  0.60090000  0.48500000  1.0 -0.5835112465
O  O11  1  0.39910000  0.08290000  0.51500000  1.0 -0.5835112465
O  O12  1  0.60090000  0.91710000  0.51500000  1.0 -0.5835112465
O  O13  1  0.41710000  0.10090000  0.01500000  1.0 -0.5835112465
O  O14  1  0.58290000  0.89910000  0.01500000  1.0 -0.5835112465
O  O15  1  0.10090000  0.41710000  0.98500000  1.0 -0.5835112465
O  O16  1  0.89910000  0.58290000  0.98500000  1.0 -0.5835112465
O  O17  1  0.00000000  0.50000000  0.49260000  1.0 -1.0683166368
O  O18  1  0.50000000  0.00000000  0.50740000  1.0 -1.0683166368
O  O19  1  0.50000000  0.00000000  0.00740000  1.0 -1.0683166368
O  O20  1  0.00000000  0.50000000  0.99260000  1.0 -1.0683166368
O  O21  1  0.90150000  0.44850000  0.40310000  1.0 -0.5616505092
O  O22  1  0.09850000  0.55150000  0.40310000  1.0 -0.5616505092
O  O23  1  0.44850000  0.90150000  0.59690000  1.0 -0.5616505092
O  O24  1  0.55150000  0.09850000  0.59690000  1.0 -0.5616505092
O  O25  1  0.59850000  0.05150000  0.09690000  1.0 -0.5616505092
O  O26  1  0.40150000  0.94850000  0.09690000  1.0 -0.5616505092
O  O27  1  0.05150000  0.59850000  0.90310000  1.0 -0.5616505092
O  O28  1  0.94850000  0.40150000  0.90310000  1.0 -0.5616505092
O  O29  1  0.02170000  0.41650000  0.58380000  1.0 -0.5718922449
O  O30  1  0.97830000  0.58350000  0.58380000  1.0 -0.5718922449
O  O31  1  0.41650000  0.02170000  0.41620000  1.0 -0.5718922449
O  O32  1  0.58350000  0.97830000  0.41620000  1.0 -0.5718922449
O  O33  1  0.47830000  0.08350000  0.91620000  1.0 -0.5718922449
O  O34  1  0.52170000  0.91650000  0.91620000  1.0 -0.5718922449
O  O35  1  0.08350000  0.47830000  0.08380000  1.0 -0.5718922449
O  O36  1  0.91650000  0.52170000  0.08380000  1.0 -0.5718922449
O  O37  1  0.91080000  0.43300000  0.58140000  1.0 -0.5476971698
O  O38  1  0.08920000  0.56700000  0.58140000  1.0 -0.5476971698
O  O39  1  0.43300000  0.91080000  0.41860000  1.0 -0.5476971698
O  O40  1  0.56700000  0.08920000  0.41860000  1.0 -0.5476971698
O  O41  1  0.58920000  0.06700000  0.91860000  1.0 -0.5476971698
O  O42  1  0.41080000  0.93300000  0.91860000  1.0 -0.5476971698
O  O43  1  0.06700000  0.58920000  0.08140000  1.0 -0.5476971698
O  O44  1  0.93300000  0.41080000  0.08140000  1.0 -0.5476971698
O  O45  1  0.84560000  0.45340000  0.48350000  1.0 -0.5718922449
O  O46  1  0.15440000  0.54660000  0.48350000  1.0 -0.5718922449
O  O47  1  0.45340000  0.84560000  0.51650000  1.0 -0.5718922449
O  O48  1  0.54660000  0.15440000  0.51650000  1.0 -0.5718922449
O  O49  1  0.65440000  0.04660000  0.01650000  1.0 -0.5718922449
O  O50  1  0.34560000  0.95340000  0.01650000  1.0 -0.5718922449
O  O51  1  0.04660000  0.65440000  0.98350000  1.0 -0.5718922449
O  O52  1  0.95340000  0.34560000  0.98350000  1.0 -0.5718922449
