# DDEC6 charges by PACMAN v1.1 (https://github.com/mtap-research/PACMAN-charge/)
data_OYOXAE_ASR_pacman
_symmetry_space_group_name_H-M   'P 1'
_cell_length_a   21.62750000
_cell_length_b   21.62750000
_cell_length_c   21.62750000
_cell_angle_alpha   60.00000000
_cell_angle_beta   60.00000000
_cell_angle_gamma   60.00000000
_symmetry_Int_Tables_number   1
_chemical_formula_structural   Th3H24C42(N3O4)4
_chemical_formula_sum   'Th6 H48 C84 N24 O32'
_cell_volume   7153.25923535
_cell_formula_units_Z   2
loop_
 _symmetry_equiv_pos_site_id
 _symmetry_equiv_pos_as_xyz
  1  'x, y, z'
loop_
 _atom_site_type_symbol
 _atom_site_label
 _atom_site_symmetry_multiplicity
 _atom_site_fract_x
 _atom_site_fract_y
 _atom_site_fract_z
 _atom_site_occupancy
 _atom_site_charge
Th  Th1  1  0.59169000  0.59169000  0.40831000  1.0 2.3747202858
Th  Th2  1  0.40831000  0.40831000  0.59169000  1.0 2.3747202858
Th  Th3  1  0.59169000  0.40831000  0.59169000  1.0 2.3747202858
Th  Th4  1  0.40831000  0.59169000  0.40831000  1.0 2.3747202858
Th  Th5  1  0.40831000  0.59169000  0.59169000  1.0 2.3747202858
Th  Th6  1  0.59169000  0.40831000  0.40831000  1.0 2.3752812847
H  H1  1  0.80382000  0.40834000  0.59166000  1.0 0.1352423335
H  H2  1  0.91216000  0.41250000  0.58750000  1.0 0.0902211913
H  H3  1  0.59166000  0.19618000  0.80382000  1.0 0.1352423335
H  H4  1  0.58750000  0.08784000  0.91216000  1.0 0.0902211913
H  H5  1  0.40834000  0.80382000  0.19618000  1.0 0.1352423335
H  H6  1  0.41250000  0.91216000  0.08784000  1.0 0.0902211913
H  H7  1  0.19618000  0.59166000  0.40834000  1.0 0.1352423335
H  H8  1  0.08784000  0.58750000  0.41250000  1.0 0.0902211913
H  H9  1  0.40834000  0.59166000  0.80382000  1.0 0.1352423335
H  H10  1  0.41250000  0.58750000  0.91216000  1.0 0.0902211913
H  H11  1  0.19618000  0.80382000  0.59166000  1.0 0.1352423335
H  H12  1  0.08784000  0.91216000  0.58750000  1.0 0.0902211913
H  H13  1  0.80382000  0.19618000  0.40834000  1.0 0.1352423335
H  H14  1  0.91216000  0.08784000  0.41250000  1.0 0.0902211913
H  H15  1  0.59166000  0.40834000  0.19618000  1.0 0.1352423335
H  H16  1  0.58750000  0.41250000  0.08784000  1.0 0.0902211913
H  H17  1  0.59166000  0.80382000  0.40834000  1.0 0.1352423335
H  H18  1  0.58750000  0.91216000  0.41250000  1.0 0.0902211913
H  H19  1  0.80382000  0.59166000  0.19618000  1.0 0.1352423335
H  H20  1  0.91216000  0.58750000  0.08784000  1.0 0.0902211913
H  H21  1  0.19618000  0.40834000  0.80382000  1.0 0.1352423335
H  H22  1  0.08784000  0.41250000  0.91216000  1.0 0.0902211913
H  H23  1  0.40834000  0.19618000  0.59166000  1.0 0.1352423335
H  H24  1  0.41250000  0.08784000  0.58750000  1.0 0.0902211913
H  H25  1  0.19618000  0.80382000  0.40834000  1.0 0.1352423335
H  H26  1  0.08784000  0.91216000  0.41250000  1.0 0.0902211913
H  H27  1  0.40834000  0.59166000  0.19618000  1.0 0.1352423335
H  H28  1  0.41250000  0.58750000  0.08784000  1.0 0.0902211913
H  H29  1  0.59166000  0.40834000  0.80382000  1.0 0.1352423335
H  H30  1  0.58750000  0.41250000  0.91216000  1.0 0.0902211913
H  H31  1  0.80382000  0.19618000  0.59166000  1.0 0.1352423335
H  H32  1  0.91216000  0.08784000  0.58750000  1.0 0.0902211913
H  H33  1  0.59166000  0.80382000  0.19618000  1.0 0.1352423335
H  H34  1  0.58750000  0.91216000  0.08784000  1.0 0.0902211913
H  H35  1  0.80382000  0.59166000  0.40834000  1.0 0.1352423335
H  H36  1  0.91216000  0.58750000  0.41250000  1.0 0.0902211913
H  H37  1  0.19618000  0.40834000  0.59166000  1.0 0.1352423335
H  H38  1  0.08784000  0.41250000  0.58750000  1.0 0.0902211913
H  H39  1  0.40834000  0.19618000  0.80382000  1.0 0.1352423335
H  H40  1  0.41250000  0.08784000  0.91216000  1.0 0.0902211913
H  H41  1  0.40834000  0.80382000  0.59166000  1.0 0.1352423335
H  H42  1  0.41250000  0.91216000  0.58750000  1.0 0.0902211913
H  H43  1  0.19618000  0.59166000  0.80382000  1.0 0.1352423335
H  H44  1  0.08784000  0.58750000  0.91216000  1.0 0.0902211913
H  H45  1  0.80382000  0.40834000  0.19618000  1.0 0.1352423335
H  H46  1  0.91216000  0.41250000  0.08784000  1.0 0.0902211913
H  H47  1  0.59166000  0.19618000  0.40834000  1.0 0.1352423335
H  H48  1  0.58750000  0.08784000  0.41250000  1.0 0.0902211913
C  C1  1  0.82400000  0.44640000  0.55360000  1.0 -0.0603669533
C  C2  1  0.89050000  0.44970000  0.55030000  1.0 -0.1918931835
C  C3  1  0.55360000  0.17600000  0.82400000  1.0 -0.0603669533
C  C4  1  0.55030000  0.10950000  0.89050000  1.0 -0.1918931835
C  C5  1  0.44640000  0.82400000  0.17600000  1.0 -0.0603669533
C  C6  1  0.44970000  0.89050000  0.10950000  1.0 -0.1918931835
C  C7  1  0.17600000  0.55360000  0.44640000  1.0 -0.0603669533
C  C8  1  0.10950000  0.55030000  0.44970000  1.0 -0.1918931835
C  C9  1  0.44640000  0.55360000  0.82400000  1.0 -0.0603669533
C  C10  1  0.44970000  0.55030000  0.89050000  1.0 -0.1918931835
C  C11  1  0.17600000  0.82400000  0.55360000  1.0 -0.0603669533
C  C12  1  0.10950000  0.89050000  0.55030000  1.0 -0.1918931835
C  C13  1  0.82400000  0.17600000  0.44640000  1.0 -0.0603669533
C  C14  1  0.89050000  0.10950000  0.44970000  1.0 -0.1918931835
C  C15  1  0.55360000  0.44640000  0.17600000  1.0 -0.0603669533
C  C16  1  0.55030000  0.44970000  0.10950000  1.0 -0.1918931835
C  C17  1  0.55360000  0.82400000  0.44640000  1.0 -0.0603669533
C  C18  1  0.55030000  0.89050000  0.44970000  1.0 -0.1918931835
C  C19  1  0.82400000  0.55360000  0.17600000  1.0 -0.0603669533
C  C20  1  0.89050000  0.55030000  0.10950000  1.0 -0.1918931835
C  C21  1  0.17600000  0.44640000  0.82400000  1.0 -0.0603669533
C  C22  1  0.10950000  0.44970000  0.89050000  1.0 -0.1918931835
C  C23  1  0.44640000  0.17600000  0.55360000  1.0 -0.0603669533
C  C24  1  0.44970000  0.10950000  0.55030000  1.0 -0.1918931835
C  C25  1  0.17600000  0.82400000  0.44640000  1.0 -0.0603669533
C  C26  1  0.10950000  0.89050000  0.44970000  1.0 -0.1918931835
C  C27  1  0.44640000  0.55360000  0.17600000  1.0 -0.0603669533
C  C28  1  0.44970000  0.55030000  0.10950000  1.0 -0.1918931835
C  C29  1  0.55360000  0.44640000  0.82400000  1.0 -0.0603669533
C  C30  1  0.55030000  0.44970000  0.89050000  1.0 -0.1918931835
C  C31  1  0.82400000  0.17600000  0.55360000  1.0 -0.0603669533
C  C32  1  0.89050000  0.10950000  0.55030000  1.0 -0.1918931835
C  C33  1  0.55360000  0.82400000  0.17600000  1.0 -0.0603669533
C  C34  1  0.55030000  0.89050000  0.10950000  1.0 -0.1918931835
C  C35  1  0.82400000  0.55360000  0.44640000  1.0 -0.0603669533
C  C36  1  0.89050000  0.55030000  0.44970000  1.0 -0.1918931835
C  C37  1  0.17600000  0.44640000  0.55360000  1.0 -0.0603669533
C  C38  1  0.10950000  0.44970000  0.55030000  1.0 -0.1918931835
C  C39  1  0.44640000  0.17600000  0.82400000  1.0 -0.0603669533
C  C40  1  0.44970000  0.10950000  0.89050000  1.0 -0.1918931835
C  C41  1  0.44640000  0.82400000  0.55360000  1.0 -0.0603669533
C  C42  1  0.44970000  0.89050000  0.55030000  1.0 -0.1918931835
C  C43  1  0.17600000  0.55360000  0.82400000  1.0 -0.0603669533
C  C44  1  0.10950000  0.55030000  0.89050000  1.0 -0.1918931835
C  C45  1  0.82400000  0.44640000  0.17600000  1.0 -0.0603669533
C  C46  1  0.89050000  0.44970000  0.10950000  1.0 -0.1918931835
C  C47  1  0.55360000  0.17600000  0.44640000  1.0 -0.0603669533
C  C48  1  0.55030000  0.10950000  0.44970000  1.0 -0.1918931835
C  C49  1  0.72320000  0.50000000  0.50000000  1.0 0.6417304729
C  C50  1  0.79140000  0.50000000  0.50000000  1.0 -0.0318727622
C  C51  1  0.92240000  0.50000000  0.50000000  1.0 0.150225081
C  C52  1  0.50000000  0.27680000  0.72320000  1.0 0.6417304729
C  C53  1  0.50000000  0.20860000  0.79140000  1.0 -0.0318727622
C  C54  1  0.50000000  0.07760000  0.92240000  1.0 0.150225081
C  C55  1  0.50000000  0.72320000  0.27680000  1.0 0.6417304729
C  C56  1  0.50000000  0.79140000  0.20860000  1.0 -0.0318727622
C  C57  1  0.50000000  0.92240000  0.07760000  1.0 0.150225081
C  C58  1  0.27680000  0.50000000  0.50000000  1.0 0.6417304729
C  C59  1  0.20860000  0.50000000  0.50000000  1.0 -0.0318727622
C  C60  1  0.07760000  0.50000000  0.50000000  1.0 0.150225081
C  C61  1  0.50000000  0.50000000  0.72320000  1.0 0.6417304729
C  C62  1  0.50000000  0.50000000  0.79140000  1.0 -0.0318727622
C  C63  1  0.50000000  0.50000000  0.92240000  1.0 0.150225081
C  C64  1  0.27680000  0.72320000  0.50000000  1.0 0.6417304729
C  C65  1  0.20860000  0.79140000  0.50000000  1.0 -0.0318727622
C  C66  1  0.07760000  0.92240000  0.50000000  1.0 0.150225081
C  C67  1  0.72320000  0.27680000  0.50000000  1.0 0.6417304729
C  C68  1  0.79140000  0.20860000  0.50000000  1.0 -0.0318727622
C  C69  1  0.92240000  0.07760000  0.50000000  1.0 0.150225081
C  C70  1  0.50000000  0.50000000  0.27680000  1.0 0.6417304729
C  C71  1  0.50000000  0.50000000  0.20860000  1.0 -0.0318727622
C  C72  1  0.50000000  0.50000000  0.07760000  1.0 0.150225081
C  C73  1  0.50000000  0.72320000  0.50000000  1.0 0.6417304729
C  C74  1  0.50000000  0.79140000  0.50000000  1.0 -0.0318727622
C  C75  1  0.50000000  0.92240000  0.50000000  1.0 0.150225081
C  C76  1  0.72320000  0.50000000  0.27680000  1.0 0.6417304729
C  C77  1  0.79140000  0.50000000  0.20860000  1.0 -0.0318727622
C  C78  1  0.92240000  0.50000000  0.07760000  1.0 0.150225081
C  C79  1  0.27680000  0.50000000  0.72320000  1.0 0.6417304729
C  C80  1  0.20860000  0.50000000  0.79140000  1.0 -0.0318727622
C  C81  1  0.07760000  0.50000000  0.92240000  1.0 0.150225081
C  C82  1  0.50000000  0.27680000  0.50000000  1.0 0.6417304729
C  C83  1  0.50000000  0.20860000  0.50000000  1.0 -0.0318727622
C  C84  1  0.50000000  0.07760000  0.50000000  1.0 0.150225081
N  N1  1  0.98530000  0.47850000  0.52150000  1.0 -0.0033848155
N  N2  1  0.52150000  0.01470000  0.98530000  1.0 -0.0105565326
N  N3  1  0.47850000  0.98530000  0.01470000  1.0 -0.0033848155
N  N4  1  0.01470000  0.52150000  0.47850000  1.0 -0.0105565326
N  N5  1  0.47850000  0.52150000  0.98530000  1.0 -0.0105565326
N  N6  1  0.01470000  0.98530000  0.52150000  1.0 -0.0105565326
N  N7  1  0.98530000  0.01470000  0.47850000  1.0 -0.0105565326
N  N8  1  0.52150000  0.47850000  0.01470000  1.0 -0.0105565326
N  N9  1  0.52150000  0.98530000  0.47850000  1.0 -0.0105565326
N  N10  1  0.98530000  0.52150000  0.01470000  1.0 -0.0105565326
N  N11  1  0.01470000  0.47850000  0.98530000  1.0 -0.0166431054
N  N12  1  0.47850000  0.01470000  0.52150000  1.0 -0.0105565326
N  N13  1  0.01470000  0.98530000  0.47850000  1.0 -0.0105565326
N  N14  1  0.47850000  0.52150000  0.01470000  1.0 -0.0105565326
N  N15  1  0.52150000  0.47850000  0.98530000  1.0 -0.0105565326
N  N16  1  0.98530000  0.01470000  0.52150000  1.0 -0.0105565326
N  N17  1  0.52150000  0.98530000  0.01470000  1.0 -0.0105565326
N  N18  1  0.98530000  0.52150000  0.47850000  1.0 -0.0105565326
N  N19  1  0.01470000  0.47850000  0.52150000  1.0 -0.0166431054
N  N20  1  0.47850000  0.01470000  0.98530000  1.0 -0.0166431054
N  N21  1  0.47850000  0.98530000  0.52150000  1.0 -0.0105565326
N  N22  1  0.01470000  0.52150000  0.98530000  1.0 -0.0166431054
N  N23  1  0.98530000  0.47850000  0.01470000  1.0 -0.0105565326
N  N24  1  0.52150000  0.01470000  0.47850000  1.0 -0.0105565326
O  O1  1  0.54430000  0.54430000  0.36710000  1.0 -1.0786604033
O  O2  1  0.36710000  0.54430000  0.54430000  1.0 -1.0786604033
O  O3  1  0.54430000  0.54430000  0.54430000  1.0 -1.0786604033
O  O4  1  0.54430000  0.36710000  0.54430000  1.0 -1.0786604033
O  O5  1  0.45570000  0.45570000  0.63290000  1.0 -1.0786604033
O  O6  1  0.63290000  0.45570000  0.45570000  1.0 -1.0786604033
O  O7  1  0.45570000  0.63290000  0.45570000  1.0 -1.0786604033
O  O8  1  0.45570000  0.45570000  0.45570000  1.0 -1.0786604033
O  O9  1  0.69800000  0.55300000  0.44700000  1.0 -0.5764214442
O  O10  1  0.44700000  0.30200000  0.69800000  1.0 -0.5764214442
O  O11  1  0.55300000  0.69800000  0.30200000  1.0 -0.5764214442
O  O12  1  0.30200000  0.44700000  0.55300000  1.0 -0.5764214442
O  O13  1  0.55300000  0.44700000  0.69800000  1.0 -0.5764214442
O  O14  1  0.30200000  0.69800000  0.44700000  1.0 -0.5764214442
O  O15  1  0.69800000  0.30200000  0.55300000  1.0 -0.5764214442
O  O16  1  0.44700000  0.55300000  0.30200000  1.0 -0.5764214442
O  O17  1  0.44700000  0.69800000  0.55300000  1.0 -0.5764214442
O  O18  1  0.69800000  0.44700000  0.30200000  1.0 -0.5764214442
O  O19  1  0.30200000  0.55300000  0.69800000  1.0 -0.5764214442
O  O20  1  0.55300000  0.30200000  0.44700000  1.0 -0.5764214442
O  O21  1  0.30200000  0.69800000  0.55300000  1.0 -0.5764214442
O  O22  1  0.55300000  0.44700000  0.30200000  1.0 -0.5764214442
O  O23  1  0.44700000  0.55300000  0.69800000  1.0 -0.5764214442
O  O24  1  0.69800000  0.30200000  0.44700000  1.0 -0.5764214442
O  O25  1  0.44700000  0.69800000  0.30200000  1.0 -0.5764214442
O  O26  1  0.69800000  0.44700000  0.55300000  1.0 -0.5764214442
O  O27  1  0.30200000  0.55300000  0.44700000  1.0 -0.5764214442
O  O28  1  0.55300000  0.30200000  0.69800000  1.0 -0.5764214442
O  O29  1  0.55300000  0.69800000  0.44700000  1.0 -0.5764214442
O  O30  1  0.30200000  0.44700000  0.69800000  1.0 -0.5764214442
O  O31  1  0.69800000  0.55300000  0.30200000  1.0 -0.5764214442
O  O32  1  0.44700000  0.30200000  0.55300000  1.0 -0.5764214442
