# DDEC6 charges by PACMAN v1.1 (https://github.com/mtap-research/PACMAN-charge/)
data_OZAVUI_ASR_pacman
_symmetry_space_group_name_H-M   'P 1'
_cell_length_a   6.78620000
_cell_length_b   11.09500000
_cell_length_c   18.92420000
_cell_angle_alpha   90.00000000
_cell_angle_beta   105.21800000
_cell_angle_gamma   90.00000000
_symmetry_Int_Tables_number   1
_chemical_formula_structural   SrH2C6SO4
_chemical_formula_sum   'Sr4 H8 C24 S4 O16'
_cell_volume   1374.89374096
_cell_formula_units_Z   4
loop_
 _symmetry_equiv_pos_site_id
 _symmetry_equiv_pos_as_xyz
  1  'x, y, z'
loop_
 _atom_site_type_symbol
 _atom_site_label
 _atom_site_symmetry_multiplicity
 _atom_site_fract_x
 _atom_site_fract_y
 _atom_site_fract_z
 _atom_site_occupancy
 _atom_site_charge
Sr  Sr1  1  0.27783000  0.10484000  0.02063000  1.0 1.4230495994
Sr  Sr2  1  0.72217000  0.60484000  0.47937000  1.0 1.4230495994
Sr  Sr3  1  0.72217000  0.89516000  0.97937000  1.0 1.4230495994
Sr  Sr4  1  0.27783000  0.39516000  0.52063000  1.0 1.4230495994
H  H1  1  0.71480000  0.30810000  0.81790000  1.0 0.1310010483
H  H2  1  0.58740000  0.39530000  0.69670000  1.0 0.1110004788
H  H3  1  0.28520000  0.80810000  0.68210000  1.0 0.1310010483
H  H4  1  0.41260000  0.89530000  0.80330000  1.0 0.1110004788
H  H5  1  0.28520000  0.69190000  0.18210000  1.0 0.1310010483
H  H6  1  0.41260000  0.60470000  0.30330000  1.0 0.1110004788
H  H7  1  0.71480000  0.19190000  0.31790000  1.0 0.1310010483
H  H8  1  0.58740000  0.10470000  0.19670000  1.0 0.1110004788
C  C1  1  0.98610000  0.27280000  0.79610000  1.0 -0.0962661946
C  C2  1  0.79070000  0.31300000  0.78370000  1.0 -0.1074661086
C  C3  1  0.71770000  0.36260000  0.71370000  1.0 -0.1405029254
C  C4  1  0.85730000  0.35820000  0.67230000  1.0 -0.1279211449
C  C5  1  0.82980000  0.39910000  0.59580000  1.0 0.6226398056
C  C6  1  0.11270000  0.21710000  0.86570000  1.0 0.5516885524
C  C7  1  0.01390000  0.77280000  0.70390000  1.0 -0.0962661946
C  C8  1  0.20930000  0.81300000  0.71630000  1.0 -0.1074661086
C  C9  1  0.28230000  0.86260000  0.78630000  1.0 -0.1405029254
C  C10  1  0.14270000  0.85820000  0.82770000  1.0 -0.1279211449
C  C11  1  0.17020000  0.89910000  0.90420000  1.0 0.6226398056
C  C12  1  0.88730000  0.71710000  0.63430000  1.0 0.5516885524
C  C13  1  0.01390000  0.72720000  0.20390000  1.0 -0.0962661946
C  C14  1  0.20930000  0.68700000  0.21630000  1.0 -0.1074661086
C  C15  1  0.28230000  0.63740000  0.28630000  1.0 -0.1405029254
C  C16  1  0.14270000  0.64180000  0.32770000  1.0 -0.1279211449
C  C17  1  0.17020000  0.60090000  0.40420000  1.0 0.6226398056
C  C18  1  0.88730000  0.78290000  0.13430000  1.0 0.5516885524
C  C19  1  0.98610000  0.22720000  0.29610000  1.0 -0.0962661946
C  C20  1  0.79070000  0.18700000  0.28370000  1.0 -0.1074661086
C  C21  1  0.71770000  0.13740000  0.21370000  1.0 -0.1405029254
C  C22  1  0.85730000  0.14180000  0.17230000  1.0 -0.1279211449
C  C23  1  0.82980000  0.10090000  0.09580000  1.0 0.6226398056
C  C24  1  0.11270000  0.28290000  0.36570000  1.0 0.5516885524
S  S1  1  0.08194000  0.29480000  0.72134000  1.0 0.1483057147
S  S2  1  0.91806000  0.79480000  0.77866000  1.0 0.1483057147
S  S3  1  0.91806000  0.70520000  0.27866000  1.0 0.1483057147
S  S4  1  0.08194000  0.20520000  0.22134000  1.0 0.1483057147
O  O1  1  0.01750000  0.19120000  0.91290000  1.0 -0.6058171833
O  O2  1  0.29820000  0.20270000  0.87460000  1.0 -0.5507335657
O  O3  1  0.97900000  0.39980000  0.56940000  1.0 -0.6559246177
O  O4  1  0.65300000  0.43320000  0.56160000  1.0 -0.7001627827
O  O5  1  0.98250000  0.69120000  0.58710000  1.0 -0.6058171833
O  O6  1  0.70180000  0.70270000  0.62540000  1.0 -0.5565149182
O  O7  1  0.02100000  0.89980000  0.93060000  1.0 -0.6559246177
O  O8  1  0.34700000  0.93320000  0.93840000  1.0 -0.7001627827
O  O9  1  0.98250000  0.80880000  0.08710000  1.0 -0.6058171833
O  O10  1  0.70180000  0.79730000  0.12540000  1.0 -0.5507335657
O  O11  1  0.02100000  0.60020000  0.43060000  1.0 -0.6559246177
O  O12  1  0.34700000  0.56680000  0.43840000  1.0 -0.7001627827
O  O13  1  0.01750000  0.30880000  0.41290000  1.0 -0.6058171833
O  O14  1  0.29820000  0.29730000  0.37460000  1.0 -0.5565149182
O  O15  1  0.97900000  0.10020000  0.06940000  1.0 -0.6559246177
O  O16  1  0.65300000  0.06680000  0.06160000  1.0 -0.7001627827
