# DDEC6 charges by PACMAN v1.1 (https://github.com/mtap-research/PACMAN-charge/)
data_OZUKOK_FSR_pacman
_symmetry_space_group_name_H-M   'P 1'
_cell_length_a   6.17480000
_cell_length_b   11.12240000
_cell_length_c   19.08990000
_cell_angle_alpha   90.00000000
_cell_angle_beta   94.07400000
_cell_angle_gamma   90.00000000
_symmetry_Int_Tables_number   1
_chemical_formula_structural   Cu2P4H4C4S3NCl2
_chemical_formula_sum   'Cu8 P16 H16 C16 S12 N4 Cl8'
_cell_volume   1307.75461654
_cell_formula_units_Z   4
loop_
 _symmetry_equiv_pos_site_id
 _symmetry_equiv_pos_as_xyz
  1  'x, y, z'
loop_
 _atom_site_type_symbol
 _atom_site_label
 _atom_site_symmetry_multiplicity
 _atom_site_fract_x
 _atom_site_fract_y
 _atom_site_fract_z
 _atom_site_occupancy
 _atom_site_charge
Cu  Cu1  1  0.63543000  0.85448000  0.65663000  1.0 0.1701505088
Cu  Cu2  1  0.86457000  0.35448000  0.34337000  1.0 0.1701505088
Cu  Cu3  1  0.36457000  0.14552000  0.34337000  1.0 0.1701505088
Cu  Cu4  1  0.13543000  0.64552000  0.65663000  1.0 0.1701505088
Cu  Cu5  1  0.78862000  0.14439000  0.00312000  1.0 0.317706553
Cu  Cu6  1  0.71138000  0.64439000  0.99688000  1.0 0.317706553
Cu  Cu7  1  0.21138000  0.85561000  0.99688000  1.0 0.317706553
Cu  Cu8  1  0.28862000  0.35561000  0.00312000  1.0 0.317706553
P  P1  1  0.54064000  0.94441000  0.75105000  1.0 0.132263621
P  P2  1  0.95936000  0.44441000  0.24895000  1.0 0.132263621
P  P3  1  0.45936000  0.05559000  0.24895000  1.0 0.132263621
P  P4  1  0.04064000  0.55559000  0.75105000  1.0 0.132263621
P  P5  1  0.62068000  0.07139000  0.90251000  1.0 0.0315539768
P  P6  1  0.87932000  0.57139000  0.09749000  1.0 0.0315539768
P  P7  1  0.37932000  0.92861000  0.09749000  1.0 0.0315539768
P  P8  1  0.12068000  0.42861000  0.90251000  1.0 0.0315539768
P  P9  1  0.30340000  0.13685000  0.85096000  1.0 0.1800376105
P  P10  1  0.19660000  0.63685000  0.14904000  1.0 0.1800376105
P  P11  1  0.69660000  0.86315000  0.14904000  1.0 0.1800376105
P  P12  1  0.80340000  0.36315000  0.85096000  1.0 0.1876065858
P  P13  1  0.33315000  0.95237000  0.90083000  1.0 0.042700634
P  P14  1  0.16685000  0.45237000  0.09917000  1.0 0.042700634
P  P15  1  0.66685000  0.04763000  0.09917000  1.0 0.042700634
P  P16  1  0.83315000  0.54763000  0.90083000  1.0 0.042700634
H  H1  1  0.81160000  0.04450000  0.56530000  1.0 0.0797933591
H  H2  1  0.68840000  0.54450000  0.43470000  1.0 0.0797933591
H  H3  1  0.18840000  0.95550000  0.43470000  1.0 0.0797933591
H  H4  1  0.31160000  0.45550000  0.56530000  1.0 0.0797933591
H  H5  1  0.27640000  0.85430000  0.53810000  1.0 0.0797933591
H  H6  1  0.22360000  0.35430000  0.46190000  1.0 0.0797933591
H  H7  1  0.72360000  0.14570000  0.46190000  1.0 0.0797933591
H  H8  1  0.77640000  0.64570000  0.53810000  1.0 0.0797933591
H  H9  1  0.82720000  0.90860000  0.51920000  1.0 0.0725731381
H  H10  1  0.67280000  0.40860000  0.48080000  1.0 0.0725731381
H  H11  1  0.17280000  0.09140000  0.48080000  1.0 0.0725731381
H  H12  1  0.32720000  0.59140000  0.51920000  1.0 0.0725731381
H  H13  1  0.25610000  0.98770000  0.58370000  1.0 0.0797933591
H  H14  1  0.24390000  0.48770000  0.41630000  1.0 0.0797933591
H  H15  1  0.74390000  0.01230000  0.41630000  1.0 0.0797933591
H  H16  1  0.75610000  0.51230000  0.58370000  1.0 0.0797933591
C  C1  1  0.68040000  0.02470000  0.53880000  1.0 -0.0028683314
C  C2  1  0.81960000  0.52470000  0.46120000  1.0 -0.0028683314
C  C3  1  0.31960000  0.97530000  0.46120000  1.0 -0.0028683314
C  C4  1  0.18040000  0.47530000  0.53880000  1.0 -0.0028683314
C  C5  1  0.37190000  0.91480000  0.52330000  1.0 -0.0028683314
C  C6  1  0.12810000  0.41480000  0.47670000  1.0 -0.0028683314
C  C7  1  0.62810000  0.08520000  0.47670000  1.0 -0.0028683314
C  C8  1  0.87190000  0.58520000  0.52330000  1.0 -0.0028683314
C  C9  1  0.69000000  0.94660000  0.51240000  1.0 -0.0050640948
C  C10  1  0.81000000  0.44660000  0.48760000  1.0 -0.0028683314
C  C11  1  0.31000000  0.05340000  0.48760000  1.0 -0.0050640948
C  C12  1  0.19000000  0.55340000  0.51240000  1.0 -0.0050640948
C  C13  1  0.36100000  0.99200000  0.54970000  1.0 0.0006184444
C  C14  1  0.13900000  0.49200000  0.45030000  1.0 0.0006184444
C  C15  1  0.63900000  0.00800000  0.45030000  1.0 0.0006184444
C  C16  1  0.86100000  0.50800000  0.54970000  1.0 0.0006184444
S  S1  1  0.79493000  0.00945000  0.81998000  1.0 -0.0612448234
S  S2  1  0.70507000  0.50945000  0.18002000  1.0 -0.0612448234
S  S3  1  0.20507000  0.99055000  0.18002000  1.0 -0.0612448234
S  S4  1  0.29493000  0.49055000  0.81998000  1.0 -0.0612448234
S  S5  1  0.33875000  0.09735000  0.74505000  1.0 -0.0891848657
S  S6  1  0.16125000  0.59735000  0.25495000  1.0 -0.0891848657
S  S7  1  0.66125000  0.90265000  0.25495000  1.0 -0.0891848657
S  S8  1  0.83875000  0.40265000  0.74505000  1.0 -0.0891848657
S  S9  1  0.37553000  0.83426000  0.81833000  1.0 -0.0427999346
S  S10  1  0.12447000  0.33426000  0.18167000  1.0 -0.0427999346
S  S11  1  0.62447000  0.16574000  0.18167000  1.0 -0.0427999346
S  S12  1  0.87553000  0.66574000  0.81833000  1.0 -0.0427999346
N  N1  1  0.55220000  0.93890000  0.56295000  1.0 -0.1461847782
N  N2  1  0.94780000  0.43890000  0.43705000  1.0 -0.1461847782
N  N3  1  0.44780000  0.06110000  0.43705000  1.0 -0.1461847782
N  N4  1  0.05220000  0.56110000  0.56295000  1.0 -0.1461847782
Cl  Cl1  1  0.51066000  0.65786000  0.65061000  1.0 -0.4017039857
Cl  Cl2  1  0.98934000  0.15786000  0.34939000  1.0 -0.4017039857
Cl  Cl3  1  0.48934000  0.34214000  0.34939000  1.0 -0.4017039857
Cl  Cl4  1  0.01066000  0.84214000  0.65061000  1.0 -0.4017039857
Cl  Cl5  1  0.15908000  0.15991000  0.01227000  1.0 -0.4375066034
Cl  Cl6  1  0.34092000  0.65991000  0.98773000  1.0 -0.4375066034
Cl  Cl7  1  0.84092000  0.84009000  0.98773000  1.0 -0.4375066034
Cl  Cl8  1  0.65908000  0.34009000  0.01227000  1.0 -0.4375066034
