# DDEC6 charges by PACMAN v1.1 (https://github.com/mtap-research/PACMAN-charge/)
data_OZUKUR01_ASR_pacman
_symmetry_space_group_name_H-M   'P 1'
_cell_length_a   15.44570000
_cell_length_b   15.44570000
_cell_length_c   15.44570000
_cell_angle_alpha   117.69200000
_cell_angle_beta   117.69200000
_cell_angle_gamma   117.69200000
_symmetry_Int_Tables_number   1
_chemical_formula_structural   MnHC4O3
_chemical_formula_sum   'Mn6 H6 C24 O18'
_cell_volume   1433.72532939
_cell_formula_units_Z   6
loop_
 _symmetry_equiv_pos_site_id
 _symmetry_equiv_pos_as_xyz
  1  'x, y, z'
loop_
 _atom_site_type_symbol
 _atom_site_label
 _atom_site_symmetry_multiplicity
 _atom_site_fract_x
 _atom_site_fract_y
 _atom_site_fract_z
 _atom_site_occupancy
 _atom_site_charge
Mn  Mn1  1  0.67610000  0.95890000  0.35300000  1.0 0.9107789676
Mn  Mn2  1  0.95890000  0.35300000  0.67610000  1.0 0.9107789676
Mn  Mn3  1  0.35300000  0.67610000  0.95890000  1.0 0.9107789676
Mn  Mn4  1  0.32390000  0.04110000  0.64700000  1.0 0.9107789676
Mn  Mn5  1  0.04110000  0.64700000  0.32390000  1.0 0.9107789676
Mn  Mn6  1  0.64700000  0.32390000  0.04110000  1.0 0.9107789676
H  H1  1  0.88010000  0.31920000  0.83870000  1.0 0.1570686704
H  H2  1  0.31920000  0.83870000  0.88010000  1.0 0.1570686704
H  H3  1  0.83870000  0.88010000  0.31920000  1.0 0.1570686704
H  H4  1  0.11990000  0.68080000  0.16130000  1.0 0.1570686704
H  H5  1  0.68080000  0.16130000  0.11990000  1.0 0.1570686704
H  H6  1  0.16130000  0.11990000  0.68080000  1.0 0.1570686704
C  C1  1  0.34540000  0.78650000  0.16910000  1.0 0.6160677354
C  C2  1  0.78650000  0.16910000  0.34540000  1.0 0.6160677354
C  C3  1  0.16910000  0.34540000  0.78650000  1.0 0.6160677354
C  C4  1  0.65460000  0.21350000  0.83090000  1.0 0.6160677354
C  C5  1  0.21350000  0.83090000  0.65460000  1.0 0.6160677354
C  C6  1  0.83090000  0.65460000  0.21350000  1.0 0.6160677354
C  C7  1  0.46860000  0.91880000  0.36960000  1.0 -0.1391695062
C  C8  1  0.91880000  0.36960000  0.46860000  1.0 -0.1391695062
C  C9  1  0.36960000  0.46860000  0.91880000  1.0 -0.1391695062
C  C10  1  0.53140000  0.08120000  0.63040000  1.0 -0.1391695062
C  C11  1  0.08120000  0.63040000  0.53140000  1.0 -0.1391695062
C  C12  1  0.63040000  0.53140000  0.08120000  1.0 -0.1391695062
C  C13  1  0.65970000  0.09830000  0.57200000  1.0 0.2121859372
C  C14  1  0.09830000  0.57200000  0.65970000  1.0 0.2121859372
C  C15  1  0.57200000  0.65970000  0.09830000  1.0 0.2121859372
C  C16  1  0.34030000  0.90170000  0.42800000  1.0 0.2121859372
C  C17  1  0.90170000  0.42800000  0.34030000  1.0 0.2121859372
C  C18  1  0.42800000  0.34030000  0.90170000  1.0 0.2121859372
C  C19  1  0.68510000  0.16260000  0.68330000  1.0 -0.1460057119
C  C20  1  0.16260000  0.68330000  0.68510000  1.0 -0.1460057119
C  C21  1  0.68330000  0.68510000  0.16260000  1.0 -0.1460057119
C  C22  1  0.31490000  0.83740000  0.31670000  1.0 -0.1460057119
C  C23  1  0.83740000  0.31670000  0.31490000  1.0 -0.1460057119
C  C24  1  0.31670000  0.31490000  0.83740000  1.0 -0.1460057119
O  O1  1  0.15880000  0.62510000  0.01310000  1.0 -0.4971567958
O  O2  1  0.62510000  0.01310000  0.15880000  1.0 -0.4971567958
O  O3  1  0.01310000  0.15880000  0.62510000  1.0 -0.4971567958
O  O4  1  0.84120000  0.37490000  0.98690000  1.0 -0.4971567958
O  O5  1  0.37490000  0.98690000  0.84120000  1.0 -0.4971567958
O  O6  1  0.98690000  0.84120000  0.37490000  1.0 -0.4971567958
O  O7  1  0.43050000  0.79730000  0.16020000  1.0 -0.5217767377
O  O8  1  0.79730000  0.16020000  0.43050000  1.0 -0.5217767377
O  O9  1  0.16020000  0.43050000  0.79730000  1.0 -0.5217767377
O  O10  1  0.56950000  0.20270000  0.83980000  1.0 -0.5217767377
O  O11  1  0.20270000  0.83980000  0.56950000  1.0 -0.5217767377
O  O12  1  0.83980000  0.56950000  0.20270000  1.0 -0.5217767377
O  O13  1  0.76680000  0.13940000  0.57380000  1.0 -0.591992559
O  O14  1  0.13940000  0.57380000  0.76680000  1.0 -0.591992559
O  O15  1  0.57380000  0.76680000  0.13940000  1.0 -0.591992559
O  O16  1  0.23320000  0.86060000  0.42620000  1.0 -0.591992559
O  O17  1  0.86060000  0.42620000  0.23320000  1.0 -0.591992559
O  O18  1  0.42620000  0.23320000  0.86060000  1.0 -0.591992559
