# DDEC6 charges by PACMAN v1.1 (https://github.com/mtap-research/PACMAN-charge/)
data_PACHUZ_FSR_pacman
_symmetry_space_group_name_H-M   'P 1'
_cell_length_a   20.35400000
_cell_length_b   20.35400000
_cell_length_c   14.15880000
_cell_angle_alpha   86.58270000
_cell_angle_beta   93.41730000
_cell_angle_gamma   127.15200000
_symmetry_Int_Tables_number   1
_chemical_formula_structural   Zn2H12C19N3O5F6
_chemical_formula_sum   'Zn16 H96 C152 N24 O40 F48'
_cell_volume   4664.87276211
_cell_formula_units_Z   8
loop_
 _symmetry_equiv_pos_site_id
 _symmetry_equiv_pos_as_xyz
  1  'x, y, z'
loop_
 _atom_site_type_symbol
 _atom_site_label
 _atom_site_symmetry_multiplicity
 _atom_site_fract_x
 _atom_site_fract_y
 _atom_site_fract_z
 _atom_site_occupancy
 _atom_site_charge
Zn  Zn1  1  0.89909000  0.31651000  0.93386000  1.0 0.7582891398
Zn  Zn2  1  0.31651000  0.89909000  0.56614000  1.0 0.7582891398
Zn  Zn3  1  0.10091000  0.68349000  0.06614000  1.0 0.7582891398
Zn  Zn4  1  0.68349000  0.10091000  0.43386000  1.0 0.7582891398
Zn  Zn5  1  0.33915000  0.97213000  0.80099000  1.0 0.7516509109
Zn  Zn6  1  0.97213000  0.33915000  0.69901000  1.0 0.7516509109
Zn  Zn7  1  0.66085000  0.02787000  0.19901000  1.0 0.7516509109
Zn  Zn8  1  0.02787000  0.66085000  0.30099000  1.0 0.7516509109
Zn  Zn9  1  0.00457000  0.64203000  0.76880000  1.0 0.8692809158
Zn  Zn10  1  0.64203000  0.00457000  0.73120000  1.0 0.8692809158
Zn  Zn11  1  0.99543000  0.35797000  0.23120000  1.0 0.8692809158
Zn  Zn12  1  0.35797000  0.99543000  0.26880000  1.0 0.8692809158
Zn  Zn13  1  0.00029000  0.65471000  0.76880000  1.0 0.8940672093
Zn  Zn14  1  0.65471000  0.00029000  0.73120000  1.0 0.8954224401
Zn  Zn15  1  0.99971000  0.34529000  0.23120000  1.0 0.8940672093
Zn  Zn16  1  0.34529000  0.99971000  0.26880000  1.0 0.8940672093
H  H1  1  0.14130000  0.72350000  0.61620000  1.0 0.1289077365
H  H2  1  0.72350000  0.14130000  0.88380000  1.0 0.1289077365
H  H3  1  0.85870000  0.27650000  0.38380000  1.0 0.1289077365
H  H4  1  0.27650000  0.85870000  0.11620000  1.0 0.1289077365
H  H5  1  0.15490000  0.82290000  0.84880000  1.0 0.1289077365
H  H6  1  0.82290000  0.15490000  0.65120000  1.0 0.1289077365
H  H7  1  0.84510000  0.17710000  0.15120000  1.0 0.1289077365
H  H8  1  0.17710000  0.84510000  0.34880000  1.0 0.1289077365
H  H9  1  0.78910000  0.38070000  0.39920000  1.0 0.109225557
H  H10  1  0.38070000  0.78910000  0.10080000  1.0 0.109225557
H  H11  1  0.21090000  0.61930000  0.60080000  1.0 0.109225557
H  H12  1  0.61930000  0.21090000  0.89920000  1.0 0.109225557
H  H13  1  0.89790000  0.47290000  0.49830000  1.0 0.1001898113
H  H14  1  0.47290000  0.89790000  0.00170000  1.0 0.1001898113
H  H15  1  0.10210000  0.52710000  0.50170000  1.0 0.1001898113
H  H16  1  0.52710000  0.10210000  0.99830000  1.0 0.1001898113
H  H17  1  0.37470000  0.20650000  0.79340000  1.0 0.109225557
H  H18  1  0.20650000  0.37470000  0.70660000  1.0 0.109225557
H  H19  1  0.62530000  0.79350000  0.20660000  1.0 0.109225557
H  H20  1  0.79350000  0.62530000  0.29340000  1.0 0.109225557
H  H21  1  0.13900000  0.34700000  0.15950000  1.0 0.109225557
H  H22  1  0.34700000  0.13900000  0.34050000  1.0 0.109225557
H  H23  1  0.86100000  0.65300000  0.84050000  1.0 0.109225557
H  H24  1  0.65300000  0.86100000  0.65950000  1.0 0.109225557
H  H25  1  0.67030000  0.47250000  0.46380000  1.0 0.109225557
H  H26  1  0.47250000  0.67030000  0.03620000  1.0 0.109225557
H  H27  1  0.32970000  0.52750000  0.53620000  1.0 0.109225557
H  H28  1  0.52750000  0.32970000  0.96380000  1.0 0.109225557
H  H29  1  0.38950000  0.32010000  0.84660000  1.0 0.109225557
H  H30  1  0.32010000  0.38950000  0.65340000  1.0 0.109225557
H  H31  1  0.61050000  0.67990000  0.15340000  1.0 0.109225557
H  H32  1  0.67990000  0.61050000  0.34660000  1.0 0.109225557
H  H33  1  0.77510000  0.55750000  0.57250000  1.0 0.1185360002
H  H34  1  0.55750000  0.77510000  0.92750000  1.0 0.1185360002
H  H35  1  0.22490000  0.44250000  0.42750000  1.0 0.1185360002
H  H36  1  0.44250000  0.22490000  0.07250000  1.0 0.1185360002
H  H37  1  0.07560000  0.27500000  0.89090000  1.0 0.1289077365
H  H38  1  0.27500000  0.07560000  0.60910000  1.0 0.1289077365
H  H39  1  0.92440000  0.72500000  0.10910000  1.0 0.1289077365
H  H40  1  0.72500000  0.92440000  0.39090000  1.0 0.1289077365
H  H41  1  0.21300000  0.17320000  0.03420000  1.0 0.109225557
H  H42  1  0.17320000  0.21300000  0.46580000  1.0 0.109225557
H  H43  1  0.78700000  0.82680000  0.96580000  1.0 0.109225557
H  H44  1  0.82680000  0.78700000  0.53420000  1.0 0.109225557
H  H45  1  0.20270000  0.06170000  0.98340000  1.0 0.109225557
H  H46  1  0.06170000  0.20270000  0.51660000  1.0 0.109225557
H  H47  1  0.79730000  0.93830000  0.01660000  1.0 0.109225557
H  H48  1  0.93830000  0.79730000  0.48340000  1.0 0.109225557
H  H49  1  0.25800000  0.35700000  0.14850000  1.0 0.109225557
H  H50  1  0.35700000  0.25800000  0.35150000  1.0 0.109225557
H  H51  1  0.74200000  0.64300000  0.85150000  1.0 0.109225557
H  H52  1  0.64300000  0.74200000  0.64850000  1.0 0.109225557
H  H53  1  0.40980000  0.94420000  0.92390000  1.0 0.3276877665
H  H54  1  0.94420000  0.40980000  0.57610000  1.0 0.3276877665
H  H55  1  0.59020000  0.05580000  0.07610000  1.0 0.3276877665
H  H56  1  0.05580000  0.59020000  0.42390000  1.0 0.3276877665
H  H57  1  0.37290000  0.97290000  0.96960000  1.0 0.3711023145
H  H58  1  0.97290000  0.37290000  0.53040000  1.0 0.3711023145
H  H59  1  0.62710000  0.02710000  0.03040000  1.0 0.3711023145
H  H60  1  0.02710000  0.62710000  0.46960000  1.0 0.3711023145
H  H61  1  0.78030000  0.45530000  0.24020000  1.0 0.1185360002
H  H62  1  0.45530000  0.78030000  0.25980000  1.0 0.1185360002
H  H63  1  0.21970000  0.54470000  0.75980000  1.0 0.1185360002
H  H64  1  0.54470000  0.21970000  0.74020000  1.0 0.1185360002
H  H65  1  0.83760000  0.42840000  0.12830000  1.0 0.109225557
H  H66  1  0.42840000  0.83760000  0.37170000  1.0 0.109225557
H  H67  1  0.16240000  0.57160000  0.87170000  1.0 0.109225557
H  H68  1  0.57160000  0.16240000  0.62830000  1.0 0.109225557
H  H69  1  0.52480000  0.03060000  0.82690000  1.0 0.1001898113
H  H70  1  0.03060000  0.52480000  0.67310000  1.0 0.1001898113
H  H71  1  0.47520000  0.96940000  0.17310000  1.0 0.1001898113
H  H72  1  0.96940000  0.47520000  0.32690000  1.0 0.1001898113
H  H73  1  0.59440000  0.21460000  0.26610000  1.0 0.109225557
H  H74  1  0.21460000  0.59440000  0.23390000  1.0 0.109225557
H  H75  1  0.40560000  0.78540000  0.73390000  1.0 0.109225557
H  H76  1  0.78540000  0.40560000  0.76610000  1.0 0.109225557
H  H77  1  0.18970000  0.27730000  0.88280000  1.0 0.1185360002
H  H78  1  0.27730000  0.18970000  0.61720000  1.0 0.1185360002
H  H79  1  0.81030000  0.72270000  0.11720000  1.0 0.1185360002
H  H80  1  0.72270000  0.81030000  0.38280000  1.0 0.1185360002
H  H81  1  0.65180000  0.18700000  0.15450000  1.0 0.1001898113
H  H82  1  0.18700000  0.65180000  0.34550000  1.0 0.1001898113
H  H83  1  0.34820000  0.81300000  0.84550000  1.0 0.1001898113
H  H84  1  0.81300000  0.34820000  0.65450000  1.0 0.1001898113
H  H85  1  0.50260000  0.95000000  0.57700000  1.0 0.1185360002
H  H86  1  0.95000000  0.50260000  0.92300000  1.0 0.1185360002
H  H87  1  0.49740000  0.05000000  0.42300000  1.0 0.1185360002
H  H88  1  0.05000000  0.49740000  0.07700000  1.0 0.1185360002
H  H89  1  0.99660000  0.78700000  0.68330000  1.0 0.4049700015
H  H90  1  0.78700000  0.99660000  0.81670000  1.0 0.4049700015
H  H91  1  0.00340000  0.21300000  0.31670000  1.0 0.4049700015
H  H92  1  0.21300000  0.00340000  0.18330000  1.0 0.4049700015
H  H93  1  0.94340000  0.75680000  0.77240000  1.0 0.3829752841
H  H94  1  0.75680000  0.94340000  0.72760000  1.0 0.3829752841
H  H95  1  0.05660000  0.24320000  0.22760000  1.0 0.3829752841
H  H96  1  0.24320000  0.05660000  0.27240000  1.0 0.3829752841
C  C1  1  0.16066000  0.75994000  0.66520000  1.0 0.1400430986
C  C2  1  0.75994000  0.16066000  0.83480000  1.0 0.1400430986
C  C3  1  0.83934000  0.24006000  0.33480000  1.0 0.1400430986
C  C4  1  0.24006000  0.83934000  0.16520000  1.0 0.1400430986
C  C5  1  0.16793000  0.81387000  0.79150000  1.0 0.1637617537
C  C6  1  0.81387000  0.16793000  0.70850000  1.0 0.1637617537
C  C7  1  0.83207000  0.18613000  0.20850000  1.0 0.1637617537
C  C8  1  0.18613000  0.83207000  0.29150000  1.0 0.1637617537
C  C9  1  0.78732000  0.41828000  0.43110000  1.0 -0.1308364066
C  C10  1  0.41828000  0.78732000  0.06890000  1.0 -0.1308364066
C  C11  1  0.21268000  0.58172000  0.56890000  1.0 -0.1308364066
C  C12  1  0.58172000  0.21268000  0.93110000  1.0 -0.1308364066
C  C13  1  0.85178000  0.47222000  0.49190000  1.0 -0.1308364066
C  C14  1  0.47222000  0.85178000  0.00810000  1.0 -0.1308364066
C  C15  1  0.14822000  0.52778000  0.50810000  1.0 -0.1308364066
C  C16  1  0.52778000  0.14822000  0.99190000  1.0 -0.1308364066
C  C17  1  0.34360000  0.20020000  0.84340000  1.0 -0.1016681491
C  C18  1  0.20020000  0.34360000  0.65660000  1.0 -0.1016681491
C  C19  1  0.65640000  0.79980000  0.15660000  1.0 -0.1016681491
C  C20  1  0.79980000  0.65640000  0.34340000  1.0 -0.1016681491
C  C21  1  0.02513000  0.31547000  0.02920000  1.0 0.588422876
C  C22  1  0.31547000  0.02513000  0.47080000  1.0 0.588422876
C  C23  1  0.97487000  0.68453000  0.97080000  1.0 0.588422876
C  C24  1  0.68453000  0.97487000  0.52920000  1.0 0.588422876
C  C25  1  0.71919000  0.41941000  0.41670000  1.0 0.0812323635
C  C26  1  0.41941000  0.71919000  0.08330000  1.0 0.0812323635
C  C27  1  0.28081000  0.58059000  0.58330000  1.0 0.0812323635
C  C28  1  0.58059000  0.28081000  0.91670000  1.0 0.0812323635
C  C29  1  0.15021000  0.33479000  0.10300000  1.0 -0.1402251782
C  C30  1  0.33479000  0.15021000  0.39700000  1.0 -0.1402251782
C  C31  1  0.84979000  0.66521000  0.89700000  1.0 -0.1402251782
C  C32  1  0.66521000  0.84979000  0.60300000  1.0 -0.1402251782
C  C33  1  0.30494000  0.25966000  0.94880000  1.0 0.071968197
C  C34  1  0.25966000  0.30494000  0.55120000  1.0 0.071968197
C  C35  1  0.69506000  0.74034000  0.05120000  1.0 0.071968197
C  C36  1  0.74034000  0.69506000  0.44880000  1.0 0.071968197
C  C37  1  0.09651000  0.31209000  0.02700000  1.0 -0.0365383876
C  C38  1  0.31209000  0.09651000  0.47300000  1.0 -0.0365383876
C  C39  1  0.90349000  0.68791000  0.97300000  1.0 -0.0365383876
C  C40  1  0.68791000  0.90349000  0.52700000  1.0 -0.0365383876
C  C41  1  0.71582000  0.47218000  0.47080000  1.0 -0.1402251782
C  C42  1  0.47218000  0.71582000  0.02920000  1.0 -0.1402251782
C  C43  1  0.28418000  0.52782000  0.52920000  1.0 -0.1402251782
C  C44  1  0.52782000  0.28418000  0.97080000  1.0 -0.1402251782
C  C45  1  0.84829000  0.52611000  0.54380000  1.0 -0.0109854502
C  C46  1  0.52611000  0.84829000  0.95620000  1.0 -0.0109854502
C  C47  1  0.15171000  0.47389000  0.45620000  1.0 -0.0109854502
C  C48  1  0.47389000  0.15171000  0.04380000  1.0 -0.0109854502
C  C49  1  0.28891000  0.05269000  0.85870000  1.0 0.5462643319
C  C50  1  0.05269000  0.28891000  0.64130000  1.0 0.5462643319
C  C51  1  0.71109000  0.94731000  0.14130000  1.0 0.5462643319
C  C52  1  0.94731000  0.71109000  0.35870000  1.0 0.5462643319
C  C53  1  0.23702000  0.31938000  0.01370000  1.0 0.0812323635
C  C54  1  0.31938000  0.23702000  0.48630000  1.0 0.0812323635
C  C55  1  0.76298000  0.68062000  0.98630000  1.0 0.0812323635
C  C56  1  0.68062000  0.76298000  0.51370000  1.0 0.0812323635
C  C57  1  0.35208000  0.26832000  0.87500000  1.0 -0.1653693429
C  C58  1  0.26832000  0.35208000  0.62500000  1.0 -0.1653693429
C  C59  1  0.64792000  0.73168000  0.12500000  1.0 -0.1653693429
C  C60  1  0.73168000  0.64792000  0.37500000  1.0 -0.1653693429
C  C61  1  0.31913000  0.33367000  0.99690000  1.0 -0.2891382015
C  C62  1  0.33367000  0.31913000  0.50310000  1.0 -0.2891382015
C  C63  1  0.68087000  0.66633000  0.00310000  1.0 -0.2891382015
C  C64  1  0.66633000  0.68087000  0.49690000  1.0 -0.2891382015
C  C65  1  0.77925000  0.52415000  0.53520000  1.0 -0.0907765551
C  C66  1  0.52415000  0.77925000  0.96480000  1.0 -0.0907765551
C  C67  1  0.22075000  0.47585000  0.46480000  1.0 -0.0907765551
C  C68  1  0.47585000  0.22075000  0.03520000  1.0 -0.0907765551
C  C69  1  0.11177000  0.29063000  0.94290000  1.0 -0.0907765551
C  C70  1  0.29063000  0.11177000  0.55710000  1.0 -0.0907765551
C  C71  1  0.88823000  0.70937000  0.05710000  1.0 -0.0907765551
C  C72  1  0.70937000  0.88823000  0.44290000  1.0 -0.0907765551
C  C73  1  0.28962000  0.12318000  0.88510000  1.0 -0.0294084445
C  C74  1  0.12318000  0.28962000  0.61490000  1.0 -0.0294084445
C  C75  1  0.71038000  0.87682000  0.11490000  1.0 -0.0294084445
C  C76  1  0.87682000  0.71038000  0.38510000  1.0 -0.0294084445
C  C77  1  0.24732000  0.18068000  0.98720000  1.0 -0.1496459618
C  C78  1  0.18068000  0.24732000  0.51280000  1.0 -0.1496459618
C  C79  1  0.75268000  0.81932000  0.01280000  1.0 -0.1496459618
C  C80  1  0.81932000  0.75268000  0.48720000  1.0 -0.1496459618
C  C81  1  0.24055000  0.11365000  0.95630000  1.0 -0.1102900914
C  C82  1  0.11365000  0.24055000  0.54370000  1.0 -0.1102900914
C  C83  1  0.75945000  0.88635000  0.04370000  1.0 -0.1102900914
C  C84  1  0.88635000  0.75945000  0.45630000  1.0 -0.1102900914
C  C85  1  0.22112000  0.33988000  0.09680000  1.0 -0.1496459618
C  C86  1  0.33988000  0.22112000  0.40320000  1.0 -0.1496459618
C  C87  1  0.77888000  0.66012000  0.90320000  1.0 -0.1496459618
C  C88  1  0.66012000  0.77888000  0.59680000  1.0 -0.1496459618
C  C89  1  0.75485000  0.40115000  0.22390000  1.0 -0.1496459618
C  C90  1  0.40115000  0.75485000  0.27610000  1.0 -0.1496459618
C  C91  1  0.24515000  0.59885000  0.77610000  1.0 -0.1496459618
C  C92  1  0.59885000  0.24515000  0.72390000  1.0 -0.1496459618
C  C93  1  0.75172000  0.30428000  0.13090000  1.0 -0.0294084445
C  C94  1  0.30428000  0.75172000  0.36910000  1.0 -0.0294084445
C  C95  1  0.24828000  0.69572000  0.86910000  1.0 -0.0294084445
C  C96  1  0.69572000  0.24828000  0.63090000  1.0 -0.0294084445
C  C97  1  0.78924000  0.38516000  0.15670000  1.0 -0.1016681491
C  C98  1  0.38516000  0.78924000  0.34330000  1.0 -0.1016681491
C  C99  1  0.21076000  0.61484000  0.84330000  1.0 -0.1016681491
C  C100  1  0.61484000  0.21076000  0.65670000  1.0 -0.1016681491
C  C101  1  0.37082000  0.41338000  0.93640000  1.0 0.6549027973
C  C102  1  0.41338000  0.37082000  0.56360000  1.0 0.6549027973
C  C103  1  0.62918000  0.58662000  0.06360000  1.0 0.6549027973
C  C104  1  0.58662000  0.62918000  0.43640000  1.0 0.6549027973
C  C105  1  0.50436000  0.00964000  0.76680000  1.0 0.109225557
C  C106  1  0.00964000  0.50436000  0.73320000  1.0 0.109225557
C  C107  1  0.49564000  0.99036000  0.23320000  1.0 0.109225557
C  C108  1  0.99036000  0.49564000  0.26680000  1.0 0.109225557
C  C109  1  0.64961000  0.36039000  0.34520000  1.0 -0.2891382015
C  C110  1  0.36039000  0.64961000  0.15480000  1.0 -0.2891382015
C  C111  1  0.35039000  0.63961000  0.65480000  1.0 -0.2891382015
C  C112  1  0.63961000  0.35039000  0.84520000  1.0 -0.2891382015
C  C113  1  0.61068000  0.39912000  0.29340000  1.0 0.6595056468
C  C114  1  0.39912000  0.61068000  0.20660000  1.0 0.6595056468
C  C115  1  0.38932000  0.60088000  0.70660000  1.0 0.6595056468
C  C116  1  0.60088000  0.38932000  0.79340000  1.0 0.6595056468
C  C117  1  0.64399000  0.25761000  0.23950000  1.0 -0.1572382487
C  C118  1  0.25761000  0.64399000  0.26050000  1.0 -0.1572382487
C  C119  1  0.35601000  0.74239000  0.76050000  1.0 -0.1572382487
C  C120  1  0.74239000  0.35601000  0.73950000  1.0 -0.1572382487
C  C121  1  0.91849000  0.58271000  0.61060000  1.0 0.521416139
C  C122  1  0.58271000  0.91849000  0.88940000  1.0 0.521416139
C  C123  1  0.08151000  0.41729000  0.38940000  1.0 0.521416139
C  C124  1  0.41729000  0.08151000  0.11060000  1.0 0.521416139
C  C125  1  0.18074000  0.29326000  0.93780000  1.0 -0.1402251782
C  C126  1  0.29326000  0.18074000  0.56220000  1.0 -0.1402251782
C  C127  1  0.81926000  0.70674000  0.06220000  1.0 -0.1402251782
C  C128  1  0.70674000  0.81926000  0.43780000  1.0 -0.1402251782
C  C129  1  0.58244000  0.28316000  0.40400000  1.0 0.6595056468
C  C130  1  0.28316000  0.58244000  0.09600000  1.0 0.6595056468
C  C131  1  0.41756000  0.71684000  0.59600000  1.0 0.6595056468
C  C132  1  0.71684000  0.41756000  0.90400000  1.0 0.6595056468
C  C133  1  0.78931000  0.28649000  0.05970000  1.0 0.5381401145
C  C134  1  0.28649000  0.78931000  0.44030000  1.0 0.5381401145
C  C135  1  0.21069000  0.71351000  0.94030000  1.0 0.5381401145
C  C136  1  0.71351000  0.21069000  0.55970000  1.0 0.5381401145
C  C137  1  0.68243000  0.33737000  0.26790000  1.0 0.071968197
C  C138  1  0.33737000  0.68243000  0.23210000  1.0 0.071968197
C  C139  1  0.31757000  0.66263000  0.73210000  1.0 0.071968197
C  C140  1  0.66263000  0.31757000  0.76790000  1.0 0.071968197
C  C141  1  0.67827000  0.24113000  0.17220000  1.0 -0.1016681491
C  C142  1  0.24113000  0.67827000  0.32780000  1.0 -0.1016681491
C  C143  1  0.32173000  0.75887000  0.82780000  1.0 -0.1016681491
C  C144  1  0.75887000  0.32173000  0.67220000  1.0 -0.1016681491
C  C145  1  0.49216000  0.96564000  0.63130000  1.0 0.1400430986
C  C146  1  0.96564000  0.49216000  0.86870000  1.0 0.1400430986
C  C147  1  0.50784000  0.03436000  0.36870000  1.0 0.1400430986
C  C148  1  0.03436000  0.50784000  0.13130000  1.0 0.1400430986
C  C149  1  0.36846000  0.34594000  0.09010000  1.0 0.6595056468
C  C150  1  0.34594000  0.36846000  0.40990000  1.0 0.6595056468
C  C151  1  0.63154000  0.65406000  0.90990000  1.0 0.6595056468
C  C152  1  0.65406000  0.63154000  0.59010000  1.0 0.6595056468
N  N1  1  0.11688000  0.74518000  0.74130000  1.0 -0.4525361247
N  N2  1  0.74518000  0.11688000  0.75870000  1.0 -0.4525361247
N  N3  1  0.88312000  0.25482000  0.25870000  1.0 -0.4525361247
N  N4  1  0.25482000  0.88312000  0.24130000  1.0 -0.4525361247
N  N5  1  0.23833000  0.86663000  0.75000000  1.0 -0.1925305675
N  N6  1  0.86663000  0.23833000  0.75000000  1.0 -0.1925305675
N  N7  1  0.76167000  0.13337000  0.25000000  1.0 -0.1925305675
N  N8  1  0.13337000  0.76167000  0.25000000  1.0 -0.1925305675
N  N9  1  0.23370000  0.83142000  0.66700000  1.0 -0.1995657647
N  N10  1  0.83142000  0.23370000  0.83300000  1.0 -0.1925305675
N  N11  1  0.76630000  0.16858000  0.33300000  1.0 -0.1925305675
N  N12  1  0.16858000  0.76630000  0.16700000  1.0 -0.1995657647
N  N13  1  0.43279000  0.98879000  0.73150000  1.0 -0.2166038341
N  N14  1  0.98879000  0.43279000  0.76850000  1.0 -0.2166038341
N  N15  1  0.56721000  0.01121000  0.26850000  1.0 -0.2166038341
N  N16  1  0.01121000  0.56721000  0.23150000  1.0 -0.2166038341
N  N17  1  0.54445000  0.99725000  0.70660000  1.0 -0.428282339
N  N18  1  0.99725000  0.54445000  0.79340000  1.0 -0.428282339
N  N19  1  0.45555000  0.00275000  0.29340000  1.0 -0.428282339
N  N20  1  0.00275000  0.45555000  0.20660000  1.0 -0.428282339
N  N21  1  0.42407000  0.95911000  0.64250000  1.0 -0.1995657647
N  N22  1  0.95911000  0.42407000  0.85750000  1.0 -0.1995657647
N  N23  1  0.57593000  0.04089000  0.35750000  1.0 -0.1995657647
N  N24  1  0.04089000  0.57593000  0.14250000  1.0 -0.1995657647
O  O1  1  0.86067000  0.34707000  0.03140000  1.0 -0.5586032209
O  O2  1  0.34707000  0.86067000  0.46860000  1.0 -0.5586032209
O  O3  1  0.13933000  0.65293000  0.96860000  1.0 -0.5586032209
O  O4  1  0.65293000  0.13933000  0.53140000  1.0 -0.5586032209
O  O5  1  0.23774000  0.98186000  0.89200000  1.0 -0.5586032209
O  O6  1  0.98186000  0.23774000  0.60800000  1.0 -0.5586032209
O  O7  1  0.76226000  0.01814000  0.10800000  1.0 -0.5586032209
O  O8  1  0.01814000  0.76226000  0.39200000  1.0 -0.5586032209
O  O9  1  0.34614000  0.06992000  0.80560000  1.0 -0.5541136152
O  O10  1  0.06992000  0.34614000  0.69440000  1.0 -0.5541136152
O  O11  1  0.65386000  0.93008000  0.19440000  1.0 -0.5541136152
O  O12  1  0.93008000  0.65386000  0.30560000  1.0 -0.5541136152
O  O13  1  0.98022000  0.29558000  0.95580000  1.0 -0.4988582617
O  O14  1  0.29558000  0.98022000  0.54420000  1.0 -0.4988582617
O  O15  1  0.01978000  0.70442000  0.04420000  1.0 -0.4988582617
O  O16  1  0.70442000  0.01978000  0.45580000  1.0 -0.4988582617
O  O17  1  0.01400000  0.34004000  0.09970000  1.0 -0.5989918
O  O18  1  0.34004000  0.01400000  0.40030000  1.0 -0.5989918
O  O19  1  0.98600000  0.65996000  0.90030000  1.0 -0.5989918
O  O20  1  0.65996000  0.98600000  0.59970000  1.0 -0.5989918
O  O21  1  0.36555000  0.94049000  0.92680000  1.0 -0.639868874
O  O22  1  0.94049000  0.36555000  0.57320000  1.0 -0.639868874
O  O23  1  0.63445000  0.05951000  0.07320000  1.0 -0.639868874
O  O24  1  0.05951000  0.63445000  0.42680000  1.0 -0.639868874
O  O25  1  0.99015000  0.60815000  0.59186000  1.0 -0.5989918
O  O26  1  0.60815000  0.99015000  0.90814000  1.0 -0.5989918
O  O27  1  0.00985000  0.39185000  0.40814000  1.0 -0.5989918
O  O28  1  0.39185000  0.00985000  0.09186000  1.0 -0.5989918
O  O29  1  0.75277000  0.21631000  0.02800000  1.0 -0.5445097572
O  O30  1  0.21631000  0.75277000  0.47200000  1.0 -0.5445097572
O  O31  1  0.24723000  0.78369000  0.97200000  1.0 -0.5445097572
O  O32  1  0.78369000  0.24723000  0.52800000  1.0 -0.5445097572
O  O33  1  0.90331000  0.60079000  0.68580000  1.0 -0.5586032209
O  O34  1  0.60079000  0.90331000  0.81420000  1.0 -0.5586032209
O  O35  1  0.09669000  0.39921000  0.31420000  1.0 -0.5586032209
O  O36  1  0.39921000  0.09669000  0.18580000  1.0 -0.5586032209
O  O37  1  0.99440000  0.76640000  0.74980000  1.0 -0.7773997969
O  O38  1  0.76640000  0.99440000  0.75020000  1.0 -0.7773997969
O  O39  1  0.00560000  0.23360000  0.25020000  1.0 -0.7773997969
O  O40  1  0.23360000  0.00560000  0.24980000  1.0 -0.7773997969
F  F1  1  0.39692000  0.41568000  0.13300000  1.0 -0.1995657647
F  F2  1  0.41568000  0.39692000  0.36700000  1.0 -0.1995657647
F  F3  1  0.60308000  0.58432000  0.86700000  1.0 -0.1995657647
F  F4  1  0.58432000  0.60308000  0.63300000  1.0 -0.1995657647
F  F5  1  0.37388000  0.47472000  0.97190000  1.0 -0.1995657647
F  F6  1  0.47472000  0.37388000  0.52810000  1.0 -0.1995657647
F  F7  1  0.62612000  0.52528000  0.02810000  1.0 -0.1995657647
F  F8  1  0.52528000  0.62612000  0.47190000  1.0 -0.1995657647
F  F9  1  0.66858000  0.47388000  0.26030000  1.0 -0.1925305675
F  F10  1  0.47388000  0.66858000  0.23970000  1.0 -0.1925305675
F  F11  1  0.33142000  0.52612000  0.73970000  1.0 -0.1925305675
F  F12  1  0.52612000  0.33142000  0.76030000  1.0 -0.1925305675
F  F13  1  0.60881000  0.24009000  0.43668000  1.0 -0.1995657647
F  F14  1  0.24009000  0.60881000  0.06332000  1.0 -0.1995657647
F  F15  1  0.39119000  0.75991000  0.56332000  1.0 -0.1995657647
F  F16  1  0.75991000  0.39119000  0.93668000  1.0 -0.1995657647
F  F17  1  0.44881000  0.44143000  0.92780000  1.0 -0.2073378438
F  F18  1  0.44143000  0.44881000  0.57220000  1.0 -0.2073378438
F  F19  1  0.55119000  0.55857000  0.07220000  1.0 -0.2073378438
F  F20  1  0.55857000  0.55119000  0.42780000  1.0 -0.2073378438
F  F21  1  0.56412000  0.40538000  0.34890000  1.0 -0.1995657647
F  F22  1  0.40538000  0.56412000  0.15110000  1.0 -0.1995657647
F  F23  1  0.43588000  0.59462000  0.65110000  1.0 -0.1995657647
F  F24  1  0.59462000  0.43588000  0.84890000  1.0 -0.1995657647
F  F25  1  0.56080000  0.30258000  0.47750000  1.0 -0.1925305675
F  F26  1  0.30258000  0.56080000  0.02250000  1.0 -0.1925305675
F  F27  1  0.43920000  0.69742000  0.52250000  1.0 -0.1925305675
F  F28  1  0.69742000  0.43920000  0.97750000  1.0 -0.1925305675
F  F29  1  0.33893000  0.40331000  0.84840000  1.0 -0.1925305675
F  F30  1  0.40331000  0.33893000  0.65160000  1.0 -0.1925305675
F  F31  1  0.66107000  0.59669000  0.15160000  1.0 -0.1925305675
F  F32  1  0.59669000  0.66107000  0.34840000  1.0 -0.1925305675
F  F33  1  0.32276000  0.28392000  0.15266000  1.0 -0.2073378438
F  F34  1  0.28392000  0.32276000  0.34734000  1.0 -0.2073378438
F  F35  1  0.67724000  0.71608000  0.84734000  1.0 -0.2073378438
F  F36  1  0.71608000  0.67724000  0.65266000  1.0 -0.2073378438
F  F37  1  0.51325000  0.23175000  0.35180000  1.0 -0.2073378438
F  F38  1  0.23175000  0.51325000  0.14820000  1.0 -0.2073378438
F  F39  1  0.48675000  0.76825000  0.64820000  1.0 -0.2073378438
F  F40  1  0.76825000  0.48675000  0.85180000  1.0 -0.2073378438
F  F41  1  0.43439000  0.34829000  0.07560000  1.0 -0.1995657647
F  F42  1  0.34829000  0.43439000  0.42440000  1.0 -0.1995657647
F  F43  1  0.56561000  0.65171000  0.92440000  1.0 -0.1995657647
F  F44  1  0.65171000  0.56561000  0.57560000  1.0 -0.1995657647
F  F45  1  0.56280000  0.35440000  0.22040000  1.0 -0.1995657647
F  F46  1  0.35440000  0.56280000  0.27960000  1.0 -0.1925305675
F  F47  1  0.43720000  0.64560000  0.77960000  1.0 -0.1925305675
F  F48  1  0.64560000  0.43720000  0.72040000  1.0 -0.1925305675
