# DDEC6 charges by PACMAN v1.1 (https://github.com/mtap-research/PACMAN-charge/)
data_PACWOG_FSR_pacman
_symmetry_space_group_name_H-M   'P 1'
_cell_length_a   10.57780000
_cell_length_b   19.18720000
_cell_length_c   19.64930000
_cell_angle_alpha   90.00000000
_cell_angle_beta   90.00000000
_cell_angle_gamma   90.00000000
_symmetry_Int_Tables_number   1
_chemical_formula_structural   ZnH18C20(NO2)2
_chemical_formula_sum   'Zn8 H144 C160 N16 O32'
_cell_volume   3987.98978489
_cell_formula_units_Z   8
loop_
 _symmetry_equiv_pos_site_id
 _symmetry_equiv_pos_as_xyz
  1  'x, y, z'
loop_
 _atom_site_type_symbol
 _atom_site_label
 _atom_site_symmetry_multiplicity
 _atom_site_fract_x
 _atom_site_fract_y
 _atom_site_fract_z
 _atom_site_occupancy
 _atom_site_charge
Zn  Zn1  1  0.61168000  0.53736000  0.96894000  1.0 0.7730526538
Zn  Zn2  1  0.61168000  0.96264000  0.96894000  1.0 0.7730526538
Zn  Zn3  1  0.61168000  0.03736000  0.53106000  1.0 0.7730526538
Zn  Zn4  1  0.38832000  0.53736000  0.46894000  1.0 0.7730526538
Zn  Zn5  1  0.38832000  0.46264000  0.03106000  1.0 0.7730526538
Zn  Zn6  1  0.38832000  0.03736000  0.03106000  1.0 0.7730526538
Zn  Zn7  1  0.38832000  0.96264000  0.46894000  1.0 0.7730526538
Zn  Zn8  1  0.61168000  0.46264000  0.53106000  1.0 0.7730526538
H  H1  1  0.52840000  0.25000000  0.99890000  1.0 0.1411111093
H  H2  1  0.52840000  0.75000000  0.50110000  1.0 0.1411111093
H  H3  1  0.47160000  0.25000000  0.49890000  1.0 0.1411111093
H  H4  1  0.47160000  0.75000000  0.00110000  1.0 0.1411111093
H  H5  1  0.91580000  0.25000000  0.88540000  1.0 0.1178657615
H  H6  1  0.91580000  0.75000000  0.61460000  1.0 0.1178657615
H  H7  1  0.08420000  0.25000000  0.38540000  1.0 0.1178657615
H  H8  1  0.08420000  0.75000000  0.11460000  1.0 0.1178657615
H  H9  1  0.16550000  0.49810000  0.85270000  1.0 0.1178657615
H  H10  1  0.16550000  0.00190000  0.85270000  1.0 0.1178657615
H  H11  1  0.16550000  0.99810000  0.64730000  1.0 0.1178657615
H  H12  1  0.83450000  0.49810000  0.35270000  1.0 0.1178657615
H  H13  1  0.83450000  0.50190000  0.14730000  1.0 0.1178657615
H  H14  1  0.83450000  0.99810000  0.14730000  1.0 0.1178657615
H  H15  1  0.83450000  0.00190000  0.35270000  1.0 0.1178657615
H  H16  1  0.16550000  0.50190000  0.64730000  1.0 0.1178657615
H  H17  1  0.05550000  0.50000000  0.75000000  1.0 0.1084946581
H  H18  1  0.05550000  0.00000000  0.75000000  1.0 0.1084946581
H  H19  1  0.94450000  0.50000000  0.25000000  1.0 0.1084946581
H  H20  1  0.94450000  0.00000000  0.25000000  1.0 0.1084946581
H  H21  1  0.49730000  0.50000000  0.75000000  1.0 0.1411111093
H  H22  1  0.49730000  0.00000000  0.75000000  1.0 0.1411111093
H  H23  1  0.50270000  0.50000000  0.25000000  1.0 0.1411111093
H  H24  1  0.50270000  0.00000000  0.25000000  1.0 0.1411111093
H  H25  1  0.81970000  0.14460000  0.91290000  1.0 0.1297257674
H  H26  1  0.81970000  0.35540000  0.91290000  1.0 0.1297257674
H  H27  1  0.81970000  0.64460000  0.58710000  1.0 0.1297257674
H  H28  1  0.18030000  0.14460000  0.41290000  1.0 0.1297257674
H  H29  1  0.18030000  0.85540000  0.08710000  1.0 0.1297257674
H  H30  1  0.18030000  0.64460000  0.08710000  1.0 0.1297257674
H  H31  1  0.18030000  0.35540000  0.41290000  1.0 0.1297257674
H  H32  1  0.81970000  0.85540000  0.58710000  1.0 0.1297257674
H  H33  1  0.93090000  0.30670000  0.05550000  1.0 0.1001959898
H  H34  1  0.93090000  0.19330000  0.05550000  1.0 0.1001959898
H  H35  1  0.93090000  0.80670000  0.44450000  1.0 0.1001959898
H  H36  1  0.06910000  0.30670000  0.55550000  1.0 0.1001959898
H  H37  1  0.06910000  0.69330000  0.94450000  1.0 0.1001959898
H  H38  1  0.06910000  0.80670000  0.94450000  1.0 0.1001959898
H  H39  1  0.06910000  0.19330000  0.55550000  1.0 0.1001959898
H  H40  1  0.93090000  0.69330000  0.44450000  1.0 0.1001959898
H  H41  1  0.26790000  0.35090000  0.97070000  1.0 0.1297257674
H  H42  1  0.26790000  0.14910000  0.97070000  1.0 0.1297257674
H  H43  1  0.26790000  0.85090000  0.52930000  1.0 0.1297257674
H  H44  1  0.73210000  0.35090000  0.47070000  1.0 0.1297257674
H  H45  1  0.73210000  0.64910000  0.02930000  1.0 0.1297257674
H  H46  1  0.73210000  0.85090000  0.02930000  1.0 0.1297257674
H  H47  1  0.73210000  0.14910000  0.47070000  1.0 0.1297257674
H  H48  1  0.26790000  0.64910000  0.52930000  1.0 0.1297257674
H  H49  1  0.08260000  0.28560000  0.97060000  1.0 0.0818857625
H  H50  1  0.08260000  0.21440000  0.97060000  1.0 0.0818857625
H  H51  1  0.08260000  0.78560000  0.52940000  1.0 0.0818857625
H  H52  1  0.91740000  0.28560000  0.47060000  1.0 0.0818857625
H  H53  1  0.91740000  0.71440000  0.02940000  1.0 0.0818857625
H  H54  1  0.91740000  0.78560000  0.02940000  1.0 0.0818857625
H  H55  1  0.91740000  0.21440000  0.47060000  1.0 0.0818857625
H  H56  1  0.08260000  0.71440000  0.52940000  1.0 0.0818857625
H  H57  1  0.97210000  0.38940000  0.13940000  1.0 0.1178657615
H  H58  1  0.97210000  0.11060000  0.13940000  1.0 0.1178657615
H  H59  1  0.97210000  0.88940000  0.36060000  1.0 0.1178657615
H  H60  1  0.02790000  0.38940000  0.63940000  1.0 0.1178657615
H  H61  1  0.02790000  0.61060000  0.86060000  1.0 0.1178657615
H  H62  1  0.02790000  0.88940000  0.86060000  1.0 0.1178657615
H  H63  1  0.02790000  0.11060000  0.63940000  1.0 0.1178657615
H  H64  1  0.97210000  0.61060000  0.36060000  1.0 0.1178657615
H  H65  1  0.26200000  0.49020000  0.14780000  1.0 0.1487538387
H  H66  1  0.26200000  0.00980000  0.14780000  1.0 0.1487538387
H  H67  1  0.26200000  0.99020000  0.35220000  1.0 0.1487538387
H  H68  1  0.73800000  0.49020000  0.64780000  1.0 0.1487538387
H  H69  1  0.73800000  0.50980000  0.85220000  1.0 0.1487538387
H  H70  1  0.73800000  0.99020000  0.85220000  1.0 0.1487538387
H  H71  1  0.73800000  0.00980000  0.64780000  1.0 0.1487538387
H  H72  1  0.26200000  0.50980000  0.35220000  1.0 0.1487538387
H  H73  1  0.17130000  0.45080000  0.20040000  1.0 0.1411111093
H  H74  1  0.17130000  0.04920000  0.20040000  1.0 0.1487538387
H  H75  1  0.17130000  0.95080000  0.29960000  1.0 0.1487538387
H  H76  1  0.82870000  0.45080000  0.70040000  1.0 0.1411111093
H  H77  1  0.82870000  0.54920000  0.79960000  1.0 0.1487538387
H  H78  1  0.82870000  0.95080000  0.79960000  1.0 0.1487538387
H  H79  1  0.82870000  0.04920000  0.70040000  1.0 0.1487538387
H  H80  1  0.17130000  0.54920000  0.29960000  1.0 0.1487538387
H  H81  1  0.11570000  0.51100000  0.15260000  1.0 0.1411111093
H  H82  1  0.11570000  0.98900000  0.15260000  1.0 0.1411111093
H  H83  1  0.11570000  0.01100000  0.34740000  1.0 0.1411111093
H  H84  1  0.88430000  0.51100000  0.65260000  1.0 0.1411111093
H  H85  1  0.88430000  0.48900000  0.84740000  1.0 0.1411111093
H  H86  1  0.88430000  0.01100000  0.84740000  1.0 0.1411111093
H  H87  1  0.88430000  0.98900000  0.65260000  1.0 0.1411111093
H  H88  1  0.11570000  0.48900000  0.34740000  1.0 0.1411111093
H  H89  1  0.14050000  0.98850000  0.99460000  1.0 0.1084946581
H  H90  1  0.14050000  0.51150000  0.99460000  1.0 0.1001959898
H  H91  1  0.14050000  0.48850000  0.50540000  1.0 0.1084946581
H  H92  1  0.85950000  0.98850000  0.49460000  1.0 0.1084946581
H  H93  1  0.85950000  0.01150000  0.00540000  1.0 0.1084946581
H  H94  1  0.85950000  0.48850000  0.00540000  1.0 0.1084946581
H  H95  1  0.85950000  0.51150000  0.49460000  1.0 0.1084946581
H  H96  1  0.14050000  0.01150000  0.50540000  1.0 0.1084946581
H  H97  1  0.92480000  0.01270000  0.00370000  1.0 0.1001959898
H  H98  1  0.92480000  0.48730000  0.00370000  1.0 0.1001959898
H  H99  1  0.92480000  0.51270000  0.49630000  1.0 0.1001959898
H  H100  1  0.07520000  0.01270000  0.50370000  1.0 0.1001959898
H  H101  1  0.07520000  0.98730000  0.99630000  1.0 0.1001959898
H  H102  1  0.07520000  0.51270000  0.99630000  1.0 0.1001959898
H  H103  1  0.07520000  0.48730000  0.50370000  1.0 0.1001959898
H  H104  1  0.92480000  0.98730000  0.49630000  1.0 0.1001959898
H  H105  1  0.86290000  0.11510000  0.06270000  1.0 0.1001959898
H  H106  1  0.86290000  0.38490000  0.06270000  1.0 0.1001959898
H  H107  1  0.86290000  0.61510000  0.43730000  1.0 0.1001959898
H  H108  1  0.13710000  0.11510000  0.56270000  1.0 0.1001959898
H  H109  1  0.13710000  0.88490000  0.93730000  1.0 0.1001959898
H  H110  1  0.13710000  0.61510000  0.93730000  1.0 0.1001959898
H  H111  1  0.13710000  0.38490000  0.56270000  1.0 0.1001959898
H  H112  1  0.86290000  0.88490000  0.43730000  1.0 0.1001959898
H  H113  1  0.30750000  0.20110000  0.06840000  1.0 0.1178657615
H  H114  1  0.30750000  0.29890000  0.06840000  1.0 0.1178657615
H  H115  1  0.30750000  0.70110000  0.43160000  1.0 0.1178657615
H  H116  1  0.69250000  0.20110000  0.56840000  1.0 0.1178657615
H  H117  1  0.69250000  0.79890000  0.93160000  1.0 0.1178657615
H  H118  1  0.69250000  0.70110000  0.93160000  1.0 0.1178657615
H  H119  1  0.69250000  0.29890000  0.56840000  1.0 0.1178657615
H  H120  1  0.30750000  0.79890000  0.43160000  1.0 0.1178657615
H  H121  1  0.23190000  0.20780000  0.13860000  1.0 0.1001959898
H  H122  1  0.23190000  0.29220000  0.13860000  1.0 0.1001959898
H  H123  1  0.23190000  0.70780000  0.36140000  1.0 0.1001959898
H  H124  1  0.76810000  0.20780000  0.63860000  1.0 0.1001959898
H  H125  1  0.76810000  0.79220000  0.86140000  1.0 0.1001959898
H  H126  1  0.76810000  0.70780000  0.86140000  1.0 0.1001959898
H  H127  1  0.76810000  0.29220000  0.63860000  1.0 0.1001959898
H  H128  1  0.23190000  0.79220000  0.36140000  1.0 0.1001959898
H  H129  1  0.33450000  0.14740000  0.12890000  1.0 0.1297257674
H  H130  1  0.33450000  0.35260000  0.12890000  1.0 0.1297257674
H  H131  1  0.33450000  0.64740000  0.37110000  1.0 0.1297257674
H  H132  1  0.66550000  0.14740000  0.62890000  1.0 0.1297257674
H  H133  1  0.66550000  0.85260000  0.87110000  1.0 0.1297257674
H  H134  1  0.66550000  0.64740000  0.87110000  1.0 0.1297257674
H  H135  1  0.66550000  0.35260000  0.62890000  1.0 0.1297257674
H  H136  1  0.33450000  0.85260000  0.37110000  1.0 0.1297257674
H  H137  1  0.01680000  0.18580000  0.11020000  1.0 0.0740387483
H  H138  1  0.01680000  0.31420000  0.11020000  1.0 0.0740387483
H  H139  1  0.01680000  0.68580000  0.38980000  1.0 0.0740387483
H  H140  1  0.98320000  0.18580000  0.61020000  1.0 0.0740387483
H  H141  1  0.98320000  0.81420000  0.88980000  1.0 0.0740387483
H  H142  1  0.98320000  0.68580000  0.88980000  1.0 0.0740387483
H  H143  1  0.98320000  0.31420000  0.61020000  1.0 0.0740387483
H  H144  1  0.01680000  0.81420000  0.38980000  1.0 0.0740387483
C  C1  1  0.60210000  0.11868000  0.97571000  1.0 0.570510483
C  C2  1  0.60210000  0.38132000  0.97571000  1.0 0.570510483
C  C3  1  0.60210000  0.61868000  0.52429000  1.0 0.570510483
C  C4  1  0.39790000  0.11868000  0.47571000  1.0 0.570510483
C  C5  1  0.39790000  0.88132000  0.02429000  1.0 0.570510483
C  C6  1  0.39790000  0.61868000  0.02429000  1.0 0.570510483
C  C7  1  0.39790000  0.38132000  0.47571000  1.0 0.570510483
C  C8  1  0.60210000  0.88132000  0.52429000  1.0 0.570510483
C  C9  1  0.60680000  0.25000000  0.97530000  1.0 -0.1343880979
C  C10  1  0.60680000  0.75000000  0.52470000  1.0 -0.1343880979
C  C11  1  0.39320000  0.25000000  0.47530000  1.0 -0.1343880979
C  C12  1  0.39320000  0.75000000  0.02470000  1.0 -0.1343880979
C  C13  1  0.83650000  0.25000000  0.90820000  1.0 -0.104077292
C  C14  1  0.83650000  0.75000000  0.59180000  1.0 -0.104077292
C  C15  1  0.16350000  0.25000000  0.40820000  1.0 -0.104077292
C  C16  1  0.16350000  0.75000000  0.09180000  1.0 -0.104077292
C  C17  1  0.21060000  0.49930000  0.81087000  1.0 -0.1173047193
C  C18  1  0.21060000  0.00070000  0.81087000  1.0 -0.1173047193
C  C19  1  0.21060000  0.99930000  0.68913000  1.0 -0.1173047193
C  C20  1  0.78940000  0.49930000  0.31087000  1.0 -0.1173047193
C  C21  1  0.78940000  0.50070000  0.18913000  1.0 -0.1173047193
C  C22  1  0.78940000  0.99930000  0.18913000  1.0 -0.1173047193
C  C23  1  0.78940000  0.00070000  0.31087000  1.0 -0.1173047193
C  C24  1  0.21060000  0.50070000  0.68913000  1.0 -0.1173047193
C  C25  1  0.66370000  0.18710000  0.95813000  1.0 -0.0193407479
C  C26  1  0.66370000  0.31290000  0.95813000  1.0 -0.0193407479
C  C27  1  0.66370000  0.68710000  0.54187000  1.0 -0.0193407479
C  C28  1  0.33630000  0.18710000  0.45813000  1.0 -0.0193407479
C  C29  1  0.33630000  0.81290000  0.04187000  1.0 -0.0193407479
C  C30  1  0.33630000  0.68710000  0.04187000  1.0 -0.0193407479
C  C31  1  0.33630000  0.31290000  0.45813000  1.0 -0.0193407479
C  C32  1  0.66370000  0.81290000  0.54187000  1.0 -0.0193407479
C  C33  1  0.34200000  0.50047000  0.81114000  1.0 -0.0193407479
C  C34  1  0.34200000  0.99953000  0.81114000  1.0 -0.0193407479
C  C35  1  0.34200000  0.00047000  0.68886000  1.0 -0.0193407479
C  C36  1  0.65800000  0.50047000  0.31114000  1.0 -0.0193407479
C  C37  1  0.65800000  0.49953000  0.18886000  1.0 -0.0193407479
C  C38  1  0.65800000  0.00047000  0.18886000  1.0 -0.0193407479
C  C39  1  0.65800000  0.99953000  0.31114000  1.0 -0.0193407479
C  C40  1  0.34200000  0.49953000  0.68886000  1.0 -0.0193407479
C  C41  1  0.14530000  0.50000000  0.75000000  1.0 -0.1173047193
C  C42  1  0.14530000  0.00000000  0.75000000  1.0 -0.1146090193
C  C43  1  0.85470000  0.50000000  0.25000000  1.0 -0.1173047193
C  C44  1  0.85470000  0.00000000  0.25000000  1.0 -0.1146090193
C  C45  1  0.41030000  0.50210000  0.87842000  1.0 0.570510483
C  C46  1  0.41030000  0.99790000  0.87842000  1.0 0.570510483
C  C47  1  0.41030000  0.00210000  0.62158000  1.0 0.570510483
C  C48  1  0.58970000  0.50210000  0.37842000  1.0 0.570510483
C  C49  1  0.58970000  0.49790000  0.12158000  1.0 0.570510483
C  C50  1  0.58970000  0.00210000  0.12158000  1.0 0.570510483
C  C51  1  0.58970000  0.99790000  0.37842000  1.0 0.570510483
C  C52  1  0.41030000  0.49790000  0.62158000  1.0 0.570510483
C  C53  1  0.40740000  0.50000000  0.75000000  1.0 -0.1343880979
C  C54  1  0.40740000  0.00000000  0.75000000  1.0 -0.1343880979
C  C55  1  0.59260000  0.50000000  0.25000000  1.0 -0.1356707814
C  C56  1  0.59260000  0.00000000  0.25000000  1.0 -0.1343880979
C  C57  1  0.77980000  0.31267000  0.92451000  1.0 -0.1173047193
C  C58  1  0.77980000  0.18733000  0.92451000  1.0 -0.1173047193
C  C59  1  0.77980000  0.81267000  0.57549000  1.0 -0.1173047193
C  C60  1  0.22020000  0.31267000  0.42451000  1.0 -0.1173047193
C  C61  1  0.22020000  0.68733000  0.07549000  1.0 -0.1146090193
C  C62  1  0.22020000  0.81267000  0.07549000  1.0 -0.1146090193
C  C63  1  0.22020000  0.18733000  0.42451000  1.0 -0.1146090193
C  C64  1  0.77980000  0.68733000  0.57549000  1.0 -0.1173047193
C  C65  1  0.00800000  0.33210000  0.05500000  1.0 -0.0573770249
C  C66  1  0.00800000  0.16790000  0.05500000  1.0 -0.0573770249
C  C67  1  0.00800000  0.83210000  0.44500000  1.0 -0.0573770249
C  C68  1  0.99200000  0.33210000  0.55500000  1.0 -0.0573770249
C  C69  1  0.99200000  0.66790000  0.94500000  1.0 -0.0573770249
C  C70  1  0.99200000  0.83210000  0.94500000  1.0 -0.0573770249
C  C71  1  0.99200000  0.16790000  0.55500000  1.0 -0.0573770249
C  C72  1  0.00800000  0.66790000  0.44500000  1.0 -0.0573770249
C  C73  1  0.20660000  0.35860000  0.00520000  1.0 0.0398612717
C  C74  1  0.20660000  0.14140000  0.00520000  1.0 0.0398612717
C  C75  1  0.20660000  0.85860000  0.49480000  1.0 0.0398612717
C  C76  1  0.79340000  0.35860000  0.50520000  1.0 0.0398612717
C  C77  1  0.79340000  0.64140000  0.99480000  1.0 0.0398612717
C  C78  1  0.79340000  0.85860000  0.99480000  1.0 0.0398612717
C  C79  1  0.79340000  0.14140000  0.50520000  1.0 0.0398612717
C  C80  1  0.20660000  0.64140000  0.49480000  1.0 0.0398612717
C  C81  1  0.09690000  0.31990000  0.00460000  1.0 -0.2206935913
C  C82  1  0.09690000  0.18010000  0.00460000  1.0 -0.2206935913
C  C83  1  0.09690000  0.81990000  0.49540000  1.0 -0.2206935913
C  C84  1  0.90310000  0.31990000  0.50460000  1.0 -0.2206935913
C  C85  1  0.90310000  0.68010000  0.99540000  1.0 -0.2206935913
C  C86  1  0.90310000  0.81990000  0.99540000  1.0 -0.2206935913
C  C87  1  0.90310000  0.18010000  0.50460000  1.0 -0.2206935913
C  C88  1  0.09690000  0.68010000  0.49540000  1.0 -0.2206935913
C  C89  1  0.03200000  0.38140000  0.10420000  1.0 -0.0483971987
C  C90  1  0.03200000  0.11860000  0.10420000  1.0 -0.0483971987
C  C91  1  0.03200000  0.88140000  0.39580000  1.0 -0.0483971987
C  C92  1  0.96800000  0.38140000  0.60420000  1.0 -0.0483971987
C  C93  1  0.96800000  0.61860000  0.89580000  1.0 -0.0483971987
C  C94  1  0.96800000  0.88140000  0.89580000  1.0 -0.0483971987
C  C95  1  0.96800000  0.11860000  0.60420000  1.0 -0.0483971987
C  C96  1  0.03200000  0.61860000  0.39580000  1.0 -0.0483971987
C  C97  1  0.14580000  0.41980000  0.10240000  1.0 0.1297257674
C  C98  1  0.14580000  0.08020000  0.10240000  1.0 0.1297257674
C  C99  1  0.14580000  0.91980000  0.39760000  1.0 0.1297257674
C  C100  1  0.85420000  0.41980000  0.60240000  1.0 0.1297257674
C  C101  1  0.85420000  0.58020000  0.89760000  1.0 0.1297257674
C  C102  1  0.85420000  0.91980000  0.89760000  1.0 0.1297257674
C  C103  1  0.85420000  0.08020000  0.60240000  1.0 0.1297257674
C  C104  1  0.14580000  0.58020000  0.39760000  1.0 0.1297257674
C  C105  1  0.17630000  0.47240000  0.15530000  1.0 -0.5389056777
C  C106  1  0.17630000  0.02760000  0.15530000  1.0 -0.5389056777
C  C107  1  0.17630000  0.97240000  0.34470000  1.0 -0.5389056777
C  C108  1  0.82370000  0.47240000  0.65530000  1.0 -0.5389056777
C  C109  1  0.82370000  0.52760000  0.84470000  1.0 -0.5389056777
C  C110  1  0.82370000  0.97240000  0.84470000  1.0 -0.5389056777
C  C111  1  0.82370000  0.02760000  0.65530000  1.0 -0.5389056777
C  C112  1  0.17630000  0.52760000  0.34470000  1.0 -0.5389056777
C  C113  1  0.11480000  0.02920000  0.01830000  1.0 -0.1356707814
C  C114  1  0.11480000  0.47080000  0.01830000  1.0 -0.1343880979
C  C115  1  0.11480000  0.52920000  0.48170000  1.0 -0.1356707814
C  C116  1  0.88520000  0.02920000  0.51830000  1.0 -0.1356707814
C  C117  1  0.88520000  0.97080000  0.98170000  1.0 -0.1356707814
C  C118  1  0.88520000  0.52920000  0.98170000  1.0 -0.1356707814
C  C119  1  0.88520000  0.47080000  0.51830000  1.0 -0.1343880979
C  C120  1  0.11480000  0.97080000  0.48170000  1.0 -0.1356707814
C  C121  1  0.98580000  0.04300000  0.02330000  1.0 -0.2206935913
C  C122  1  0.98580000  0.45700000  0.02330000  1.0 -0.2206935913
C  C123  1  0.98580000  0.54300000  0.47670000  1.0 -0.2206935913
C  C124  1  0.01420000  0.04300000  0.52330000  1.0 -0.2206935913
C  C125  1  0.01420000  0.95700000  0.97670000  1.0 -0.2147640822
C  C126  1  0.01420000  0.54300000  0.97670000  1.0 -0.2147640822
C  C127  1  0.01420000  0.45700000  0.52330000  1.0 -0.2147640822
C  C128  1  0.98580000  0.95700000  0.47670000  1.0 -0.2206935913
C  C129  1  0.94970000  0.10330000  0.05830000  1.0 -0.0689144781
C  C130  1  0.94970000  0.39670000  0.05830000  1.0 -0.0689144781
C  C131  1  0.94970000  0.60330000  0.44170000  1.0 -0.0689144781
C  C132  1  0.05030000  0.10330000  0.55830000  1.0 -0.0689144781
C  C133  1  0.05030000  0.89670000  0.94170000  1.0 -0.0689144781
C  C134  1  0.05030000  0.60330000  0.94170000  1.0 -0.0689144781
C  C135  1  0.05030000  0.39670000  0.55830000  1.0 -0.0689144781
C  C136  1  0.94970000  0.89670000  0.44170000  1.0 -0.0689144781
C  C137  1  0.16790000  0.12740000  0.07880000  1.0 0.1178657615
C  C138  1  0.16790000  0.37260000  0.07880000  1.0 0.1178657615
C  C139  1  0.16790000  0.62740000  0.42120000  1.0 0.1178657615
C  C140  1  0.83210000  0.12740000  0.57880000  1.0 0.1178657615
C  C141  1  0.83210000  0.87260000  0.92120000  1.0 0.1178657615
C  C142  1  0.83210000  0.62740000  0.92120000  1.0 0.1178657615
C  C143  1  0.83210000  0.37260000  0.57880000  1.0 0.1178657615
C  C144  1  0.16790000  0.87260000  0.42120000  1.0 0.1178657615
C  C145  1  0.26930000  0.17510000  0.10610000  1.0 -0.5013427077
C  C146  1  0.26930000  0.32490000  0.10610000  1.0 -0.5013427077
C  C147  1  0.26930000  0.67510000  0.39390000  1.0 -0.5013427077
C  C148  1  0.73070000  0.17510000  0.60610000  1.0 -0.5013427077
C  C149  1  0.73070000  0.82490000  0.89390000  1.0 -0.5013427077
C  C150  1  0.73070000  0.67510000  0.89390000  1.0 -0.5013427077
C  C151  1  0.73070000  0.32490000  0.60610000  1.0 -0.5013427077
C  C152  1  0.26930000  0.82490000  0.39390000  1.0 -0.5013427077
C  C153  1  0.04030000  0.14490000  0.08600000  1.0 0.0023057926
C  C154  1  0.04030000  0.35510000  0.08600000  1.0 0.0023057926
C  C155  1  0.04030000  0.64490000  0.41400000  1.0 0.0023057926
C  C156  1  0.95970000  0.14490000  0.58600000  1.0 0.0023057926
C  C157  1  0.95970000  0.85510000  0.91400000  1.0 0.0023057926
C  C158  1  0.95970000  0.64490000  0.91400000  1.0 0.0023057926
C  C159  1  0.95970000  0.35510000  0.58600000  1.0 0.0023057926
C  C160  1  0.04030000  0.85510000  0.41400000  1.0 0.0023057926
N  N1  1  0.22960000  0.40680000  0.05300000  1.0 0.1084946581
N  N2  1  0.22960000  0.09320000  0.05300000  1.0 0.1084946581
N  N3  1  0.22960000  0.90680000  0.44700000  1.0 0.1084946581
N  N4  1  0.77040000  0.40680000  0.55300000  1.0 0.1084946581
N  N5  1  0.77040000  0.59320000  0.94700000  1.0 0.1084946581
N  N6  1  0.77040000  0.90680000  0.94700000  1.0 0.1084946581
N  N7  1  0.77040000  0.09320000  0.55300000  1.0 0.1084946581
N  N8  1  0.22960000  0.59320000  0.44700000  1.0 0.1084946581
N  N9  1  0.20500000  0.07020000  0.04510000  1.0 0.0868934268
N  N10  1  0.20500000  0.42980000  0.04510000  1.0 0.0818857625
N  N11  1  0.20500000  0.57020000  0.45490000  1.0 0.0868934268
N  N12  1  0.79500000  0.07020000  0.54510000  1.0 0.0868934268
N  N13  1  0.79500000  0.92980000  0.95490000  1.0 0.0818857625
N  N14  1  0.79500000  0.57020000  0.95490000  1.0 0.0868934268
N  N15  1  0.79500000  0.42980000  0.54510000  1.0 0.0818857625
N  N16  1  0.20500000  0.92980000  0.45490000  1.0 0.0818857625
O  O1  1  0.35380000  0.47670000  0.92831000  1.0 -0.5650052814
O  O2  1  0.35380000  0.02330000  0.92831000  1.0 -0.5596777842
O  O3  1  0.35380000  0.97670000  0.57169000  1.0 -0.5650052814
O  O4  1  0.64620000  0.47670000  0.42831000  1.0 -0.5596777842
O  O5  1  0.64620000  0.52330000  0.07169000  1.0 -0.5596777842
O  O6  1  0.64620000  0.97670000  0.07169000  1.0 -0.5596777842
O  O7  1  0.64620000  0.02330000  0.42831000  1.0 -0.5596777842
O  O8  1  0.35380000  0.52330000  0.57169000  1.0 -0.5596777842
O  O9  1  0.66070000  0.06462000  0.95837000  1.0 -0.5596777842
O  O10  1  0.66070000  0.43538000  0.95837000  1.0 -0.5596777842
O  O11  1  0.66070000  0.56462000  0.54163000  1.0 -0.5596777842
O  O12  1  0.33930000  0.06462000  0.45837000  1.0 -0.5596777842
O  O13  1  0.33930000  0.93538000  0.04163000  1.0 -0.5596777842
O  O14  1  0.33930000  0.56462000  0.04163000  1.0 -0.5596777842
O  O15  1  0.33930000  0.43538000  0.45837000  1.0 -0.5596777842
O  O16  1  0.66070000  0.93538000  0.54163000  1.0 -0.5596777842
O  O17  1  0.51910000  0.52904000  0.87920000  1.0 -0.5287667749
O  O18  1  0.51910000  0.97096000  0.87920000  1.0 -0.5287667749
O  O19  1  0.51910000  0.02904000  0.62080000  1.0 -0.5287667749
O  O20  1  0.48090000  0.52904000  0.37920000  1.0 -0.5287667749
O  O21  1  0.48090000  0.47096000  0.12080000  1.0 -0.5287667749
O  O22  1  0.48090000  0.02904000  0.12080000  1.0 -0.5287667749
O  O23  1  0.48090000  0.97096000  0.37920000  1.0 -0.5287667749
O  O24  1  0.51910000  0.47096000  0.62080000  1.0 -0.5287667749
O  O25  1  0.49660000  0.12068000  0.00477000  1.0 -0.5389056777
O  O26  1  0.49660000  0.37932000  0.00477000  1.0 -0.5389056777
O  O27  1  0.49660000  0.62068000  0.49523000  1.0 -0.5389056777
O  O28  1  0.50340000  0.12068000  0.50477000  1.0 -0.5389056777
O  O29  1  0.50340000  0.87932000  0.99523000  1.0 -0.5389056777
O  O30  1  0.50340000  0.62068000  0.99523000  1.0 -0.5389056777
O  O31  1  0.50340000  0.37932000  0.50477000  1.0 -0.5389056777
O  O32  1  0.49660000  0.87932000  0.49523000  1.0 -0.5389056777
