# DDEC6 charges by PACMAN v1.1 (https://github.com/mtap-research/PACMAN-charge/)
data_PACZOK_ASR_pacman
_symmetry_space_group_name_H-M   'P 1'
_cell_length_a   22.95560000
_cell_length_b   22.95560000
_cell_length_c   22.95560000
_cell_angle_alpha   109.47100000
_cell_angle_beta   109.47100000
_cell_angle_gamma   109.47100000
_symmetry_Int_Tables_number   1
_chemical_formula_structural   V5(PO6)2
_chemical_formula_sum   'V60 P24 O144'
_cell_volume   9312.09938913
_cell_formula_units_Z   12
loop_
 _symmetry_equiv_pos_site_id
 _symmetry_equiv_pos_as_xyz
  1  'x, y, z'
loop_
 _atom_site_type_symbol
 _atom_site_label
 _atom_site_symmetry_multiplicity
 _atom_site_fract_x
 _atom_site_fract_y
 _atom_site_fract_z
 _atom_site_occupancy
 _atom_site_charge
V  V1  1  0.38019000  0.38019000  0.57158000  1.0 1.6121797836
V  V2  1  0.80861000  0.80861000  0.42842000  1.0 1.6042933801
V  V3  1  0.19139000  0.61981000  0.00000000  1.0 1.6121797836
V  V4  1  0.61981000  0.19139000  0.00000000  1.0 1.6121797836
V  V5  1  0.57158000  0.38019000  0.38019000  1.0 1.6121797836
V  V6  1  0.42842000  0.80861000  0.80861000  1.0 1.6121797836
V  V7  1  0.00000000  0.19139000  0.61981000  1.0 1.6161106765
V  V8  1  0.00000000  0.61981000  0.19139000  1.0 1.6121797836
V  V9  1  0.38019000  0.57158000  0.38019000  1.0 1.6121797836
V  V10  1  0.80861000  0.42842000  0.80861000  1.0 1.6121797836
V  V11  1  0.61981000  0.00000000  0.19139000  1.0 1.6121797836
V  V12  1  0.19139000  0.00000000  0.61981000  1.0 1.6121797836
V  V13  1  0.19139000  0.19139000  0.57158000  1.0 1.6161106765
V  V14  1  0.61981000  0.61981000  0.42842000  1.0 1.6121797836
V  V15  1  0.80861000  0.38019000  0.00000000  1.0 1.6121797836
V  V16  1  0.38019000  0.80861000  0.00000000  1.0 1.6121797836
V  V17  1  0.80861000  0.00000000  0.38019000  1.0 1.6121797836
V  V18  1  0.38019000  0.00000000  0.80861000  1.0 1.6121797836
V  V19  1  0.61981000  0.42842000  0.61981000  1.0 1.6121797836
V  V20  1  0.19139000  0.57158000  0.19139000  1.0 1.6121797836
V  V21  1  0.00000000  0.80861000  0.38019000  1.0 1.6042933801
V  V22  1  0.00000000  0.38019000  0.80861000  1.0 1.6161106765
V  V23  1  0.57158000  0.19139000  0.19139000  1.0 1.6121797836
V  V24  1  0.42842000  0.61981000  0.61981000  1.0 1.6121797836
V  V25  1  0.24572000  0.24572000  0.49144000  1.0 1.0970942119
V  V26  1  0.75428000  0.75428000  0.50856000  1.0 1.0895485023
V  V27  1  0.24572000  0.75428000  0.00000000  1.0 1.0895485023
V  V28  1  0.75428000  0.24572000  0.00000000  1.0 1.0895485023
V  V29  1  0.49144000  0.24572000  0.24572000  1.0 1.0970942119
V  V30  1  0.50856000  0.75428000  0.75428000  1.0 1.0970942119
V  V31  1  0.00000000  0.24572000  0.75428000  1.0 1.0970942119
V  V32  1  0.00000000  0.75428000  0.24572000  1.0 1.0895485023
V  V33  1  0.24572000  0.49144000  0.24572000  1.0 1.0970942119
V  V34  1  0.75428000  0.50856000  0.75428000  1.0 1.0970942119
V  V35  1  0.75428000  0.00000000  0.24572000  1.0 1.0970942119
V  V36  1  0.24572000  0.00000000  0.75428000  1.0 1.0970942119
V  V37  1  0.34661000  0.20591000  0.55252000  1.0 1.636520116
V  V38  1  0.65339000  0.79409000  0.44748000  1.0 1.6311026049
V  V39  1  0.34661000  0.79409000  0.14070000  1.0 1.6311026049
V  V40  1  0.65339000  0.20591000  0.85930000  1.0 1.6311026049
V  V41  1  0.55252000  0.34661000  0.20591000  1.0 1.636520116
V  V42  1  0.44748000  0.65339000  0.79409000  1.0 1.636520116
V  V43  1  0.14070000  0.34661000  0.79409000  1.0 1.636520116
V  V44  1  0.85930000  0.65339000  0.20591000  1.0 1.6311026049
V  V45  1  0.20591000  0.55252000  0.34661000  1.0 1.6311026049
V  V46  1  0.79409000  0.44748000  0.65339000  1.0 1.636520116
V  V47  1  0.79409000  0.14070000  0.34661000  1.0 1.636520116
V  V48  1  0.20591000  0.85930000  0.65339000  1.0 1.6311026049
V  V49  1  0.20591000  0.34661000  0.55252000  1.0 1.636520116
V  V50  1  0.79409000  0.65339000  0.44748000  1.0 1.6311026049
V  V51  1  0.79409000  0.34661000  0.14070000  1.0 1.6311026049
V  V52  1  0.20591000  0.65339000  0.85930000  1.0 1.6311026049
V  V53  1  0.65339000  0.85930000  0.20591000  1.0 1.6311026049
V  V54  1  0.34661000  0.14070000  0.79409000  1.0 1.636520116
V  V55  1  0.65339000  0.44748000  0.79409000  1.0 1.6311026049
V  V56  1  0.34661000  0.55252000  0.20591000  1.0 1.6311026049
V  V57  1  0.14070000  0.79409000  0.34661000  1.0 1.6311026049
V  V58  1  0.85930000  0.20591000  0.65339000  1.0 1.636520116
V  V59  1  0.55252000  0.20591000  0.34661000  1.0 1.636520116
V  V60  1  0.44748000  0.79409000  0.65339000  1.0 1.636520116
P  P1  1  0.34980000  0.50000000  0.65019000  1.0 1.3090301011
P  P2  1  0.84981000  0.69961000  0.34980000  1.0 1.3090301011
P  P3  1  0.15020000  0.50000000  0.84981000  1.0 1.3090301011
P  P4  1  0.65019000  0.30039000  0.15020000  1.0 1.3090301011
P  P5  1  0.65020000  0.34980000  0.50000000  1.0 1.3090301011
P  P6  1  0.34980000  0.84981000  0.69961000  1.0 1.3090301011
P  P7  1  0.84981000  0.15019000  0.50000000  1.0 1.3090301011
P  P8  1  0.15019000  0.65019000  0.30039000  1.0 1.3090301011
P  P9  1  0.50000000  0.65019000  0.34980000  1.0 1.3090301011
P  P10  1  0.69961000  0.34981000  0.84981000  1.0 1.3090301011
P  P11  1  0.50000000  0.84981000  0.15020000  1.0 1.3090301011
P  P12  1  0.30039000  0.15019000  0.65019000  1.0 1.3090301011
P  P13  1  0.65019000  0.50000000  0.34980000  1.0 1.3090301011
P  P14  1  0.15019000  0.30039000  0.65019000  1.0 1.3090301011
P  P15  1  0.84981000  0.50000000  0.15020000  1.0 1.3090301011
P  P16  1  0.34981000  0.69961000  0.84981000  1.0 1.3090301011
P  P17  1  0.34980000  0.65019000  0.50000000  1.0 1.3090301011
P  P18  1  0.65019000  0.15020000  0.30039000  1.0 1.3045287072
P  P19  1  0.15019000  0.84981000  0.50000000  1.0 1.3090301011
P  P20  1  0.84981000  0.34980000  0.69961000  1.0 1.3045287072
P  P21  1  0.50000000  0.34980000  0.65019000  1.0 1.3090301011
P  P22  1  0.30039000  0.65020000  0.15020000  1.0 1.3090301011
P  P23  1  0.50000000  0.15020000  0.84981000  1.0 1.3045287072
P  P24  1  0.69961000  0.84981000  0.34980000  1.0 1.3090301011
O  O1  1  0.34335000  0.27708000  0.52579000  1.0 -0.9957315966
O  O2  1  0.75129000  0.81756000  0.47421000  1.0 -0.9932253956
O  O3  1  0.24871000  0.72292000  0.06627000  1.0 -0.9957315966
O  O4  1  0.65665000  0.18244000  0.93373000  1.0 -0.9932253956
O  O5  1  0.52579000  0.34335000  0.27708000  1.0 -0.9957315966
O  O6  1  0.47421000  0.75129000  0.81756000  1.0 -0.9932253956
O  O7  1  0.06627000  0.24871000  0.72292000  1.0 -0.9957315966
O  O8  1  0.93373000  0.65665000  0.18244000  1.0 -0.9932253956
O  O9  1  0.27708000  0.52579000  0.34335000  1.0 -0.9957315966
O  O10  1  0.81756000  0.47421000  0.75129000  1.0 -0.9957315966
O  O11  1  0.72292000  0.06627000  0.24871000  1.0 -0.9957315966
O  O12  1  0.18244000  0.93373000  0.65665000  1.0 -0.9932253956
O  O13  1  0.18244000  0.24871000  0.52579000  1.0 -0.9957315966
O  O14  1  0.72292000  0.65665000  0.47421000  1.0 -0.9932253956
O  O15  1  0.81756000  0.34335000  0.06627000  1.0 -0.9932253956
O  O16  1  0.27708000  0.75129000  0.93373000  1.0 -0.9932253956
O  O17  1  0.75129000  0.93373000  0.27708000  1.0 -0.9932253956
O  O18  1  0.34335000  0.06627000  0.81756000  1.0 -0.9957315966
O  O19  1  0.65665000  0.47421000  0.72292000  1.0 -0.9957315966
O  O20  1  0.24871000  0.52579000  0.18244000  1.0 -0.9957315966
O  O21  1  0.06627000  0.81756000  0.34335000  1.0 -0.9932253956
O  O22  1  0.93373000  0.27708000  0.75129000  1.0 -0.9932253956
O  O23  1  0.52579000  0.18244000  0.24871000  1.0 -0.9957315966
O  O24  1  0.47421000  0.72292000  0.65665000  1.0 -0.9957315966
O  O25  1  0.65665000  0.72292000  0.47421000  1.0 -0.9932253956
O  O26  1  0.24871000  0.18244000  0.52579000  1.0 -0.9957315966
O  O27  1  0.75129000  0.27708000  0.93373000  1.0 -0.9932253956
O  O28  1  0.34335000  0.81756000  0.06627000  1.0 -0.9957315966
O  O29  1  0.47421000  0.65665000  0.72292000  1.0 -0.9932253956
O  O30  1  0.52579000  0.24871000  0.18244000  1.0 -0.9957315966
O  O31  1  0.93373000  0.75129000  0.27708000  1.0 -0.9932253956
O  O32  1  0.06627000  0.34335000  0.81756000  1.0 -0.9957315966
O  O33  1  0.72292000  0.47421000  0.65665000  1.0 -0.9957315966
O  O34  1  0.18244000  0.52579000  0.24871000  1.0 -0.9957315966
O  O35  1  0.27708000  0.93373000  0.75129000  1.0 -0.9932253956
O  O36  1  0.81756000  0.06627000  0.34335000  1.0 -0.9932253956
O  O37  1  0.81756000  0.75129000  0.47421000  1.0 -0.9932253956
O  O38  1  0.27708000  0.34335000  0.52579000  1.0 -0.9957315966
O  O39  1  0.18244000  0.65665000  0.93373000  1.0 -0.9932253956
O  O40  1  0.72292000  0.24871000  0.06627000  1.0 -0.9932253956
O  O41  1  0.24871000  0.06627000  0.72292000  1.0 -0.9957315966
O  O42  1  0.65665000  0.93373000  0.18244000  1.0 -0.9957315966
O  O43  1  0.34335000  0.52579000  0.27708000  1.0 -0.9957315966
O  O44  1  0.75129000  0.47421000  0.81756000  1.0 -0.9932253956
O  O45  1  0.93373000  0.18244000  0.65665000  1.0 -0.9932253956
O  O46  1  0.06627000  0.72292000  0.24871000  1.0 -0.9957315966
O  O47  1  0.47421000  0.81756000  0.75129000  1.0 -0.9932253956
O  O48  1  0.52579000  0.27708000  0.34335000  1.0 -0.9957315966
O  O49  1  0.39450000  0.46350000  0.64800000  1.0 -0.7708400539
O  O50  1  0.81550000  0.74650000  0.35200000  1.0 -0.7708400539
O  O51  1  0.18450000  0.53650000  0.93100000  1.0 -0.7708400539
O  O52  1  0.60550000  0.25350000  0.06900000  1.0 -0.781855158
O  O53  1  0.64800000  0.39450000  0.46350000  1.0 -0.7708400539
O  O54  1  0.35200000  0.81550000  0.74650000  1.0 -0.7708400539
O  O55  1  0.93100000  0.18450000  0.53650000  1.0 -0.7708400539
O  O56  1  0.06900000  0.60550000  0.25350000  1.0 -0.7708400539
O  O57  1  0.46350000  0.64800000  0.39450000  1.0 -0.7708400539
O  O58  1  0.74650000  0.35200000  0.81550000  1.0 -0.7708400539
O  O59  1  0.53650000  0.93100000  0.18450000  1.0 -0.7708400539
O  O60  1  0.25350000  0.06900000  0.60550000  1.0 -0.7708400539
O  O61  1  0.25350000  0.18450000  0.64800000  1.0 -0.7708400539
O  O62  1  0.53650000  0.60550000  0.35200000  1.0 -0.7708400539
O  O63  1  0.74650000  0.39450000  0.93100000  1.0 -0.7708400539
O  O64  1  0.46350000  0.81550000  0.06900000  1.0 -0.781855158
O  O65  1  0.81550000  0.06900000  0.46350000  1.0 -0.7708400539
O  O66  1  0.39450000  0.93100000  0.74650000  1.0 -0.7708400539
O  O67  1  0.60550000  0.35200000  0.53650000  1.0 -0.7708400539
O  O68  1  0.18450000  0.64800000  0.25350000  1.0 -0.7708400539
O  O69  1  0.93100000  0.74650000  0.39450000  1.0 -0.7708400539
O  O70  1  0.06900000  0.46350000  0.81550000  1.0 -0.7708400539
O  O71  1  0.64800000  0.25350000  0.18450000  1.0 -0.7708400539
O  O72  1  0.35200000  0.53650000  0.60550000  1.0 -0.7708400539
O  O73  1  0.60550000  0.53650000  0.35200000  1.0 -0.7708400539
O  O74  1  0.18450000  0.25350000  0.64800000  1.0 -0.7708400539
O  O75  1  0.81550000  0.46350000  0.06900000  1.0 -0.7708400539
O  O76  1  0.39450000  0.74650000  0.93100000  1.0 -0.7708400539
O  O77  1  0.35200000  0.60550000  0.53650000  1.0 -0.7708400539
O  O78  1  0.64800000  0.18450000  0.25350000  1.0 -0.7708400539
O  O79  1  0.06900000  0.81550000  0.46350000  1.0 -0.781855158
O  O80  1  0.93100000  0.39450000  0.74650000  1.0 -0.7708400539
O  O81  1  0.53650000  0.35200000  0.60550000  1.0 -0.7708400539
O  O82  1  0.25350000  0.64800000  0.18450000  1.0 -0.7708400539
O  O83  1  0.46350000  0.06900000  0.81550000  1.0 -0.7708400539
O  O84  1  0.74650000  0.93100000  0.39450000  1.0 -0.7708400539
O  O85  1  0.74650000  0.81550000  0.35200000  1.0 -0.7708400539
O  O86  1  0.46350000  0.39450000  0.64800000  1.0 -0.7708400539
O  O87  1  0.25350000  0.60550000  0.06900000  1.0 -0.7708400539
O  O88  1  0.53650000  0.18450000  0.93100000  1.0 -0.7708400539
O  O89  1  0.18450000  0.93100000  0.53650000  1.0 -0.7708400539
O  O90  1  0.60550000  0.06900000  0.25350000  1.0 -0.7708400539
O  O91  1  0.39450000  0.64800000  0.46350000  1.0 -0.781855158
O  O92  1  0.81550000  0.35200000  0.74650000  1.0 -0.7708400539
O  O93  1  0.06900000  0.25350000  0.60550000  1.0 -0.781855158
O  O94  1  0.93100000  0.53650000  0.18450000  1.0 -0.7708400539
O  O95  1  0.35200000  0.74650000  0.81550000  1.0 -0.7708400539
O  O96  1  0.64800000  0.46350000  0.39450000  1.0 -0.7708400539
O  O97  1  0.34900000  0.17540000  0.62180000  1.0 -0.781855158
O  O98  1  0.55360000  0.72720000  0.37820000  1.0 -0.7887699118
O  O99  1  0.44640000  0.82460000  0.17360000  1.0 -0.7887699118
O  O100  1  0.65100000  0.27280000  0.82640000  1.0 -0.781855158
O  O101  1  0.62180000  0.34900000  0.17540000  1.0 -0.781855158
O  O102  1  0.37820000  0.55360000  0.72720000  1.0 -0.781855158
O  O103  1  0.17360000  0.44640000  0.82460000  1.0 -0.781855158
O  O104  1  0.82640000  0.65100000  0.27280000  1.0 -0.7887699118
O  O105  1  0.17540000  0.62180000  0.34900000  1.0 -0.781855158
O  O106  1  0.72720000  0.37820000  0.55360000  1.0 -0.781855158
O  O107  1  0.82460000  0.17360000  0.44640000  1.0 -0.7887699118
O  O108  1  0.27280000  0.82640000  0.65100000  1.0 -0.7887699118
O  O109  1  0.27280000  0.44640000  0.62180000  1.0 -0.781855158
O  O110  1  0.82460000  0.65100000  0.37820000  1.0 -0.7887699118
O  O111  1  0.72720000  0.34900000  0.17360000  1.0 -0.781855158
O  O112  1  0.17540000  0.55360000  0.82640000  1.0 -0.781855158
O  O113  1  0.55360000  0.82640000  0.17540000  1.0 -0.781855158
O  O114  1  0.34900000  0.17360000  0.72720000  1.0 -0.781855158
O  O115  1  0.65100000  0.37820000  0.82460000  1.0 -0.781855158
O  O116  1  0.44640000  0.62180000  0.27280000  1.0 -0.7887699118
O  O117  1  0.17360000  0.72720000  0.34900000  1.0 -0.781855158
O  O118  1  0.82640000  0.17540000  0.55360000  1.0 -0.7887699118
O  O119  1  0.62180000  0.27280000  0.44640000  1.0 -0.781855158
O  O120  1  0.37820000  0.82460000  0.65100000  1.0 -0.7887699118
O  O121  1  0.65100000  0.82460000  0.37820000  1.0 -0.7887699118
O  O122  1  0.44640000  0.27280000  0.62180000  1.0 -0.781855158
O  O123  1  0.55360000  0.17540000  0.82640000  1.0 -0.781855158
O  O124  1  0.34900000  0.72720000  0.17360000  1.0 -0.7887699118
O  O125  1  0.37820000  0.65100000  0.82460000  1.0 -0.781855158
O  O126  1  0.62180000  0.44640000  0.27280000  1.0 -0.7887699118
O  O127  1  0.82640000  0.55360000  0.17540000  1.0 -0.781855158
O  O128  1  0.17360000  0.34900000  0.72720000  1.0 -0.781855158
O  O129  1  0.82460000  0.37820000  0.65100000  1.0 -0.781855158
O  O130  1  0.27280000  0.62180000  0.44640000  1.0 -0.781855158
O  O131  1  0.17540000  0.82640000  0.55360000  1.0 -0.781855158
O  O132  1  0.72720000  0.17360000  0.34900000  1.0 -0.781855158
O  O133  1  0.72720000  0.55360000  0.37820000  1.0 -0.7887699118
O  O134  1  0.17540000  0.34900000  0.62180000  1.0 -0.781855158
O  O135  1  0.27280000  0.65100000  0.82640000  1.0 -0.781855158
O  O136  1  0.82460000  0.44640000  0.17360000  1.0 -0.7887699118
O  O137  1  0.44640000  0.17360000  0.82460000  1.0 -0.781855158
O  O138  1  0.65100000  0.82640000  0.27280000  1.0 -0.7887699118
O  O139  1  0.34900000  0.62180000  0.17540000  1.0 -0.781855158
O  O140  1  0.55360000  0.37820000  0.72720000  1.0 -0.781855158
O  O141  1  0.82640000  0.27280000  0.65100000  1.0 -0.781855158
O  O142  1  0.17360000  0.82460000  0.44640000  1.0 -0.7887699118
O  O143  1  0.37820000  0.72720000  0.55360000  1.0 -0.781855158
O  O144  1  0.62180000  0.17540000  0.34900000  1.0 -0.781855158
