# DDEC6 charges by PACMAN v1.1 (https://github.com/mtap-research/PACMAN-charge/)
data_PADBAZ_ion_pacman
_symmetry_space_group_name_H-M   'P 1'
_cell_length_a   16.16370000
_cell_length_b   16.16370000
_cell_length_c   16.16370000
_cell_angle_alpha   113.41700000
_cell_angle_beta   113.41700000
_cell_angle_gamma   113.41700000
_symmetry_Int_Tables_number   1
_chemical_formula_structural   NdH10C9BrNO8
_chemical_formula_sum   'Nd6 H60 C54 Br6 N6 O48'
_cell_volume   2672.97763537
_cell_formula_units_Z   6
loop_
 _symmetry_equiv_pos_site_id
 _symmetry_equiv_pos_as_xyz
  1  'x, y, z'
loop_
 _atom_site_type_symbol
 _atom_site_label
 _atom_site_symmetry_multiplicity
 _atom_site_fract_x
 _atom_site_fract_y
 _atom_site_fract_z
 _atom_site_occupancy
 _atom_site_charge
Nd  Nd1  1  0.99804000  0.53340000  0.13441000  1.0 2.0990604468
Nd  Nd2  1  0.53340000  0.13441000  0.99804000  1.0 2.0990604468
Nd  Nd3  1  0.13441000  0.99804000  0.53340000  1.0 2.0990604468
Nd  Nd4  1  0.00196000  0.46660000  0.86559000  1.0 2.0990604468
Nd  Nd5  1  0.46660000  0.86559000  0.00196000  1.0 2.0990604468
Nd  Nd6  1  0.86559000  0.00196000  0.46660000  1.0 2.0990604468
H  H1  1  0.31430000  0.77800000  0.15630000  1.0 0.1695584332
H  H2  1  0.77800000  0.15630000  0.31430000  1.0 0.1695584332
H  H3  1  0.15630000  0.31430000  0.77800000  1.0 0.1695584332
H  H4  1  0.68570000  0.22200000  0.84370000  1.0 0.1695584332
H  H5  1  0.22200000  0.84370000  0.68570000  1.0 0.1695584332
H  H6  1  0.84370000  0.68570000  0.22200000  1.0 0.1695584332
H  H7  1  0.22550000  0.79860000  0.11140000  1.0 0.1695584332
H  H8  1  0.79860000  0.11140000  0.22550000  1.0 0.1695584332
H  H9  1  0.11140000  0.22550000  0.79860000  1.0 0.1695584332
H  H10  1  0.77450000  0.20140000  0.88860000  1.0 0.1695584332
H  H11  1  0.20140000  0.88860000  0.77450000  1.0 0.1695584332
H  H12  1  0.88860000  0.77450000  0.20140000  1.0 0.1695584332
H  H13  1  0.60280000  0.00990000  0.42700000  1.0 0.1695584332
H  H14  1  0.00990000  0.42700000  0.60280000  1.0 0.1695584332
H  H15  1  0.42700000  0.60280000  0.00990000  1.0 0.1695584332
H  H16  1  0.39720000  0.99010000  0.57300000  1.0 0.1695584332
H  H17  1  0.99010000  0.57300000  0.39720000  1.0 0.1695584332
H  H18  1  0.57300000  0.39720000  0.99010000  1.0 0.1695584332
H  H19  1  0.71840000  0.12720000  0.48030000  1.0 0.1869054246
H  H20  1  0.12720000  0.48030000  0.71840000  1.0 0.1869054246
H  H21  1  0.48030000  0.71840000  0.12720000  1.0 0.1869054246
H  H22  1  0.28160000  0.87280000  0.51970000  1.0 0.1869054246
H  H23  1  0.87280000  0.51970000  0.28160000  1.0 0.1869054246
H  H24  1  0.51970000  0.28160000  0.87280000  1.0 0.1869054246
H  H25  1  0.30400000  0.00560000  0.21050000  1.0 0.1117201719
H  H26  1  0.00560000  0.21050000  0.30400000  1.0 0.1117201719
H  H27  1  0.21050000  0.30400000  0.00560000  1.0 0.1117201719
H  H28  1  0.69600000  0.99440000  0.78950000  1.0 0.1117201719
H  H29  1  0.99440000  0.78950000  0.69600000  1.0 0.1117201719
H  H30  1  0.78950000  0.69600000  0.99440000  1.0 0.1117201719
H  H31  1  0.42260000  0.13250000  0.33190000  1.0 0.1117201719
H  H32  1  0.13250000  0.33190000  0.42260000  1.0 0.1117201719
H  H33  1  0.33190000  0.42260000  0.13250000  1.0 0.1117201719
H  H34  1  0.57740000  0.86750000  0.66810000  1.0 0.1117201719
H  H35  1  0.86750000  0.66810000  0.57740000  1.0 0.1117201719
H  H36  1  0.66810000  0.57740000  0.86750000  1.0 0.1117201719
H  H37  1  0.41590000  0.93290000  0.35190000  1.0 0.1117201719
H  H38  1  0.93290000  0.35190000  0.41590000  1.0 0.1117201719
H  H39  1  0.35190000  0.41590000  0.93290000  1.0 0.1117201719
H  H40  1  0.58410000  0.06710000  0.64810000  1.0 0.1117201719
H  H41  1  0.06710000  0.64810000  0.58410000  1.0 0.1117201719
H  H42  1  0.64810000  0.58410000  0.06710000  1.0 0.1117201719
H  H43  1  0.32550000  0.95250000  0.30840000  1.0 0.1117201719
H  H44  1  0.95250000  0.30840000  0.32550000  1.0 0.1117201719
H  H45  1  0.30840000  0.32550000  0.95250000  1.0 0.1117201719
H  H46  1  0.67450000  0.04750000  0.69160000  1.0 0.1117201719
H  H47  1  0.04750000  0.69160000  0.67450000  1.0 0.1117201719
H  H48  1  0.69160000  0.67450000  0.04750000  1.0 0.1117201719
H  H49  1  0.33960000  0.10820000  0.16800000  1.0 0.1419122922
H  H50  1  0.10820000  0.16800000  0.33960000  1.0 0.1419122922
H  H51  1  0.16800000  0.33960000  0.10820000  1.0 0.1419122922
H  H52  1  0.66040000  0.89180000  0.83200000  1.0 0.1419122922
H  H53  1  0.89180000  0.83200000  0.66040000  1.0 0.1419122922
H  H54  1  0.83200000  0.66040000  0.89180000  1.0 0.1419122922
H  H55  1  0.47730000  0.18230000  0.25590000  1.0 0.1519270498
H  H56  1  0.18230000  0.25590000  0.47730000  1.0 0.1519270498
H  H57  1  0.25590000  0.47730000  0.18230000  1.0 0.1519270498
H  H58  1  0.52270000  0.81770000  0.74410000  1.0 0.1519270498
H  H59  1  0.81770000  0.74410000  0.52270000  1.0 0.1519270498
H  H60  1  0.74410000  0.52270000  0.81770000  1.0 0.1519270498
C  C1  1  0.19380000  0.71540000  0.17080000  1.0 0.6450080979
C  C2  1  0.71540000  0.17080000  0.19380000  1.0 0.6447611558
C  C3  1  0.17080000  0.19380000  0.71540000  1.0 0.6447611558
C  C4  1  0.80620000  0.28460000  0.82920000  1.0 0.6447611558
C  C5  1  0.28460000  0.82920000  0.80620000  1.0 0.6447611558
C  C6  1  0.82920000  0.80620000  0.28460000  1.0 0.6447611558
C  C7  1  0.27350000  0.80200000  0.17460000  1.0 -0.370692744
C  C8  1  0.80200000  0.17460000  0.27350000  1.0 -0.370692744
C  C9  1  0.17460000  0.27350000  0.80200000  1.0 -0.370692744
C  C10  1  0.72650000  0.19800000  0.82540000  1.0 -0.370692744
C  C11  1  0.19800000  0.82540000  0.72650000  1.0 -0.370692744
C  C12  1  0.82540000  0.72650000  0.19800000  1.0 -0.370692744
C  C13  1  0.62760000  0.98700000  0.30930000  1.0 0.6943777907
C  C14  1  0.98700000  0.30930000  0.62760000  1.0 0.6954427469
C  C15  1  0.30930000  0.62760000  0.98700000  1.0 0.6943777907
C  C16  1  0.37240000  0.01300000  0.69070000  1.0 0.6954427469
C  C17  1  0.01300000  0.69070000  0.37240000  1.0 0.6943777907
C  C18  1  0.69070000  0.37240000  0.01300000  1.0 0.6954427469
C  C19  1  0.63430000  0.05890000  0.40950000  1.0 -0.4624330443
C  C20  1  0.05890000  0.40950000  0.63430000  1.0 -0.4624330443
C  C21  1  0.40950000  0.63430000  0.05890000  1.0 -0.4624330443
C  C22  1  0.36570000  0.94110000  0.59050000  1.0 -0.4624330443
C  C23  1  0.94110000  0.59050000  0.36570000  1.0 -0.4624330443
C  C24  1  0.59050000  0.36570000  0.94110000  1.0 -0.4624330443
C  C25  1  0.57140000  0.10450000  0.39140000  1.0 0.2407791424
C  C26  1  0.10450000  0.39140000  0.57140000  1.0 0.2407791424
C  C27  1  0.39140000  0.57140000  0.10450000  1.0 0.2407791424
C  C28  1  0.42860000  0.89550000  0.60860000  1.0 0.2407791424
C  C29  1  0.89550000  0.60860000  0.42860000  1.0 0.2407791424
C  C30  1  0.60860000  0.42860000  0.89550000  1.0 0.2407791424
C  C31  1  0.38940000  0.06460000  0.25600000  1.0 -0.0632923647
C  C32  1  0.06460000  0.25600000  0.38940000  1.0 -0.0632923647
C  C33  1  0.25600000  0.38940000  0.06460000  1.0 -0.0632923647
C  C34  1  0.61060000  0.93540000  0.74400000  1.0 -0.0632923647
C  C35  1  0.93540000  0.74400000  0.61060000  1.0 -0.0632923647
C  C36  1  0.74400000  0.61060000  0.93540000  1.0 -0.0632923647
C  C37  1  0.36500000  0.92760000  0.28840000  1.0 -0.0632923647
C  C38  1  0.92760000  0.28840000  0.36500000  1.0 -0.0632923647
C  C39  1  0.28840000  0.36500000  0.92760000  1.0 -0.0632923647
C  C40  1  0.63500000  0.07240000  0.71160000  1.0 -0.0632923647
C  C41  1  0.07240000  0.71160000  0.63500000  1.0 -0.0632923647
C  C42  1  0.71160000  0.63500000  0.07240000  1.0 -0.0632923647
C  C43  1  0.39040000  0.03080000  0.09020000  1.0 0.7095433184
C  C44  1  0.03080000  0.09020000  0.39040000  1.0 0.7095433184
C  C45  1  0.09020000  0.39040000  0.03080000  1.0 0.7095433184
C  C46  1  0.60960000  0.96920000  0.90980000  1.0 0.7095433184
C  C47  1  0.96920000  0.90980000  0.60960000  1.0 0.7095433184
C  C48  1  0.90980000  0.60960000  0.96920000  1.0 0.7095433184
C  C49  1  0.40080000  0.10250000  0.19770000  1.0 -0.2812282386
C  C50  1  0.10250000  0.19770000  0.40080000  1.0 -0.2812282386
C  C51  1  0.19770000  0.40080000  0.10250000  1.0 -0.2812282386
C  C52  1  0.59920000  0.89750000  0.80230000  1.0 -0.2812282386
C  C53  1  0.89750000  0.80230000  0.59920000  1.0 -0.2812282386
C  C54  1  0.80230000  0.59920000  0.89750000  1.0 -0.2812282386
Br  Br1  1  0.22973000  0.61108000  0.54129000  1.0 -0.2724886181
Br  Br2  1  0.54129000  0.22973000  0.61108000  1.0 -0.2724886181
Br  Br3  1  0.61108000  0.54129000  0.22973000  1.0 -0.2724886181
Br  Br4  1  0.77027000  0.38892000  0.45871000  1.0 -0.2724886181
Br  Br5  1  0.45871000  0.77027000  0.38892000  1.0 -0.2724886181
Br  Br6  1  0.38892000  0.45871000  0.77027000  1.0 -0.2724886181
N  N1  1  0.44130000  0.01110000  0.28250000  1.0 -0.0446418119
N  N2  1  0.01110000  0.28250000  0.44130000  1.0 -0.0446418119
N  N3  1  0.28250000  0.44130000  0.01110000  1.0 -0.045455609
N  N4  1  0.55870000  0.98890000  0.71750000  1.0 -0.045455609
N  N5  1  0.98890000  0.71750000  0.55870000  1.0 -0.045455609
N  N6  1  0.71750000  0.55870000  0.98890000  1.0 -0.0446418119
O  O1  1  0.18870000  0.74960000  0.25180000  1.0 -0.5166367185
O  O2  1  0.74960000  0.25180000  0.18870000  1.0 -0.5166367185
O  O3  1  0.25180000  0.18870000  0.74960000  1.0 -0.5166367185
O  O4  1  0.81130000  0.25040000  0.74820000  1.0 -0.5166367185
O  O5  1  0.25040000  0.74820000  0.81130000  1.0 -0.5166367185
O  O6  1  0.74820000  0.81130000  0.25040000  1.0 -0.5166367185
O  O7  1  0.37560000  0.94050000  0.06180000  1.0 -0.5790532919
O  O8  1  0.94050000  0.06180000  0.37560000  1.0 -0.5790532919
O  O9  1  0.06180000  0.37560000  0.94050000  1.0 -0.5790532919
O  O10  1  0.62440000  0.05950000  0.93820000  1.0 -0.5790532919
O  O11  1  0.05950000  0.93820000  0.62440000  1.0 -0.5790532919
O  O12  1  0.93820000  0.62440000  0.05950000  1.0 -0.5790532919
O  O13  1  0.69840000  0.97080000  0.32790000  1.0 -0.5706728192
O  O14  1  0.97080000  0.32790000  0.69840000  1.0 -0.5706728192
O  O15  1  0.32790000  0.69840000  0.97080000  1.0 -0.5706728192
O  O16  1  0.30160000  0.02920000  0.67210000  1.0 -0.5706728192
O  O17  1  0.02920000  0.67210000  0.30160000  1.0 -0.5706728192
O  O18  1  0.67210000  0.30160000  0.02920000  1.0 -0.5706728192
O  O19  1  0.54490000  0.94210000  0.20530000  1.0 -0.6008056295
O  O20  1  0.94210000  0.20530000  0.54490000  1.0 -0.6008056295
O  O21  1  0.20530000  0.54490000  0.94210000  1.0 -0.6008056295
O  O22  1  0.45510000  0.05790000  0.79470000  1.0 -0.6008056295
O  O23  1  0.05790000  0.79470000  0.45510000  1.0 -0.6008056295
O  O24  1  0.79470000  0.45510000  0.05790000  1.0 -0.6008056295
O  O25  1  0.12600000  0.60300000  0.08370000  1.0 -0.7506248844
O  O26  1  0.60300000  0.08370000  0.12600000  1.0 -0.7506248844
O  O27  1  0.08370000  0.12600000  0.60300000  1.0 -0.7506248844
O  O28  1  0.87400000  0.39700000  0.91630000  1.0 -0.7506248844
O  O29  1  0.39700000  0.91630000  0.87400000  1.0 -0.7506248844
O  O30  1  0.91630000  0.87400000  0.39700000  1.0 -0.7506248844
O  O31  1  0.90980000  0.38080000  0.15010000  1.0 -0.3102076692
O  O32  1  0.38080000  0.15010000  0.90980000  1.0 -0.3102076692
O  O33  1  0.15010000  0.90980000  0.38080000  1.0 -0.3102076692
O  O34  1  0.09020000  0.61920000  0.84990000  1.0 -0.3102076692
O  O35  1  0.61920000  0.84990000  0.09020000  1.0 -0.3102076692
O  O36  1  0.84990000  0.09020000  0.61920000  1.0 -0.3102076692
O  O37  1  0.39810000  0.07290000  0.04130000  1.0 -0.6008056295
O  O38  1  0.07290000  0.04130000  0.39810000  1.0 -0.6008056295
O  O39  1  0.04130000  0.39810000  0.07290000  1.0 -0.6008056295
O  O40  1  0.60190000  0.92710000  0.95870000  1.0 -0.6008056295
O  O41  1  0.92710000  0.95870000  0.60190000  1.0 -0.6008056295
O  O42  1  0.95870000  0.60190000  0.92710000  1.0 -0.6008056295
O  O43  1  0.18010000  0.60700000  0.31990000  1.0 -0.3381135158
O  O44  1  0.60700000  0.31990000  0.18010000  1.0 -0.3381135158
O  O45  1  0.31990000  0.18010000  0.60700000  1.0 -0.3381135158
O  O46  1  0.81990000  0.39300000  0.68010000  1.0 -0.3381135158
O  O47  1  0.39300000  0.68010000  0.81990000  1.0 -0.3381135158
O  O48  1  0.68010000  0.81990000  0.39300000  1.0 -0.3381135158
