# DDEC6 charges by PACMAN v1.1 (https://github.com/mtap-research/PACMAN-charge/)
data_PADHIM_ASR_pacman
_symmetry_space_group_name_H-M   'P 1'
_cell_length_a   9.53828000
_cell_length_b   9.53478000
_cell_length_c   9.52172000
_cell_angle_alpha   60.06960000
_cell_angle_beta   60.03310000
_cell_angle_gamma   59.89730000
_symmetry_Int_Tables_number   1
_chemical_formula_structural   Ba(HC)20
_chemical_formula_sum   'Ba2 H40 C40'
_cell_volume   612.32074488
_cell_formula_units_Z   2
loop_
 _symmetry_equiv_pos_site_id
 _symmetry_equiv_pos_as_xyz
  1  'x, y, z'
loop_
 _atom_site_type_symbol
 _atom_site_label
 _atom_site_symmetry_multiplicity
 _atom_site_fract_x
 _atom_site_fract_y
 _atom_site_fract_z
 _atom_site_occupancy
 _atom_site_charge
Ba  Ba1  1  0.75000000  0.75000000  0.75000000  1.0 0.8236005702
Ba  Ba2  1  0.50000000  0.50000000  0.50000000  1.0 0.8236005702
H  H1  1  0.37530000  0.80950000  0.69170000  1.0 0.0294615269
H  H2  1  0.12350000  0.69170000  0.80950000  1.0 0.0294615269
H  H3  1  0.69170000  0.12350000  0.37530000  1.0 0.0294615269
H  H4  1  0.80950000  0.37530000  0.12350000  1.0 0.0294615269
H  H5  1  0.87470000  0.44050000  0.55830000  1.0 0.0294615269
H  H6  1  0.12650000  0.55830000  0.44050000  1.0 0.0294615269
H  H7  1  0.55830000  0.12650000  0.87470000  1.0 0.0294615269
H  H8  1  0.44050000  0.87470000  0.12650000  1.0 0.0294615269
H  H9  1  0.60970000  0.85870000  0.40570000  1.0 0.0360098318
H  H10  1  0.12590000  0.40570000  0.85870000  1.0 0.0360098318
H  H11  1  0.40570000  0.12590000  0.60970000  1.0 0.0360098318
H  H12  1  0.85870000  0.60970000  0.12590000  1.0 0.0360098318
H  H13  1  0.64030000  0.39130000  0.84430000  1.0 0.0360098318
H  H14  1  0.12410000  0.84430000  0.39130000  1.0 0.0360098318
H  H15  1  0.84430000  0.12410000  0.64030000  1.0 0.0360098318
H  H16  1  0.39130000  0.64030000  0.12410000  1.0 0.0360098318
H  H17  1  0.38320000  0.66240000  0.83140000  1.0 0.0294615269
H  H18  1  0.12300000  0.83140000  0.66240000  1.0 0.0294615269
H  H19  1  0.83140000  0.12300000  0.38320000  1.0 0.0294615269
H  H20  1  0.66240000  0.38320000  0.12300000  1.0 0.0294615269
H  H21  1  0.86680000  0.58760000  0.41860000  1.0 0.0294615269
H  H22  1  0.12700000  0.41860000  0.58760000  1.0 0.0294615269
H  H23  1  0.41860000  0.12700000  0.86680000  1.0 0.0294615269
H  H24  1  0.58760000  0.86680000  0.12700000  1.0 0.0294615269
H  H25  1  0.45880000  0.87920000  0.53740000  1.0 0.0294615269
H  H26  1  0.12460000  0.53740000  0.87920000  1.0 0.0294615269
H  H27  1  0.53740000  0.12460000  0.45880000  1.0 0.0294615269
H  H28  1  0.87920000  0.45880000  0.12460000  1.0 0.0294615269
H  H29  1  0.79120000  0.37080000  0.71260000  1.0 0.0294615269
H  H30  1  0.12540000  0.71260000  0.37080000  1.0 0.0294615269
H  H31  1  0.71260000  0.12540000  0.79120000  1.0 0.0294615269
H  H32  1  0.37080000  0.79120000  0.12540000  1.0 0.0294615269
H  H33  1  0.48740000  0.50800000  0.88140000  1.0 0.0294615269
H  H34  1  0.12320000  0.88140000  0.50800000  1.0 0.0294615269
H  H35  1  0.88140000  0.12320000  0.48740000  1.0 0.0294615269
H  H36  1  0.50800000  0.48740000  0.12320000  1.0 0.0294615269
H  H37  1  0.76260000  0.74200000  0.36860000  1.0 0.0294615269
H  H38  1  0.12680000  0.36860000  0.74200000  1.0 0.0294615269
H  H39  1  0.36860000  0.12680000  0.76260000  1.0 0.0294615269
H  H40  1  0.74200000  0.76260000  0.12680000  1.0 0.0294615269
C  C1  1  0.48660000  0.72840000  0.66080000  1.0 -0.0679560634
C  C2  1  0.12420000  0.66080000  0.72840000  1.0 -0.0679560634
C  C3  1  0.66080000  0.12420000  0.48660000  1.0 -0.0679560634
C  C4  1  0.72840000  0.48660000  0.12420000  1.0 -0.0679560634
C  C5  1  0.76340000  0.52160000  0.58920000  1.0 -0.0679560634
C  C6  1  0.12580000  0.58920000  0.52160000  1.0 -0.0679560634
C  C7  1  0.58920000  0.12580000  0.76340000  1.0 -0.0679560634
C  C8  1  0.52160000  0.76340000  0.12580000  1.0 -0.0679560634
C  C9  1  0.61700000  0.75580000  0.50180000  1.0 -0.0822102106
C  C10  1  0.12540000  0.50180000  0.75580000  1.0 -0.0822102106
C  C11  1  0.50180000  0.12540000  0.61700000  1.0 -0.0822102106
C  C12  1  0.75580000  0.61700000  0.12540000  1.0 -0.0822102106
C  C13  1  0.63300000  0.49420000  0.74820000  1.0 -0.0822102106
C  C14  1  0.12460000  0.74820000  0.49420000  1.0 -0.0822102106
C  C15  1  0.74820000  0.12460000  0.63300000  1.0 -0.0822102106
C  C16  1  0.49420000  0.63300000  0.12460000  1.0 -0.0822102106
C  C17  1  0.49000000  0.64500000  0.74120000  1.0 -0.0822102106
C  C18  1  0.12380000  0.74120000  0.64500000  1.0 -0.0822102106
C  C19  1  0.74120000  0.12380000  0.49000000  1.0 -0.0822102106
C  C20  1  0.64500000  0.49000000  0.12380000  1.0 -0.0822102106
C  C21  1  0.76000000  0.60500000  0.50880000  1.0 -0.0822102106
C  C22  1  0.12620000  0.50880000  0.60500000  1.0 -0.0822102106
C  C23  1  0.50880000  0.12620000  0.76000000  1.0 -0.0822102106
C  C24  1  0.60500000  0.76000000  0.12620000  1.0 -0.0822102106
C  C25  1  0.53200000  0.76560000  0.57760000  1.0 -0.0679560634
C  C26  1  0.12480000  0.57760000  0.76560000  1.0 -0.0679560634
C  C27  1  0.57760000  0.12480000  0.53200000  1.0 -0.0679560634
C  C28  1  0.76560000  0.53200000  0.12480000  1.0 -0.0679560634
C  C29  1  0.71800000  0.48440000  0.67240000  1.0 -0.0679560634
C  C30  1  0.12520000  0.67240000  0.48440000  1.0 -0.0679560634
C  C31  1  0.67240000  0.12520000  0.71800000  1.0 -0.0679560634
C  C32  1  0.48440000  0.71800000  0.12520000  1.0 -0.0679560634
C  C33  1  0.54890000  0.56090000  0.76630000  1.0 -0.0594235338
C  C34  1  0.12390000  0.76630000  0.56090000  1.0 -0.0594235338
C  C35  1  0.76630000  0.12390000  0.54890000  1.0 -0.0594235338
C  C36  1  0.56090000  0.54890000  0.12390000  1.0 -0.0594235338
C  C37  1  0.70110000  0.68910000  0.48370000  1.0 -0.0594235338
C  C38  1  0.12610000  0.48370000  0.68910000  1.0 -0.0594235338
C  C39  1  0.48370000  0.12610000  0.70110000  1.0 -0.0594235338
C  C40  1  0.68910000  0.70110000  0.12610000  1.0 -0.0594235338
