# DDEC6 charges by PACMAN v1.1 (https://github.com/mtap-research/PACMAN-charge/)
data_PAFNAO_ASR_pacman
_symmetry_space_group_name_H-M   'P 1'
_cell_length_a   15.96400000
_cell_length_b   16.31900000
_cell_length_c   16.57800000
_cell_angle_alpha   90.00000000
_cell_angle_beta   118.02000000
_cell_angle_gamma   90.00000000
_symmetry_Int_Tables_number   1
_chemical_formula_structural   Cd2H20C33(N4O7)2
_chemical_formula_sum   'Cd8 H80 C132 N32 O56'
_cell_volume   3812.60386707
_cell_formula_units_Z   4
loop_
 _symmetry_equiv_pos_site_id
 _symmetry_equiv_pos_as_xyz
  1  'x, y, z'
loop_
 _atom_site_type_symbol
 _atom_site_label
 _atom_site_symmetry_multiplicity
 _atom_site_fract_x
 _atom_site_fract_y
 _atom_site_fract_z
 _atom_site_occupancy
 _atom_site_charge
Cd  Cd1  1  0.88505000  0.70281000  0.71137000  1.0 0.926024592
Cd  Cd2  1  0.61495000  0.20281000  0.28863000  1.0 0.926024592
Cd  Cd3  1  0.11495000  0.29719000  0.28863000  1.0 0.926024592
Cd  Cd4  1  0.38505000  0.79719000  0.71137000  1.0 0.926024592
Cd  Cd5  1  0.16094000  0.72852000  0.82248000  1.0 0.8640339286
Cd  Cd6  1  0.33906000  0.22852000  0.17752000  1.0 0.8640339286
Cd  Cd7  1  0.83906000  0.27148000  0.17752000  1.0 0.8640339286
Cd  Cd8  1  0.66094000  0.77148000  0.82248000  1.0 0.8640339286
H  H1  1  0.95070000  0.06420000  0.23640000  1.0 0.130587199
H  H2  1  0.54930000  0.56420000  0.76360000  1.0 0.130587199
H  H3  1  0.04930000  0.93580000  0.76360000  1.0 0.130587199
H  H4  1  0.45070000  0.43580000  0.23640000  1.0 0.130587199
H  H5  1  0.06300000  0.06400000  0.29140000  1.0 0.1196543497
H  H6  1  0.43700000  0.56400000  0.70860000  1.0 0.1196543497
H  H7  1  0.93700000  0.93600000  0.70860000  1.0 0.1196543497
H  H8  1  0.56300000  0.43600000  0.29140000  1.0 0.1196543497
H  H9  1  0.14590000  0.00590000  0.21900000  1.0 0.1196543497
H  H10  1  0.35410000  0.50590000  0.78100000  1.0 0.1196543497
H  H11  1  0.85410000  0.99410000  0.78100000  1.0 0.1196543497
H  H12  1  0.64590000  0.49410000  0.21900000  1.0 0.1196543497
H  H13  1  0.15140000  0.93320000  0.10080000  1.0 0.1196543497
H  H14  1  0.34860000  0.43320000  0.89920000  1.0 0.1196543497
H  H15  1  0.84860000  0.06680000  0.89920000  1.0 0.1196543497
H  H16  1  0.65140000  0.56680000  0.10080000  1.0 0.1196543497
H  H17  1  0.87900000  0.86860000  0.00920000  1.0 0.1364552141
H  H18  1  0.62100000  0.36860000  0.99080000  1.0 0.1364552141
H  H19  1  0.12100000  0.13140000  0.99080000  1.0 0.1364552141
H  H20  1  0.37900000  0.63140000  0.00920000  1.0 0.1364552141
H  H21  1  0.87540000  0.94170000  0.12740000  1.0 0.1196543497
H  H22  1  0.62460000  0.44170000  0.87260000  1.0 0.1196543497
H  H23  1  0.12460000  0.05830000  0.87260000  1.0 0.1196543497
H  H24  1  0.37540000  0.55830000  0.12740000  1.0 0.1196543497
H  H25  1  0.12970000  0.91800000  0.37230000  1.0 0.1196543497
H  H26  1  0.37030000  0.41800000  0.62770000  1.0 0.1196543497
H  H27  1  0.87030000  0.08200000  0.62770000  1.0 0.1196543497
H  H28  1  0.62970000  0.58200000  0.37230000  1.0 0.1196543497
H  H29  1  0.12860000  0.83680000  0.48530000  1.0 0.130587199
H  H30  1  0.37140000  0.33680000  0.51470000  1.0 0.130587199
H  H31  1  0.87140000  0.16320000  0.51470000  1.0 0.130587199
H  H32  1  0.62860000  0.66320000  0.48530000  1.0 0.130587199
H  H33  1  0.87210000  0.92700000  0.42850000  1.0 0.130587199
H  H34  1  0.62790000  0.42700000  0.57150000  1.0 0.130587199
H  H35  1  0.12790000  0.07300000  0.57150000  1.0 0.130587199
H  H36  1  0.37210000  0.57300000  0.42850000  1.0 0.130587199
H  H37  1  0.87320000  0.00550000  0.31290000  1.0 0.130587199
H  H38  1  0.62680000  0.50550000  0.68710000  1.0 0.130587199
H  H39  1  0.12680000  0.99450000  0.68710000  1.0 0.130587199
H  H40  1  0.37320000  0.49450000  0.31290000  1.0 0.130587199
H  H41  1  0.87750000  0.83190000  0.87840000  1.0 0.130587199
H  H42  1  0.62250000  0.33190000  0.12160000  1.0 0.130587199
H  H43  1  0.12250000  0.16810000  0.12160000  1.0 0.130587199
H  H44  1  0.37750000  0.66810000  0.87840000  1.0 0.130587199
H  H45  1  0.15830000  0.83040000  0.00770000  1.0 0.1196543497
H  H46  1  0.34170000  0.33040000  0.99230000  1.0 0.1096320385
H  H47  1  0.84170000  0.16960000  0.99230000  1.0 0.1096320385
H  H48  1  0.65830000  0.66960000  0.00770000  1.0 0.1196543497
H  H49  1  0.86600000  0.80280000  0.51420000  1.0 0.1364552141
H  H50  1  0.63400000  0.30280000  0.48580000  1.0 0.1364552141
H  H51  1  0.13400000  0.19720000  0.48580000  1.0 0.1364552141
H  H52  1  0.36600000  0.69720000  0.51420000  1.0 0.1364552141
H  H53  1  0.14430000  0.82420000  0.63300000  1.0 0.130587199
H  H54  1  0.35570000  0.32420000  0.36700000  1.0 0.130587199
H  H55  1  0.85570000  0.17580000  0.36700000  1.0 0.130587199
H  H56  1  0.64430000  0.67580000  0.63300000  1.0 0.130587199
H  H57  1  0.20400000  0.48740000  0.99040000  1.0 0.1196543497
H  H58  1  0.29600000  0.98740000  0.00960000  1.0 0.1196543497
H  H59  1  0.79600000  0.51260000  0.00960000  1.0 0.1196543497
H  H60  1  0.70400000  0.01260000  0.99040000  1.0 0.1196543497
H  H61  1  0.01920000  0.31880000  0.98960000  1.0 0.1096320385
H  H62  1  0.48080000  0.81880000  0.01040000  1.0 0.1096320385
H  H63  1  0.98080000  0.68120000  0.01040000  1.0 0.1096320385
H  H64  1  0.51920000  0.18120000  0.98960000  1.0 0.1096320385
H  H65  1  0.92500000  0.51080000  0.81690000  1.0 0.130587199
H  H66  1  0.57500000  0.01080000  0.18310000  1.0 0.130587199
H  H67  1  0.07500000  0.48920000  0.18310000  1.0 0.130587199
H  H68  1  0.42500000  0.98920000  0.81690000  1.0 0.130587199
H  H69  1  0.23140000  0.58920000  0.52540000  1.0 0.1196543497
H  H70  1  0.26860000  0.08920000  0.47460000  1.0 0.1196543497
H  H71  1  0.76860000  0.41080000  0.47460000  1.0 0.1196543497
H  H72  1  0.73140000  0.91080000  0.52540000  1.0 0.1196543497
H  H73  1  0.08460000  0.38390000  0.51140000  1.0 0.130587199
H  H74  1  0.41540000  0.88390000  0.48860000  1.0 0.130587199
H  H75  1  0.91540000  0.61610000  0.48860000  1.0 0.130587199
H  H76  1  0.58460000  0.11610000  0.51140000  1.0 0.130587199
H  H77  1  0.13030000  0.55150000  0.70500000  1.0 0.1196543497
H  H78  1  0.36970000  0.05150000  0.29500000  1.0 0.1196543497
H  H79  1  0.86970000  0.44850000  0.29500000  1.0 0.1196543497
H  H80  1  0.63030000  0.94850000  0.70500000  1.0 0.1196543497
C  C1  1  0.00690000  0.02880000  0.26200000  1.0 -0.3219296127
C  C2  1  0.49310000  0.52880000  0.73800000  1.0 -0.3219296127
C  C3  1  0.99310000  0.97120000  0.73800000  1.0 -0.3219296127
C  C4  1  0.50690000  0.47120000  0.26200000  1.0 -0.3219296127
C  C5  1  0.01090000  0.98190000  0.18520000  1.0 0.1364552141
C  C6  1  0.48910000  0.48190000  0.81480000  1.0 0.130587199
C  C7  1  0.98910000  0.01810000  0.81480000  1.0 0.130587199
C  C8  1  0.51090000  0.51810000  0.18520000  1.0 0.1364552141
C  C9  1  0.09140000  0.97820000  0.17640000  1.0 -0.1535676285
C  C10  1  0.40860000  0.47820000  0.82360000  1.0 -0.1535676285
C  C11  1  0.90860000  0.02180000  0.82360000  1.0 -0.1535676285
C  C12  1  0.59140000  0.52180000  0.17640000  1.0 -0.1535676285
C  C13  1  0.09540000  0.93460000  0.10610000  1.0 -0.1822315133
C  C14  1  0.40460000  0.43460000  0.89390000  1.0 -0.1822315133
C  C15  1  0.90460000  0.06540000  0.89390000  1.0 -0.1822315133
C  C16  1  0.59540000  0.56540000  0.10610000  1.0 -0.1822315133
C  C17  1  0.01580000  0.89380000  0.04490000  1.0 0.130587199
C  C18  1  0.48420000  0.39380000  0.95510000  1.0 0.130587199
C  C19  1  0.98420000  0.10620000  0.95510000  1.0 0.130587199
C  C20  1  0.51580000  0.60620000  0.04490000  1.0 0.130587199
C  C21  1  0.93340000  0.89640000  0.05190000  1.0 -0.159299755
C  C22  1  0.56660000  0.39640000  0.94810000  1.0 -0.159299755
C  C23  1  0.06660000  0.10360000  0.94810000  1.0 -0.159299755
C  C24  1  0.43340000  0.60360000  0.05190000  1.0 -0.159299755
C  C25  1  0.93160000  0.94010000  0.12220000  1.0 -0.1403529202
C  C26  1  0.56840000  0.44010000  0.87780000  1.0 -0.1403529202
C  C27  1  0.06840000  0.05990000  0.87780000  1.0 -0.1403529202
C  C28  1  0.43160000  0.55990000  0.12220000  1.0 -0.1403529202
C  C29  1  0.00290000  0.97320000  0.33320000  1.0 0.130587199
C  C30  1  0.49710000  0.47320000  0.66680000  1.0 0.130587199
C  C31  1  0.99710000  0.02680000  0.66680000  1.0 0.130587199
C  C32  1  0.50290000  0.52680000  0.33320000  1.0 0.130587199
C  C33  1  0.07770000  0.92040000  0.38420000  1.0 -0.1271267082
C  C34  1  0.42230000  0.42040000  0.61580000  1.0 -0.1271267082
C  C35  1  0.92230000  0.07960000  0.61580000  1.0 -0.1271267082
C  C36  1  0.57770000  0.57960000  0.38420000  1.0 -0.1271267082
C  C37  1  0.07730000  0.87190000  0.45130000  1.0 -0.159299755
C  C38  1  0.42270000  0.37190000  0.54870000  1.0 -0.159299755
C  C39  1  0.92270000  0.12810000  0.54870000  1.0 -0.159299755
C  C40  1  0.57730000  0.62810000  0.45130000  1.0 -0.159299755
C  C41  1  0.00020000  0.87510000  0.46850000  1.0 0.130587199
C  C42  1  0.49980000  0.37510000  0.53150000  1.0 0.130587199
C  C43  1  0.99980000  0.12490000  0.53150000  1.0 0.130587199
C  C44  1  0.50020000  0.62490000  0.46850000  1.0 0.130587199
C  C45  1  0.92460000  0.92510000  0.41730000  1.0 -0.168251419
C  C46  1  0.57540000  0.42510000  0.58270000  1.0 -0.168251419
C  C47  1  0.07540000  0.07490000  0.58270000  1.0 -0.168251419
C  C48  1  0.42460000  0.57490000  0.41730000  1.0 -0.168251419
C  C49  1  0.92600000  0.97270000  0.34920000  1.0 -0.1403529202
C  C50  1  0.57400000  0.47270000  0.65080000  1.0 -0.1403529202
C  C51  1  0.07400000  0.02730000  0.65080000  1.0 -0.1403529202
C  C52  1  0.42600000  0.52730000  0.34920000  1.0 -0.1403529202
C  C53  1  0.94120000  0.82250000  0.89340000  1.0 0.1000657827
C  C54  1  0.55880000  0.32250000  0.10660000  1.0 0.1000657827
C  C55  1  0.05880000  0.17750000  0.10660000  1.0 0.1000657827
C  C56  1  0.44120000  0.67750000  0.89340000  1.0 0.1000657827
C  C57  1  0.09490000  0.82170000  0.96350000  1.0 0.0701813535
C  C58  1  0.40510000  0.32170000  0.03650000  1.0 0.0701813535
C  C59  1  0.90510000  0.17830000  0.03650000  1.0 0.0701813535
C  C60  1  0.59490000  0.67830000  0.96350000  1.0 0.0701813535
C  C61  1  0.93060000  0.80040000  0.55750000  1.0 0.1096320385
C  C62  1  0.56940000  0.30040000  0.44250000  1.0 0.1096320385
C  C63  1  0.06940000  0.19960000  0.44250000  1.0 0.1096320385
C  C64  1  0.43060000  0.69960000  0.55750000  1.0 0.1096320385
C  C65  1  0.08230000  0.81200000  0.62210000  1.0 0.1196543497
C  C66  1  0.41770000  0.31200000  0.37790000  1.0 0.1196543497
C  C67  1  0.91770000  0.18800000  0.37790000  1.0 0.1196543497
C  C68  1  0.58230000  0.68800000  0.62210000  1.0 0.1196543497
C  C69  1  0.06770000  0.50920000  0.89650000  1.0 -0.0208097115
C  C70  1  0.43230000  0.00920000  0.10350000  1.0 -0.0208097115
C  C71  1  0.93230000  0.49080000  0.10350000  1.0 -0.0208097115
C  C72  1  0.56770000  0.99080000  0.89650000  1.0 -0.0208097115
C  C73  1  0.14160000  0.46750000  0.96620000  1.0 -0.1535676285
C  C74  1  0.35840000  0.96750000  0.03380000  1.0 -0.159299755
C  C75  1  0.85840000  0.53250000  0.03380000  1.0 -0.159299755
C  C76  1  0.64160000  0.03250000  0.96620000  1.0 -0.1535676285
C  C77  1  0.12290000  0.39530000  0.00040000  1.0 0.0142723271
C  C78  1  0.37710000  0.89530000  0.99960000  1.0 0.0142723271
C  C79  1  0.87710000  0.60470000  0.99960000  1.0 0.0142723271
C  C80  1  0.62290000  0.10470000  0.00040000  1.0 0.0142723271
C  C81  1  0.03190000  0.36770000  0.96750000  1.0 -0.1822315133
C  C82  1  0.46810000  0.86770000  0.03250000  1.0 -0.1822315133
C  C83  1  0.96810000  0.63230000  0.03250000  1.0 -0.1822315133
C  C84  1  0.53190000  0.13230000  0.96750000  1.0 -0.1822315133
C  C85  1  0.95870000  0.41280000  0.90110000  1.0 -0.0092770417
C  C86  1  0.54130000  0.91280000  0.09890000  1.0 -0.0092770417
C  C87  1  0.04130000  0.58720000  0.09890000  1.0 -0.0092770417
C  C88  1  0.45870000  0.08720000  0.90110000  1.0 -0.0092770417
C  C89  1  0.97550000  0.48230000  0.86380000  1.0 -0.1403529202
C  C90  1  0.52450000  0.98230000  0.13620000  1.0 -0.1403529202
C  C91  1  0.02450000  0.51770000  0.13620000  1.0 -0.1403529202
C  C92  1  0.47550000  0.01770000  0.86380000  1.0 -0.1403529202
C  C93  1  0.08880000  0.58480000  0.85590000  1.0 0.5472256453
C  C94  1  0.41120000  0.08480000  0.14410000  1.0 0.5434198376
C  C95  1  0.91120000  0.41520000  0.14410000  1.0 0.5434198376
C  C96  1  0.58880000  0.91520000  0.85590000  1.0 0.5434198376
C  C97  1  0.20370000  0.34630000  0.07210000  1.0 0.5434198376
C  C98  1  0.29630000  0.84630000  0.92790000  1.0 0.5434198376
C  C99  1  0.79630000  0.65370000  0.92790000  1.0 0.5434198376
C  C100  1  0.70370000  0.15370000  0.07210000  1.0 0.5434198376
C  C101  1  0.18940000  0.58210000  0.62360000  1.0 -0.0092770417
C  C102  1  0.31060000  0.08210000  0.37640000  1.0 -0.0092770417
C  C103  1  0.81060000  0.41790000  0.37640000  1.0 -0.0092770417
C  C104  1  0.68940000  0.91790000  0.62360000  1.0 -0.0092770417
C  C105  1  0.19940000  0.55580000  0.54840000  1.0 -0.1271267082
C  C106  1  0.30060000  0.05580000  0.45160000  1.0 -0.1271267082
C  C107  1  0.80060000  0.44420000  0.45160000  1.0 -0.1271267082
C  C108  1  0.69940000  0.94420000  0.54840000  1.0 -0.1271267082
C  C109  1  0.16250000  0.48080000  0.50690000  1.0 -0.0208097115
C  C110  1  0.33750000  0.98080000  0.49310000  1.0 -0.0208097115
C  C111  1  0.83750000  0.51920000  0.49310000  1.0 -0.0208097115
C  C112  1  0.66250000  0.01920000  0.50690000  1.0 -0.0208097115
C  C113  1  0.11140000  0.43410000  0.53920000  1.0 -0.1403529202
C  C114  1  0.38860000  0.93410000  0.46080000  1.0 -0.1403529202
C  C115  1  0.88860000  0.56590000  0.46080000  1.0 -0.1403529202
C  C116  1  0.61140000  0.06590000  0.53920000  1.0 -0.1403529202
C  C117  1  0.10040000  0.46170000  0.61090000  1.0 -0.0037314177
C  C118  1  0.39960000  0.96170000  0.38910000  1.0 -0.0037314177
C  C119  1  0.89960000  0.53830000  0.38910000  1.0 -0.0037314177
C  C120  1  0.60040000  0.03830000  0.61090000  1.0 -0.0037314177
C  C121  1  0.13850000  0.53440000  0.65500000  1.0 -0.1822315133
C  C122  1  0.36150000  0.03440000  0.34500000  1.0 -0.1822315133
C  C123  1  0.86150000  0.46560000  0.34500000  1.0 -0.1822315133
C  C124  1  0.63850000  0.96560000  0.65500000  1.0 -0.1822315133
C  C125  1  0.23710000  0.66080000  0.67180000  1.0 0.5554255755
C  C126  1  0.26290000  0.16080000  0.32820000  1.0 0.5554255755
C  C127  1  0.76290000  0.33920000  0.32820000  1.0 0.5554255755
C  C128  1  0.73710000  0.83920000  0.67180000  1.0 0.5554255755
C  C129  1  0.17740000  0.44920000  0.42880000  1.0 0.5472256453
C  C130  1  0.32260000  0.94920000  0.57120000  1.0 0.5472256453
C  C131  1  0.82260000  0.55080000  0.57120000  1.0 0.5472256453
C  C132  1  0.67740000  0.05080000  0.42880000  1.0 0.5472256453
N  N1  1  0.97020000  0.78200000  0.84240000  1.0 -0.2270716741
N  N2  1  0.52980000  0.28200000  0.15760000  1.0 -0.2270716741
N  N3  1  0.02980000  0.21800000  0.15760000  1.0 -0.2270716741
N  N4  1  0.47020000  0.71800000  0.84240000  1.0 -0.2270716741
N  N5  1  0.06880000  0.78270000  0.88780000  1.0 -0.2009749055
N  N6  1  0.43120000  0.28270000  0.11220000  1.0 -0.2009749055
N  N7  1  0.93120000  0.21730000  0.11220000  1.0 -0.2009749055
N  N8  1  0.56880000  0.71730000  0.88780000  1.0 -0.2009749055
N  N9  1  0.01740000  0.84870000  0.97090000  1.0 -0.0373468711
N  N10  1  0.48260000  0.34870000  0.02910000  1.0 -0.0373468711
N  N11  1  0.98260000  0.15130000  0.02910000  1.0 -0.0373468711
N  N12  1  0.51740000  0.65130000  0.97090000  1.0 -0.0373468711
N  N13  1  0.96430000  0.76860000  0.63900000  1.0 -0.1822315133
N  N14  1  0.53570000  0.26860000  0.36100000  1.0 -0.1822315133
N  N15  1  0.03570000  0.23140000  0.36100000  1.0 -0.1822315133
N  N16  1  0.46430000  0.73140000  0.63900000  1.0 -0.1822315133
N  N17  1  0.06140000  0.77600000  0.68040000  1.0 -0.2009749055
N  N18  1  0.43860000  0.27600000  0.31960000  1.0 -0.2009749055
N  N19  1  0.93860000  0.22400000  0.31960000  1.0 -0.2009749055
N  N20  1  0.56140000  0.72400000  0.68040000  1.0 -0.2009749055
N  N21  1  0.00380000  0.82950000  0.54480000  1.0 -0.0208097115
N  N22  1  0.49620000  0.32950000  0.45520000  1.0 -0.0208097115
N  N23  1  0.99620000  0.17050000  0.45520000  1.0 -0.0208097115
N  N24  1  0.50380000  0.67050000  0.54480000  1.0 -0.0208097115
N  N25  1  0.86080000  0.38620000  0.86940000  1.0 0.4506600112
N  N26  1  0.63920000  0.88620000  0.13060000  1.0 0.4506600112
N  N27  1  0.13920000  0.61380000  0.13060000  1.0 0.4506600112
N  N28  1  0.36080000  0.11380000  0.86940000  1.0 0.4506600112
N  N29  1  0.04430000  0.41110000  0.64240000  1.0 0.4506600112
N  N30  1  0.45570000  0.91110000  0.35760000  1.0 0.4506600112
N  N31  1  0.95570000  0.58890000  0.35760000  1.0 0.4506600112
N  N32  1  0.54430000  0.08890000  0.64240000  1.0 0.4506600112
O  O1  1  0.02160000  0.62160000  0.79060000  1.0 -0.5860932707
O  O2  1  0.47840000  0.12160000  0.20940000  1.0 -0.5860932707
O  O3  1  0.97840000  0.37840000  0.20940000  1.0 -0.5860932707
O  O4  1  0.52160000  0.87840000  0.79060000  1.0 -0.5860932707
O  O5  1  0.17370000  0.60680000  0.88940000  1.0 -0.5284487098
O  O6  1  0.32630000  0.10680000  0.11060000  1.0 -0.5284487098
O  O7  1  0.82630000  0.39320000  0.11060000  1.0 -0.5284487098
O  O8  1  0.67370000  0.89320000  0.88940000  1.0 -0.5284487098
O  O9  1  0.27180000  0.38260000  0.13570000  1.0 -0.5714803476
O  O10  1  0.22820000  0.88260000  0.86430000  1.0 -0.5714803476
O  O11  1  0.72820000  0.61740000  0.86430000  1.0 -0.5714803476
O  O12  1  0.77180000  0.11740000  0.13570000  1.0 -0.5714803476
O  O13  1  0.19850000  0.26940000  0.06420000  1.0 -0.5530975475
O  O14  1  0.30150000  0.76940000  0.93580000  1.0 -0.5530975475
O  O15  1  0.80150000  0.73060000  0.93580000  1.0 -0.5530975475
O  O16  1  0.69850000  0.23060000  0.06420000  1.0 -0.5530975475
O  O17  1  0.84980000  0.33580000  0.91830000  1.0 0.1096320385
O  O18  1  0.65020000  0.83580000  0.08170000  1.0 0.1096320385
O  O19  1  0.15020000  0.66420000  0.08170000  1.0 0.1000657827
O  O20  1  0.34980000  0.16420000  0.91830000  1.0 0.1096320385
O  O21  1  0.79660000  0.42760000  0.81440000  1.0 -0.3065921256
O  O22  1  0.70340000  0.92760000  0.18560000  1.0 -0.3065921256
O  O23  1  0.20340000  0.57240000  0.18560000  1.0 -0.3065921256
O  O24  1  0.29660000  0.07240000  0.81440000  1.0 -0.3047095626
O  O25  1  0.24140000  0.67700000  0.74690000  1.0 -0.5714803476
O  O26  1  0.25860000  0.17700000  0.25310000  1.0 -0.5714803476
O  O27  1  0.75860000  0.32300000  0.25310000  1.0 -0.5714803476
O  O28  1  0.74140000  0.82300000  0.74690000  1.0 -0.5714803476
O  O29  1  0.27240000  0.70370000  0.63260000  1.0 -0.5530975475
O  O30  1  0.22760000  0.20370000  0.36740000  1.0 -0.5530975475
O  O31  1  0.72760000  0.29630000  0.36740000  1.0 -0.5530975475
O  O32  1  0.77240000  0.79630000  0.63260000  1.0 -0.5530975475
O  O33  1  0.20580000  0.49660000  0.38760000  1.0 -0.5767239421
O  O34  1  0.29420000  0.99660000  0.61240000  1.0 -0.5767239421
O  O35  1  0.79420000  0.50340000  0.61240000  1.0 -0.5767239421
O  O36  1  0.70580000  0.00340000  0.38760000  1.0 -0.5767239421
O  O37  1  0.16070000  0.37370000  0.41310000  1.0 -0.5714803476
O  O38  1  0.33930000  0.87370000  0.58690000  1.0 -0.5714803476
O  O39  1  0.83930000  0.62630000  0.58690000  1.0 -0.5714803476
O  O40  1  0.66070000  0.12630000  0.41310000  1.0 -0.5714803476
O  O41  1  0.00750000  0.34930000  0.59910000  1.0 -0.3424190073
O  O42  1  0.49250000  0.84930000  0.40090000  1.0 -0.3424190073
O  O43  1  0.99250000  0.65070000  0.40090000  1.0 -0.3424190073
O  O44  1  0.50750000  0.15070000  0.59910000  1.0 -0.3424190073
O  O45  1  0.04800000  0.42690000  0.71300000  1.0 0.1485920422
O  O46  1  0.45200000  0.92690000  0.28700000  1.0 0.1485920422
O  O47  1  0.95200000  0.57310000  0.28700000  1.0 0.1485920422
O  O48  1  0.54800000  0.07310000  0.71300000  1.0 0.1485920422
O  O49  1  0.84700000  0.31010000  0.88100000  1.0 0.0459817634
O  O50  1  0.65300000  0.81010000  0.11900000  1.0 0.0440204203
O  O51  1  0.15300000  0.68990000  0.11900000  1.0 0.0440204203
O  O52  1  0.34700000  0.18990000  0.88100000  1.0 0.0459817634
O  O53  1  0.02500000  0.44600000  0.70200000  1.0 -0.0488345749
O  O54  1  0.47500000  0.94600000  0.29800000  1.0 -0.0488345749
O  O55  1  0.97500000  0.55400000  0.29800000  1.0 -0.0488345749
O  O56  1  0.52500000  0.05400000  0.70200000  1.0 -0.0373468711
