# DDEC6 charges by PACMAN v1.1 (https://github.com/mtap-research/PACMAN-charge/)
data_PAFYAA_ASR_pacman
_symmetry_space_group_name_H-M   'P 1'
_cell_length_a   20.78390000
_cell_length_b   20.78390000
_cell_length_c   18.57820000
_cell_angle_alpha   90.00000000
_cell_angle_beta   90.00000000
_cell_angle_gamma   107.29100000
_symmetry_Int_Tables_number   1
_chemical_formula_structural   Cu6H29C69(NO8)4
_chemical_formula_sum   'Cu12 H58 C138 N8 O64'
_cell_volume   7662.55392009
_cell_formula_units_Z   2
loop_
 _symmetry_equiv_pos_site_id
 _symmetry_equiv_pos_as_xyz
  1  'x, y, z'
loop_
 _atom_site_type_symbol
 _atom_site_label
 _atom_site_symmetry_multiplicity
 _atom_site_fract_x
 _atom_site_fract_y
 _atom_site_fract_z
 _atom_site_occupancy
 _atom_site_charge
Cu  Cu1  1  0.97650000  0.44196000  0.53551000  1.0 0.8670590461
Cu  Cu2  1  0.02350000  0.55804000  0.03551000  1.0 0.8670590461
Cu  Cu3  1  0.55804000  0.02350000  0.96449000  1.0 0.8670590461
Cu  Cu4  1  0.44196000  0.97650000  0.46449000  1.0 0.8670590461
Cu  Cu5  1  0.02350000  0.55804000  0.46449000  1.0 0.8670590461
Cu  Cu6  1  0.97650000  0.44196000  0.96449000  1.0 0.8670590461
Cu  Cu7  1  0.44196000  0.97650000  0.03551000  1.0 0.8670590461
Cu  Cu8  1  0.55804000  0.02350000  0.53551000  1.0 0.8670590461
Cu  Cu9  1  0.63940000  0.36060000  0.75000000  1.0 0.8670590461
Cu  Cu10  1  0.56012000  0.43988000  0.75000000  1.0 0.8430242778
Cu  Cu11  1  0.36060000  0.63940000  0.25000000  1.0 0.8670590461
Cu  Cu12  1  0.43988000  0.56012000  0.25000000  1.0 0.8430242778
H  H1  1  0.09245000  0.68979000  0.64197000  1.0 0.1398377166
H  H2  1  0.03919000  0.79699000  0.78345000  1.0 0.1196927082
H  H3  1  0.78692000  0.46052000  0.59962000  1.0 0.1398377166
H  H4  1  0.67926000  0.59146000  0.59869000  1.0 0.1296766591
H  H5  1  0.85418000  0.63336000  0.49118000  1.0 0.1296766591
H  H6  1  0.85834000  0.74668000  0.53604000  1.0 0.1296766591
H  H7  1  0.90755000  0.31021000  0.14197000  1.0 0.1398377166
H  H8  1  0.96081000  0.20301000  0.28345000  1.0 0.1196927082
H  H9  1  0.21308000  0.53948000  0.09962000  1.0 0.1398377166
H  H10  1  0.32074000  0.40854000  0.09869000  1.0 0.1296766591
H  H11  1  0.14582000  0.36664000  0.99118000  1.0 0.1296766591
H  H12  1  0.14166000  0.25332000  0.03604000  1.0 0.1296766591
H  H13  1  0.31021000  0.90755000  0.85803000  1.0 0.1398377166
H  H14  1  0.20301000  0.96081000  0.71655000  1.0 0.1196927082
H  H15  1  0.53948000  0.21308000  0.90038000  1.0 0.1398377166
H  H16  1  0.40854000  0.32074000  0.90131000  1.0 0.1296766591
H  H17  1  0.36664000  0.14582000  0.00882000  1.0 0.1296766591
H  H18  1  0.25332000  0.14166000  0.96396000  1.0 0.1296766591
H  H19  1  0.68979000  0.09245000  0.35803000  1.0 0.1398377166
H  H20  1  0.79699000  0.03919000  0.21655000  1.0 0.1196927082
H  H21  1  0.46052000  0.78692000  0.40038000  1.0 0.1398377166
H  H22  1  0.59146000  0.67926000  0.40131000  1.0 0.1296766591
H  H23  1  0.63336000  0.85418000  0.50882000  1.0 0.1296766591
H  H24  1  0.74668000  0.85834000  0.46396000  1.0 0.1296766591
H  H25  1  0.90755000  0.31021000  0.35803000  1.0 0.1398377166
H  H26  1  0.96081000  0.20301000  0.21655000  1.0 0.1196927082
H  H27  1  0.21308000  0.53948000  0.40038000  1.0 0.1398377166
H  H28  1  0.32074000  0.40854000  0.40131000  1.0 0.1296766591
H  H29  1  0.14582000  0.36664000  0.50882000  1.0 0.1296766591
H  H30  1  0.14166000  0.25332000  0.46396000  1.0 0.1296766591
H  H31  1  0.09245000  0.68979000  0.85803000  1.0 0.1398377166
H  H32  1  0.03919000  0.79699000  0.71655000  1.0 0.1196927082
H  H33  1  0.78692000  0.46052000  0.90038000  1.0 0.1398377166
H  H34  1  0.67926000  0.59146000  0.90131000  1.0 0.1296766591
H  H35  1  0.85418000  0.63336000  0.00882000  1.0 0.1296766591
H  H36  1  0.85834000  0.74668000  0.96396000  1.0 0.1296766591
H  H37  1  0.68979000  0.09245000  0.14197000  1.0 0.1398377166
H  H38  1  0.79699000  0.03919000  0.28345000  1.0 0.1196927082
H  H39  1  0.46052000  0.78692000  0.09962000  1.0 0.1398377166
H  H40  1  0.59146000  0.67926000  0.09869000  1.0 0.1296766591
H  H41  1  0.63336000  0.85418000  0.99118000  1.0 0.1296766591
H  H42  1  0.74668000  0.85834000  0.03604000  1.0 0.1296766591
H  H43  1  0.31021000  0.90755000  0.64197000  1.0 0.1398377166
H  H44  1  0.20301000  0.96081000  0.78345000  1.0 0.1196927082
H  H45  1  0.53948000  0.21308000  0.59962000  1.0 0.1398377166
H  H46  1  0.40854000  0.32074000  0.59869000  1.0 0.1296766591
H  H47  1  0.36664000  0.14582000  0.49118000  1.0 0.1296766591
H  H48  1  0.25332000  0.14166000  0.53604000  1.0 0.1296766591
H  H49  1  0.66037000  0.66037000  0.50000000  1.0 0.1196927082
H  H50  1  0.33963000  0.33963000  0.00000000  1.0 0.1196927082
H  H51  1  0.33963000  0.33963000  0.50000000  1.0 0.1196927082
H  H52  1  0.66037000  0.66037000  0.00000000  1.0 0.1196927082
H  H53  1  0.02629000  0.51465000  0.75000000  1.0 0.1398377166
H  H54  1  0.97371000  0.48535000  0.25000000  1.0 0.1398377166
H  H55  1  0.48535000  0.97371000  0.75000000  1.0 0.1398377166
H  H56  1  0.51465000  0.02629000  0.25000000  1.0 0.1398377166
H  H57  1  0.21955000  0.78045000  0.75000000  1.0 0.1196927082
H  H58  1  0.78045000  0.21955000  0.25000000  1.0 0.1196927082
C  C1  1  0.03983000  0.55897000  0.61670000  1.0 0.5804039778
C  C2  1  0.05791000  0.59649000  0.68560000  1.0 -0.0205025543
C  C3  1  0.08376000  0.66644000  0.68530000  1.0 -0.1322361857
C  C4  1  0.08740000  0.81520000  0.78330000  1.0 -0.0969188532
C  C5  1  0.89007000  0.52393000  0.52320000  1.0 0.5804039778
C  C6  1  0.82988000  0.54392000  0.54170000  1.0 -0.0404067298
C  C7  1  0.78134000  0.50126000  0.58470000  1.0 -0.0918661992
C  C8  1  0.72333000  0.51827000  0.60620000  1.0 -0.0276764252
C  C9  1  0.67420000  0.47380000  0.65670000  1.0 0.5804039778
C  C10  1  0.71673000  0.57907000  0.58420000  1.0 -0.1322361857
C  C11  1  0.76518000  0.62282000  0.54040000  1.0 0.0690625605
C  C12  1  0.82155000  0.60445000  0.51990000  1.0 -0.1169493667
C  C13  1  0.76097000  0.69183000  0.52060000  1.0 0.091696467
C  C14  1  0.81640000  0.74920000  0.52120000  1.0 -0.1866732969
C  C15  1  0.96017000  0.44103000  0.11670000  1.0 0.5804039778
C  C16  1  0.94209000  0.40351000  0.18560000  1.0 -0.0205025543
C  C17  1  0.91624000  0.33356000  0.18530000  1.0 -0.1322361857
C  C18  1  0.91260000  0.18480000  0.28330000  1.0 -0.0969188532
C  C19  1  0.10993000  0.47607000  0.02320000  1.0 0.5804039778
C  C20  1  0.17012000  0.45608000  0.04170000  1.0 -0.0404067298
C  C21  1  0.21866000  0.49874000  0.08470000  1.0 -0.0918661992
C  C22  1  0.27667000  0.48173000  0.10620000  1.0 -0.0276764252
C  C23  1  0.32580000  0.52620000  0.15670000  1.0 0.5804039778
C  C24  1  0.28327000  0.42093000  0.08420000  1.0 -0.1322361857
C  C25  1  0.23482000  0.37718000  0.04040000  1.0 0.0690625605
C  C26  1  0.17845000  0.39555000  0.01990000  1.0 -0.1169493667
C  C27  1  0.23903000  0.30817000  0.02060000  1.0 0.091696467
C  C28  1  0.18360000  0.25080000  0.02120000  1.0 -0.1866732969
C  C29  1  0.44103000  0.96017000  0.88330000  1.0 0.5804039778
C  C30  1  0.40351000  0.94209000  0.81440000  1.0 -0.0205025543
C  C31  1  0.33356000  0.91624000  0.81470000  1.0 -0.1322361857
C  C32  1  0.18480000  0.91260000  0.71670000  1.0 -0.0969188532
C  C33  1  0.47607000  0.10993000  0.97680000  1.0 0.5804039778
C  C34  1  0.45608000  0.17012000  0.95830000  1.0 -0.0404067298
C  C35  1  0.49874000  0.21866000  0.91530000  1.0 -0.0918661992
C  C36  1  0.48173000  0.27667000  0.89380000  1.0 -0.0276764252
C  C37  1  0.52620000  0.32580000  0.84330000  1.0 0.5804039778
C  C38  1  0.42093000  0.28327000  0.91580000  1.0 -0.1322361857
C  C39  1  0.37718000  0.23482000  0.95960000  1.0 0.0690625605
C  C40  1  0.39555000  0.17845000  0.98010000  1.0 -0.1169493667
C  C41  1  0.30817000  0.23903000  0.97940000  1.0 0.091696467
C  C42  1  0.25080000  0.18360000  0.97880000  1.0 -0.1866732969
C  C43  1  0.55897000  0.03983000  0.38330000  1.0 0.5804039778
C  C44  1  0.59649000  0.05791000  0.31440000  1.0 -0.0205025543
C  C45  1  0.66644000  0.08376000  0.31470000  1.0 -0.1322361857
C  C46  1  0.81520000  0.08740000  0.21670000  1.0 -0.0969188532
C  C47  1  0.52393000  0.89007000  0.47680000  1.0 0.5804039778
C  C48  1  0.54392000  0.82988000  0.45830000  1.0 -0.0404067298
C  C49  1  0.50126000  0.78134000  0.41530000  1.0 -0.0918661992
C  C50  1  0.51827000  0.72333000  0.39380000  1.0 -0.0276764252
C  C51  1  0.47380000  0.67420000  0.34330000  1.0 0.5804039778
C  C52  1  0.57907000  0.71673000  0.41580000  1.0 -0.1322361857
C  C53  1  0.62282000  0.76518000  0.45960000  1.0 0.0690625605
C  C54  1  0.60445000  0.82155000  0.48010000  1.0 -0.1169493667
C  C55  1  0.69183000  0.76097000  0.47940000  1.0 0.091696467
C  C56  1  0.74920000  0.81640000  0.47880000  1.0 -0.1866732969
C  C57  1  0.96017000  0.44103000  0.38330000  1.0 0.5804039778
C  C58  1  0.94209000  0.40351000  0.31440000  1.0 -0.0205025543
C  C59  1  0.91624000  0.33356000  0.31470000  1.0 -0.1322361857
C  C60  1  0.91260000  0.18480000  0.21670000  1.0 -0.0969188532
C  C61  1  0.10993000  0.47607000  0.47680000  1.0 0.5804039778
C  C62  1  0.17012000  0.45608000  0.45830000  1.0 -0.0404067298
C  C63  1  0.21866000  0.49874000  0.41530000  1.0 -0.0918661992
C  C64  1  0.27667000  0.48173000  0.39380000  1.0 -0.0276764252
C  C65  1  0.32580000  0.52620000  0.34330000  1.0 0.5804039778
C  C66  1  0.28327000  0.42093000  0.41580000  1.0 -0.1322361857
C  C67  1  0.23482000  0.37718000  0.45960000  1.0 0.0690625605
C  C68  1  0.17845000  0.39555000  0.48010000  1.0 -0.1169493667
C  C69  1  0.23903000  0.30817000  0.47940000  1.0 0.091696467
C  C70  1  0.18360000  0.25080000  0.47880000  1.0 -0.1866732969
C  C71  1  0.03983000  0.55897000  0.88330000  1.0 0.5804039778
C  C72  1  0.05791000  0.59649000  0.81440000  1.0 -0.0205025543
C  C73  1  0.08376000  0.66644000  0.81470000  1.0 -0.1322361857
C  C74  1  0.08740000  0.81520000  0.71670000  1.0 -0.0969188532
C  C75  1  0.89007000  0.52393000  0.97680000  1.0 0.5804039778
C  C76  1  0.82988000  0.54392000  0.95830000  1.0 -0.0404067298
C  C77  1  0.78134000  0.50126000  0.91530000  1.0 -0.0918661992
C  C78  1  0.72333000  0.51827000  0.89380000  1.0 -0.0276764252
C  C79  1  0.67420000  0.47380000  0.84330000  1.0 0.5804039778
C  C80  1  0.71673000  0.57907000  0.91580000  1.0 -0.1322361857
C  C81  1  0.76518000  0.62282000  0.95960000  1.0 0.0690625605
C  C82  1  0.82155000  0.60445000  0.98010000  1.0 -0.1169493667
C  C83  1  0.76097000  0.69183000  0.97940000  1.0 0.091696467
C  C84  1  0.81640000  0.74920000  0.97880000  1.0 -0.1866732969
C  C85  1  0.55897000  0.03983000  0.11670000  1.0 0.5804039778
C  C86  1  0.59649000  0.05791000  0.18560000  1.0 -0.0205025543
C  C87  1  0.66644000  0.08376000  0.18530000  1.0 -0.1322361857
C  C88  1  0.81520000  0.08740000  0.28330000  1.0 -0.0969188532
C  C89  1  0.52393000  0.89007000  0.02320000  1.0 0.5804039778
C  C90  1  0.54392000  0.82988000  0.04170000  1.0 -0.0404067298
C  C91  1  0.50126000  0.78134000  0.08470000  1.0 -0.0918661992
C  C92  1  0.51827000  0.72333000  0.10620000  1.0 -0.0276764252
C  C93  1  0.47380000  0.67420000  0.15670000  1.0 0.5804039778
C  C94  1  0.57907000  0.71673000  0.08420000  1.0 -0.1322361857
C  C95  1  0.62282000  0.76518000  0.04040000  1.0 0.0690625605
C  C96  1  0.60445000  0.82155000  0.01990000  1.0 -0.1169493667
C  C97  1  0.69183000  0.76097000  0.02060000  1.0 0.091696467
C  C98  1  0.74920000  0.81640000  0.02120000  1.0 -0.1866732969
C  C99  1  0.44103000  0.96017000  0.61670000  1.0 0.5804039778
C  C100  1  0.40351000  0.94209000  0.68560000  1.0 -0.0205025543
C  C101  1  0.33356000  0.91624000  0.68530000  1.0 -0.1322361857
C  C102  1  0.18480000  0.91260000  0.78330000  1.0 -0.0969188532
C  C103  1  0.47607000  0.10993000  0.52320000  1.0 0.5804039778
C  C104  1  0.45608000  0.17012000  0.54170000  1.0 -0.0404067298
C  C105  1  0.49874000  0.21866000  0.58470000  1.0 -0.0918661992
C  C106  1  0.48173000  0.27667000  0.60620000  1.0 -0.0276764252
C  C107  1  0.52620000  0.32580000  0.65670000  1.0 0.5804039778
C  C108  1  0.42093000  0.28327000  0.58420000  1.0 -0.1322361857
C  C109  1  0.37718000  0.23482000  0.54040000  1.0 0.0690625605
C  C110  1  0.39555000  0.17845000  0.51990000  1.0 -0.1169493667
C  C111  1  0.30817000  0.23903000  0.52060000  1.0 0.091696467
C  C112  1  0.25080000  0.18360000  0.52120000  1.0 -0.1866732969
C  C113  1  0.69810000  0.69810000  0.50000000  1.0 -0.1970309748
C  C114  1  0.80840000  0.80840000  0.50000000  1.0 0.0792360844
C  C115  1  0.30190000  0.30190000  0.00000000  1.0 -0.1970309748
C  C116  1  0.19160000  0.19160000  0.00000000  1.0 0.0792360844
C  C117  1  0.30190000  0.30190000  0.50000000  1.0 -0.1970309748
C  C118  1  0.19160000  0.19160000  0.50000000  1.0 0.0792360844
C  C119  1  0.69810000  0.69810000  0.00000000  1.0 -0.1970309748
C  C120  1  0.80840000  0.80840000  0.00000000  1.0 0.0792360844
C  C121  1  0.04430000  0.56130000  0.75000000  1.0 -0.1169493667
C  C122  1  0.09660000  0.70120000  0.75000000  1.0 0.0690625605
C  C123  1  0.12340000  0.77580000  0.75000000  1.0 0.0690625605
C  C124  1  0.95570000  0.43870000  0.25000000  1.0 -0.1169493667
C  C125  1  0.90340000  0.29880000  0.25000000  1.0 0.0690625605
C  C126  1  0.87660000  0.22420000  0.25000000  1.0 0.0690625605
C  C127  1  0.43870000  0.95570000  0.75000000  1.0 -0.1169493667
C  C128  1  0.29880000  0.90340000  0.75000000  1.0 0.0690625605
C  C129  1  0.22420000  0.87660000  0.75000000  1.0 0.0690625605
C  C130  1  0.56130000  0.04430000  0.25000000  1.0 -0.1169493667
C  C131  1  0.70120000  0.09660000  0.25000000  1.0 0.0690625605
C  C132  1  0.77580000  0.12340000  0.25000000  1.0 0.0690625605
C  C133  1  0.11700000  0.88300000  0.79910000  1.0 0.0257700325
C  C134  1  0.88300000  0.11700000  0.29910000  1.0 0.0257700325
C  C135  1  0.11700000  0.88300000  0.70090000  1.0 0.0257700325
C  C136  1  0.88300000  0.11700000  0.20090000  1.0 0.0257700325
C  C137  1  0.19180000  0.80820000  0.75000000  1.0 -0.2258712708
C  C138  1  0.80820000  0.19180000  0.25000000  1.0 -0.2258712708
N  N1  1  0.86920000  0.86920000  0.50000000  1.0 0.4848175586
N  N2  1  0.13080000  0.13080000  0.00000000  1.0 0.4848175586
N  N3  1  0.13080000  0.13080000  0.50000000  1.0 0.4848175586
N  N4  1  0.86920000  0.86920000  0.00000000  1.0 0.4848175586
N  N5  1  0.07530000  0.92470000  0.82870000  1.0 0.5334735156
N  N6  1  0.92470000  0.07530000  0.32870000  1.0 0.5334735156
N  N7  1  0.07530000  0.92470000  0.67130000  1.0 0.5334735156
N  N8  1  0.92470000  0.07530000  0.17130000  1.0 0.5334735156
O  O1  1  0.01268000  0.49564000  0.61961000  1.0 -0.509766717
O  O2  1  0.05272000  0.59414000  0.55970000  1.0 -0.5253490045
O  O3  1  0.89489000  0.46907000  0.54537000  1.0 -0.5002284705
O  O4  1  0.93314000  0.56512000  0.48550000  1.0 -0.5194155973
O  O5  1  0.68883000  0.42189000  0.67720000  1.0 -0.5194155973
O  O6  1  0.62374000  0.49046000  0.67535000  1.0 -0.509766717
O  O7  1  0.86310000  0.92270000  0.48170000  1.0 -0.3070595397
O  O8  1  0.10060000  0.98580000  0.82240000  1.0 -0.3278352938
O  O9  1  0.98732000  0.50436000  0.11961000  1.0 -0.509766717
O  O10  1  0.94728000  0.40586000  0.05970000  1.0 -0.5253490045
O  O11  1  0.10511000  0.53093000  0.04537000  1.0 -0.5002284705
O  O12  1  0.06686000  0.43488000  0.98550000  1.0 -0.509766717
O  O13  1  0.31117000  0.57811000  0.17720000  1.0 -0.5194155973
O  O14  1  0.37626000  0.50954000  0.17535000  1.0 -0.509766717
O  O15  1  0.13690000  0.07730000  0.98170000  1.0 -0.3070595397
O  O16  1  0.89940000  0.01420000  0.32240000  1.0 -0.3278352938
O  O17  1  0.50436000  0.98732000  0.88039000  1.0 -0.509766717
O  O18  1  0.40586000  0.94728000  0.94030000  1.0 -0.5253490045
O  O19  1  0.53093000  0.10511000  0.95463000  1.0 -0.5002284705
O  O20  1  0.43488000  0.06686000  0.01450000  1.0 -0.5194155973
O  O21  1  0.57811000  0.31117000  0.82280000  1.0 -0.5194155973
O  O22  1  0.50954000  0.37626000  0.82465000  1.0 -0.509766717
O  O23  1  0.07730000  0.13690000  0.01830000  1.0 -0.3070595397
O  O24  1  0.01420000  0.89940000  0.67760000  1.0 -0.3278352938
O  O25  1  0.49564000  0.01268000  0.38039000  1.0 -0.509766717
O  O26  1  0.59414000  0.05272000  0.44030000  1.0 -0.5253490045
O  O27  1  0.46907000  0.89489000  0.45463000  1.0 -0.5002284705
O  O28  1  0.56512000  0.93314000  0.51450000  1.0 -0.5194155973
O  O29  1  0.42189000  0.68883000  0.32280000  1.0 -0.5194155973
O  O30  1  0.49046000  0.62374000  0.32465000  1.0 -0.509766717
O  O31  1  0.92270000  0.86310000  0.51830000  1.0 -0.3070595397
O  O32  1  0.98580000  0.10060000  0.17760000  1.0 -0.3278352938
O  O33  1  0.98732000  0.50436000  0.38039000  1.0 -0.509766717
O  O34  1  0.94728000  0.40586000  0.44030000  1.0 -0.5253490045
O  O35  1  0.10511000  0.53093000  0.45463000  1.0 -0.5002284705
O  O36  1  0.06686000  0.43488000  0.51450000  1.0 -0.509766717
O  O37  1  0.31117000  0.57811000  0.32280000  1.0 -0.5194155973
O  O38  1  0.37626000  0.50954000  0.32465000  1.0 -0.509766717
O  O39  1  0.13690000  0.07730000  0.51830000  1.0 -0.3070595397
O  O40  1  0.89940000  0.01420000  0.17760000  1.0 -0.3278352938
O  O41  1  0.01268000  0.49564000  0.88039000  1.0 -0.509766717
O  O42  1  0.05272000  0.59414000  0.94030000  1.0 -0.5253490045
O  O43  1  0.89489000  0.46907000  0.95463000  1.0 -0.5002284705
O  O44  1  0.93314000  0.56512000  0.01450000  1.0 -0.5194155973
O  O45  1  0.68883000  0.42189000  0.82280000  1.0 -0.5194155973
O  O46  1  0.62374000  0.49046000  0.82465000  1.0 -0.509766717
O  O47  1  0.86310000  0.92270000  0.01830000  1.0 -0.3070595397
O  O48  1  0.10060000  0.98580000  0.67760000  1.0 -0.3278352938
O  O49  1  0.49564000  0.01268000  0.11961000  1.0 -0.509766717
O  O50  1  0.59414000  0.05272000  0.05970000  1.0 -0.5253490045
O  O51  1  0.46907000  0.89489000  0.04537000  1.0 -0.5002284705
O  O52  1  0.56512000  0.93314000  0.98550000  1.0 -0.5194155973
O  O53  1  0.42189000  0.68883000  0.17720000  1.0 -0.5194155973
O  O54  1  0.49046000  0.62374000  0.17535000  1.0 -0.509766717
O  O55  1  0.92270000  0.86310000  0.98170000  1.0 -0.3070595397
O  O56  1  0.98580000  0.10060000  0.32240000  1.0 -0.3278352938
O  O57  1  0.50436000  0.98732000  0.61961000  1.0 -0.509766717
O  O58  1  0.40586000  0.94728000  0.55970000  1.0 -0.5253490045
O  O59  1  0.53093000  0.10511000  0.54537000  1.0 -0.5002284705
O  O60  1  0.43488000  0.06686000  0.48550000  1.0 -0.5194155973
O  O61  1  0.57811000  0.31117000  0.67720000  1.0 -0.5194155973
O  O62  1  0.50954000  0.37626000  0.67535000  1.0 -0.509766717
O  O63  1  0.07730000  0.13690000  0.48170000  1.0 -0.3070595397
O  O64  1  0.01420000  0.89940000  0.82240000  1.0 -0.3278352938
