# DDEC6 charges by PACMAN v1.1 (https://github.com/mtap-research/PACMAN-charge/)
data_PAGFUZ_FSR_pacman
_symmetry_space_group_name_H-M   'P 1'
_cell_length_a   7.23380000
_cell_length_b   15.02380000
_cell_length_c   9.21530000
_cell_angle_alpha   90.00000000
_cell_angle_beta   107.74100000
_cell_angle_gamma   90.00000000
_symmetry_Int_Tables_number   1
_chemical_formula_structural   Zn3P4(H4O7)2
_chemical_formula_sum   'Zn6 P8 H16 O28'
_cell_volume   953.88291737
_cell_formula_units_Z   2
loop_
 _symmetry_equiv_pos_site_id
 _symmetry_equiv_pos_as_xyz
  1  'x, y, z'
loop_
 _atom_site_type_symbol
 _atom_site_label
 _atom_site_symmetry_multiplicity
 _atom_site_fract_x
 _atom_site_fract_y
 _atom_site_fract_z
 _atom_site_occupancy
 _atom_site_charge
Zn  Zn1  1  0.51205000  0.76006000  0.97502000  1.0 1.1282288956
Zn  Zn2  1  0.51205000  0.73994000  0.47502000  1.0 1.1282288956
Zn  Zn3  1  0.48795000  0.23994000  0.02498000  1.0 1.1282288956
Zn  Zn4  1  0.48795000  0.26006000  0.52498000  1.0 1.1282288956
Zn  Zn5  1  0.00000000  0.50000000  0.50000000  1.0 1.0358246791
Zn  Zn6  1  0.00000000  0.00000000  0.00000000  1.0 1.0358246791
P  P1  1  0.76903000  0.65828000  0.27480000  1.0 1.1282288956
P  P2  1  0.76903000  0.84172000  0.77480000  1.0 1.1282288956
P  P3  1  0.23097000  0.34172000  0.72520000  1.0 1.1282288956
P  P4  1  0.23097000  0.15828000  0.22520000  1.0 1.1282288956
P  P5  1  0.23333000  0.68246000  0.66470000  1.0 1.2209989059
P  P6  1  0.23333000  0.81754000  0.16470000  1.0 1.2209989059
P  P7  1  0.76667000  0.31754000  0.33530000  1.0 1.2209989059
P  P8  1  0.76667000  0.18246000  0.83530000  1.0 1.2209989059
H  H1  1  0.88900000  0.71900000  0.33900000  1.0 -0.0757765022
H  H2  1  0.88900000  0.78100000  0.83900000  1.0 -0.0757765022
H  H3  1  0.11100000  0.28100000  0.66100000  1.0 -0.0757765022
H  H4  1  0.11100000  0.21900000  0.16100000  1.0 -0.0757765022
H  H5  1  0.15400000  0.76600000  0.61200000  1.0 -0.1032452134
H  H6  1  0.15400000  0.73400000  0.11200000  1.0 -0.1032452134
H  H7  1  0.84600000  0.23400000  0.38800000  1.0 -0.1032452134
H  H8  1  0.84600000  0.26600000  0.88800000  1.0 -0.1032452134
H  H9  1  0.68300000  0.46100000  0.51800000  1.0 0.3249198424
H  H10  1  0.68300000  0.03900000  0.01800000  1.0 0.3252701389
H  H11  1  0.31700000  0.53900000  0.48200000  1.0 0.3252701389
H  H12  1  0.31700000  0.96100000  0.98200000  1.0 0.3249198424
H  H13  1  0.68500000  0.53600000  0.50100000  1.0 0.3137738633
H  H14  1  0.68500000  0.96400000  0.00100000  1.0 0.3137738633
H  H15  1  0.31500000  0.46400000  0.49900000  1.0 0.3137738633
H  H16  1  0.31500000  0.03600000  0.99900000  1.0 0.3137738633
O  O1  1  0.68660000  0.67770000  0.10610000  1.0 -0.6501792443
O  O2  1  0.68660000  0.82230000  0.60610000  1.0 -0.6501792443
O  O3  1  0.31340000  0.32230000  0.89390000  1.0 -0.6501792443
O  O4  1  0.31340000  0.17770000  0.39390000  1.0 -0.6501792443
O  O5  1  0.31370000  0.68580000  0.83870000  1.0 -0.668778151
O  O6  1  0.31370000  0.81420000  0.33870000  1.0 -0.668778151
O  O7  1  0.68630000  0.31420000  0.16130000  1.0 -0.668778151
O  O8  1  0.68630000  0.18580000  0.66130000  1.0 -0.668778151
O  O9  1  0.61550000  0.65790000  0.35840000  1.0 -0.6976316643
O  O10  1  0.61550000  0.84210000  0.85840000  1.0 -0.6976316643
O  O11  1  0.38450000  0.34210000  0.64160000  1.0 -0.6976316643
O  O12  1  0.38450000  0.15790000  0.14160000  1.0 -0.6976316643
O  O13  1  0.39260000  0.66320000  0.59120000  1.0 -0.7134688271
O  O14  1  0.39260000  0.83680000  0.09120000  1.0 -0.7134688271
O  O15  1  0.60740000  0.33680000  0.40880000  1.0 -0.7134688271
O  O16  1  0.60740000  0.16320000  0.90880000  1.0 -0.7134688271
O  O17  1  0.88010000  0.57130000  0.29630000  1.0 -0.6415417862
O  O18  1  0.88010000  0.92870000  0.79630000  1.0 -0.6415417862
O  O19  1  0.11990000  0.42870000  0.70370000  1.0 -0.6415417862
O  O20  1  0.11990000  0.07130000  0.20370000  1.0 -0.6415417862
O  O21  1  0.06620000  0.61880000  0.61780000  1.0 -0.668778151
O  O22  1  0.06620000  0.88120000  0.11780000  1.0 -0.668778151
O  O23  1  0.93380000  0.38120000  0.38220000  1.0 -0.668778151
O  O24  1  0.93380000  0.11880000  0.88220000  1.0 -0.668778151
O  O25  1  0.72550000  0.50320000  0.54320000  1.0 -0.4146099461
O  O26  1  0.72550000  0.99680000  0.04320000  1.0 -0.4146099461
O  O27  1  0.27450000  0.49680000  0.45680000  1.0 -0.4150667561
O  O28  1  0.27450000  0.00320000  0.95680000  1.0 -0.4150667561
