# DDEC6 charges by PACMAN v1.1 (https://github.com/mtap-research/PACMAN-charge/)
data_PALVAC_ASR_pacman
_symmetry_space_group_name_H-M   'P 1'
_cell_length_a   11.43340000
_cell_length_b   11.52500000
_cell_length_c   18.79000000
_cell_angle_alpha   90.00000000
_cell_angle_beta   92.42700000
_cell_angle_gamma   90.00000000
_symmetry_Int_Tables_number   1
_chemical_formula_structural   U2Cr3O9
_chemical_formula_sum   'U8 Cr12 O36'
_cell_volume   2473.73610981
_cell_formula_units_Z   4
loop_
 _symmetry_equiv_pos_site_id
 _symmetry_equiv_pos_as_xyz
  1  'x, y, z'
loop_
 _atom_site_type_symbol
 _atom_site_label
 _atom_site_symmetry_multiplicity
 _atom_site_fract_x
 _atom_site_fract_y
 _atom_site_fract_z
 _atom_site_occupancy
 _atom_site_charge
U  U1  1  0.62117000  0.53968000  0.77104000  1.0 2.2924171495
U  U2  1  0.90781000  0.10740000  0.78780000  1.0 2.3781093168
U  U3  1  0.37883000  0.03968000  0.72896000  1.0 2.3093771743
U  U4  1  0.09219000  0.60740000  0.71220000  1.0 2.3781093168
U  U5  1  0.37883000  0.46032000  0.22896000  1.0 2.3093771743
U  U6  1  0.09219000  0.89260000  0.21220000  1.0 2.3701914357
U  U7  1  0.62117000  0.96032000  0.27104000  1.0 2.3042620229
U  U8  1  0.90781000  0.39260000  0.28780000  1.0 2.3623031186
Cr  Cr1  1  0.90936000  0.43573000  0.84222000  1.0 1.4887311863
Cr  Cr2  1  0.61066000  0.22594000  0.82770000  1.0 1.5176592397
Cr  Cr3  1  0.83778000  0.78500000  0.79712000  1.0 1.4807735093
Cr  Cr4  1  0.09064000  0.93573000  0.65778000  1.0 1.5113493013
Cr  Cr5  1  0.38934000  0.72594000  0.67230000  1.0 1.5176592397
Cr  Cr6  1  0.16222000  0.28500000  0.70288000  1.0 1.4573620366
Cr  Cr7  1  0.09064000  0.56427000  0.15778000  1.0 1.5176592397
Cr  Cr8  1  0.38934000  0.77406000  0.17230000  1.0 1.5176592397
Cr  Cr9  1  0.16222000  0.21500000  0.20288000  1.0 1.4807735093
Cr  Cr10  1  0.90936000  0.06427000  0.34222000  1.0 1.4887311863
Cr  Cr11  1  0.61066000  0.27406000  0.32770000  1.0 1.5176592397
Cr  Cr12  1  0.83778000  0.71500000  0.29712000  1.0 1.4807735093
O  O1  1  0.48700000  0.17080000  0.79770000  1.0 -1.0195398324
O  O2  1  0.77950000  0.50110000  0.85370000  1.0 -1.1237235261
O  O3  1  0.89230000  0.29380000  0.83810000  1.0 -1.0149456454
O  O4  1  0.96140000  0.48120000  0.76630000  1.0 -0.9886272622
O  O5  1  0.71640000  0.12530000  0.82800000  1.0 -1.0459554387
O  O6  1  0.64180000  0.33730000  0.77590000  1.0 -1.0436162842
O  O7  1  0.70720000  0.72090000  0.79680000  1.0 -0.9886272622
O  O8  1  0.81770000  0.92320000  0.77430000  1.0 -0.9611239029
O  O9  1  0.92290000  0.71880000  0.74090000  1.0 -0.9804442518
O  O10  1  0.51300000  0.67080000  0.70230000  1.0 -1.0195398324
O  O11  1  0.22050000  0.00110000  0.64630000  1.0 -1.127413451
O  O12  1  0.10770000  0.79380000  0.66190000  1.0 -0.9999491466
O  O13  1  0.03860000  0.98120000  0.73370000  1.0 -0.9886272622
O  O14  1  0.28360000  0.62530000  0.67200000  1.0 -1.0459554387
O  O15  1  0.35820000  0.83730000  0.72410000  1.0 -1.0436162842
O  O16  1  0.29280000  0.22090000  0.70320000  1.0 -0.9999491466
O  O17  1  0.18230000  0.42320000  0.72570000  1.0 -0.9688233478
O  O18  1  0.07710000  0.21880000  0.75910000  1.0 -0.9804442518
O  O19  1  0.51300000  0.82920000  0.20230000  1.0 -1.0195398324
O  O20  1  0.22050000  0.49890000  0.14630000  1.0 -1.127413451
O  O21  1  0.10770000  0.70620000  0.16190000  1.0 -1.0195398324
O  O22  1  0.03860000  0.51880000  0.23370000  1.0 -0.9886272622
O  O23  1  0.28360000  0.87470000  0.17200000  1.0 -1.027864833
O  O24  1  0.35820000  0.66270000  0.22410000  1.0 -1.0436162842
O  O25  1  0.29280000  0.27910000  0.20320000  1.0 -0.9999491466
O  O26  1  0.18230000  0.07680000  0.22570000  1.0 -0.9688233478
O  O27  1  0.07710000  0.28120000  0.25910000  1.0 -0.9688233478
O  O28  1  0.48700000  0.32920000  0.29770000  1.0 -1.0195398324
O  O29  1  0.77950000  0.99890000  0.35370000  1.0 -1.127413451
O  O30  1  0.89230000  0.20620000  0.33810000  1.0 -1.0195398324
O  O31  1  0.96140000  0.01880000  0.26630000  1.0 -0.9886272622
O  O32  1  0.71640000  0.37470000  0.32800000  1.0 -1.027864833
O  O33  1  0.64180000  0.16270000  0.27590000  1.0 -1.0436162842
O  O34  1  0.70720000  0.77910000  0.29680000  1.0 -0.9999491466
O  O35  1  0.81770000  0.57680000  0.27430000  1.0 -0.9688233478
O  O36  1  0.92290000  0.78120000  0.24090000  1.0 -0.9804442518
