# DDEC6 charges by PACMAN v1.1 (https://github.com/mtap-research/PACMAN-charge/)
data_PAMVEG_FSR_pacman
_symmetry_space_group_name_H-M   'P 1'
_cell_length_a   6.55680000
_cell_length_b   15.07800000
_cell_length_c   20.54300000
_cell_angle_alpha   90.00000000
_cell_angle_beta   90.00000000
_cell_angle_gamma   90.00000000
_symmetry_Int_Tables_number   1
_chemical_formula_structural   ZnH28C20(N3O2)2
_chemical_formula_sum   'Zn4 H112 C80 N24 O16'
_cell_volume   2030.95145071
_cell_formula_units_Z   4
loop_
 _symmetry_equiv_pos_site_id
 _symmetry_equiv_pos_as_xyz
  1  'x, y, z'
loop_
 _atom_site_type_symbol
 _atom_site_label
 _atom_site_symmetry_multiplicity
 _atom_site_fract_x
 _atom_site_fract_y
 _atom_site_fract_z
 _atom_site_occupancy
 _atom_site_charge
Zn  Zn1  1  0.14868000  0.51362000  0.18783000  1.0 0.5825873951
Zn  Zn2  1  0.35132000  0.48638000  0.68783000  1.0 0.5825873951
Zn  Zn3  1  0.85132000  0.01362000  0.31217000  1.0 0.5825873951
Zn  Zn4  1  0.64868000  0.98638000  0.81217000  1.0 0.5825873951
H  H1  1  0.79830000  0.59680000  0.27650000  1.0 0.0723323242
H  H2  1  0.70170000  0.40320000  0.77650000  1.0 0.0723323242
H  H3  1  0.20170000  0.09680000  0.22350000  1.0 0.0723323242
H  H4  1  0.29830000  0.90320000  0.72350000  1.0 0.0723323242
H  H5  1  0.12060000  0.71860000  0.14240000  1.0 0.1398525115
H  H6  1  0.37940000  0.28140000  0.64240000  1.0 0.1398525115
H  H7  1  0.87940000  0.21860000  0.35760000  1.0 0.1398525115
H  H8  1  0.62060000  0.78140000  0.85760000  1.0 0.1398525115
H  H9  1  0.86820000  0.82730000  0.18230000  1.0 0.1090812158
H  H10  1  0.63180000  0.17270000  0.68230000  1.0 0.1090812158
H  H11  1  0.13180000  0.32730000  0.31770000  1.0 0.1090812158
H  H12  1  0.36820000  0.67270000  0.81770000  1.0 0.1090812158
H  H13  1  0.62890000  0.73340000  0.32810000  1.0 0.0777593593
H  H14  1  0.87110000  0.26660000  0.82810000  1.0 0.0777593593
H  H15  1  0.37110000  0.23340000  0.17190000  1.0 0.0777593593
H  H16  1  0.12890000  0.76660000  0.67190000  1.0 0.0777593593
H  H17  1  0.67200000  0.82610000  0.29800000  1.0 0.091344967
H  H18  1  0.82800000  0.17390000  0.79800000  1.0 0.091344967
H  H19  1  0.32800000  0.32610000  0.20200000  1.0 0.091344967
H  H20  1  0.17200000  0.67390000  0.70200000  1.0 0.091344967
H  H21  1  0.39120000  0.69980000  0.24700000  1.0 0.091344967
H  H22  1  0.10880000  0.30020000  0.74700000  1.0 0.091344967
H  H23  1  0.60880000  0.19980000  0.25300000  1.0 0.091344967
H  H24  1  0.89120000  0.80020000  0.75300000  1.0 0.091344967
H  H25  1  0.44530000  0.78710000  0.21060000  1.0 0.1090812158
H  H26  1  0.05470000  0.21290000  0.71060000  1.0 0.1090812158
H  H27  1  0.55470000  0.28710000  0.28940000  1.0 0.1090812158
H  H28  1  0.94530000  0.71290000  0.78940000  1.0 0.1090812158
H  H29  1  0.19600000  0.91210000  0.23040000  1.0 0.0605654384
H  H30  1  0.30400000  0.08790000  0.73040000  1.0 0.0605654384
H  H31  1  0.80400000  0.41210000  0.26960000  1.0 0.0605654384
H  H32  1  0.69600000  0.58790000  0.76960000  1.0 0.0605654384
H  H33  1  0.23040000  0.73390000  0.38290000  1.0 0.1001499372
H  H34  1  0.26960000  0.26610000  0.88290000  1.0 0.1001499372
H  H35  1  0.76960000  0.23390000  0.11710000  1.0 0.1001499372
H  H36  1  0.73040000  0.76610000  0.61710000  1.0 0.1001499372
H  H37  1  0.95010000  0.84030000  0.39990000  1.0 0.1328238944
H  H38  1  0.54990000  0.15970000  0.89990000  1.0 0.1328238944
H  H39  1  0.04990000  0.34030000  0.10010000  1.0 0.1328238944
H  H40  1  0.45010000  0.65970000  0.60010000  1.0 0.1328238944
H  H41  1  0.95860000  0.53640000  0.85610000  1.0 0.1176699044
H  H42  1  0.54140000  0.46360000  0.35610000  1.0 0.1176699044
H  H43  1  0.04140000  0.03640000  0.64390000  1.0 0.1176699044
H  H44  1  0.45860000  0.96360000  0.14390000  1.0 0.1176699044
H  H45  1  0.07310000  0.45770000  0.89320000  1.0 0.1176699044
H  H46  1  0.42690000  0.54230000  0.39320000  1.0 0.1176699044
H  H47  1  0.92690000  0.95770000  0.60680000  1.0 0.1176699044
H  H48  1  0.57310000  0.04230000  0.10680000  1.0 0.1176699044
H  H49  1  0.17130000  0.64020000  0.90610000  1.0 0.0723323242
H  H50  1  0.32870000  0.35980000  0.40610000  1.0 0.0723323242
H  H51  1  0.82870000  0.14020000  0.59390000  1.0 0.0723323242
H  H52  1  0.67130000  0.85980000  0.09390000  1.0 0.0723323242
H  H53  1  0.29270000  0.56220000  0.94190000  1.0 0.091344967
H  H54  1  0.20730000  0.43780000  0.44190000  1.0 0.091344967
H  H55  1  0.70730000  0.06220000  0.55810000  1.0 0.091344967
H  H56  1  0.79270000  0.93780000  0.05810000  1.0 0.091344967
H  H57  1  0.98120000  0.52390000  0.99800000  1.0 0.091344967
H  H58  1  0.51880000  0.47610000  0.49800000  1.0 0.091344967
H  H59  1  0.01880000  0.02390000  0.50200000  1.0 0.091344967
H  H60  1  0.48120000  0.97610000  0.00200000  1.0 0.091344967
H  H61  1  0.07220000  0.61820000  0.01830000  1.0 0.1001499372
H  H62  1  0.42780000  0.38180000  0.51830000  1.0 0.1001499372
H  H63  1  0.92780000  0.11820000  0.48170000  1.0 0.1001499372
H  H64  1  0.57220000  0.88180000  0.98170000  1.0 0.1001499372
H  H65  1  0.73610000  0.59300000  0.93180000  1.0 0.091344967
H  H66  1  0.76390000  0.40700000  0.43180000  1.0 0.091344967
H  H67  1  0.26390000  0.09300000  0.56820000  1.0 0.091344967
H  H68  1  0.23610000  0.90700000  0.06820000  1.0 0.091344967
H  H69  1  0.83140000  0.68820000  0.94800000  1.0 0.091344967
H  H70  1  0.66860000  0.31180000  0.44800000  1.0 0.091344967
H  H71  1  0.16860000  0.18820000  0.55200000  1.0 0.091344967
H  H72  1  0.33140000  0.81180000  0.05200000  1.0 0.091344967
H  H73  1  0.73070000  0.67170000  0.05930000  1.0 0.091344967
H  H74  1  0.76930000  0.32830000  0.55930000  1.0 0.091344967
H  H75  1  0.26930000  0.17170000  0.44070000  1.0 0.091344967
H  H76  1  0.23070000  0.82830000  0.94070000  1.0 0.091344967
H  H77  1  0.53780000  0.66990000  0.01160000  1.0 0.091344967
H  H78  1  0.96220000  0.33010000  0.51160000  1.0 0.091344967
H  H79  1  0.46220000  0.16990000  0.48840000  1.0 0.091344967
H  H80  1  0.03780000  0.83010000  0.98840000  1.0 0.091344967
H  H81  1  0.72160000  0.51910000  0.07140000  1.0 0.1176699044
H  H82  1  0.77840000  0.48090000  0.57140000  1.0 0.1176699044
H  H83  1  0.27840000  0.01910000  0.42860000  1.0 0.1176699044
H  H84  1  0.22160000  0.98090000  0.92860000  1.0 0.1176699044
H  H85  1  0.55230000  0.50970000  0.01590000  1.0 0.1328238944
H  H86  1  0.94770000  0.49030000  0.51590000  1.0 0.1328238944
H  H87  1  0.44770000  0.00970000  0.48410000  1.0 0.1328238944
H  H88  1  0.05230000  0.99030000  0.98410000  1.0 0.1328238944
H  H89  1  0.28050000  0.07380000  0.26020000  1.0 0.0505251687
H  H90  1  0.21950000  0.92620000  0.76020000  1.0 0.0505251687
H  H91  1  0.71950000  0.57380000  0.23980000  1.0 0.0505251687
H  H92  1  0.78050000  0.42620000  0.73980000  1.0 0.0505251687
H  H93  1  0.55400000  0.26420000  0.28700000  1.0 0.1176699044
H  H94  1  0.94600000  0.73580000  0.78700000  1.0 0.1176699044
H  H95  1  0.44600000  0.76420000  0.21300000  1.0 0.1176699044
H  H96  1  0.05400000  0.23580000  0.71300000  1.0 0.1176699044
H  H97  1  0.56060000  0.18440000  0.23880000  1.0 0.091344967
H  H98  1  0.93940000  0.81560000  0.73880000  1.0 0.091344967
H  H99  1  0.43940000  0.68440000  0.26120000  1.0 0.091344967
H  H100  1  0.06060000  0.31560000  0.76120000  1.0 0.091344967
H  H101  1  0.37700000  0.34740000  0.20900000  1.0 0.091344967
H  H102  1  0.12300000  0.65260000  0.70900000  1.0 0.091344967
H  H103  1  0.62300000  0.84740000  0.29100000  1.0 0.091344967
H  H104  1  0.87700000  0.15260000  0.79100000  1.0 0.091344967
H  H105  1  0.40290000  0.26880000  0.16050000  1.0 0.0723323242
H  H106  1  0.09710000  0.73120000  0.66050000  1.0 0.0723323242
H  H107  1  0.59710000  0.76880000  0.33950000  1.0 0.0723323242
H  H108  1  0.90290000  0.23120000  0.83950000  1.0 0.0723323242
H  H109  1  0.69480000  0.45150000  0.22640000  1.0 0.0505251687
H  H110  1  0.80520000  0.54850000  0.72640000  1.0 0.0505251687
H  H111  1  0.30520000  0.95150000  0.27360000  1.0 0.0505251687
H  H112  1  0.19480000  0.04850000  0.77360000  1.0 0.0505251687
C  C1  1  0.84810000  0.64010000  0.24610000  1.0 0.0505251687
C  C2  1  0.65190000  0.35990000  0.74610000  1.0 0.0505251687
C  C3  1  0.15190000  0.14010000  0.25390000  1.0 0.0505251687
C  C4  1  0.34810000  0.85990000  0.75390000  1.0 0.0505251687
C  C5  1  0.01450000  0.70500000  0.17232000  1.0 -0.267922919
C  C6  1  0.48550000  0.29500000  0.67232000  1.0 -0.267922919
C  C7  1  0.98550000  0.20500000  0.32768000  1.0 -0.267922919
C  C8  1  0.51450000  0.79500000  0.82768000  1.0 -0.267922919
C  C9  1  0.88090000  0.76370000  0.19554000  1.0 -0.1152031531
C  C10  1  0.61910000  0.23630000  0.69554000  1.0 -0.1152031531
C  C11  1  0.11910000  0.26370000  0.30446000  1.0 -0.1152031531
C  C12  1  0.38090000  0.73630000  0.80446000  1.0 -0.1152031531
C  C13  1  0.63790000  0.76570000  0.28800000  1.0 -0.0724595522
C  C14  1  0.86210000  0.23430000  0.78800000  1.0 -0.0724595522
C  C15  1  0.36210000  0.26570000  0.21200000  1.0 -0.0724595522
C  C16  1  0.13790000  0.73430000  0.71200000  1.0 -0.0724595522
C  C17  1  0.43270000  0.76030000  0.25280000  1.0 -0.081185083
C  C18  1  0.06730000  0.23970000  0.75280000  1.0 -0.081185083
C  C19  1  0.56730000  0.26030000  0.24720000  1.0 -0.081185083
C  C20  1  0.93270000  0.73970000  0.74720000  1.0 -0.081185083
C  C21  1  0.18060000  0.88360000  0.27190000  1.0 0.0282558122
C  C22  1  0.31940000  0.11640000  0.77190000  1.0 0.0282558122
C  C23  1  0.81940000  0.38360000  0.22810000  1.0 0.0282558122
C  C24  1  0.68060000  0.61640000  0.72810000  1.0 0.0282558122
C  C25  1  0.20480000  0.78970000  0.35801000  1.0 -0.081185083
C  C26  1  0.29520000  0.21030000  0.85801000  1.0 -0.081185083
C  C27  1  0.79520000  0.28970000  0.14199000  1.0 -0.081185083
C  C28  1  0.70480000  0.71030000  0.64199000  1.0 -0.081185083
C  C29  1  0.05020000  0.84570000  0.36674000  1.0 -0.2381444068
C  C30  1  0.44980000  0.15430000  0.86674000  1.0 -0.2381444068
C  C31  1  0.94980000  0.34570000  0.13326000  1.0 -0.2381444068
C  C32  1  0.55020000  0.65430000  0.63326000  1.0 -0.2381444068
C  C33  1  0.24050000  0.50789000  0.81648000  1.0 0.4404104764
C  C34  1  0.25950000  0.49211000  0.31648000  1.0 0.4404104764
C  C35  1  0.75950000  0.00789000  0.68352000  1.0 0.4404104764
C  C36  1  0.74050000  0.99211000  0.18352000  1.0 0.4404104764
C  C37  1  0.09240000  0.51690000  0.87332000  1.0 -0.3554149826
C  C38  1  0.40760000  0.48310000  0.37332000  1.0 -0.3554149826
C  C39  1  0.90760000  0.01690000  0.62668000  1.0 -0.3532037397
C  C40  1  0.59240000  0.98310000  0.12668000  1.0 -0.3554149826
C  C41  1  0.15720000  0.58030000  0.92532000  1.0 -0.1416067218
C  C42  1  0.34280000  0.41970000  0.42532000  1.0 -0.1416067218
C  C43  1  0.84280000  0.08030000  0.57468000  1.0 -0.1416067218
C  C44  1  0.65720000  0.91970000  0.07468000  1.0 -0.1416067218
C  C45  1  0.00760000  0.58490000  0.98227000  1.0 -0.1626891231
C  C46  1  0.49240000  0.41510000  0.48227000  1.0 -0.1626891231
C  C47  1  0.99240000  0.08490000  0.51773000  1.0 -0.1626891231
C  C48  1  0.50760000  0.91510000  0.01773000  1.0 -0.1626891231
C  C49  1  0.80510000  0.62830000  0.96597000  1.0 -0.1913390939
C  C50  1  0.69490000  0.37170000  0.46597000  1.0 -0.1913390939
C  C51  1  0.19490000  0.12830000  0.53403000  1.0 -0.1913390939
C  C52  1  0.30510000  0.87170000  0.03403000  1.0 -0.1913390939
C  C53  1  0.66170000  0.63700000  0.02487000  1.0 -0.1334606481
C  C54  1  0.83830000  0.36300000  0.52487000  1.0 -0.1334606481
C  C55  1  0.33830000  0.13700000  0.47513000  1.0 -0.1334606481
C  C56  1  0.16170000  0.86300000  0.97513000  1.0 -0.1334606481
C  C57  1  0.60000000  0.54770000  0.05210000  1.0 -0.3367507567
C  C58  1  0.90000000  0.45230000  0.55210000  1.0 -0.3367507567
C  C59  1  0.40000000  0.04770000  0.44790000  1.0 -0.3367507567
C  C60  1  0.10000000  0.95230000  0.94790000  1.0 -0.3367507567
C  C61  1  0.43450000  0.55230000  0.10303000  1.0 0.5357996265
C  C62  1  0.06550000  0.44770000  0.60303000  1.0 0.5357996265
C  C63  1  0.56550000  0.05230000  0.39697000  1.0 0.5349946062
C  C64  1  0.93450000  0.94770000  0.89697000  1.0 0.5349946062
C  C65  1  0.21070000  0.12440000  0.27770000  1.0 0.0505251687
C  C66  1  0.28930000  0.87560000  0.77770000  1.0 0.0505251687
C  C67  1  0.78930000  0.62440000  0.22230000  1.0 0.0505251687
C  C68  1  0.71070000  0.37560000  0.72230000  1.0 0.0505251687
C  C69  1  0.48290000  0.23520000  0.25210000  1.0 -0.0900473779
C  C70  1  0.01710000  0.76480000  0.75210000  1.0 -0.0900473779
C  C71  1  0.51710000  0.73520000  0.24790000  1.0 -0.0900473779
C  C72  1  0.98290000  0.26480000  0.74790000  1.0 -0.0900473779
C  C73  1  0.46440000  0.29930000  0.19650000  1.0 -0.081185083
C  C74  1  0.03560000  0.70070000  0.69650000  1.0 -0.081185083
C  C75  1  0.53560000  0.79930000  0.30350000  1.0 -0.081185083
C  C76  1  0.96440000  0.20070000  0.80350000  1.0 -0.081185083
C  C77  1  0.75790000  0.40730000  0.19950000  1.0 0.0723323242
C  C78  1  0.74210000  0.59270000  0.69950000  1.0 0.0723323242
C  C79  1  0.24210000  0.90730000  0.30050000  1.0 0.0723323242
C  C80  1  0.25790000  0.09270000  0.80050000  1.0 0.0723323242
N  N1  1  0.97800000  0.62314000  0.19728000  1.0 -0.2152998259
N  N2  1  0.52200000  0.37686000  0.69728000  1.0 -0.2152998259
N  N3  1  0.02200000  0.12314000  0.30272000  1.0 -0.2152998259
N  N4  1  0.47800000  0.87686000  0.80272000  1.0 -0.2152998259
N  N5  1  0.79620000  0.72640000  0.24640000  1.0 0.1398525115
N  N6  1  0.70380000  0.27360000  0.74640000  1.0 0.1328238944
N  N7  1  0.20380000  0.22640000  0.25360000  1.0 0.1328238944
N  N8  1  0.29620000  0.77360000  0.75360000  1.0 0.1398525115
N  N9  1  0.27720000  0.81000000  0.29110000  1.0 0.1090812158
N  N10  1  0.22280000  0.19000000  0.79110000  1.0 0.1090812158
N  N11  1  0.72280000  0.31000000  0.20890000  1.0 0.1090812158
N  N12  1  0.77720000  0.69000000  0.70890000  1.0 0.1090812158
N  N13  1  0.05500000  0.91217000  0.32140000  1.0 -0.2381444068
N  N14  1  0.44500000  0.08783000  0.82140000  1.0 -0.2381444068
N  N15  1  0.94500000  0.41217000  0.17860000  1.0 -0.2381444068
N  N16  1  0.55500000  0.58783000  0.67860000  1.0 -0.2381444068
N  N17  1  0.28380000  0.20710000  0.27580000  1.0 0.1456560532
N  N18  1  0.21620000  0.79290000  0.77580000  1.0 0.1456560532
N  N19  1  0.71620000  0.70710000  0.22420000  1.0 0.1398525115
N  N20  1  0.78380000  0.29290000  0.72420000  1.0 0.1398525115
N  N21  1  0.66340000  0.33220000  0.17840000  1.0 0.1398525115
N  N22  1  0.83660000  0.66780000  0.67840000  1.0 0.1398525115
N  N23  1  0.33660000  0.83220000  0.32160000  1.0 0.1456560532
N  N24  1  0.16340000  0.16780000  0.82160000  1.0 0.1398525115
O  O1  1  0.16040000  0.50479000  0.76055000  1.0 -0.5674540659
O  O2  1  0.33960000  0.49521000  0.26055000  1.0 -0.5674540659
O  O3  1  0.83960000  0.00479000  0.73945000  1.0 -0.5674540659
O  O4  1  0.66040000  0.99521000  0.23945000  1.0 -0.5674540659
O  O5  1  0.42640000  0.50628000  0.82540000  1.0 -0.5417523643
O  O6  1  0.07360000  0.49372000  0.32540000  1.0 -0.5417523643
O  O7  1  0.57360000  0.00628000  0.67460000  1.0 -0.5417523643
O  O8  1  0.92640000  0.99372000  0.17460000  1.0 -0.5417523643
O  O9  1  0.32270000  0.48367000  0.11029000  1.0 -0.5279099902
O  O10  1  0.17730000  0.51633000  0.61029000  1.0 -0.5279099902
O  O11  1  0.67730000  0.98367000  0.38971000  1.0 -0.5279099902
O  O12  1  0.82270000  0.01633000  0.88971000  1.0 -0.5279099902
O  O13  1  0.40940000  0.61795000  0.13658000  1.0 -0.5153727343
O  O14  1  0.09060000  0.38205000  0.63658000  1.0 -0.5153727343
O  O15  1  0.59060000  0.11795000  0.36342000  1.0 -0.5153727343
O  O16  1  0.90940000  0.88205000  0.86342000  1.0 -0.5153727343
