# DDEC6 charges by PACMAN v1.1 (https://github.com/mtap-research/PACMAN-charge/)
data_PAPFIZ_ion_pacman
_symmetry_space_group_name_H-M   'P 1'
_cell_length_a   8.49930000
_cell_length_b   19.44160000
_cell_length_c   10.60960000
_cell_angle_alpha   90.00000000
_cell_angle_beta   109.54000000
_cell_angle_gamma   90.00000000
_symmetry_Int_Tables_number   1
_chemical_formula_structural   EuP3C3SNO15
_chemical_formula_sum   'Eu4 P12 C12 S4 N4 O60'
_cell_volume   1652.16431846
_cell_formula_units_Z   4
loop_
 _symmetry_equiv_pos_site_id
 _symmetry_equiv_pos_as_xyz
  1  'x, y, z'
loop_
 _atom_site_type_symbol
 _atom_site_label
 _atom_site_symmetry_multiplicity
 _atom_site_fract_x
 _atom_site_fract_y
 _atom_site_fract_z
 _atom_site_occupancy
 _atom_site_charge
Eu  Eu1  1  0.64069000  0.29957000  0.96225000  1.0 2.2684800629
Eu  Eu2  1  0.64069000  0.20043000  0.46225000  1.0 2.2684800629
Eu  Eu3  1  0.35931000  0.79957000  0.53775000  1.0 2.2684800629
Eu  Eu4  1  0.35931000  0.70043000  0.03775000  1.0 2.2684800629
P  P1  1  0.33790000  0.27550000  0.16280000  1.0 1.2822769885
P  P2  1  0.93960000  0.21800000  0.81670000  1.0 1.2930515015
P  P3  1  0.56670000  0.11740000  0.11390000  1.0 1.2543010119
P  P4  1  0.33790000  0.22450000  0.66280000  1.0 1.2822769885
P  P5  1  0.93960000  0.28200000  0.31670000  1.0 1.2930515015
P  P6  1  0.56670000  0.38260000  0.61390000  1.0 1.2543010119
P  P7  1  0.66210000  0.77550000  0.33720000  1.0 1.2822769885
P  P8  1  0.06040000  0.71800000  0.68330000  1.0 1.3015847568
P  P9  1  0.43330000  0.61740000  0.38610000  1.0 1.2543010119
P  P10  1  0.66210000  0.72450000  0.83720000  1.0 1.2822769885
P  P11  1  0.06040000  0.78200000  0.18330000  1.0 1.2930515015
P  P12  1  0.43330000  0.88260000  0.88610000  1.0 1.2559252385
C  C1  1  0.21110000  0.19860000  0.10300000  1.0 0.1124560148
C  C2  1  0.34970000  0.10840000  0.01070000  1.0 0.0608208705
C  C3  1  0.07070000  0.14370000  0.89160000  1.0 0.0913891573
C  C4  1  0.21110000  0.30140000  0.60300000  1.0 0.1124560148
C  C5  1  0.34970000  0.39160000  0.51070000  1.0 0.0608208705
C  C6  1  0.07070000  0.35630000  0.39160000  1.0 0.0913891573
C  C7  1  0.78890000  0.69860000  0.39700000  1.0 0.1124560148
C  C8  1  0.65030000  0.60840000  0.48930000  1.0 0.0608208705
C  C9  1  0.92930000  0.64370000  0.60840000  1.0 0.0913891573
C  C10  1  0.78890000  0.80140000  0.89700000  1.0 0.1124560148
C  C11  1  0.65030000  0.89160000  0.98930000  1.0 0.0608208705
C  C12  1  0.92930000  0.85630000  0.10840000  1.0 0.0913891573
S  S1  1  0.93490000  0.96240000  0.74170000  1.0 1.3015847568
S  S2  1  0.06510000  0.46240000  0.75830000  1.0 1.3015847568
S  S3  1  0.06510000  0.03760000  0.25830000  1.0 1.3015847568
S  S4  1  0.93490000  0.53760000  0.24170000  1.0 1.3015847568
N  N1  1  0.23830000  0.17090000  0.97760000  1.0 0.1737013538
N  N2  1  0.23830000  0.32910000  0.47760000  1.0 0.1737013538
N  N3  1  0.76170000  0.67090000  0.52240000  1.0 0.1737013538
N  N4  1  0.76170000  0.82910000  0.02240000  1.0 0.1737013538
O  O1  1  0.65270000  0.16310000  0.03370000  1.0 -0.6624336686
O  O2  1  0.44450000  0.28420000  0.07520000  1.0 -0.8078037124
O  O3  1  0.57310000  0.15300000  0.24030000  1.0 -0.8365073796
O  O4  1  0.42000000  0.26850000  0.31540000  1.0 -0.7980361875
O  O5  1  0.85920000  0.24360000  0.91710000  1.0 -0.8078037124
O  O6  1  0.82660000  0.19140000  0.68550000  1.0 -0.8165913518
O  O7  1  0.85350000  0.39060000  0.98150000  1.0 0.1403300369
O  O8  1  0.65030000  0.04610000  0.13220000  1.0 -0.460213415
O  O9  1  0.06740000  0.27070000  0.79870000  1.0 -0.460213415
O  O10  1  0.20400000  0.33360000  0.13260000  1.0 -0.4761568105
O  O11  1  0.48170000  0.41110000  0.95920000  1.0 -0.1443936225
O  O12  1  0.65270000  0.33690000  0.53370000  1.0 -0.6624336686
O  O13  1  0.44450000  0.21580000  0.57520000  1.0 -0.8078037124
O  O14  1  0.57310000  0.34700000  0.74030000  1.0 -0.8365073796
O  O15  1  0.42000000  0.23150000  0.81540000  1.0 -0.7980361875
O  O16  1  0.85920000  0.25640000  0.41710000  1.0 -0.8078037124
O  O17  1  0.82660000  0.30860000  0.18550000  1.0 -0.8165913518
O  O18  1  0.85350000  0.10940000  0.48150000  1.0 0.1403300369
O  O19  1  0.65030000  0.45390000  0.63220000  1.0 -0.460213415
O  O20  1  0.06740000  0.22930000  0.29870000  1.0 -0.460213415
O  O21  1  0.20400000  0.16640000  0.63260000  1.0 -0.4761568105
O  O22  1  0.48170000  0.08890000  0.45920000  1.0 -0.145382553
O  O23  1  0.34730000  0.66310000  0.46630000  1.0 -0.6624336686
O  O24  1  0.55550000  0.78420000  0.42480000  1.0 -0.8078037124
O  O25  1  0.42690000  0.65300000  0.25970000  1.0 -0.8365073796
O  O26  1  0.58000000  0.76850000  0.18460000  1.0 -0.7980361875
O  O27  1  0.14080000  0.74360000  0.58290000  1.0 -0.8078037124
O  O28  1  0.17340000  0.69140000  0.81450000  1.0 -0.8165913518
O  O29  1  0.14650000  0.89060000  0.51850000  1.0 0.1403300369
O  O30  1  0.34970000  0.54610000  0.36780000  1.0 -0.460213415
O  O31  1  0.93260000  0.77070000  0.70130000  1.0 -0.460213415
O  O32  1  0.79600000  0.83360000  0.36740000  1.0 -0.4741783138
O  O33  1  0.51830000  0.91110000  0.54080000  1.0 -0.1443936225
O  O34  1  0.34730000  0.83690000  0.96630000  1.0 -0.6624336686
O  O35  1  0.55550000  0.71580000  0.92480000  1.0 -0.8078037124
O  O36  1  0.42690000  0.84700000  0.75970000  1.0 -0.8365073796
O  O37  1  0.58000000  0.73150000  0.68460000  1.0 -0.7980361875
O  O38  1  0.14080000  0.75640000  0.08290000  1.0 -0.8078037124
O  O39  1  0.17340000  0.80860000  0.31450000  1.0 -0.8165913518
O  O40  1  0.14650000  0.60940000  0.01850000  1.0 0.1452260319
O  O41  1  0.34970000  0.95390000  0.86780000  1.0 -0.460213415
O  O42  1  0.93260000  0.72930000  0.20130000  1.0 -0.460213415
O  O43  1  0.79600000  0.66640000  0.86740000  1.0 -0.4761568105
O  O44  1  0.51830000  0.58890000  0.04080000  1.0 -0.145382553
O  O45  1  0.96920000  0.02500000  0.66820000  1.0 -0.4741783138
O  O46  1  0.76720000  0.96730000  0.76250000  1.0 -0.4530660506
O  O47  1  0.94570000  0.89430000  0.67160000  1.0 -0.3923788216
O  O48  1  0.07640000  0.95740000  0.87920000  1.0 -0.3923788216
O  O49  1  0.03080000  0.52500000  0.83180000  1.0 -0.4741783138
O  O50  1  0.23280000  0.46730000  0.73750000  1.0 -0.4530660506
O  O51  1  0.05430000  0.39430000  0.82840000  1.0 -0.3923788216
O  O52  1  0.92360000  0.45740000  0.62080000  1.0 -0.3923788216
O  O53  1  0.03080000  0.97500000  0.33180000  1.0 -0.4741783138
O  O54  1  0.23280000  0.03270000  0.23750000  1.0 -0.4530660506
O  O55  1  0.05430000  0.10570000  0.32840000  1.0 -0.3923788216
O  O56  1  0.92360000  0.04260000  0.12080000  1.0 -0.3923788216
O  O57  1  0.96920000  0.47500000  0.16820000  1.0 -0.4741783138
O  O58  1  0.76720000  0.53270000  0.26250000  1.0 -0.4530660506
O  O59  1  0.94570000  0.60570000  0.17160000  1.0 -0.3923788216
O  O60  1  0.07640000  0.54260000  0.37920000  1.0 -0.3923788216
