# DDEC6 charges by PACMAN v1.1 (https://github.com/mtap-research/PACMAN-charge/)
data_PAPFUL_ion_pacman
_symmetry_space_group_name_H-M   'P 1'
_cell_length_a   8.42910000
_cell_length_b   21.40410000
_cell_length_c   10.28760000
_cell_angle_alpha   90.00000000
_cell_angle_beta   109.74200000
_cell_angle_gamma   90.00000000
_symmetry_Int_Tables_number   1
_chemical_formula_structural   YbP3C3SNO15
_chemical_formula_sum   'Yb4 P12 C12 S4 N4 O60'
_cell_volume   1746.96765972
_cell_formula_units_Z   4
loop_
 _symmetry_equiv_pos_site_id
 _symmetry_equiv_pos_as_xyz
  1  'x, y, z'
loop_
 _atom_site_type_symbol
 _atom_site_label
 _atom_site_symmetry_multiplicity
 _atom_site_fract_x
 _atom_site_fract_y
 _atom_site_fract_z
 _atom_site_occupancy
 _atom_site_charge
Yb  Yb1  1  0.47430000  0.27921000  0.86480000  1.0 2.1266682813
Yb  Yb2  1  0.47430000  0.22079000  0.36480000  1.0 2.1266682813
Yb  Yb3  1  0.52570000  0.77921000  0.63520000  1.0 2.1249021559
Yb  Yb4  1  0.52570000  0.72079000  0.13520000  1.0 2.1266682813
P  P1  1  0.16530000  0.28240000  0.05770000  1.0 1.2625363439
P  P2  1  0.79450000  0.22190000  0.71290000  1.0 1.2915124565
P  P3  1  0.40770000  0.14140000  0.03880000  1.0 1.2260540991
P  P4  1  0.16530000  0.21760000  0.55770000  1.0 1.2625363439
P  P5  1  0.79450000  0.27810000  0.21290000  1.0 1.2915124565
P  P6  1  0.40770000  0.35860000  0.53880000  1.0 1.2260540991
P  P7  1  0.83470000  0.78240000  0.44230000  1.0 1.2625363439
P  P8  1  0.20550000  0.72190000  0.78710000  1.0 1.2915124565
P  P9  1  0.59230000  0.64140000  0.46120000  1.0 1.2242930203
P  P10  1  0.83470000  0.71760000  0.94230000  1.0 1.2625363439
P  P11  1  0.20550000  0.77810000  0.28710000  1.0 1.2915124565
P  P12  1  0.59230000  0.85860000  0.96120000  1.0 1.2260540991
C  C1  1  0.04900000  0.20950000  0.01000000  1.0 0.0629213646
C  C2  1  0.20320000  0.13710000  0.90800000  1.0 0.0207664517
C  C3  1  0.90370000  0.15230000  0.79030000  1.0 -0.0320967357
C  C4  1  0.04900000  0.29050000  0.51000000  1.0 0.0629213646
C  C5  1  0.20320000  0.36290000  0.40800000  1.0 0.0207664517
C  C6  1  0.90370000  0.34770000  0.29030000  1.0 -0.0320967357
C  C7  1  0.95100000  0.70950000  0.49000000  1.0 0.0629213646
C  C8  1  0.79680000  0.63710000  0.59200000  1.0 0.0207664517
C  C9  1  0.09630000  0.65230000  0.70970000  1.0 -0.0320967357
C  C10  1  0.95100000  0.79050000  0.99000000  1.0 0.0629213646
C  C11  1  0.79680000  0.86290000  0.09200000  1.0 0.0207664517
C  C12  1  0.09630000  0.84770000  0.20970000  1.0 -0.0320967357
S  S1  1  0.02330000  0.95080000  0.76070000  1.0 1.2915124565
S  S2  1  0.97670000  0.45080000  0.73930000  1.0 1.2915124565
S  S3  1  0.97670000  0.04920000  0.23930000  1.0 1.3009631901
S  S4  1  0.02330000  0.54920000  0.26070000  1.0 1.3009631901
N  N1  1  0.06200000  0.18290000  0.87920000  1.0 0.1540927807
N  N2  1  0.06200000  0.31710000  0.37920000  1.0 0.1540927807
N  N3  1  0.93800000  0.68290000  0.62080000  1.0 0.1540927807
N  N4  1  0.93800000  0.81710000  0.12080000  1.0 0.155823034
O  O1  1  0.48200000  0.20880000  0.07090000  1.0 -0.791862461
O  O2  1  0.26800000  0.28800000  0.96280000  1.0 -0.7969509394
O  O3  1  0.36010000  0.13870000  0.17690000  1.0 -0.7271696658
O  O4  1  0.26900000  0.28510000  0.21120000  1.0 -0.8154348463
O  O5  1  0.66900000  0.23700000  0.78470000  1.0 -0.8447721929
O  O6  1  0.68210000  0.20440000  0.55570000  1.0 -0.8484291465
O  O7  1  0.69220000  0.34540000  0.81870000  1.0 0.9092918306
O  O8  1  0.51300000  0.08630000  0.03100000  1.0 -0.5602398918
O  O9  1  0.91400000  0.27350000  0.70200000  1.0 -0.5602398918
O  O10  1  0.03300000  0.33500000  0.02600000  1.0 -0.5479264886
O  O11  1  0.46600000  0.38940000  0.95000000  1.0 -0.0494253694
O  O12  1  0.48200000  0.29120000  0.57090000  1.0 -0.791862461
O  O13  1  0.26800000  0.21200000  0.46280000  1.0 -0.7969509394
O  O14  1  0.36010000  0.36130000  0.67690000  1.0 -0.7271696658
O  O15  1  0.26900000  0.21490000  0.71120000  1.0 -0.8154348463
O  O16  1  0.66900000  0.26300000  0.28470000  1.0 -0.8484291465
O  O17  1  0.68210000  0.29560000  0.05570000  1.0 -0.8484291465
O  O18  1  0.69220000  0.15460000  0.31870000  1.0 0.8841319948
O  O19  1  0.51300000  0.41370000  0.53100000  1.0 -0.5602398918
O  O20  1  0.91400000  0.22650000  0.20200000  1.0 -0.5602398918
O  O21  1  0.03300000  0.16500000  0.52600000  1.0 -0.5479264886
O  O22  1  0.46600000  0.11060000  0.45000000  1.0 -0.0592285201
O  O23  1  0.51800000  0.70880000  0.42910000  1.0 -0.791862461
O  O24  1  0.73200000  0.78800000  0.53720000  1.0 -0.7969509394
O  O25  1  0.63990000  0.63870000  0.32310000  1.0 -0.7271696658
O  O26  1  0.73100000  0.78510000  0.28880000  1.0 -0.8131069869
O  O27  1  0.33100000  0.73700000  0.71530000  1.0 -0.8447721929
O  O28  1  0.31790000  0.70440000  0.94430000  1.0 -0.8484291465
O  O29  1  0.30780000  0.84540000  0.68130000  1.0 0.9092918306
O  O30  1  0.48700000  0.58630000  0.46900000  1.0 -0.5602398918
O  O31  1  0.08600000  0.77350000  0.79800000  1.0 -0.5602398918
O  O32  1  0.96700000  0.83500000  0.47400000  1.0 -0.5479264886
O  O33  1  0.53400000  0.88940000  0.55000000  1.0 -0.0320967357
O  O34  1  0.51800000  0.79120000  0.92910000  1.0 -0.791862461
O  O35  1  0.73200000  0.71200000  0.03720000  1.0 -0.7969509394
O  O36  1  0.63990000  0.86130000  0.82310000  1.0 -0.7271696658
O  O37  1  0.73100000  0.71490000  0.78880000  1.0 -0.8154348463
O  O38  1  0.33100000  0.76300000  0.21530000  1.0 -0.8484291465
O  O39  1  0.31790000  0.79560000  0.44430000  1.0 -0.8484291465
O  O40  1  0.30780000  0.65460000  0.18130000  1.0 0.9194066792
O  O41  1  0.48700000  0.91370000  0.96900000  1.0 -0.5602398918
O  O42  1  0.08600000  0.72650000  0.29800000  1.0 -0.5602398918
O  O43  1  0.96700000  0.66500000  0.97400000  1.0 -0.5479264886
O  O44  1  0.53400000  0.61060000  0.05000000  1.0 -0.0494253694
O  O45  1  0.14400000  0.99810000  0.72700000  1.0 -0.4642896831
O  O46  1  0.83700000  0.96660000  0.68310000  1.0 -0.4424871577
O  O47  1  0.06300000  0.88510000  0.71800000  1.0 -0.4424871577
O  O48  1  0.05100000  0.95460000  0.91640000  1.0 -0.4189515889
O  O49  1  0.85600000  0.49810000  0.77300000  1.0 -0.4642896831
O  O50  1  0.16300000  0.46660000  0.81690000  1.0 -0.447374943
O  O51  1  0.93700000  0.38510000  0.78200000  1.0 -0.4424871577
O  O52  1  0.94900000  0.45460000  0.58360000  1.0 -0.4189515889
O  O53  1  0.85600000  0.00190000  0.27300000  1.0 -0.4693309695
O  O54  1  0.16300000  0.03340000  0.31690000  1.0 -0.4424871577
O  O55  1  0.93700000  0.11490000  0.28200000  1.0 -0.4424871577
O  O56  1  0.94900000  0.04540000  0.08360000  1.0 -0.4189515889
O  O57  1  0.14400000  0.50190000  0.22700000  1.0 -0.4693309695
O  O58  1  0.83700000  0.53340000  0.18310000  1.0 -0.4424871577
O  O59  1  0.06300000  0.61490000  0.21800000  1.0 -0.4424871577
O  O60  1  0.05100000  0.54540000  0.41640000  1.0 -0.4189515889
