# DDEC6 charges by PACMAN v1.1 (https://github.com/mtap-research/PACMAN-charge/)
data_PAPFEV_ion_pacman
_symmetry_space_group_name_H-M   'P 1'
_cell_length_a   8.50860000
_cell_length_b   19.48940000
_cell_length_c   10.61230000
_cell_angle_alpha   90.00000000
_cell_angle_beta   109.56700000
_cell_angle_gamma   90.00000000
_symmetry_Int_Tables_number   1
_chemical_formula_structural   GdP3C3SNO15
_chemical_formula_sum   'Gd4 P12 C12 S4 N4 O60'
_cell_volume   1658.18305586
_cell_formula_units_Z   4
loop_
 _symmetry_equiv_pos_site_id
 _symmetry_equiv_pos_as_xyz
  1  'x, y, z'
loop_
 _atom_site_type_symbol
 _atom_site_label
 _atom_site_symmetry_multiplicity
 _atom_site_fract_x
 _atom_site_fract_y
 _atom_site_fract_z
 _atom_site_occupancy
 _atom_site_charge
Gd  Gd1  1  0.64126000  0.29904000  0.46187000  1.0 2.2038096791
Gd  Gd2  1  0.64126000  0.20096000  0.96187000  1.0 2.2038096791
Gd  Gd3  1  0.35874000  0.79904000  0.03813000  1.0 2.2038096791
Gd  Gd4  1  0.35874000  0.70096000  0.53813000  1.0 2.2038096791
P  P1  1  0.34440000  0.22340000  0.15940000  1.0 1.3042766457
P  P2  1  0.93380000  0.28280000  0.81560000  1.0 1.2788426285
P  P3  1  0.57020000  0.37970000  0.11840000  1.0 1.2375205761
P  P4  1  0.34440000  0.27660000  0.65940000  1.0 1.3050572282
P  P5  1  0.93380000  0.21720000  0.31560000  1.0 1.2788426285
P  P6  1  0.57020000  0.12030000  0.61840000  1.0 1.2375205761
P  P7  1  0.65560000  0.72340000  0.34060000  1.0 1.3042766457
P  P8  1  0.06620000  0.78280000  0.68440000  1.0 1.2788426285
P  P9  1  0.42980000  0.87970000  0.38160000  1.0 1.2375205761
P  P10  1  0.65560000  0.77660000  0.84060000  1.0 1.3050572282
P  P11  1  0.06620000  0.71720000  0.18440000  1.0 1.2788426285
P  P12  1  0.42980000  0.62030000  0.88160000  1.0 1.2375205761
C  C1  1  0.20410000  0.30150000  0.10150000  1.0 0.1026580575
C  C2  1  0.07660000  0.35410000  0.89180000  1.0 0.080515225
C  C3  1  0.35380000  0.39530000  0.00900000  1.0 0.1060014
C  C4  1  0.20410000  0.19850000  0.60150000  1.0 0.1026580575
C  C5  1  0.07660000  0.14590000  0.39180000  1.0 0.080515225
C  C6  1  0.35380000  0.10470000  0.50900000  1.0 0.1026580575
C  C7  1  0.79590000  0.80150000  0.39850000  1.0 0.1026580575
C  C8  1  0.92340000  0.85410000  0.60820000  1.0 0.080515225
C  C9  1  0.64620000  0.89530000  0.49100000  1.0 0.1060014
C  C10  1  0.79590000  0.69850000  0.89850000  1.0 0.1026580575
C  C11  1  0.92340000  0.64590000  0.10820000  1.0 0.080515225
C  C12  1  0.64620000  0.60470000  0.99100000  1.0 0.1026580575
S  S1  1  0.93170000  0.53660000  0.74090000  1.0 1.2630848294
S  S2  1  0.06830000  0.03660000  0.75910000  1.0 1.2630848294
S  S3  1  0.06830000  0.46340000  0.25910000  1.0 1.2630848294
S  S4  1  0.93170000  0.96340000  0.24090000  1.0 1.2630848294
N  N1  1  0.24670000  0.33290000  0.97860000  1.0 0.1669368451
N  N2  1  0.24670000  0.16710000  0.47860000  1.0 0.1669368451
N  N3  1  0.75330000  0.83290000  0.52140000  1.0 0.1669368451
N  N4  1  0.75330000  0.66710000  0.02140000  1.0 0.1669368451
O  O1  1  0.42400000  0.23180000  0.31460000  1.0 -0.7755018616
O  O2  1  0.45550000  0.21580000  0.07670000  1.0 -0.8277299399
O  O3  1  0.20970000  0.16580000  0.13740000  1.0 -0.5002422178
O  O4  1  0.05570000  0.23130000  0.79540000  1.0 -0.4825373957
O  O5  1  0.81850000  0.31030000  0.68390000  1.0 -0.8117405618
O  O6  1  0.84270000  0.25590000  0.90740000  1.0 -0.8159244502
O  O7  1  0.56520000  0.34310000  0.24020000  1.0 -0.8117405618
O  O8  1  0.65430000  0.33690000  0.03910000  1.0 -0.6417694533
O  O9  1  0.65420000  0.45140000  0.14240000  1.0 -0.4584323051
O  O10  1  0.84330000  0.39210000  0.46990000  1.0 0.1563428944
O  O11  1  0.49160000  0.40980000  0.46240000  1.0 -0.107792824
O  O12  1  0.42400000  0.26820000  0.81460000  1.0 -0.7755018616
O  O13  1  0.45550000  0.28420000  0.57670000  1.0 -0.8277299399
O  O14  1  0.20970000  0.33420000  0.63740000  1.0 -0.5002422178
O  O15  1  0.05570000  0.26870000  0.29540000  1.0 -0.4825373957
O  O16  1  0.81850000  0.18970000  0.18390000  1.0 -0.8117405618
O  O17  1  0.84270000  0.24410000  0.40740000  1.0 -0.8159244502
O  O18  1  0.56520000  0.15690000  0.74020000  1.0 -0.8117405618
O  O19  1  0.65430000  0.16310000  0.53910000  1.0 -0.6417694533
O  O20  1  0.65420000  0.04860000  0.64240000  1.0 -0.4584323051
O  O21  1  0.84330000  0.10790000  0.96990000  1.0 0.151636683
O  O22  1  0.49160000  0.09020000  0.96240000  1.0 -0.1047967965
O  O23  1  0.57600000  0.73180000  0.18540000  1.0 -0.7755018616
O  O24  1  0.54450000  0.71580000  0.42330000  1.0 -0.8277299399
O  O25  1  0.79030000  0.66580000  0.36260000  1.0 -0.5002422178
O  O26  1  0.94430000  0.73130000  0.70460000  1.0 -0.4825373957
O  O27  1  0.18150000  0.81030000  0.81610000  1.0 -0.8117405618
O  O28  1  0.15730000  0.75590000  0.59260000  1.0 -0.8117405618
O  O29  1  0.43480000  0.84310000  0.25980000  1.0 -0.8159244502
O  O30  1  0.34570000  0.83690000  0.46090000  1.0 -0.6417694533
O  O31  1  0.34580000  0.95140000  0.35760000  1.0 -0.4584323051
O  O32  1  0.15670000  0.89210000  0.03010000  1.0 0.1563428944
O  O33  1  0.50840000  0.90980000  0.03760000  1.0 -0.107792824
O  O34  1  0.57600000  0.76820000  0.68540000  1.0 -0.7755018616
O  O35  1  0.54450000  0.78420000  0.92330000  1.0 -0.8277299399
O  O36  1  0.79030000  0.83420000  0.86260000  1.0 -0.5002422178
O  O37  1  0.94430000  0.76870000  0.20460000  1.0 -0.4825373957
O  O38  1  0.18150000  0.68970000  0.31610000  1.0 -0.8117405618
O  O39  1  0.15730000  0.74410000  0.09260000  1.0 -0.8159244502
O  O40  1  0.43480000  0.65690000  0.75980000  1.0 -0.8117405618
O  O41  1  0.34570000  0.66310000  0.96090000  1.0 -0.6417694533
O  O42  1  0.34580000  0.54860000  0.85760000  1.0 -0.4584323051
O  O43  1  0.15670000  0.60790000  0.53010000  1.0 0.151636683
O  O44  1  0.50840000  0.59020000  0.53760000  1.0 -0.107792824
O  O45  1  0.97060000  0.47880000  0.66470000  1.0 -0.436981819
O  O46  1  0.94590000  0.60150000  0.66770000  1.0 -0.3839049802
O  O47  1  0.07740000  0.54160000  0.88360000  1.0 -0.3839049802
O  O48  1  0.77940000  0.52670000  0.77180000  1.0 -0.4584323051
O  O49  1  0.02940000  0.97880000  0.83530000  1.0 -0.436981819
O  O50  1  0.05410000  0.10150000  0.83230000  1.0 -0.3839049802
O  O51  1  0.92260000  0.04160000  0.61640000  1.0 -0.3839049802
O  O52  1  0.22060000  0.02670000  0.72820000  1.0 -0.4584323051
O  O53  1  0.02940000  0.52120000  0.33530000  1.0 -0.436981819
O  O54  1  0.05410000  0.39850000  0.33230000  1.0 -0.3839049802
O  O55  1  0.92260000  0.45840000  0.11640000  1.0 -0.3839049802
O  O56  1  0.22060000  0.47330000  0.22820000  1.0 -0.4584323051
O  O57  1  0.97060000  0.02120000  0.16470000  1.0 -0.436981819
O  O58  1  0.94590000  0.89850000  0.16770000  1.0 -0.3857755656
O  O59  1  0.07740000  0.95840000  0.38360000  1.0 -0.3839049802
O  O60  1  0.77940000  0.97330000  0.27180000  1.0 -0.4584323051
