# DDEC6 charges by PACMAN v1.1 (https://github.com/mtap-research/PACMAN-charge/)
data_PAPPIH_ASR_pacman
_symmetry_space_group_name_H-M   'P 1'
_cell_length_a   13.07850000
_cell_length_b   13.07850000
_cell_length_c   20.08300000
_cell_angle_alpha   90.00000000
_cell_angle_beta   90.00000000
_cell_angle_gamma   120.00000000
_symmetry_Int_Tables_number   1
_chemical_formula_structural   CuH40C34Br2(N2O)4
_chemical_formula_sum   'Cu3 H120 C102 Br6 N24 O12'
_cell_volume   2974.91864366
_cell_formula_units_Z   3
loop_
 _symmetry_equiv_pos_site_id
 _symmetry_equiv_pos_as_xyz
  1  'x, y, z'
loop_
 _atom_site_type_symbol
 _atom_site_label
 _atom_site_symmetry_multiplicity
 _atom_site_fract_x
 _atom_site_fract_y
 _atom_site_fract_z
 _atom_site_occupancy
 _atom_site_charge
Cu  Cu1  1  0.61537000  0.61537000  0.00000000  1.0 0.578409042
Cu  Cu2  1  0.38463000  0.00000000  0.66666667  1.0 0.578409042
Cu  Cu3  1  0.00000000  0.38463000  0.33333333  1.0 0.578409042
H  H1  1  0.56590000  0.73780000  0.10670000  1.0 0.1106175381
H  H2  1  0.26220000  0.82810000  0.77337000  1.0 0.1106175381
H  H3  1  0.17190000  0.43410000  0.44003000  1.0 0.1106175381
H  H4  1  0.73780000  0.56590000  0.89330000  1.0 0.1106175381
H  H5  1  0.82810000  0.26220000  0.22663000  1.0 0.1106175381
H  H6  1  0.43410000  0.17190000  0.55997000  1.0 0.1106175381
H  H7  1  0.84660000  0.90340000  0.22650000  1.0 0.1243680627
H  H8  1  0.09660000  0.94320000  0.89317000  1.0 0.1243680627
H  H9  1  0.05680000  0.15340000  0.55983000  1.0 0.1243680627
H  H10  1  0.90340000  0.84660000  0.77350000  1.0 0.1243680627
H  H11  1  0.94320000  0.09660000  0.10683000  1.0 0.1243680627
H  H12  1  0.15340000  0.05680000  0.44017000  1.0 0.1243680627
H  H13  1  0.95540000  0.87130000  0.14700000  1.0 0.1292087953
H  H14  1  0.12870000  0.08410000  0.81367000  1.0 0.1292087953
H  H15  1  0.91590000  0.04460000  0.48033000  1.0 0.1292087953
H  H16  1  0.87130000  0.95540000  0.85300000  1.0 0.1292087953
H  H17  1  0.08410000  0.12870000  0.18633000  1.0 0.1292087953
H  H18  1  0.04460000  0.91590000  0.51967000  1.0 0.1292087953
H  H19  1  0.86500000  0.76480000  0.05200000  1.0 0.1106175381
H  H20  1  0.23520000  0.10020000  0.71867000  1.0 0.1106175381
H  H21  1  0.89980000  0.13500000  0.38533000  1.0 0.1106175381
H  H22  1  0.76480000  0.86500000  0.94800000  1.0 0.1106175381
H  H23  1  0.10020000  0.23520000  0.28133000  1.0 0.1106175381
H  H24  1  0.13500000  0.89980000  0.61467000  1.0 0.1106175381
H  H25  1  0.54370000  0.80370000  0.20580000  1.0 0.2997365058
H  H26  1  0.19630000  0.74000000  0.87247000  1.0 0.2997365058
H  H27  1  0.26000000  0.45630000  0.53913000  1.0 0.2997365058
H  H28  1  0.80370000  0.54370000  0.79420000  1.0 0.2997365058
H  H29  1  0.74000000  0.19630000  0.12753000  1.0 0.2997365058
H  H30  1  0.45630000  0.26000000  0.46087000  1.0 0.2997365058
H  H31  1  0.47370000  0.82750000  0.30790000  1.0 0.1029847883
H  H32  1  0.17250000  0.64620000  0.97457000  1.0 0.1029847883
H  H33  1  0.35380000  0.52630000  0.64123000  1.0 0.1029847883
H  H34  1  0.82750000  0.47370000  0.69210000  1.0 0.1029847883
H  H35  1  0.64620000  0.17250000  0.02543000  1.0 0.1029847883
H  H36  1  0.52630000  0.35380000  0.35877000  1.0 0.1029847883
H  H37  1  0.56650000  0.06100000  0.25880000  1.0 0.1106175381
H  H38  1  0.93900000  0.50550000  0.92547000  1.0 0.1106175381
H  H39  1  0.49450000  0.43350000  0.59213000  1.0 0.1106175381
H  H40  1  0.06100000  0.56650000  0.74120000  1.0 0.1106175381
H  H41  1  0.50550000  0.93900000  0.07453000  1.0 0.1106175381
H  H42  1  0.43350000  0.49450000  0.40787000  1.0 0.1106175381
H  H43  1  0.47930000  0.94740000  0.21910000  1.0 0.1029847883
H  H44  1  0.05260000  0.53190000  0.88577000  1.0 0.1029847883
H  H45  1  0.46810000  0.52070000  0.55243000  1.0 0.1029847883
H  H46  1  0.94740000  0.47930000  0.78090000  1.0 0.1029847883
H  H47  1  0.53190000  0.05260000  0.11423000  1.0 0.1029847883
H  H48  1  0.52070000  0.46810000  0.44757000  1.0 0.1029847883
H  H49  1  0.41120000  0.00600000  0.33960000  1.0 0.0714577149
H  H50  1  0.99400000  0.40520000  0.00627000  1.0 0.0714577149
H  H51  1  0.59480000  0.58880000  0.67293000  1.0 0.0714577149
H  H52  1  0.00600000  0.41120000  0.66040000  1.0 0.0714577149
H  H53  1  0.40520000  0.99400000  0.99373000  1.0 0.0714577149
H  H54  1  0.58880000  0.59480000  0.32707000  1.0 0.0714577149
H  H55  1  0.37220000  0.07260000  0.21310000  1.0 0.1292087953
H  H56  1  0.92740000  0.29960000  0.87977000  1.0 0.1292087953
H  H57  1  0.70040000  0.62780000  0.54643000  1.0 0.1292087953
H  H58  1  0.07260000  0.37220000  0.78690000  1.0 0.1292087953
H  H59  1  0.29960000  0.92740000  0.12023000  1.0 0.1292087953
H  H60  1  0.62780000  0.70040000  0.45357000  1.0 0.1292087953
H  H61  1  0.45560000  0.16060000  0.26760000  1.0 0.1292087953
H  H62  1  0.83940000  0.29500000  0.93427000  1.0 0.1292087953
H  H63  1  0.70500000  0.54440000  0.60093000  1.0 0.1292087953
H  H64  1  0.16060000  0.45560000  0.73240000  1.0 0.1292087953
H  H65  1  0.29500000  0.83940000  0.06573000  1.0 0.1292087953
H  H66  1  0.54440000  0.70500000  0.39907000  1.0 0.1292087953
H  H67  1  0.31880000  0.08930000  0.27940000  1.0 0.1243680627
H  H68  1  0.91070000  0.22950000  0.94607000  1.0 0.1243680627
H  H69  1  0.77050000  0.68120000  0.61273000  1.0 0.1243680627
H  H70  1  0.08930000  0.31880000  0.72060000  1.0 0.1243680627
H  H71  1  0.22950000  0.91070000  0.05393000  1.0 0.1243680627
H  H72  1  0.68120000  0.77050000  0.38727000  1.0 0.1243680627
H  H73  1  0.21970000  0.87650000  0.30670000  1.0 0.1243680627
H  H74  1  0.12350000  0.34320000  0.97337000  1.0 0.1243680627
H  H75  1  0.65680000  0.78030000  0.64003000  1.0 0.1243680627
H  H76  1  0.87650000  0.21970000  0.69330000  1.0 0.1243680627
H  H77  1  0.34320000  0.12350000  0.02663000  1.0 0.1243680627
H  H78  1  0.78030000  0.65680000  0.35997000  1.0 0.1243680627
H  H79  1  0.29180000  0.81030000  0.30580000  1.0 0.1243680627
H  H80  1  0.18970000  0.48150000  0.97247000  1.0 0.1243680627
H  H81  1  0.51850000  0.70820000  0.63913000  1.0 0.1243680627
H  H82  1  0.81030000  0.29180000  0.69420000  1.0 0.1243680627
H  H83  1  0.48150000  0.18970000  0.02753000  1.0 0.1243680627
H  H84  1  0.70820000  0.51850000  0.36087000  1.0 0.1243680627
H  H85  1  0.26420000  0.85340000  0.23890000  1.0 0.1292087953
H  H86  1  0.14660000  0.41080000  0.90557000  1.0 0.1292087953
H  H87  1  0.58920000  0.73580000  0.57223000  1.0 0.1292087953
H  H88  1  0.85340000  0.26420000  0.76110000  1.0 0.1292087953
H  H89  1  0.41080000  0.14660000  0.09443000  1.0 0.1292087953
H  H90  1  0.73580000  0.58920000  0.42777000  1.0 0.1292087953
H  H91  1  0.63900000  0.02250000  0.37640000  1.0 0.2644314627
H  H92  1  0.97750000  0.61650000  0.04307000  1.0 0.2644314627
H  H93  1  0.38350000  0.36100000  0.70973000  1.0 0.2644314627
H  H94  1  0.02250000  0.63900000  0.62360000  1.0 0.2644314627
H  H95  1  0.61650000  0.97750000  0.95693000  1.0 0.2644314627
H  H96  1  0.36100000  0.38350000  0.29027000  1.0 0.2644314627
H  H97  1  0.39520000  0.90470000  0.53180000  1.0 0.1106175381
H  H98  1  0.09530000  0.49050000  0.19847000  1.0 0.1106175381
H  H99  1  0.50950000  0.60480000  0.86513000  1.0 0.1106175381
H  H100  1  0.90470000  0.39520000  0.46820000  1.0 0.1106175381
H  H101  1  0.49050000  0.09530000  0.80153000  1.0 0.1106175381
H  H102  1  0.60480000  0.50950000  0.13487000  1.0 0.1106175381
H  H103  1  0.64420000  0.14050000  0.64500000  1.0 0.1106175381
H  H104  1  0.85950000  0.50370000  0.31167000  1.0 0.1106175381
H  H105  1  0.49630000  0.35580000  0.97833000  1.0 0.1106175381
H  H106  1  0.14050000  0.64420000  0.35500000  1.0 0.1106175381
H  H107  1  0.50370000  0.85950000  0.68833000  1.0 0.1106175381
H  H108  1  0.35580000  0.49630000  0.02167000  1.0 0.1106175381
H  H109  1  0.78530000  0.17200000  0.56680000  1.0 0.1292087953
H  H110  1  0.82800000  0.61330000  0.23347000  1.0 0.1292087953
H  H111  1  0.38670000  0.21470000  0.90013000  1.0 0.1292087953
H  H112  1  0.17200000  0.78530000  0.43320000  1.0 0.1292087953
H  H113  1  0.61330000  0.82800000  0.76653000  1.0 0.1292087953
H  H114  1  0.21470000  0.38670000  0.09987000  1.0 0.1292087953
H  H115  1  0.72760000  0.07050000  0.46660000  1.0 0.1106175381
H  H116  1  0.92950000  0.65710000  0.13327000  1.0 0.1106175381
H  H117  1  0.34290000  0.27240000  0.79993000  1.0 0.1106175381
H  H118  1  0.07050000  0.72760000  0.53340000  1.0 0.1106175381
H  H119  1  0.65710000  0.92950000  0.86673000  1.0 0.1106175381
H  H120  1  0.27240000  0.34290000  0.20007000  1.0 0.1106175381
C  C1  1  0.64460000  0.76270000  0.11597000  1.0 -0.0407530084
C  C2  1  0.23730000  0.88190000  0.78264000  1.0 -0.0407530084
C  C3  1  0.11810000  0.35540000  0.44930000  1.0 -0.0407530084
C  C4  1  0.76270000  0.64460000  0.88403000  1.0 -0.0407530084
C  C5  1  0.88190000  0.23730000  0.21736000  1.0 -0.0407530084
C  C6  1  0.35540000  0.11810000  0.55070000  1.0 -0.0407530084
C  C7  1  0.69360000  0.82520000  0.17507000  1.0 0.2001993468
C  C8  1  0.17480000  0.86840000  0.84174000  1.0 0.2001993468
C  C9  1  0.13160000  0.30640000  0.50840000  1.0 0.2001993468
C  C10  1  0.82520000  0.69360000  0.82493000  1.0 0.2001993468
C  C11  1  0.86840000  0.17480000  0.15826000  1.0 0.2001993468
C  C12  1  0.30640000  0.13160000  0.49160000  1.0 0.2001993468
C  C13  1  0.81120000  0.86380000  0.18724000  1.0 -0.1372552975
C  C14  1  0.13620000  0.94740000  0.85391000  1.0 -0.1372552975
C  C15  1  0.05260000  0.18880000  0.52057000  1.0 -0.1372552975
C  C16  1  0.86380000  0.81120000  0.81276000  1.0 -0.1372552975
C  C17  1  0.94740000  0.13620000  0.14609000  1.0 -0.1372552975
C  C18  1  0.18880000  0.05260000  0.47943000  1.0 -0.1372552975
C  C19  1  0.87530000  0.84260000  0.14033000  1.0 -0.1198574344
C  C20  1  0.15740000  0.03270000  0.80700000  1.0 -0.1198574344
C  C21  1  0.96730000  0.12470000  0.47366000  1.0 -0.1198574344
C  C22  1  0.84260000  0.87530000  0.85967000  1.0 -0.1198574344
C  C23  1  0.03270000  0.15740000  0.19300000  1.0 -0.1198574344
C  C24  1  0.12470000  0.96730000  0.52634000  1.0 -0.1198574344
C  C25  1  0.82080000  0.77880000  0.08318000  1.0 0.0558188432
C  C26  1  0.22120000  0.04200000  0.74985000  1.0 0.0558188432
C  C27  1  0.95800000  0.17920000  0.41651000  1.0 0.0558188432
C  C28  1  0.77880000  0.82080000  0.91682000  1.0 0.0558188432
C  C29  1  0.04200000  0.22120000  0.25015000  1.0 0.0558188432
C  C30  1  0.17920000  0.95800000  0.58349000  1.0 0.0558188432
C  C31  1  0.64550000  0.91000000  0.27229000  1.0 0.4601747255
C  C32  1  0.09000000  0.73550000  0.93896000  1.0 0.4601747255
C  C33  1  0.26450000  0.35450000  0.60562000  1.0 0.4601747255
C  C34  1  0.91000000  0.64550000  0.72771000  1.0 0.4601747255
C  C35  1  0.73550000  0.09000000  0.06104000  1.0 0.4601747255
C  C36  1  0.35450000  0.26450000  0.39438000  1.0 0.4601747255
C  C37  1  0.53910000  0.90910000  0.30481000  1.0 -0.0098088907
C  C38  1  0.09090000  0.63000000  0.97148000  1.0 -0.0098088907
C  C39  1  0.37000000  0.46090000  0.63814000  1.0 -0.0098088907
C  C40  1  0.90910000  0.53910000  0.69519000  1.0 -0.0098088907
C  C41  1  0.63000000  0.09090000  0.02852000  1.0 -0.0098088907
C  C42  1  0.46090000  0.37000000  0.36186000  1.0 -0.0098088907
C  C43  1  0.50020000  0.98150000  0.26332000  1.0 -0.2858027905
C  C44  1  0.01850000  0.51870000  0.92999000  1.0 -0.2858027905
C  C45  1  0.48130000  0.49980000  0.59665000  1.0 -0.2845272361
C  C46  1  0.98150000  0.50020000  0.73668000  1.0 -0.2858027905
C  C47  1  0.51870000  0.01850000  0.07001000  1.0 -0.2858027905
C  C48  1  0.49980000  0.48130000  0.40335000  1.0 -0.2845272361
C  C49  1  0.39620000  0.98830000  0.29195000  1.0 0.1466650527
C  C50  1  0.01170000  0.40790000  0.95862000  1.0 0.1466650527
C  C51  1  0.59210000  0.60380000  0.62528000  1.0 0.1466650527
C  C52  1  0.98830000  0.39620000  0.70805000  1.0 0.1466650527
C  C53  1  0.40790000  0.01170000  0.04138000  1.0 0.1466650527
C  C54  1  0.60380000  0.59210000  0.37472000  1.0 0.1466650527
C  C55  1  0.38460000  0.08670000  0.26010000  1.0 -0.4486175939
C  C56  1  0.91330000  0.29790000  0.92677000  1.0 -0.4486175939
C  C57  1  0.70210000  0.61540000  0.59343000  1.0 -0.4486175939
C  C58  1  0.08670000  0.38460000  0.73990000  1.0 -0.4486175939
C  C59  1  0.29790000  0.91330000  0.07323000  1.0 -0.4486175939
C  C60  1  0.61540000  0.70210000  0.40657000  1.0 -0.4486175939
C  C61  1  0.28260000  0.87140000  0.28520000  1.0 -0.442866975
C  C62  1  0.12860000  0.41120000  0.95187000  1.0 -0.442866975
C  C63  1  0.58880000  0.71740000  0.61853000  1.0 -0.442866975
C  C64  1  0.87140000  0.28260000  0.71480000  1.0 -0.442866975
C  C65  1  0.41120000  0.12860000  0.04813000  1.0 -0.442866975
C  C66  1  0.71740000  0.58880000  0.38147000  1.0 -0.442866975
C  C67  1  0.50700000  0.90730000  0.42528000  1.0 0.4480410925
C  C68  1  0.09270000  0.59970000  0.09195000  1.0 0.4480410925
C  C69  1  0.40030000  0.49300000  0.75861000  1.0 0.4480410925
C  C70  1  0.90730000  0.50700000  0.57472000  1.0 0.4480410925
C  C71  1  0.59970000  0.09270000  0.90805000  1.0 0.4480410925
C  C72  1  0.49300000  0.40030000  0.24139000  1.0 0.4480410925
C  C73  1  0.55440000  0.97690000  0.48873000  1.0 -0.0473788662
C  C74  1  0.02310000  0.57750000  0.15540000  1.0 -0.0473788662
C  C75  1  0.42250000  0.44560000  0.82206000  1.0 -0.0473788662
C  C76  1  0.97690000  0.55440000  0.51127000  1.0 -0.0473788662
C  C77  1  0.57750000  0.02310000  0.84460000  1.0 -0.0473788662
C  C78  1  0.44560000  0.42250000  0.17794000  1.0 -0.0473788662
C  C79  1  0.47440000  0.95990000  0.53845000  1.0 0.045989014
C  C80  1  0.04010000  0.51450000  0.20512000  1.0 0.045989014
C  C81  1  0.48550000  0.52560000  0.87178000  1.0 0.045989014
C  C82  1  0.95990000  0.47440000  0.46155000  1.0 0.045989014
C  C83  1  0.51450000  0.04010000  0.79488000  1.0 0.045989014
C  C84  1  0.52560000  0.48550000  0.12822000  1.0 0.045989014
C  C85  1  0.62120000  0.09820000  0.60538000  1.0 0.0781045591
C  C86  1  0.90180000  0.52300000  0.27205000  1.0 0.0781045591
C  C87  1  0.47700000  0.37880000  0.93871000  1.0 0.0781045591
C  C88  1  0.09820000  0.62120000  0.39462000  1.0 0.0781045591
C  C89  1  0.52300000  0.90180000  0.72795000  1.0 0.0781045591
C  C90  1  0.37880000  0.47700000  0.06129000  1.0 0.0781045591
C  C91  1  0.70620000  0.11830000  0.55849000  1.0 -0.1090065329
C  C92  1  0.88170000  0.58790000  0.22516000  1.0 -0.1090065329
C  C93  1  0.41210000  0.29380000  0.89182000  1.0 -0.1090065329
C  C94  1  0.11830000  0.70620000  0.44151000  1.0 -0.1090065329
C  C95  1  0.58790000  0.88170000  0.77484000  1.0 -0.1090065329
C  C96  1  0.29380000  0.41210000  0.10818000  1.0 -0.1090065329
C  C97  1  0.67200000  0.05740000  0.49925000  1.0 -0.0696809902
C  C98  1  0.94260000  0.61460000  0.16592000  1.0 -0.0696809902
C  C99  1  0.38540000  0.32800000  0.83258000  1.0 -0.0696809902
C  C100  1  0.05740000  0.67200000  0.50075000  1.0 -0.0696809902
C  C101  1  0.61460000  0.94260000  0.83408000  1.0 -0.0696809902
C  C102  1  0.32800000  0.38540000  0.16742000  1.0 -0.0696809902
Br  Br1  1  0.48710000  0.74136000  0.97281000  1.0 -0.6331194281
Br  Br2  1  0.25864000  0.74574000  0.63948000  1.0 -0.6331194281
Br  Br3  1  0.25426000  0.51290000  0.30614000  1.0 -0.6331194281
Br  Br4  1  0.74136000  0.48710000  0.02719000  1.0 -0.6331194281
Br  Br5  1  0.74574000  0.25864000  0.36052000  1.0 -0.6331194281
Br  Br6  1  0.51290000  0.25426000  0.69386000  1.0 -0.6331194281
N  N1  1  0.70593000  0.73723000  0.07237000  1.0 -0.1813596775
N  N2  1  0.26277000  0.96870000  0.73904000  1.0 -0.1813596775
N  N3  1  0.03130000  0.29407000  0.40570000  1.0 -0.1813596775
N  N4  1  0.73723000  0.70593000  0.92763000  1.0 -0.1813596775
N  N5  1  0.96870000  0.26277000  0.26096000  1.0 -0.1813596775
N  N6  1  0.29407000  0.03130000  0.59430000  1.0 -0.1813596775
N  N7  1  0.61710000  0.84140000  0.21659000  1.0 -0.3657966643
N  N8  1  0.15860000  0.77570000  0.88326000  1.0 -0.3657966643
N  N9  1  0.22430000  0.38290000  0.54992000  1.0 -0.3657966643
N  N10  1  0.84140000  0.61710000  0.78341000  1.0 -0.3657966643
N  N11  1  0.77570000  0.15860000  0.11674000  1.0 -0.3596580601
N  N12  1  0.38290000  0.22430000  0.45008000  1.0 -0.3596580601
N  N13  1  0.57310000  0.95790000  0.37141000  1.0 -0.3596580601
N  N14  1  0.04210000  0.61520000  0.03808000  1.0 -0.3596580601
N  N15  1  0.38480000  0.42690000  0.70474000  1.0 -0.3596580601
N  N16  1  0.95790000  0.57310000  0.62859000  1.0 -0.3596580601
N  N17  1  0.61520000  0.04210000  0.96192000  1.0 -0.3596580601
N  N18  1  0.42690000  0.38480000  0.29526000  1.0 -0.3596580601
N  N19  1  0.50660000  0.02004000  0.59603000  1.0 -0.2102743327
N  N20  1  0.97996000  0.48656000  0.26270000  1.0 -0.2102743327
N  N21  1  0.51344000  0.49340000  0.92936000  1.0 -0.2102743327
N  N22  1  0.02004000  0.50660000  0.40397000  1.0 -0.2102743327
N  N23  1  0.48656000  0.97996000  0.73730000  1.0 -0.2102743327
N  N24  1  0.49340000  0.51344000  0.07064000  1.0 -0.2102743327
O  O1  1  0.74466000  0.96760000  0.29332000  1.0 -0.4486175939
O  O2  1  0.03240000  0.77706000  0.95999000  1.0 -0.4486175939
O  O3  1  0.22294000  0.25534000  0.62665000  1.0 -0.4486175939
O  O4  1  0.96760000  0.74466000  0.70668000  1.0 -0.4486175939
O  O5  1  0.77706000  0.03240000  0.04001000  1.0 -0.4486175939
O  O6  1  0.25534000  0.22294000  0.37335000  1.0 -0.4486175939
O  O7  1  0.41420000  0.81322000  0.42422000  1.0 -0.4656311213
O  O8  1  0.18678000  0.60098000  0.09089000  1.0 -0.4656311213
O  O9  1  0.39902000  0.58580000  0.75755000  1.0 -0.4656311213
O  O10  1  0.81322000  0.41420000  0.57578000  1.0 -0.4656311213
O  O11  1  0.60098000  0.18678000  0.90911000  1.0 -0.4656311213
O  O12  1  0.58580000  0.39902000  0.24245000  1.0 -0.4656311213
