# DDEC6 charges by PACMAN v1.1 (https://github.com/mtap-research/PACMAN-charge/)
data_PAQMEB_ion_pacman
_symmetry_space_group_name_H-M   'P 1'
_cell_length_a   16.24690000
_cell_length_b   11.87750000
_cell_length_c   21.20720000
_cell_angle_alpha   90.00000000
_cell_angle_beta   124.33700000
_cell_angle_gamma   90.00000000
_symmetry_Int_Tables_number   1
_chemical_formula_structural   Mn3Mo12P8H40C8(NO8)8
_chemical_formula_sum   'Mn6 Mo24 P16 H80 C16 N16 O128'
_cell_volume   3379.24093850
_cell_formula_units_Z   2
loop_
 _symmetry_equiv_pos_site_id
 _symmetry_equiv_pos_as_xyz
  1  'x, y, z'
loop_
 _atom_site_type_symbol
 _atom_site_label
 _atom_site_symmetry_multiplicity
 _atom_site_fract_x
 _atom_site_fract_y
 _atom_site_fract_z
 _atom_site_occupancy
 _atom_site_charge
Mn  Mn1  1  0.50000000  0.00000000  0.00000000  1.0 1.3740222963
Mn  Mn2  1  0.50000000  0.50000000  0.50000000  1.0 1.3740222963
Mn  Mn3  1  0.01005000  0.00304000  0.13454000  1.0 1.3087114307
Mn  Mn4  1  0.98995000  0.50304000  0.36546000  1.0 1.3087114307
Mn  Mn5  1  0.98995000  0.99696000  0.86546000  1.0 1.3087114307
Mn  Mn6  1  0.01005000  0.49696000  0.63454000  1.0 1.3087114307
Mo  Mo1  1  0.65083000  0.26730000  0.03315000  1.0 1.9991101386
Mo  Mo2  1  0.34917000  0.76730000  0.46685000  1.0 1.9991101386
Mo  Mo3  1  0.34917000  0.73270000  0.96685000  1.0 1.9991101386
Mo  Mo4  1  0.65083000  0.23270000  0.53315000  1.0 1.9991101386
Mo  Mo5  1  0.67406000  0.14621000  0.19475000  1.0 2.00960826
Mo  Mo6  1  0.32594000  0.64621000  0.30525000  1.0 2.00960826
Mo  Mo7  1  0.32594000  0.85379000  0.80525000  1.0 2.00960826
Mo  Mo8  1  0.67406000  0.35379000  0.69475000  1.0 2.00960826
Mo  Mo9  1  0.68929000  0.92960000  0.21307000  1.0 2.00960826
Mo  Mo10  1  0.31071000  0.42960000  0.28693000  1.0 2.00960826
Mo  Mo11  1  0.31071000  0.07040000  0.78693000  1.0 2.00960826
Mo  Mo12  1  0.68929000  0.57040000  0.71307000  1.0 2.00960826
Mo  Mo13  1  0.68938000  0.75571000  0.07837000  1.0 1.9991101386
Mo  Mo14  1  0.31062000  0.25571000  0.42163000  1.0 1.9991101386
Mo  Mo15  1  0.31062000  0.24429000  0.92163000  1.0 1.9991101386
Mo  Mo16  1  0.68938000  0.74429000  0.57837000  1.0 1.9991101386
Mo  Mo17  1  0.67877000  0.84817000  0.96316000  1.0 2.0152624162
Mo  Mo18  1  0.32123000  0.34817000  0.53684000  1.0 2.0152624162
Mo  Mo19  1  0.32123000  0.15183000  0.03684000  1.0 2.0152624162
Mo  Mo20  1  0.67877000  0.65183000  0.46316000  1.0 2.0152624162
Mo  Mo21  1  0.64925000  0.14143000  0.93247000  1.0 2.00960826
Mo  Mo22  1  0.35075000  0.64143000  0.56753000  1.0 2.00960826
Mo  Mo23  1  0.35075000  0.85857000  0.06753000  1.0 2.00960826
Mo  Mo24  1  0.64925000  0.35857000  0.43247000  1.0 2.00960826
P  P1  1  0.78679000  0.02521000  0.11423000  1.0 1.6187730941
P  P2  1  0.21321000  0.52521000  0.38577000  1.0 1.6187730941
P  P3  1  0.21321000  0.97479000  0.88577000  1.0 1.6187730941
P  P4  1  0.78679000  0.47479000  0.61423000  1.0 1.6187730941
P  P5  1  0.83321000  0.33710000  0.21005000  1.0 1.5131725582
P  P6  1  0.16679000  0.83710000  0.28995000  1.0 1.5131725582
P  P7  1  0.16679000  0.66290000  0.78995000  1.0 1.5131725582
P  P8  1  0.83321000  0.16290000  0.71005000  1.0 1.5131725582
P  P9  1  0.82390000  0.70151000  0.26288000  1.0 1.5183345886
P  P10  1  0.17610000  0.20151000  0.23712000  1.0 1.5183345886
P  P11  1  0.17610000  0.29849000  0.73712000  1.0 1.5183345886
P  P12  1  0.82390000  0.79849000  0.76288000  1.0 1.5183345886
P  P13  1  0.83041000  0.00800000  0.94138000  1.0 1.5920972141
P  P14  1  0.16959000  0.50800000  0.55862000  1.0 1.5920972141
P  P15  1  0.16959000  0.99200000  0.05862000  1.0 1.5920972141
P  P16  1  0.83041000  0.49200000  0.44138000  1.0 1.5920972141
H  H1  1  0.46090000  0.91870000  0.64720000  1.0 0.112669232
H  H2  1  0.46260000  0.99120000  0.70960000  1.0 0.1296136748
H  H3  1  0.61170000  0.07620000  0.73470000  1.0 0.1296136748
H  H4  1  0.51420000  0.10840000  0.65590000  1.0 0.1296136748
H  H5  1  0.62670000  0.86440000  0.75610000  1.0 0.2702950309
H  H6  1  0.54050000  0.80650000  0.74470000  1.0 0.2914305317
H  H7  1  0.65560000  0.95900000  0.67610000  1.0 0.2779687482
H  H8  1  0.62980000  0.06430000  0.63410000  1.0 0.2779687482
H  H9  1  0.56040000  0.97030000  0.60280000  1.0 0.2914305317
H  H10  1  0.58810000  0.89610000  0.80090000  1.0 0.2702950309
H  H11  1  0.53910000  0.41870000  0.85280000  1.0 0.112669232
H  H12  1  0.53740000  0.49120000  0.79040000  1.0 0.1296136748
H  H13  1  0.38830000  0.57620000  0.76530000  1.0 0.1296136748
H  H14  1  0.48580000  0.60840000  0.84410000  1.0 0.1296136748
H  H15  1  0.37330000  0.36440000  0.74390000  1.0 0.2702950309
H  H16  1  0.45950000  0.30650000  0.75530000  1.0 0.2914305317
H  H17  1  0.34440000  0.45900000  0.82390000  1.0 0.2779687482
H  H18  1  0.37020000  0.56430000  0.86590000  1.0 0.2779687482
H  H19  1  0.43960000  0.47030000  0.89720000  1.0 0.2914305317
H  H20  1  0.41190000  0.39610000  0.69910000  1.0 0.2702950309
H  H21  1  0.53910000  0.08130000  0.35280000  1.0 0.112669232
H  H22  1  0.53740000  0.00880000  0.29040000  1.0 0.1296136748
H  H23  1  0.38830000  0.92380000  0.26530000  1.0 0.1296136748
H  H24  1  0.48580000  0.89160000  0.34410000  1.0 0.1296136748
H  H25  1  0.37330000  0.13560000  0.24390000  1.0 0.2702950309
H  H26  1  0.45950000  0.19350000  0.25530000  1.0 0.2914305317
H  H27  1  0.34440000  0.04100000  0.32390000  1.0 0.2779687482
H  H28  1  0.37020000  0.93570000  0.36590000  1.0 0.2779687482
H  H29  1  0.43960000  0.02970000  0.39720000  1.0 0.2914305317
H  H30  1  0.41190000  0.10390000  0.19910000  1.0 0.2702950309
H  H31  1  0.46090000  0.58130000  0.14720000  1.0 0.112669232
H  H32  1  0.46260000  0.50880000  0.20960000  1.0 0.1296136748
H  H33  1  0.61170000  0.42380000  0.23470000  1.0 0.1296136748
H  H34  1  0.51420000  0.39160000  0.15590000  1.0 0.1296136748
H  H35  1  0.62670000  0.63560000  0.25610000  1.0 0.2702950309
H  H36  1  0.54050000  0.69350000  0.24470000  1.0 0.2914305317
H  H37  1  0.65560000  0.54100000  0.17610000  1.0 0.2779687482
H  H38  1  0.62980000  0.43570000  0.13410000  1.0 0.2779687482
H  H39  1  0.56040000  0.52970000  0.10280000  1.0 0.2914305317
H  H40  1  0.58810000  0.60390000  0.30090000  1.0 0.2702950309
H  H41  1  0.04800000  0.00680000  0.70040000  1.0 0.1296136748
H  H42  1  0.94600000  0.06180000  0.65560000  1.0 0.0979217651
H  H43  1  0.98450000  0.01060000  0.55580000  1.0 0.0885069656
H  H44  1  0.05350000  0.06840000  0.63440000  1.0 0.112669232
H  H45  1  0.95490000  0.85770000  0.65510000  1.0 0.2639108392
H  H46  1  0.86770000  0.93010000  0.61390000  1.0 0.2243359945
H  H47  1  0.93180000  0.93370000  0.69680000  1.0 0.2457520825
H  H48  1  0.88000000  0.16750000  0.55510000  1.0 0.2702950309
H  H49  1  0.94650000  0.18760000  0.53090000  1.0 0.2702950309
H  H50  1  0.97850000  0.21490000  0.60840000  1.0 0.2702950309
H  H51  1  0.95200000  0.50680000  0.79960000  1.0 0.1296136748
H  H52  1  0.05400000  0.56180000  0.84440000  1.0 0.0979217651
H  H53  1  0.01550000  0.51060000  0.94420000  1.0 0.0885069656
H  H54  1  0.94650000  0.56840000  0.86560000  1.0 0.112669232
H  H55  1  0.04510000  0.35770000  0.84490000  1.0 0.2639108392
H  H56  1  0.13230000  0.43010000  0.88610000  1.0 0.2243359945
H  H57  1  0.06820000  0.43370000  0.80320000  1.0 0.2438165458
H  H58  1  0.12000000  0.66750000  0.94490000  1.0 0.2702950309
H  H59  1  0.05350000  0.68760000  0.96910000  1.0 0.2702950309
H  H60  1  0.02150000  0.71490000  0.89160000  1.0 0.2702950309
H  H61  1  0.95200000  0.99320000  0.29960000  1.0 0.1296136748
H  H62  1  0.05400000  0.93820000  0.34440000  1.0 0.0979217651
H  H63  1  0.01550000  0.98940000  0.44420000  1.0 0.0885069656
H  H64  1  0.94650000  0.93160000  0.36560000  1.0 0.112669232
H  H65  1  0.04510000  0.14230000  0.34490000  1.0 0.2639108392
H  H66  1  0.13230000  0.06990000  0.38610000  1.0 0.2243359945
H  H67  1  0.06820000  0.06630000  0.30320000  1.0 0.2457520825
H  H68  1  0.12000000  0.83250000  0.44490000  1.0 0.2702950309
H  H69  1  0.05350000  0.81240000  0.46910000  1.0 0.2702950309
H  H70  1  0.02150000  0.78510000  0.39160000  1.0 0.2702950309
H  H71  1  0.04800000  0.49320000  0.20040000  1.0 0.1296136748
H  H72  1  0.94600000  0.43820000  0.15560000  1.0 0.0979217651
H  H73  1  0.98450000  0.48940000  0.05580000  1.0 0.0885069656
H  H74  1  0.05350000  0.43160000  0.13440000  1.0 0.112669232
H  H75  1  0.95490000  0.64230000  0.15510000  1.0 0.2639108392
H  H76  1  0.86770000  0.56990000  0.11390000  1.0 0.2258461627
H  H77  1  0.93180000  0.56630000  0.19680000  1.0 0.2457520825
H  H78  1  0.88000000  0.33250000  0.05510000  1.0 0.2702950309
H  H79  1  0.94650000  0.31240000  0.03090000  1.0 0.2639108392
H  H80  1  0.97850000  0.28510000  0.10840000  1.0 0.2702950309
C  C1  1  0.50430000  0.95710000  0.69550000  1.0 -0.0418168514
C  C2  1  0.55960000  0.04710000  0.68500000  1.0 -0.0418168514
C  C3  1  0.49570000  0.45710000  0.80450000  1.0 -0.0418168514
C  C4  1  0.44040000  0.54710000  0.81500000  1.0 -0.0418168514
C  C5  1  0.49570000  0.04290000  0.30450000  1.0 -0.0418168514
C  C6  1  0.44040000  0.95290000  0.31500000  1.0 -0.0418168514
C  C7  1  0.50430000  0.54290000  0.19550000  1.0 -0.0418168514
C  C8  1  0.55960000  0.45290000  0.18500000  1.0 -0.0418168514
C  C9  1  0.98460000  0.00400000  0.65120000  1.0 -0.0245480596
C  C10  1  0.98410000  0.05370000  0.59450000  1.0 -0.0725143192
C  C11  1  0.01540000  0.50400000  0.84880000  1.0 -0.0245480596
C  C12  1  0.01590000  0.55370000  0.90550000  1.0 -0.0725143192
C  C13  1  0.01540000  0.99600000  0.34880000  1.0 -0.0245480596
C  C14  1  0.01590000  0.94630000  0.40550000  1.0 -0.0725143192
C  C15  1  0.98460000  0.49600000  0.15120000  1.0 -0.0245480596
C  C16  1  0.98410000  0.44630000  0.09450000  1.0 -0.0725143192
N  N1  1  0.57180000  0.87240000  0.75540000  1.0 -0.3891590325
N  N2  1  0.60600000  0.00600000  0.64550000  1.0 -0.3999489037
N  N3  1  0.42820000  0.37240000  0.74460000  1.0 -0.3891590325
N  N4  1  0.39400000  0.50600000  0.85450000  1.0 -0.3999489037
N  N5  1  0.42820000  0.12760000  0.24460000  1.0 -0.3891590325
N  N6  1  0.39400000  0.99400000  0.35450000  1.0 -0.3999489037
N  N7  1  0.57180000  0.62760000  0.25540000  1.0 -0.3891590325
N  N8  1  0.60600000  0.49400000  0.14550000  1.0 -0.3999489037
N  N9  1  0.93040000  0.92500000  0.65450000  1.0 -0.2991886226
N  N10  1  0.94330000  0.16700000  0.56980000  1.0 -0.3999489037
N  N11  1  0.06960000  0.42500000  0.84550000  1.0 -0.2991886226
N  N12  1  0.05670000  0.66700000  0.93020000  1.0 -0.3999489037
N  N13  1  0.06960000  0.07500000  0.34550000  1.0 -0.2991886226
N  N14  1  0.05670000  0.83300000  0.43020000  1.0 -0.3999489037
N  N15  1  0.93040000  0.57500000  0.15450000  1.0 -0.2991886226
N  N16  1  0.94330000  0.33300000  0.06980000  1.0 -0.3999489037
O  O1  1  0.89790000  0.04030000  0.15790000  1.0 -0.6938955126
O  O2  1  0.10210000  0.54030000  0.34210000  1.0 -0.6938955126
O  O3  1  0.10210000  0.95970000  0.84210000  1.0 -0.6938955126
O  O4  1  0.89790000  0.45970000  0.65790000  1.0 -0.6938955126
O  O5  1  0.75520000  0.92260000  0.14150000  1.0 -0.8420624979
O  O6  1  0.24480000  0.42260000  0.35850000  1.0 -0.8420624979
O  O7  1  0.24480000  0.07740000  0.85850000  1.0 -0.8420624979
O  O8  1  0.75520000  0.57740000  0.64150000  1.0 -0.8526874868
O  O9  1  0.73860000  0.13240000  0.12320000  1.0 -0.8526874868
O  O10  1  0.26140000  0.63240000  0.37680000  1.0 -0.8526874868
O  O11  1  0.26140000  0.86760000  0.87680000  1.0 -0.8526874868
O  O12  1  0.73860000  0.36760000  0.62320000  1.0 -0.8526874868
O  O13  1  0.73860000  0.01000000  0.02680000  1.0 -0.8699257908
O  O14  1  0.26140000  0.51000000  0.47320000  1.0 -0.8699257908
O  O15  1  0.26140000  0.99000000  0.97320000  1.0 -0.8699257908
O  O16  1  0.73860000  0.49000000  0.52680000  1.0 -0.8699257908
O  O17  1  0.88210000  0.44440000  0.25200000  1.0 -0.7407328673
O  O18  1  0.11790000  0.94440000  0.24800000  1.0 -0.7407328673
O  O19  1  0.11790000  0.55560000  0.74800000  1.0 -0.7407328673
O  O20  1  0.88210000  0.05560000  0.75200000  1.0 -0.7407328673
O  O21  1  0.77800000  0.27580000  0.23950000  1.0 -0.7191463349
O  O22  1  0.22200000  0.77580000  0.26050000  1.0 -0.7191463349
O  O23  1  0.22200000  0.72420000  0.76050000  1.0 -0.7191463349
O  O24  1  0.77800000  0.22420000  0.73950000  1.0 -0.7191463349
O  O25  1  0.91920000  0.25950000  0.21980000  1.0 -0.6328952399
O  O26  1  0.08080000  0.75950000  0.28020000  1.0 -0.6328952399
O  O27  1  0.08080000  0.74050000  0.78020000  1.0 -0.6328952399
O  O28  1  0.91920000  0.24050000  0.71980000  1.0 -0.6328952399
O  O29  1  0.75820000  0.36320000  0.12380000  1.0 -0.7667295125
O  O30  1  0.24180000  0.86320000  0.37620000  1.0 -0.7667295125
O  O31  1  0.24180000  0.63680000  0.87620000  1.0 -0.7667295125
O  O32  1  0.75820000  0.13680000  0.62380000  1.0 -0.7667295125
O  O33  1  0.93120000  0.67040000  0.32290000  1.0 -0.7260388819
O  O34  1  0.06880000  0.17040000  0.17710000  1.0 -0.7260388819
O  O35  1  0.06880000  0.32960000  0.67710000  1.0 -0.7260388819
O  O36  1  0.93120000  0.82960000  0.82290000  1.0 -0.7260388819
O  O37  1  0.75100000  0.62250000  0.26610000  1.0 -0.6788725567
O  O38  1  0.24900000  0.12250000  0.23390000  1.0 -0.6788725567
O  O39  1  0.24900000  0.37750000  0.73390000  1.0 -0.6788725567
O  O40  1  0.75100000  0.87750000  0.76610000  1.0 -0.6788725567
O  O41  1  0.80740000  0.82490000  0.27820000  1.0 -0.7503361268
O  O42  1  0.19260000  0.32490000  0.22180000  1.0 -0.7503361268
O  O43  1  0.19260000  0.17510000  0.72180000  1.0 -0.7503361268
O  O44  1  0.80740000  0.67510000  0.77820000  1.0 -0.7503361268
O  O45  1  0.80380000  0.69610000  0.18200000  1.0 -0.7503361268
O  O46  1  0.19620000  0.19610000  0.31800000  1.0 -0.7503361268
O  O47  1  0.19620000  0.30390000  0.81800000  1.0 -0.7503361268
O  O48  1  0.80380000  0.80390000  0.68200000  1.0 -0.7503361268
O  O49  1  0.86010000  0.99640000  0.88260000  1.0 -0.6788725567
O  O50  1  0.13990000  0.49640000  0.61740000  1.0 -0.6788725567
O  O51  1  0.13990000  0.00360000  0.11740000  1.0 -0.6788725567
O  O52  1  0.86010000  0.50360000  0.38260000  1.0 -0.6788725567
O  O53  1  0.92020000  0.03900000  0.01830000  1.0 -0.7577719775
O  O54  1  0.07980000  0.53900000  0.48170000  1.0 -0.7577719775
O  O55  1  0.07980000  0.96100000  0.98170000  1.0 -0.7577719775
O  O56  1  0.92020000  0.46100000  0.51830000  1.0 -0.7577719775
O  O57  1  0.74940000  0.10110000  0.90830000  1.0 -0.7407328673
O  O58  1  0.25060000  0.60110000  0.59170000  1.0 -0.7407328673
O  O59  1  0.25060000  0.89890000  0.09170000  1.0 -0.7407328673
O  O60  1  0.74940000  0.39890000  0.40830000  1.0 -0.7407328673
O  O61  1  0.78260000  0.89400000  0.93950000  1.0 -0.7407328673
O  O62  1  0.21740000  0.39400000  0.56050000  1.0 -0.7407328673
O  O63  1  0.21740000  0.10600000  0.06050000  1.0 -0.7407328673
O  O64  1  0.78260000  0.60600000  0.43950000  1.0 -0.7407328673
O  O65  1  0.57730000  0.37560000  0.97900000  1.0 -0.5556692717
O  O66  1  0.42270000  0.87560000  0.52100000  1.0 -0.5556692717
O  O67  1  0.42270000  0.62440000  0.02100000  1.0 -0.5556692717
O  O68  1  0.57730000  0.12440000  0.47900000  1.0 -0.5556692717
O  O69  1  0.74640000  0.24570000  0.00760000  1.0 -0.8067493898
O  O70  1  0.25360000  0.74570000  0.49240000  1.0 -0.8067493898
O  O71  1  0.25360000  0.75430000  0.99240000  1.0 -0.8067493898
O  O72  1  0.74640000  0.25430000  0.50760000  1.0 -0.8067493898
O  O73  1  0.56880000  0.13530000  0.97580000  1.0 -0.8420624979
O  O74  1  0.43120000  0.63530000  0.52420000  1.0 -0.8420624979
O  O75  1  0.43120000  0.86470000  0.02420000  1.0 -0.8420624979
O  O76  1  0.56880000  0.36470000  0.47580000  1.0 -0.8420624979
O  O77  1  0.59070000  0.25480000  0.09890000  1.0 -0.8335444418
O  O78  1  0.40930000  0.75480000  0.40110000  1.0 -0.8335444418
O  O79  1  0.40930000  0.74520000  0.90110000  1.0 -0.8335444418
O  O80  1  0.59070000  0.24520000  0.59890000  1.0 -0.8335444418
O  O81  1  0.61560000  0.18030000  0.23640000  1.0 -0.5203221527
O  O82  1  0.38440000  0.68030000  0.26360000  1.0 -0.5203221527
O  O83  1  0.38440000  0.81970000  0.76360000  1.0 -0.5203221527
O  O84  1  0.61560000  0.31970000  0.73640000  1.0 -0.5203221527
O  O85  1  0.78430000  0.05060000  0.26700000  1.0 -0.8067493898
O  O86  1  0.21570000  0.55060000  0.23300000  1.0 -0.8067493898
O  O87  1  0.21570000  0.94940000  0.73300000  1.0 -0.8067493898
O  O88  1  0.78430000  0.44940000  0.76700000  1.0 -0.8067493898
O  O89  1  0.58910000  0.02330000  0.12490000  1.0 -0.8420624979
O  O90  1  0.41090000  0.52330000  0.37510000  1.0 -0.8420624979
O  O91  1  0.41090000  0.97670000  0.87510000  1.0 -0.8420624979
O  O92  1  0.58910000  0.47670000  0.62490000  1.0 -0.8420624979
O  O93  1  0.63340000  0.90870000  0.25880000  1.0 -0.5322154698
O  O94  1  0.36660000  0.40870000  0.24120000  1.0 -0.5322154698
O  O95  1  0.36660000  0.09130000  0.74120000  1.0 -0.5322154698
O  O96  1  0.63340000  0.59130000  0.75880000  1.0 -0.5322154698
O  O97  1  0.62360000  0.79100000  0.13760000  1.0 -0.8198031274
O  O98  1  0.37640000  0.29100000  0.36240000  1.0 -0.8198031274
O  O99  1  0.37640000  0.20900000  0.86240000  1.0 -0.8198031274
O  O100  1  0.62360000  0.70900000  0.63760000  1.0 -0.8198031274
O  O101  1  0.63320000  0.63140000  0.04010000  1.0 -0.5393685339
O  O102  1  0.36680000  0.13140000  0.45990000  1.0 -0.5393685339
O  O103  1  0.36680000  0.36860000  0.95990000  1.0 -0.5393685339
O  O104  1  0.63320000  0.86860000  0.54010000  1.0 -0.5393685339
O  O105  1  0.59090000  0.86090000  0.99920000  1.0 -0.8420624979
O  O106  1  0.40910000  0.36090000  0.50080000  1.0 -0.8420624979
O  O107  1  0.40910000  0.13910000  0.00080000  1.0 -0.8420624979
O  O108  1  0.59090000  0.63910000  0.49920000  1.0 -0.8420624979
O  O109  1  0.78760000  0.77390000  0.05390000  1.0 -0.7780201075
O  O110  1  0.21240000  0.27390000  0.44610000  1.0 -0.7780201075
O  O111  1  0.21240000  0.22610000  0.94610000  1.0 -0.7780201075
O  O112  1  0.78760000  0.72610000  0.55390000  1.0 -0.7780201075
O  O113  1  0.62320000  0.74740000  0.89620000  1.0 -0.5487261352
O  O114  1  0.37680000  0.24740000  0.60380000  1.0 -0.5487261352
O  O115  1  0.37680000  0.25260000  0.10380000  1.0 -0.5487261352
O  O116  1  0.62320000  0.75260000  0.39620000  1.0 -0.5487261352
O  O117  1  0.58960000  0.98030000  0.88550000  1.0 -0.8198031274
O  O118  1  0.41040000  0.48030000  0.61450000  1.0 -0.8198031274
O  O119  1  0.41040000  0.01970000  0.11450000  1.0 -0.8198031274
O  O120  1  0.58960000  0.51970000  0.38550000  1.0 -0.8198031274
O  O121  1  0.57450000  0.21470000  0.85260000  1.0 -0.5393685339
O  O122  1  0.42550000  0.71470000  0.64740000  1.0 -0.5393685339
O  O123  1  0.42550000  0.78530000  0.14740000  1.0 -0.5393685339
O  O124  1  0.57450000  0.28530000  0.35260000  1.0 -0.5393685339
O  O125  1  0.98300000  0.81750000  0.10540000  1.0 -0.1933054713
O  O126  1  0.01700000  0.31750000  0.39460000  1.0 -0.1933054713
O  O127  1  0.01700000  0.18250000  0.89460000  1.0 -0.1933054713
O  O128  1  0.98300000  0.68250000  0.60540000  1.0 -0.1933054713
