# DDEC6 charges by PACMAN v1.1 (https://github.com/mtap-research/PACMAN-charge/)
data_PARFOF_ASR_pacman
_symmetry_space_group_name_H-M   'P 1'
_cell_length_a   12.83250000
_cell_length_b   12.83250000
_cell_length_c   6.77970000
_cell_angle_alpha   76.54580000
_cell_angle_beta   103.45400000
_cell_angle_gamma   145.98200000
_symmetry_Int_Tables_number   1
_chemical_formula_structural   VC12O5
_chemical_formula_sum   'V2 C24 O10'
_cell_volume   605.82293766
_cell_formula_units_Z   2
loop_
 _symmetry_equiv_pos_site_id
 _symmetry_equiv_pos_as_xyz
  1  'x, y, z'
loop_
 _atom_site_type_symbol
 _atom_site_label
 _atom_site_symmetry_multiplicity
 _atom_site_fract_x
 _atom_site_fract_y
 _atom_site_fract_z
 _atom_site_occupancy
 _atom_site_charge
V  V1  1  0.00000000  0.00000000  0.50000000  1.0 1.6915440767
V  V2  1  0.00000000  0.00000000  0.00000000  1.0 1.6915440767
C  C1  1  0.38010000  0.08790000  0.41720000  1.0 -0.0985896379
C  C2  1  0.08790000  0.38010000  0.08280000  1.0 -0.0985896379
C  C3  1  0.61990000  0.91210000  0.58280000  1.0 -0.0985896379
C  C4  1  0.91210000  0.61990000  0.91720000  1.0 -0.0985896379
C  C5  1  0.37390000  0.00010000  0.29880000  1.0 0.0129092704
C  C6  1  0.00010000  0.37390000  0.20120000  1.0 0.0129092704
C  C7  1  0.62610000  0.99990000  0.70120000  1.0 0.0129092704
C  C8  1  0.99990000  0.62610000  0.79880000  1.0 0.0129092704
C  C9  1  0.45680000  0.89520000  0.28260000  1.0 0.0129092704
C  C10  1  0.89520000  0.45680000  0.21740000  1.0 0.0129092704
C  C11  1  0.54320000  0.10480000  0.71740000  1.0 0.0129092704
C  C12  1  0.10480000  0.54320000  0.78260000  1.0 0.0129092704
C  C13  1  0.27060000  0.09340000  0.34720000  1.0 0.5852465838
C  C14  1  0.09340000  0.27060000  0.15280000  1.0 0.5852465838
C  C15  1  0.72940000  0.90660000  0.65280000  1.0 0.5852465838
C  C16  1  0.90660000  0.72940000  0.84720000  1.0 0.5852465838
C  C17  1  0.45300000  0.96700000  0.40560000  1.0 0.0255781043
C  C18  1  0.96700000  0.45300000  0.09440000  1.0 0.0255781043
C  C19  1  0.54700000  0.03300000  0.59440000  1.0 0.0255781043
C  C20  1  0.03300000  0.54700000  0.90560000  1.0 0.0255781043
C  C21  1  0.45390000  0.13210000  0.62780000  1.0 0.0221736588
C  C22  1  0.13210000  0.45390000  0.87220000  1.0 0.0221736588
C  C23  1  0.54610000  0.86790000  0.37220000  1.0 0.0221736588
C  C24  1  0.86790000  0.54610000  0.12780000  1.0 0.0221736588
O  O1  1  0.87900000  0.87900000  0.25000000  1.0 -0.9397877843
O  O2  1  0.12100000  0.12100000  0.75000000  1.0 -0.9397877843
O  O3  1  0.23810000  0.15190000  0.40620000  1.0 -0.4739082397
O  O4  1  0.15190000  0.23810000  0.09380000  1.0 -0.4759551526
O  O5  1  0.76190000  0.84810000  0.59380000  1.0 -0.4739082397
O  O6  1  0.84810000  0.76190000  0.90620000  1.0 -0.4759551526
O  O7  1  0.21170000  0.06830000  0.16440000  1.0 -0.4611736999
O  O8  1  0.06830000  0.21170000  0.33560000  1.0 -0.4611736999
O  O9  1  0.78830000  0.93170000  0.83560000  1.0 -0.4611736999
O  O10  1  0.93170000  0.78830000  0.66440000  1.0 -0.4611736999
