# DDEC6 charges by PACMAN v1.1 (https://github.com/mtap-research/PACMAN-charge/)
data_PARHEW_ASR_pacman
_symmetry_space_group_name_H-M   'P 1'
_cell_length_a   7.75360000
_cell_length_b   15.07360000
_cell_length_c   16.80080000
_cell_angle_alpha   90.00000000
_cell_angle_beta   99.79900000
_cell_angle_gamma   90.00000000
_symmetry_Int_Tables_number   1
_chemical_formula_structural   CaH8(C3O2)2
_chemical_formula_sum   'Ca4 H32 C24 O16'
_cell_volume   1934.94083048
_cell_formula_units_Z   4
loop_
 _symmetry_equiv_pos_site_id
 _symmetry_equiv_pos_as_xyz
  1  'x, y, z'
loop_
 _atom_site_type_symbol
 _atom_site_label
 _atom_site_symmetry_multiplicity
 _atom_site_fract_x
 _atom_site_fract_y
 _atom_site_fract_z
 _atom_site_occupancy
 _atom_site_charge
Ca  Ca1  1  0.50477000  0.21911000  0.24950000  1.0 1.3738506066
Ca  Ca2  1  0.99523000  0.71911000  0.75050000  1.0 1.3738506066
Ca  Ca3  1  0.49523000  0.78089000  0.75050000  1.0 1.3738506066
Ca  Ca4  1  0.00477000  0.28089000  0.24950000  1.0 1.3738506066
H  H1  1  0.61620000  0.49280000  0.13450000  1.0 0.1203698058
H  H2  1  0.88380000  0.99280000  0.86550000  1.0 0.1203698058
H  H3  1  0.38380000  0.50720000  0.86550000  1.0 0.1203698058
H  H4  1  0.11620000  0.00720000  0.13450000  1.0 0.1203698058
H  H5  1  0.73600000  0.44010000  0.08700000  1.0 0.1203698058
H  H6  1  0.76400000  0.94010000  0.91300000  1.0 0.1203698058
H  H7  1  0.26400000  0.55990000  0.91300000  1.0 0.1203698058
H  H8  1  0.23600000  0.05990000  0.08700000  1.0 0.1203698058
H  H9  1  0.62950000  0.54340000  0.96450000  1.0 0.0789535211
H  H10  1  0.87050000  0.04340000  0.03550000  1.0 0.0789535211
H  H11  1  0.37050000  0.45660000  0.03550000  1.0 0.0789535211
H  H12  1  0.12950000  0.95660000  0.96450000  1.0 0.0853606241
H  H13  1  0.51290000  0.59230000  0.01440000  1.0 0.0789535211
H  H14  1  0.98710000  0.09230000  0.98560000  1.0 0.0789535211
H  H15  1  0.48710000  0.40770000  0.98560000  1.0 0.0789535211
H  H16  1  0.01290000  0.90770000  0.01440000  1.0 0.0789535211
H  H17  1  0.37930000  0.49370000  0.36310000  1.0 0.1203698058
H  H18  1  0.12070000  0.99370000  0.63690000  1.0 0.1203698058
H  H19  1  0.62070000  0.50630000  0.63690000  1.0 0.1203698058
H  H20  1  0.87930000  0.00630000  0.36310000  1.0 0.1203698058
H  H21  1  0.27140000  0.43810000  0.41350000  1.0 0.1123636106
H  H22  1  0.22860000  0.93810000  0.58650000  1.0 0.1123636106
H  H23  1  0.72860000  0.56190000  0.58650000  1.0 0.1123636106
H  H24  1  0.77140000  0.06190000  0.41350000  1.0 0.1123636106
H  H25  1  0.63470000  0.47310000  0.45780000  1.0 0.0789535211
H  H26  1  0.86530000  0.97310000  0.54220000  1.0 0.0789535211
H  H27  1  0.36530000  0.52690000  0.54220000  1.0 0.0789535211
H  H28  1  0.13470000  0.02690000  0.45780000  1.0 0.0789535211
H  H29  1  0.54320000  0.40980000  0.50840000  1.0 0.0789535211
H  H30  1  0.95680000  0.90980000  0.49160000  1.0 0.0789535211
H  H31  1  0.45680000  0.59020000  0.49160000  1.0 0.0789535211
H  H32  1  0.04320000  0.09020000  0.50840000  1.0 0.0789535211
C  C1  1  0.58984000  0.36197000  0.14754000  1.0 0.640276462
C  C2  1  0.91016000  0.86197000  0.85246000  1.0 0.640276462
C  C3  1  0.41016000  0.63803000  0.85246000  1.0 0.640276462
C  C4  1  0.08984000  0.13803000  0.14754000  1.0 0.640276462
C  C5  1  0.61902000  0.44353000  0.09851000  1.0 -0.3186698501
C  C6  1  0.88098000  0.94353000  0.90149000  1.0 -0.3186698501
C  C7  1  0.38098000  0.55647000  0.90149000  1.0 -0.3186698501
C  C8  1  0.11902000  0.05647000  0.09851000  1.0 -0.3186698501
C  C9  1  0.48571000  0.45694000  0.02175000  1.0 -0.1606999738
C  C10  1  0.01429000  0.95694000  0.97825000  1.0 -0.1681399765
C  C11  1  0.51429000  0.54306000  0.97825000  1.0 -0.1681399765
C  C12  1  0.98571000  0.04306000  0.02175000  1.0 -0.1606999738
C  C13  1  0.41810000  0.36326000  0.35059000  1.0 0.640276462
C  C14  1  0.08190000  0.86326000  0.64941000  1.0 0.640276462
C  C15  1  0.58190000  0.63674000  0.64941000  1.0 0.640276462
C  C16  1  0.91810000  0.13674000  0.35059000  1.0 0.640276462
C  C17  1  0.38609000  0.44455000  0.39990000  1.0 -0.3186698501
C  C18  1  0.11391000  0.94455000  0.60010000  1.0 -0.3186698501
C  C19  1  0.61391000  0.55545000  0.60010000  1.0 -0.313926704
C  C20  1  0.88609000  0.05545000  0.39990000  1.0 -0.3186698501
C  C21  1  0.52449000  0.46147000  0.47455000  1.0 -0.1606999738
C  C22  1  0.97551000  0.96147000  0.52545000  1.0 -0.1606999738
C  C23  1  0.47551000  0.53853000  0.52545000  1.0 -0.1681399765
C  C24  1  0.02449000  0.03853000  0.47455000  1.0 -0.1606999738
O  O1  1  0.43701000  0.33237000  0.14428000  1.0 -0.5702740424
O  O2  1  0.06299000  0.83237000  0.85572000  1.0 -0.5760327949
O  O3  1  0.56299000  0.66763000  0.85572000  1.0 -0.5760327949
O  O4  1  0.93701000  0.16763000  0.14428000  1.0 -0.5702740424
O  O5  1  0.71919000  0.32674000  0.19169000  1.0 -0.6718948159
O  O6  1  0.78081000  0.82674000  0.80831000  1.0 -0.6718948159
O  O7  1  0.28081000  0.67326000  0.80831000  1.0 -0.6764673961
O  O8  1  0.21919000  0.17326000  0.19169000  1.0 -0.6764673961
O  O9  1  0.28984000  0.32718000  0.30662000  1.0 -0.6718948159
O  O10  1  0.21016000  0.82718000  0.69338000  1.0 -0.6718948159
O  O11  1  0.71016000  0.67282000  0.69338000  1.0 -0.6718948159
O  O12  1  0.78984000  0.17282000  0.30662000  1.0 -0.6718948159
O  O13  1  0.57193000  0.33461000  0.35421000  1.0 -0.5604809397
O  O14  1  0.92807000  0.83461000  0.64579000  1.0 -0.5604809397
O  O15  1  0.42807000  0.66539000  0.64579000  1.0 -0.5604809397
O  O16  1  0.07193000  0.16539000  0.35421000  1.0 -0.5702740424
