# DDEC6 charges by PACMAN v1.1 (https://github.com/mtap-research/PACMAN-charge/)
data_PARPII_FSR_pacman
_symmetry_space_group_name_H-M   'P 1'
_cell_length_a   12.71180000
_cell_length_b   12.71180000
_cell_length_c   6.54720000
_cell_angle_alpha   76.44470000
_cell_angle_beta   103.55500000
_cell_angle_gamma   145.54100000
_symmetry_Int_Tables_number   1
_chemical_formula_structural   AlC12O5
_chemical_formula_sum   'Al2 C24 O10'
_cell_volume   580.30837451
_cell_formula_units_Z   2
loop_
 _symmetry_equiv_pos_site_id
 _symmetry_equiv_pos_as_xyz
  1  'x, y, z'
loop_
 _atom_site_type_symbol
 _atom_site_label
 _atom_site_symmetry_multiplicity
 _atom_site_fract_x
 _atom_site_fract_y
 _atom_site_fract_z
 _atom_site_occupancy
 _atom_site_charge
Al  Al1  1  0.00000000  0.00000000  0.50000000  1.0 1.6171339614
Al  Al2  1  0.00000000  0.00000000  0.00000000  1.0 1.6171339614
C  C1  1  0.37520000  0.08680000  0.43140000  1.0 -0.1143225977
C  C2  1  0.08680000  0.37520000  0.06860000  1.0 -0.1143225977
C  C3  1  0.62480000  0.91320000  0.56860000  1.0 -0.1143225977
C  C4  1  0.91320000  0.62480000  0.93140000  1.0 -0.1143225977
C  C5  1  0.37150000  0.00450000  0.29900000  1.0 -0.0066206563
C  C6  1  0.00450000  0.37150000  0.20100000  1.0 -0.0066206563
C  C7  1  0.62850000  0.99550000  0.70100000  1.0 -0.0066206563
C  C8  1  0.99550000  0.62850000  0.79900000  1.0 -0.0066206563
C  C9  1  0.46230000  0.90170000  0.27060000  1.0 0.0111435929
C  C10  1  0.90170000  0.46230000  0.22940000  1.0 0.0111435929
C  C11  1  0.53770000  0.09830000  0.72940000  1.0 0.0111435929
C  C12  1  0.09830000  0.53770000  0.77060000  1.0 0.0111435929
C  C13  1  0.26300000  0.08900000  0.34600000  1.0 0.6358011229
C  C14  1  0.08900000  0.26300000  0.15400000  1.0 0.6358011229
C  C15  1  0.73700000  0.91100000  0.65400000  1.0 0.6358011229
C  C16  1  0.91100000  0.73700000  0.84600000  1.0 0.6358011229
C  C17  1  0.44500000  0.96100000  0.40400000  1.0 0.0111435929
C  C18  1  0.96100000  0.44500000  0.09600000  1.0 0.0111435929
C  C19  1  0.55500000  0.03900000  0.59600000  1.0 0.0111435929
C  C20  1  0.03900000  0.55500000  0.90400000  1.0 0.0111435929
C  C21  1  0.45500000  0.13300000  0.62900000  1.0 0.0235809432
C  C22  1  0.13300000  0.45500000  0.87100000  1.0 0.0235809432
C  C23  1  0.54500000  0.86700000  0.37100000  1.0 0.0235809432
C  C24  1  0.86700000  0.54500000  0.12900000  1.0 0.0235809432
O  O1  1  0.90100000  0.90100000  0.25000000  1.0 -0.9239580767
O  O2  1  0.09900000  0.09900000  0.75000000  1.0 -0.9251405733
O  O3  1  0.22150000  0.12850000  0.43900000  1.0 -0.473373233
O  O4  1  0.12850000  0.22150000  0.06100000  1.0 -0.473373233
O  O5  1  0.77850000  0.87150000  0.56100000  1.0 -0.473373233
O  O6  1  0.87150000  0.77850000  0.93900000  1.0 -0.473373233
O  O7  1  0.20600000  0.07040000  0.15160000  1.0 -0.4336450832
O  O8  1  0.07040000  0.20600000  0.34840000  1.0 -0.4336450832
O  O9  1  0.79400000  0.92960000  0.84840000  1.0 -0.4336450832
O  O10  1  0.92960000  0.79400000  0.65160000  1.0 -0.4336450832
