# DDEC6 charges by PACMAN v1.1 (https://github.com/mtap-research/PACMAN-charge/)
data_PASMUU_ASR_pacman
_symmetry_space_group_name_H-M   'P 1'
_cell_length_a   22.58500000
_cell_length_b   22.58500000
_cell_length_c   5.75300000
_cell_angle_alpha   90.00000000
_cell_angle_beta   90.00000000
_cell_angle_gamma   90.00000000
_symmetry_Int_Tables_number   1
_chemical_formula_structural   BiH32(C11O2)4
_chemical_formula_sum   'Bi2 H64 C88 O16'
_cell_volume   2934.50304043
_cell_formula_units_Z   2
loop_
 _symmetry_equiv_pos_site_id
 _symmetry_equiv_pos_as_xyz
  1  'x, y, z'
loop_
 _atom_site_type_symbol
 _atom_site_label
 _atom_site_symmetry_multiplicity
 _atom_site_fract_x
 _atom_site_fract_y
 _atom_site_fract_z
 _atom_site_occupancy
 _atom_site_charge
Bi  Bi1  1  0.00000000  0.50000000  0.44837000  1.0 1.3177250018
Bi  Bi2  1  0.50000000  0.00000000  0.55163000  1.0 1.3177250018
H  H1  1  0.87840000  0.31480000  0.13670000  1.0 0.0955243212
H  H2  1  0.83100000  0.38730000  0.71960000  1.0 0.1108445292
H  H3  1  0.80500000  0.24330000  0.17850000  1.0 0.0801811842
H  H4  1  0.76650000  0.31450000  0.79350000  1.0 0.0801811842
H  H5  1  0.12160000  0.68520000  0.13670000  1.0 0.0955243212
H  H6  1  0.16900000  0.61270000  0.71960000  1.0 0.1108445292
H  H7  1  0.19500000  0.75670000  0.17850000  1.0 0.0801811842
H  H8  1  0.23350000  0.68550000  0.79350000  1.0 0.0801811842
H  H9  1  0.81480000  0.62160000  0.13670000  1.0 0.0955243212
H  H10  1  0.88730000  0.66900000  0.71960000  1.0 0.1108445292
H  H11  1  0.74330000  0.69500000  0.17850000  1.0 0.0801811842
H  H12  1  0.81450000  0.73350000  0.79350000  1.0 0.0801811842
H  H13  1  0.18520000  0.37840000  0.13670000  1.0 0.0955243212
H  H14  1  0.11270000  0.33100000  0.71960000  1.0 0.1108445292
H  H15  1  0.25670000  0.30500000  0.17850000  1.0 0.0801811842
H  H16  1  0.18550000  0.26650000  0.79350000  1.0 0.0801811842
H  H17  1  0.37840000  0.18520000  0.86330000  1.0 0.0955243212
H  H18  1  0.33100000  0.11270000  0.28040000  1.0 0.1108445292
H  H19  1  0.30500000  0.25670000  0.82150000  1.0 0.0801811842
H  H20  1  0.26650000  0.18550000  0.20650000  1.0 0.0801811842
H  H21  1  0.62160000  0.81480000  0.86330000  1.0 0.0955243212
H  H22  1  0.66900000  0.88730000  0.28040000  1.0 0.1108445292
H  H23  1  0.69500000  0.74330000  0.82150000  1.0 0.0801811842
H  H24  1  0.73350000  0.81450000  0.20650000  1.0 0.0801811842
H  H25  1  0.31480000  0.87840000  0.86330000  1.0 0.0955243212
H  H26  1  0.38730000  0.83100000  0.28040000  1.0 0.1108445292
H  H27  1  0.24330000  0.80500000  0.82150000  1.0 0.0801811842
H  H28  1  0.31450000  0.76650000  0.20650000  1.0 0.0801811842
H  H29  1  0.68520000  0.12160000  0.86330000  1.0 0.0955243212
H  H30  1  0.61270000  0.16900000  0.28040000  1.0 0.1108445292
H  H31  1  0.75670000  0.19500000  0.82150000  1.0 0.0801811842
H  H32  1  0.68550000  0.23350000  0.20650000  1.0 0.0801811842
H  H33  1  0.62160000  0.18520000  0.86330000  1.0 0.0955243212
H  H34  1  0.66900000  0.11270000  0.28040000  1.0 0.1108445292
H  H35  1  0.69500000  0.25670000  0.82150000  1.0 0.0801811842
H  H36  1  0.73350000  0.18550000  0.20650000  1.0 0.0801811842
H  H37  1  0.37840000  0.81480000  0.86330000  1.0 0.0955243212
H  H38  1  0.33100000  0.88730000  0.28040000  1.0 0.1108445292
H  H39  1  0.30500000  0.74330000  0.82150000  1.0 0.0801811842
H  H40  1  0.26650000  0.81450000  0.20650000  1.0 0.0801811842
H  H41  1  0.68520000  0.87840000  0.86330000  1.0 0.0955243212
H  H42  1  0.61270000  0.83100000  0.28040000  1.0 0.1108445292
H  H43  1  0.75670000  0.80500000  0.82150000  1.0 0.0801811842
H  H44  1  0.68550000  0.76650000  0.20650000  1.0 0.0801811842
H  H45  1  0.31480000  0.12160000  0.86330000  1.0 0.0955243212
H  H46  1  0.38730000  0.16900000  0.28040000  1.0 0.1108445292
H  H47  1  0.24330000  0.19500000  0.82150000  1.0 0.0801811842
H  H48  1  0.31450000  0.23350000  0.20650000  1.0 0.0801811842
H  H49  1  0.12160000  0.31480000  0.13670000  1.0 0.0955243212
H  H50  1  0.16900000  0.38730000  0.71960000  1.0 0.1108445292
H  H51  1  0.19500000  0.24330000  0.17850000  1.0 0.0801811842
H  H52  1  0.23350000  0.31450000  0.79350000  1.0 0.0801811842
H  H53  1  0.87840000  0.68520000  0.13670000  1.0 0.0955243212
H  H54  1  0.83100000  0.61270000  0.71960000  1.0 0.1108445292
H  H55  1  0.80500000  0.75670000  0.17850000  1.0 0.0801811842
H  H56  1  0.76650000  0.68550000  0.79350000  1.0 0.0801811842
H  H57  1  0.18520000  0.62160000  0.13670000  1.0 0.0955243212
H  H58  1  0.11270000  0.66900000  0.71960000  1.0 0.1108445292
H  H59  1  0.25670000  0.69500000  0.17850000  1.0 0.0801811842
H  H60  1  0.18550000  0.73350000  0.79350000  1.0 0.0801811842
H  H61  1  0.81480000  0.37840000  0.13670000  1.0 0.0955243212
H  H62  1  0.88730000  0.33100000  0.71960000  1.0 0.1108445292
H  H63  1  0.74330000  0.30500000  0.17850000  1.0 0.0801811842
H  H64  1  0.81450000  0.26650000  0.79350000  1.0 0.0801811842
C  C1  1  0.85350000  0.31620000  0.26500000  1.0 -0.0781973549
C  C2  1  0.82660000  0.35770000  0.60900000  1.0 -0.052895369
C  C3  1  0.80960000  0.27250000  0.29100000  1.0 -0.0873527597
C  C4  1  0.78610000  0.31540000  0.65100000  1.0 -0.0781973549
C  C5  1  0.14650000  0.68380000  0.26500000  1.0 -0.0781973549
C  C6  1  0.17340000  0.64230000  0.60900000  1.0 -0.052895369
C  C7  1  0.19040000  0.72750000  0.29100000  1.0 -0.0873527597
C  C8  1  0.21390000  0.68460000  0.65100000  1.0 -0.0781973549
C  C9  1  0.81620000  0.64650000  0.26500000  1.0 -0.0781973549
C  C10  1  0.85770000  0.67340000  0.60900000  1.0 -0.052895369
C  C11  1  0.77250000  0.69040000  0.29100000  1.0 -0.0873527597
C  C12  1  0.81540000  0.71390000  0.65100000  1.0 -0.0781973549
C  C13  1  0.18380000  0.35350000  0.26500000  1.0 -0.0781973549
C  C14  1  0.14230000  0.32660000  0.60900000  1.0 -0.052895369
C  C15  1  0.22750000  0.30960000  0.29100000  1.0 -0.0873527597
C  C16  1  0.18460000  0.28610000  0.65100000  1.0 -0.0781973549
C  C17  1  0.35350000  0.18380000  0.73500000  1.0 -0.0781973549
C  C18  1  0.32660000  0.14230000  0.39100000  1.0 -0.052895369
C  C19  1  0.30960000  0.22750000  0.70900000  1.0 -0.0873527597
C  C20  1  0.28610000  0.18460000  0.34900000  1.0 -0.0781973549
C  C21  1  0.64650000  0.81620000  0.73500000  1.0 -0.0781973549
C  C22  1  0.67340000  0.85770000  0.39100000  1.0 -0.052895369
C  C23  1  0.69040000  0.77250000  0.70900000  1.0 -0.0873527597
C  C24  1  0.71390000  0.81540000  0.34900000  1.0 -0.0781973549
C  C25  1  0.31620000  0.85350000  0.73500000  1.0 -0.0781973549
C  C26  1  0.35770000  0.82660000  0.39100000  1.0 -0.052895369
C  C27  1  0.27250000  0.80960000  0.70900000  1.0 -0.0873527597
C  C28  1  0.31540000  0.78610000  0.34900000  1.0 -0.0781973549
C  C29  1  0.68380000  0.14650000  0.73500000  1.0 -0.0781973549
C  C30  1  0.64230000  0.17340000  0.39100000  1.0 -0.052895369
C  C31  1  0.72750000  0.19040000  0.70900000  1.0 -0.0873527597
C  C32  1  0.68460000  0.21390000  0.34900000  1.0 -0.0781973549
C  C33  1  0.64650000  0.18380000  0.73500000  1.0 -0.0781973549
C  C34  1  0.67340000  0.14230000  0.39100000  1.0 -0.052895369
C  C35  1  0.69040000  0.22750000  0.70900000  1.0 -0.0873527597
C  C36  1  0.71390000  0.18460000  0.34900000  1.0 -0.0781973549
C  C37  1  0.35350000  0.81620000  0.73500000  1.0 -0.0781973549
C  C38  1  0.32660000  0.85770000  0.39100000  1.0 -0.052895369
C  C39  1  0.30960000  0.77250000  0.70900000  1.0 -0.0873527597
C  C40  1  0.28610000  0.81540000  0.34900000  1.0 -0.0781973549
C  C41  1  0.68380000  0.85350000  0.73500000  1.0 -0.0781973549
C  C42  1  0.64230000  0.82660000  0.39100000  1.0 -0.052895369
C  C43  1  0.72750000  0.80960000  0.70900000  1.0 -0.0873527597
C  C44  1  0.68460000  0.78610000  0.34900000  1.0 -0.0781973549
C  C45  1  0.31620000  0.14650000  0.73500000  1.0 -0.0781973549
C  C46  1  0.35770000  0.17340000  0.39100000  1.0 -0.052895369
C  C47  1  0.27250000  0.19040000  0.70900000  1.0 -0.0873527597
C  C48  1  0.31540000  0.21390000  0.34900000  1.0 -0.0781973549
C  C49  1  0.14650000  0.31620000  0.26500000  1.0 -0.0781973549
C  C50  1  0.17340000  0.35770000  0.60900000  1.0 -0.052895369
C  C51  1  0.19040000  0.27250000  0.29100000  1.0 -0.0873527597
C  C52  1  0.21390000  0.31540000  0.65100000  1.0 -0.0781973549
C  C53  1  0.85350000  0.68380000  0.26500000  1.0 -0.0781973549
C  C54  1  0.82660000  0.64230000  0.60900000  1.0 -0.052895369
C  C55  1  0.80960000  0.72750000  0.29100000  1.0 -0.0873527597
C  C56  1  0.78610000  0.68460000  0.65100000  1.0 -0.0781973549
C  C57  1  0.18380000  0.64650000  0.26500000  1.0 -0.0781973549
C  C58  1  0.14230000  0.67340000  0.60900000  1.0 -0.052895369
C  C59  1  0.22750000  0.69040000  0.29100000  1.0 -0.0873527597
C  C60  1  0.18460000  0.71390000  0.65100000  1.0 -0.0781973549
C  C61  1  0.81620000  0.35350000  0.26500000  1.0 -0.0781973549
C  C62  1  0.85770000  0.32660000  0.60900000  1.0 -0.052895369
C  C63  1  0.77250000  0.30960000  0.29100000  1.0 -0.0873527597
C  C64  1  0.81540000  0.28610000  0.65100000  1.0 -0.0781973549
C  C65  1  0.90680000  0.40680000  0.39100000  1.0 0.5023438325
C  C66  1  0.86050000  0.36050000  0.42400000  1.0 -0.0326686367
C  C67  1  0.77330000  0.27330000  0.48500000  1.0 -0.0049864445
C  C68  1  0.09320000  0.59320000  0.39100000  1.0 0.5023438325
C  C69  1  0.13950000  0.63950000  0.42400000  1.0 -0.0326686367
C  C70  1  0.22670000  0.72670000  0.48500000  1.0 -0.0062577565
C  C71  1  0.90680000  0.59320000  0.39100000  1.0 0.5023438325
C  C72  1  0.86050000  0.63950000  0.42400000  1.0 -0.0326686367
C  C73  1  0.77330000  0.72670000  0.48500000  1.0 -0.0049864445
C  C74  1  0.09320000  0.40680000  0.39100000  1.0 0.5023438325
C  C75  1  0.13950000  0.36050000  0.42400000  1.0 -0.0326686367
C  C76  1  0.22670000  0.27330000  0.48500000  1.0 -0.0062577565
C  C77  1  0.40680000  0.09320000  0.60900000  1.0 0.5023438325
C  C78  1  0.36050000  0.13950000  0.57600000  1.0 -0.0326686367
C  C79  1  0.27330000  0.22670000  0.51500000  1.0 -0.0062577565
C  C80  1  0.59320000  0.90680000  0.60900000  1.0 0.5023438325
C  C81  1  0.63950000  0.86050000  0.57600000  1.0 -0.0326686367
C  C82  1  0.72670000  0.77330000  0.51500000  1.0 -0.0062577565
C  C83  1  0.40680000  0.90680000  0.60900000  1.0 0.5023438325
C  C84  1  0.36050000  0.86050000  0.57600000  1.0 -0.0326686367
C  C85  1  0.27330000  0.77330000  0.51500000  1.0 -0.0062577565
C  C86  1  0.59320000  0.09320000  0.60900000  1.0 0.5023438325
C  C87  1  0.63950000  0.13950000  0.57600000  1.0 -0.0326686367
C  C88  1  0.72670000  0.22670000  0.51500000  1.0 -0.0062577565
O  O1  1  0.92920000  0.42920000  0.57190000  1.0 -0.4854912768
O  O2  1  0.92140000  0.42140000  0.20100000  1.0 -0.4478520015
O  O3  1  0.07080000  0.57080000  0.57190000  1.0 -0.4854912768
O  O4  1  0.07860000  0.57860000  0.20100000  1.0 -0.4478520015
O  O5  1  0.92920000  0.57080000  0.57190000  1.0 -0.4854912768
O  O6  1  0.92140000  0.57860000  0.20100000  1.0 -0.4478520015
O  O7  1  0.07080000  0.42920000  0.57190000  1.0 -0.4854912768
O  O8  1  0.07860000  0.42140000  0.20100000  1.0 -0.4478520015
O  O9  1  0.42920000  0.07080000  0.42810000  1.0 -0.4854912768
O  O10  1  0.42140000  0.07860000  0.79900000  1.0 -0.4478520015
O  O11  1  0.57080000  0.92920000  0.42810000  1.0 -0.4854912768
O  O12  1  0.57860000  0.92140000  0.79900000  1.0 -0.4478520015
O  O13  1  0.42920000  0.92920000  0.42810000  1.0 -0.4854912768
O  O14  1  0.42140000  0.92140000  0.79900000  1.0 -0.4478520015
O  O15  1  0.57080000  0.07080000  0.42810000  1.0 -0.4854912768
O  O16  1  0.57860000  0.07860000  0.79900000  1.0 -0.4478520015
