# DDEC6 charges by PACMAN v1.1 (https://github.com/mtap-research/PACMAN-charge/)
data_PASZAN_ASR_pacman
_symmetry_space_group_name_H-M   'P 1'
_cell_length_a   7.45190000
_cell_length_b   10.72420000
_cell_length_c   13.24600000
_cell_angle_alpha   103.80100000
_cell_angle_beta   91.60800000
_cell_angle_gamma   103.34500000
_symmetry_Int_Tables_number   1
_chemical_formula_structural   In3H14(C8O5)4
_chemical_formula_sum   'In3 H14 C32 O20'
_cell_volume   996.36641549
_cell_formula_units_Z   1
loop_
 _symmetry_equiv_pos_site_id
 _symmetry_equiv_pos_as_xyz
  1  'x, y, z'
loop_
 _atom_site_type_symbol
 _atom_site_label
 _atom_site_symmetry_multiplicity
 _atom_site_fract_x
 _atom_site_fract_y
 _atom_site_fract_z
 _atom_site_occupancy
 _atom_site_charge
In  In1  1  0.25801000  0.19165000  0.20583000  1.0 1.4620273025
In  In2  1  0.74199000  0.80835000  0.79417000  1.0 1.4620273025
In  In3  1  0.50000000  0.00000000  0.00000000  1.0 1.4352316768
H  H1  1  0.70550000  0.49790000  0.99070000  1.0 0.1300747306
H  H2  1  0.71530000  0.42700000  0.13950000  1.0 0.1565850934
H  H3  1  0.12370000  0.75350000  0.26690000  1.0 0.1517653228
H  H4  1  0.26470000  0.53600000  0.30900000  1.0 0.1565850934
H  H5  1  0.88890000  0.66410000  0.49030000  1.0 0.1565850934
H  H6  1  0.48180000  0.60890000  0.45160000  1.0 0.138891092
H  H7  1  0.57730000  0.24030000  0.11910000  1.0 0.4065905274
H  H8  1  0.29450000  0.50210000  0.00930000  1.0 0.1300747306
H  H9  1  0.28470000  0.57300000  0.86050000  1.0 0.1565850934
H  H10  1  0.87630000  0.24650000  0.73310000  1.0 0.1517653228
H  H11  1  0.73530000  0.46400000  0.69100000  1.0 0.1565850934
H  H12  1  0.11110000  0.33590000  0.50970000  1.0 0.1565850934
H  H13  1  0.51820000  0.39110000  0.54840000  1.0 0.138891092
H  H14  1  0.42270000  0.75970000  0.88090000  1.0 0.4065905274
C  C1  1  0.15800000  0.87700000  0.11930000  1.0 0.6513631255
C  C2  1  0.86550000  0.71890000  0.94450000  1.0 0.5528053255
C  C3  1  0.46950000  0.72690000  0.64470000  1.0 0.5528053255
C  C4  1  0.08210000  0.76040000  0.67470000  1.0 0.5976986797
C  C5  1  0.02710000  0.74450000  0.11980000  1.0 0.024899526
C  C6  1  0.90140000  0.67050000  0.03720000  1.0 -0.0630512922
C  C7  1  0.78820000  0.55000000  0.04700000  1.0 -0.0674906648
C  C8  1  0.79420000  0.50610000  0.13510000  1.0 -0.1952008507
C  C9  1  0.92150000  0.58280000  0.21850000  1.0 0.3019731552
C  C10  1  0.03880000  0.70250000  0.21120000  1.0 -0.252845624
C  C11  1  0.05980000  0.59340000  0.38650000  1.0 0.2254820527
C  C12  1  0.23330000  0.57660000  0.37400000  1.0 -0.1684824614
C  C13  1  0.00900000  0.65390000  0.48350000  1.0 -0.1814783229
C  C14  1  0.13910000  0.69880000  0.56980000  1.0 -0.0264084279
C  C15  1  0.31990000  0.68230000  0.55630000  1.0 -0.0063120476
C  C16  1  0.36280000  0.62090000  0.45950000  1.0 -0.0886744051
C  C17  1  0.84200000  0.12300000  0.88070000  1.0 0.6513631255
C  C18  1  0.13450000  0.28110000  0.05550000  1.0 0.5528053255
C  C19  1  0.53050000  0.27310000  0.35530000  1.0 0.5528053255
C  C20  1  0.91790000  0.23960000  0.32530000  1.0 0.5976986797
C  C21  1  0.97290000  0.25550000  0.88020000  1.0 0.024899526
C  C22  1  0.09860000  0.32950000  0.96280000  1.0 -0.0630512922
C  C23  1  0.21180000  0.45000000  0.95300000  1.0 -0.0674906648
C  C24  1  0.20580000  0.49390000  0.86490000  1.0 -0.1952008507
C  C25  1  0.07850000  0.41720000  0.78150000  1.0 0.3019731552
C  C26  1  0.96120000  0.29750000  0.78880000  1.0 -0.252845624
C  C27  1  0.94020000  0.40660000  0.61350000  1.0 0.2254820527
C  C28  1  0.76670000  0.42340000  0.62600000  1.0 -0.1684824614
C  C29  1  0.99100000  0.34610000  0.51650000  1.0 -0.1814783229
C  C30  1  0.86090000  0.30120000  0.43020000  1.0 -0.0264084279
C  C31  1  0.68010000  0.31770000  0.44370000  1.0 -0.0063120476
C  C32  1  0.63720000  0.37910000  0.54050000  1.0 -0.0886744051
O  O1  1  0.47820000  0.16660000  0.11010000  1.0 -0.876316735
O  O2  1  0.12900000  0.97850000  0.17840000  1.0 -0.5169862598
O  O3  1  0.28910000  0.87000000  0.06150000  1.0 -0.5870733946
O  O4  1  0.91190000  0.84280000  0.95140000  1.0 -0.5169862598
O  O5  1  0.78160000  0.64040000  0.86140000  1.0 -0.5415840237
O  O6  1  0.55830000  0.84700000  0.67060000  1.0 -0.5049309223
O  O7  1  0.51410000  0.64520000  0.68650000  1.0 -0.5116561144
O  O8  1  0.18980000  0.79150000  0.75500000  1.0 -0.5116561144
O  O9  1  0.91500000  0.77470000  0.67310000  1.0 -0.5714125126
O  O10  1  0.91560000  0.53690000  0.30620000  1.0 -0.1952008507
O  O11  1  0.52180000  0.83340000  0.88990000  1.0 -0.876316735
O  O12  1  0.87100000  0.02150000  0.82160000  1.0 -0.5169862598
O  O13  1  0.71090000  0.13000000  0.93850000  1.0 -0.5870733946
O  O14  1  0.08810000  0.15720000  0.04860000  1.0 -0.5169862598
O  O15  1  0.21840000  0.35960000  0.13860000  1.0 -0.5415840237
O  O16  1  0.44170000  0.15300000  0.32940000  1.0 -0.5049309223
O  O17  1  0.48590000  0.35480000  0.31350000  1.0 -0.5116561144
O  O18  1  0.81020000  0.20850000  0.24500000  1.0 -0.5116561144
O  O19  1  0.08500000  0.22530000  0.32690000  1.0 -0.5714125126
O  O20  1  0.08440000  0.46310000  0.69380000  1.0 -0.1952008507
