# DDEC6 charges by PACMAN v1.1 (https://github.com/mtap-research/PACMAN-charge/)
data_PATLON_ASR_pacman
_symmetry_space_group_name_H-M   'P 1'
_cell_length_a   16.20190000
_cell_length_b   16.20190000
_cell_length_c   6.89470000
_cell_angle_alpha   90.00000000
_cell_angle_beta   90.00000000
_cell_angle_gamma   90.00000000
_symmetry_Int_Tables_number   1
_chemical_formula_structural   CdH17C9(NO2)2
_chemical_formula_sum   'Cd8 H136 C72 N16 O32'
_cell_volume   1809.86953062
_cell_formula_units_Z   8
loop_
 _symmetry_equiv_pos_site_id
 _symmetry_equiv_pos_as_xyz
  1  'x, y, z'
loop_
 _atom_site_type_symbol
 _atom_site_label
 _atom_site_symmetry_multiplicity
 _atom_site_fract_x
 _atom_site_fract_y
 _atom_site_fract_z
 _atom_site_occupancy
 _atom_site_charge
Cd  Cd1  1  0.70735000  0.70735000  0.00000000  1.0 0.9178726814
Cd  Cd2  1  0.29265000  0.29265000  0.00000000  1.0 0.9149800083
Cd  Cd3  1  0.20735000  0.79265000  0.50000000  1.0 0.9149800083
Cd  Cd4  1  0.79265000  0.20735000  0.50000000  1.0 0.9149800083
Cd  Cd5  1  0.79265000  0.79265000  0.50000000  1.0 0.9149800083
Cd  Cd6  1  0.20735000  0.20735000  0.50000000  1.0 0.9149800083
Cd  Cd7  1  0.29265000  0.70735000  0.00000000  1.0 0.9149800083
Cd  Cd8  1  0.70735000  0.29265000  0.00000000  1.0 0.9149800083
H  H1  1  0.67680000  0.54800000  0.67710000  1.0 -0.0332509802
H  H2  1  0.32320000  0.45200000  0.67710000  1.0 -0.0332509802
H  H3  1  0.04800000  0.82320000  0.17710000  1.0 -0.0332509802
H  H4  1  0.95200000  0.17680000  0.17710000  1.0 -0.0332509802
H  H5  1  0.17680000  0.95200000  0.82290000  1.0 -0.0332509802
H  H6  1  0.82320000  0.04800000  0.82290000  1.0 -0.0332509802
H  H7  1  0.54800000  0.67680000  0.32290000  1.0 -0.0332509802
H  H8  1  0.45200000  0.32320000  0.32290000  1.0 -0.0332509802
H  H9  1  0.82320000  0.95200000  0.82290000  1.0 -0.0332509802
H  H10  1  0.17680000  0.04800000  0.82290000  1.0 -0.0332509802
H  H11  1  0.45200000  0.67680000  0.32290000  1.0 -0.0332509802
H  H12  1  0.54800000  0.32320000  0.32290000  1.0 -0.0332509802
H  H13  1  0.32320000  0.54800000  0.67710000  1.0 -0.0332509802
H  H14  1  0.67680000  0.45200000  0.67710000  1.0 -0.0332509802
H  H15  1  0.95200000  0.82320000  0.17710000  1.0 -0.0332509802
H  H16  1  0.04800000  0.17680000  0.17710000  1.0 -0.0332509802
H  H17  1  0.54220000  0.50000000  0.64830000  1.0 0.0687903176
H  H18  1  0.45780000  0.50000000  0.64830000  1.0 0.0687903176
H  H19  1  0.00000000  0.95780000  0.14830000  1.0 0.0687903176
H  H20  1  0.00000000  0.04220000  0.14830000  1.0 0.0687903176
H  H21  1  0.04220000  0.00000000  0.85170000  1.0 0.0687903176
H  H22  1  0.95780000  0.00000000  0.85170000  1.0 0.0687903176
H  H23  1  0.50000000  0.54220000  0.35170000  1.0 0.0687903176
H  H24  1  0.50000000  0.45780000  0.35170000  1.0 0.0687903176
H  H25  1  0.55340000  0.54840000  0.84350000  1.0 0.0821765534
H  H26  1  0.44660000  0.45160000  0.84350000  1.0 0.0821765534
H  H27  1  0.04840000  0.94660000  0.34350000  1.0 0.0821765534
H  H28  1  0.95160000  0.05340000  0.34350000  1.0 0.0821765534
H  H29  1  0.05340000  0.95160000  0.65650000  1.0 0.0821765534
H  H30  1  0.94660000  0.04840000  0.65650000  1.0 0.0821765534
H  H31  1  0.54840000  0.55340000  0.15650000  1.0 0.0821765534
H  H32  1  0.45160000  0.44660000  0.15650000  1.0 0.0821765534
H  H33  1  0.94660000  0.95160000  0.65650000  1.0 0.0821765534
H  H34  1  0.05340000  0.04840000  0.65650000  1.0 0.0821765534
H  H35  1  0.45160000  0.55340000  0.15650000  1.0 0.0821765534
H  H36  1  0.54840000  0.44660000  0.15650000  1.0 0.0821765534
H  H37  1  0.44660000  0.54840000  0.84350000  1.0 0.0821765534
H  H38  1  0.55340000  0.45160000  0.84350000  1.0 0.0821765534
H  H39  1  0.95160000  0.94660000  0.34350000  1.0 0.0821765534
H  H40  1  0.04840000  0.05340000  0.34350000  1.0 0.0821765534
H  H41  1  0.84190000  0.61990000  0.55660000  1.0 0.3495693719
H  H42  1  0.15810000  0.38010000  0.55660000  1.0 0.3495693719
H  H43  1  0.11990000  0.65810000  0.05660000  1.0 0.3495693719
H  H44  1  0.88010000  0.34190000  0.05660000  1.0 0.3495693719
H  H45  1  0.34190000  0.88010000  0.94340000  1.0 0.3495693719
H  H46  1  0.65810000  0.11990000  0.94340000  1.0 0.3495693719
H  H47  1  0.61990000  0.84190000  0.44340000  1.0 0.3495693719
H  H48  1  0.38010000  0.15810000  0.44340000  1.0 0.3495693719
H  H49  1  0.65810000  0.88010000  0.94340000  1.0 0.3495693719
H  H50  1  0.34190000  0.11990000  0.94340000  1.0 0.3495693719
H  H51  1  0.38010000  0.84190000  0.44340000  1.0 0.3495693719
H  H52  1  0.61990000  0.15810000  0.44340000  1.0 0.3495693719
H  H53  1  0.15810000  0.61990000  0.55660000  1.0 0.3495693719
H  H54  1  0.84190000  0.38010000  0.55660000  1.0 0.3495693719
H  H55  1  0.88010000  0.65810000  0.05660000  1.0 0.3495693719
H  H56  1  0.11990000  0.34190000  0.05660000  1.0 0.3495693719
H  H57  1  0.61410000  0.53790000  0.75030000  1.0 -0.051356445
H  H58  1  0.38590000  0.46210000  0.75030000  1.0 -0.051356445
H  H59  1  0.03790000  0.88590000  0.25030000  1.0 -0.051356445
H  H60  1  0.96210000  0.11410000  0.25030000  1.0 -0.051356445
H  H61  1  0.11410000  0.96210000  0.74970000  1.0 -0.051356445
H  H62  1  0.88590000  0.03790000  0.74970000  1.0 -0.051356445
H  H63  1  0.53790000  0.61410000  0.24970000  1.0 -0.051356445
H  H64  1  0.46210000  0.38590000  0.24970000  1.0 -0.051356445
H  H65  1  0.88590000  0.96210000  0.74970000  1.0 -0.051356445
H  H66  1  0.11410000  0.03790000  0.74970000  1.0 -0.051356445
H  H67  1  0.46210000  0.61410000  0.24970000  1.0 -0.051356445
H  H68  1  0.53790000  0.38590000  0.24970000  1.0 -0.051356445
H  H69  1  0.38590000  0.53790000  0.75030000  1.0 -0.051356445
H  H70  1  0.61410000  0.46210000  0.75030000  1.0 -0.051356445
H  H71  1  0.96210000  0.88590000  0.25030000  1.0 -0.051356445
H  H72  1  0.03790000  0.11410000  0.25030000  1.0 -0.051356445
H  H73  1  0.69870000  0.51980000  0.65450000  1.0 0.0479441887
H  H74  1  0.30130000  0.48020000  0.65450000  1.0 0.0479441887
H  H75  1  0.01980000  0.80130000  0.15450000  1.0 0.0479441887
H  H76  1  0.98020000  0.19870000  0.15450000  1.0 0.0479441887
H  H77  1  0.19870000  0.98020000  0.84550000  1.0 0.0479441887
H  H78  1  0.80130000  0.01980000  0.84550000  1.0 0.0479441887
H  H79  1  0.51980000  0.69870000  0.34550000  1.0 0.0479441887
H  H80  1  0.48020000  0.30130000  0.34550000  1.0 0.0479441887
H  H81  1  0.80130000  0.98020000  0.84550000  1.0 0.0479441887
H  H82  1  0.19870000  0.01980000  0.84550000  1.0 0.0479441887
H  H83  1  0.48020000  0.69870000  0.34550000  1.0 0.0479441887
H  H84  1  0.51980000  0.30130000  0.34550000  1.0 0.0479441887
H  H85  1  0.30130000  0.51980000  0.65450000  1.0 0.0479441887
H  H86  1  0.69870000  0.48020000  0.65450000  1.0 0.0479441887
H  H87  1  0.98020000  0.80130000  0.15450000  1.0 0.0479441887
H  H88  1  0.01980000  0.19870000  0.15450000  1.0 0.0479441887
H  H89  1  0.60290000  0.43890000  0.54240000  1.0 0.0641037664
H  H90  1  0.39710000  0.56110000  0.54240000  1.0 0.0641037664
H  H91  1  0.93890000  0.89710000  0.04240000  1.0 0.0641037664
H  H92  1  0.06110000  0.10290000  0.04240000  1.0 0.0641037664
H  H93  1  0.10290000  0.06110000  0.95760000  1.0 0.0641037664
H  H94  1  0.89710000  0.93890000  0.95760000  1.0 0.0641037664
H  H95  1  0.43890000  0.60290000  0.45760000  1.0 0.0641037664
H  H96  1  0.56110000  0.39710000  0.45760000  1.0 0.0641037664
H  H97  1  0.89710000  0.06110000  0.95760000  1.0 0.0641037664
H  H98  1  0.10290000  0.93890000  0.95760000  1.0 0.0641037664
H  H99  1  0.56110000  0.60290000  0.45760000  1.0 0.0641037664
H  H100  1  0.43890000  0.39710000  0.45760000  1.0 0.0641037664
H  H101  1  0.39710000  0.43890000  0.54240000  1.0 0.0641037664
H  H102  1  0.60290000  0.56110000  0.54240000  1.0 0.0641037664
H  H103  1  0.06110000  0.89710000  0.04240000  1.0 0.0641037664
H  H104  1  0.93890000  0.10290000  0.04240000  1.0 0.0641037664
H  H105  1  0.67180000  0.38770000  0.64730000  1.0 0.0894260435
H  H106  1  0.32820000  0.61230000  0.64730000  1.0 0.0894260435
H  H107  1  0.88770000  0.82820000  0.14730000  1.0 0.0894260435
H  H108  1  0.11230000  0.17180000  0.14730000  1.0 0.0894260435
H  H109  1  0.17180000  0.11230000  0.85270000  1.0 0.0894260435
H  H110  1  0.82820000  0.88770000  0.85270000  1.0 0.0894260435
H  H111  1  0.38770000  0.67180000  0.35270000  1.0 0.0894260435
H  H112  1  0.61230000  0.32820000  0.35270000  1.0 0.0894260435
H  H113  1  0.82820000  0.11230000  0.85270000  1.0 0.0894260435
H  H114  1  0.17180000  0.88770000  0.85270000  1.0 0.0894260435
H  H115  1  0.61230000  0.67180000  0.35270000  1.0 0.0894260435
H  H116  1  0.38770000  0.32820000  0.35270000  1.0 0.0894260435
H  H117  1  0.32820000  0.38770000  0.64730000  1.0 0.0894260435
H  H118  1  0.67180000  0.61230000  0.64730000  1.0 0.0894260435
H  H119  1  0.11230000  0.82820000  0.14730000  1.0 0.0894260435
H  H120  1  0.88770000  0.17180000  0.14730000  1.0 0.0894260435
H  H121  1  0.58710000  0.40330000  0.75060000  1.0 0.0821765534
H  H122  1  0.41290000  0.59670000  0.75060000  1.0 0.0821765534
H  H123  1  0.90330000  0.91290000  0.25060000  1.0 0.0821765534
H  H124  1  0.09670000  0.08710000  0.25060000  1.0 0.0821765534
H  H125  1  0.08710000  0.09670000  0.74940000  1.0 0.0821765534
H  H126  1  0.91290000  0.90330000  0.74940000  1.0 0.0821765534
H  H127  1  0.40330000  0.58710000  0.24940000  1.0 0.0821765534
H  H128  1  0.59670000  0.41290000  0.24940000  1.0 0.0821765534
H  H129  1  0.91290000  0.09670000  0.74940000  1.0 0.0821765534
H  H130  1  0.08710000  0.90330000  0.74940000  1.0 0.0821765534
H  H131  1  0.59670000  0.58710000  0.24940000  1.0 0.0821765534
H  H132  1  0.40330000  0.41290000  0.24940000  1.0 0.0821765534
H  H133  1  0.41290000  0.40330000  0.75060000  1.0 0.0821765534
H  H134  1  0.58710000  0.59670000  0.75060000  1.0 0.0821765534
H  H135  1  0.09670000  0.91290000  0.25060000  1.0 0.0821765534
H  H136  1  0.90330000  0.08710000  0.25060000  1.0 0.0821765534
C  C1  1  0.78880000  0.60320000  0.34500000  1.0 0.441608741
C  C2  1  0.21120000  0.39680000  0.34500000  1.0 0.441608741
C  C3  1  0.10320000  0.71120000  0.84500000  1.0 0.441608741
C  C4  1  0.89680000  0.28880000  0.84500000  1.0 0.441608741
C  C5  1  0.28880000  0.89680000  0.15500000  1.0 0.441608741
C  C6  1  0.71120000  0.10320000  0.15500000  1.0 0.441608741
C  C7  1  0.60320000  0.78880000  0.65500000  1.0 0.441608741
C  C8  1  0.39680000  0.21120000  0.65500000  1.0 0.441608741
C  C9  1  0.71120000  0.89680000  0.15500000  1.0 0.441608741
C  C10  1  0.28880000  0.10320000  0.15500000  1.0 0.441608741
C  C11  1  0.39680000  0.78880000  0.65500000  1.0 0.441608741
C  C12  1  0.60320000  0.21120000  0.65500000  1.0 0.441608741
C  C13  1  0.21120000  0.60320000  0.34500000  1.0 0.441608741
C  C14  1  0.78880000  0.39680000  0.34500000  1.0 0.441608741
C  C15  1  0.89680000  0.71120000  0.84500000  1.0 0.441608741
C  C16  1  0.10320000  0.28880000  0.84500000  1.0 0.441608741
C  C17  1  0.76050000  0.54250000  0.20140000  1.0 -0.0063626618
C  C18  1  0.23950000  0.45750000  0.20140000  1.0 -0.0063626618
C  C19  1  0.04250000  0.73950000  0.70140000  1.0 -0.0063626618
C  C20  1  0.95750000  0.26050000  0.70140000  1.0 -0.0048479856
C  C21  1  0.26050000  0.95750000  0.29860000  1.0 -0.0063626618
C  C22  1  0.73950000  0.04250000  0.29860000  1.0 -0.0048479856
C  C23  1  0.54250000  0.76050000  0.79860000  1.0 -0.0063626618
C  C24  1  0.45750000  0.23950000  0.79860000  1.0 -0.0063626618
C  C25  1  0.73950000  0.95750000  0.29860000  1.0 -0.0063626618
C  C26  1  0.26050000  0.04250000  0.29860000  1.0 -0.0063626618
C  C27  1  0.45750000  0.76050000  0.79860000  1.0 -0.0063626618
C  C28  1  0.54250000  0.23950000  0.79860000  1.0 -0.0063626618
C  C29  1  0.23950000  0.54250000  0.20140000  1.0 -0.0063626618
C  C30  1  0.76050000  0.45750000  0.20140000  1.0 -0.0063626618
C  C31  1  0.95750000  0.73950000  0.70140000  1.0 -0.0048479856
C  C32  1  0.04250000  0.26050000  0.70140000  1.0 -0.0063626618
C  C33  1  0.70140000  0.50000000  0.93750000  1.0 0.2577219299
C  C34  1  0.29860000  0.50000000  0.93750000  1.0 0.2577219299
C  C35  1  0.00000000  0.79860000  0.43750000  1.0 0.2577219299
C  C36  1  0.00000000  0.20140000  0.43750000  1.0 0.2577219299
C  C37  1  0.20140000  0.00000000  0.56250000  1.0 0.2577219299
C  C38  1  0.79860000  0.00000000  0.56250000  1.0 0.2577219299
C  C39  1  0.50000000  0.70140000  0.06250000  1.0 0.2577219299
C  C40  1  0.50000000  0.29860000  0.06250000  1.0 0.2577219299
C  C41  1  0.65960000  0.50000000  0.74820000  1.0 -0.0824865
C  C42  1  0.34040000  0.50000000  0.74820000  1.0 -0.0824865
C  C43  1  0.00000000  0.84040000  0.24820000  1.0 -0.0824865
C  C44  1  0.00000000  0.15960000  0.24820000  1.0 -0.0824865
C  C45  1  0.15960000  0.00000000  0.75180000  1.0 -0.0824865
C  C46  1  0.84040000  0.00000000  0.75180000  1.0 -0.0824865
C  C47  1  0.50000000  0.65960000  0.25180000  1.0 -0.0824865
C  C48  1  0.50000000  0.34040000  0.25180000  1.0 -0.0824865
C  C49  1  0.56920000  0.50000000  0.77200000  1.0 -0.1233022073
C  C50  1  0.43080000  0.50000000  0.77200000  1.0 -0.1233022073
C  C51  1  0.00000000  0.93080000  0.27200000  1.0 -0.1233022073
C  C52  1  0.00000000  0.06920000  0.27200000  1.0 -0.1233022073
C  C53  1  0.06920000  0.00000000  0.72800000  1.0 -0.1233022073
C  C54  1  0.93080000  0.00000000  0.72800000  1.0 -0.1233022073
C  C55  1  0.50000000  0.56920000  0.22800000  1.0 -0.1233022073
C  C56  1  0.50000000  0.43080000  0.22800000  1.0 -0.1233022073
C  C57  1  0.62800000  0.42650000  0.66500000  1.0 -0.1848468938
C  C58  1  0.37200000  0.57350000  0.66500000  1.0 -0.185294331
C  C59  1  0.92650000  0.87200000  0.16500000  1.0 -0.1848468938
C  C60  1  0.07350000  0.12800000  0.16500000  1.0 -0.1848468938
C  C61  1  0.12800000  0.07350000  0.83500000  1.0 -0.1848468938
C  C62  1  0.87200000  0.92650000  0.83500000  1.0 -0.1848468938
C  C63  1  0.42650000  0.62800000  0.33500000  1.0 -0.1848468938
C  C64  1  0.57350000  0.37200000  0.33500000  1.0 -0.1848468938
C  C65  1  0.87200000  0.07350000  0.83500000  1.0 -0.1848468938
C  C66  1  0.12800000  0.92650000  0.83500000  1.0 -0.1848468938
C  C67  1  0.57350000  0.62800000  0.33500000  1.0 -0.1848468938
C  C68  1  0.42650000  0.37200000  0.33500000  1.0 -0.1848468938
C  C69  1  0.37200000  0.42650000  0.66500000  1.0 -0.1848468938
C  C70  1  0.62800000  0.57350000  0.66500000  1.0 -0.185294331
C  C71  1  0.07350000  0.87200000  0.16500000  1.0 -0.1848468938
C  C72  1  0.92650000  0.12800000  0.16500000  1.0 -0.1848468938
N  N1  1  0.72260000  0.56900000  0.03450000  1.0 -0.3818133798
N  N2  1  0.27740000  0.43100000  0.03450000  1.0 -0.3818133798
N  N3  1  0.06900000  0.77740000  0.53450000  1.0 -0.3818133798
N  N4  1  0.93100000  0.22260000  0.53450000  1.0 -0.3818133798
N  N5  1  0.22260000  0.93100000  0.46550000  1.0 -0.3818133798
N  N6  1  0.77740000  0.06900000  0.46550000  1.0 -0.3818133798
N  N7  1  0.56900000  0.72260000  0.96550000  1.0 -0.3818133798
N  N8  1  0.43100000  0.27740000  0.96550000  1.0 -0.3818133798
N  N9  1  0.77740000  0.93100000  0.46550000  1.0 -0.3818133798
N  N10  1  0.22260000  0.06900000  0.46550000  1.0 -0.3818133798
N  N11  1  0.43100000  0.72260000  0.96550000  1.0 -0.3818133798
N  N12  1  0.56900000  0.27740000  0.96550000  1.0 -0.3818133798
N  N13  1  0.27740000  0.56900000  0.03450000  1.0 -0.3818133798
N  N14  1  0.72260000  0.43100000  0.03450000  1.0 -0.3818133798
N  N15  1  0.93100000  0.77740000  0.53450000  1.0 -0.3818133798
N  N16  1  0.06900000  0.22260000  0.53450000  1.0 -0.3818133798
O  O1  1  0.76790000  0.67740000  0.31790000  1.0 -0.5589046561
O  O2  1  0.23210000  0.32260000  0.31790000  1.0 -0.5589046561
O  O3  1  0.17740000  0.73210000  0.81790000  1.0 -0.5589046561
O  O4  1  0.82260000  0.26790000  0.81790000  1.0 -0.5589046561
O  O5  1  0.26790000  0.82260000  0.18210000  1.0 -0.5589046561
O  O6  1  0.73210000  0.17740000  0.18210000  1.0 -0.5589046561
O  O7  1  0.67740000  0.76790000  0.68210000  1.0 -0.5589046561
O  O8  1  0.32260000  0.23210000  0.68210000  1.0 -0.5589046561
O  O9  1  0.73210000  0.82260000  0.18210000  1.0 -0.5589046561
O  O10  1  0.26790000  0.17740000  0.18210000  1.0 -0.5589046561
O  O11  1  0.32260000  0.76790000  0.68210000  1.0 -0.5589046561
O  O12  1  0.67740000  0.23210000  0.68210000  1.0 -0.5589046561
O  O13  1  0.23210000  0.67740000  0.31790000  1.0 -0.5589046561
O  O14  1  0.76790000  0.32260000  0.31790000  1.0 -0.5589046561
O  O15  1  0.82260000  0.73210000  0.81790000  1.0 -0.5589046561
O  O16  1  0.17740000  0.26790000  0.81790000  1.0 -0.5589046561
O  O17  1  0.83020000  0.57990000  0.48940000  1.0 -0.4587308401
O  O18  1  0.16980000  0.42010000  0.48940000  1.0 -0.4587308401
O  O19  1  0.07990000  0.66980000  0.98940000  1.0 -0.4587308401
O  O20  1  0.92010000  0.33020000  0.98940000  1.0 -0.4587308401
O  O21  1  0.33020000  0.92010000  0.01060000  1.0 -0.4587308401
O  O22  1  0.66980000  0.07990000  0.01060000  1.0 -0.4587308401
O  O23  1  0.57990000  0.83020000  0.51060000  1.0 -0.4587308401
O  O24  1  0.42010000  0.16980000  0.51060000  1.0 -0.4587308401
O  O25  1  0.66980000  0.92010000  0.01060000  1.0 -0.4587308401
O  O26  1  0.33020000  0.07990000  0.01060000  1.0 -0.4587308401
O  O27  1  0.42010000  0.83020000  0.51060000  1.0 -0.4587308401
O  O28  1  0.57990000  0.16980000  0.51060000  1.0 -0.4587308401
O  O29  1  0.16980000  0.57990000  0.48940000  1.0 -0.4587308401
O  O30  1  0.83020000  0.42010000  0.48940000  1.0 -0.4587308401
O  O31  1  0.92010000  0.66980000  0.98940000  1.0 -0.4587308401
O  O32  1  0.07990000  0.33020000  0.98940000  1.0 -0.4587308401
