# DDEC6 charges by PACMAN v1.1 (https://github.com/mtap-research/PACMAN-charge/)
data_PATWOY_ASR_pacman
_symmetry_space_group_name_H-M   'P 1'
_cell_length_a   9.47100000
_cell_length_b   17.35790000
_cell_length_c   19.68310000
_cell_angle_alpha   103.77300000
_cell_angle_beta   96.76800000
_cell_angle_gamma   88.40700000
_symmetry_Int_Tables_number   1
_chemical_formula_structural   Zn3H64C98(NO2)6
_chemical_formula_sum   'Zn3 H64 C98 N6 O12'
_cell_volume   3120.89402119
_cell_formula_units_Z   1
loop_
 _symmetry_equiv_pos_site_id
 _symmetry_equiv_pos_as_xyz
  1  'x, y, z'
loop_
 _atom_site_type_symbol
 _atom_site_label
 _atom_site_symmetry_multiplicity
 _atom_site_fract_x
 _atom_site_fract_y
 _atom_site_fract_z
 _atom_site_occupancy
 _atom_site_charge
Zn  Zn1  1  0.86866000  0.04619000  0.01047000  1.0 0.829851138
Zn  Zn2  1  0.13134000  0.95381000  0.98953000  1.0 0.829851138
Zn  Zn3  1  0.00000000  0.50000000  0.00000000  1.0 0.7534356588
H  H1  1  0.73610000  0.95400000  0.18560000  1.0 0.1288958352
H  H2  1  0.26390000  0.04600000  0.81440000  1.0 0.1288958352
H  H3  1  0.74400000  0.82740000  0.36760000  1.0 0.1110881595
H  H4  1  0.25600000  0.17260000  0.63240000  1.0 0.1110881595
H  H5  1  0.68990000  0.87820000  0.26240000  1.0 0.1186082353
H  H6  1  0.31010000  0.12180000  0.73760000  1.0 0.1186082353
H  H7  1  0.66760000  0.73940000  0.42670000  1.0 0.1288958352
H  H8  1  0.33240000  0.26060000  0.57330000  1.0 0.1288958352
H  H9  1  0.42910000  0.12080000  0.14540000  1.0 0.1186082353
H  H10  1  0.57090000  0.87920000  0.85460000  1.0 0.1186082353
H  H11  1  0.04630000  0.60590000  0.55860000  1.0 0.1110881595
H  H12  1  0.95370000  0.39410000  0.44140000  1.0 0.1110881595
H  H13  1  0.03170000  0.74410000  0.21420000  1.0 0.1186082353
H  H14  1  0.96830000  0.25590000  0.78580000  1.0 0.1186082353
H  H15  1  0.55020000  0.22640000  0.21870000  1.0 0.1186082353
H  H16  1  0.44980000  0.77360000  0.78130000  1.0 0.1186082353
H  H17  1  0.07500000  0.25310000  0.14340000  1.0 0.1186082353
H  H18  1  0.92500000  0.74690000  0.85660000  1.0 0.1186082353
H  H19  1  0.79340000  0.55640000  0.28010000  1.0 0.1186082353
H  H20  1  0.20660000  0.44360000  0.71990000  1.0 0.1186082353
H  H21  1  0.17580000  0.63770000  0.79630000  1.0 0.1186082353
H  H22  1  0.82420000  0.36230000  0.20370000  1.0 0.1186082353
H  H23  1  0.19690000  0.35960000  0.21390000  1.0 0.1043255577
H  H24  1  0.80310000  0.64040000  0.78610000  1.0 0.1043255577
H  H25  1  0.08180000  0.82130000  0.13960000  1.0 0.1288958352
H  H26  1  0.91820000  0.17870000  0.86040000  1.0 0.1288958352
H  H27  1  0.86620000  0.64480000  0.21880000  1.0 0.1186082353
H  H28  1  0.13380000  0.35520000  0.78120000  1.0 0.1186082353
H  H29  1  0.59220000  0.32310000  0.33380000  1.0 0.1186082353
H  H30  1  0.40780000  0.67690000  0.66620000  1.0 0.1186082353
H  H31  1  0.56550000  0.55750000  0.50190000  1.0 0.1186082353
H  H32  1  0.43450000  0.44250000  0.49810000  1.0 0.1186082353
H  H33  1  0.08860000  0.64790000  0.68440000  1.0 0.1110881595
H  H34  1  0.91140000  0.35210000  0.31560000  1.0 0.1110881595
H  H35  1  0.63200000  0.86400000  0.03150000  1.0 0.1375852102
H  H36  1  0.36800000  0.13600000  0.96850000  1.0 0.1375852102
H  H37  1  0.72790000  0.53290000  0.90620000  1.0 0.1110881595
H  H38  1  0.27210000  0.46710000  0.09380000  1.0 0.1110881595
H  H39  1  0.54990000  0.62200000  0.90130000  1.0 0.1375852102
H  H40  1  0.45010000  0.37800000  0.09870000  1.0 0.1375852102
H  H41  1  0.48000000  0.56780000  0.28790000  1.0 0.1288958352
H  H42  1  0.52000000  0.43220000  0.71210000  1.0 0.1288958352
H  H43  1  0.74960000  0.76330000  0.07610000  1.0 0.1288958352
H  H44  1  0.25040000  0.23670000  0.92390000  1.0 0.1288958352
H  H45  1  0.35510000  0.68820000  0.94070000  1.0 0.1484741965
H  H46  1  0.64490000  0.31180000  0.05930000  1.0 0.1484741965
H  H47  1  0.93900000  0.61500000  0.45040000  1.0 0.1288958352
H  H48  1  0.06100000  0.38500000  0.54960000  1.0 0.1288958352
H  H49  1  0.82400000  0.46610000  0.66820000  1.0 0.1110881595
H  H50  1  0.17600000  0.53390000  0.33180000  1.0 0.1110881595
H  H51  1  0.67400000  0.54190000  0.60800000  1.0 0.1110881595
H  H52  1  0.32600000  0.45810000  0.39200000  1.0 0.1110881595
H  H53  1  0.44740000  0.95260000  0.03010000  1.0 0.1110881595
H  H54  1  0.55260000  0.04740000  0.96990000  1.0 0.1110881595
H  H55  1  0.36700000  0.45790000  0.22060000  1.0 0.1110881595
H  H56  1  0.63300000  0.54210000  0.77940000  1.0 0.1110881595
H  H57  1  0.90700000  0.45830000  0.78080000  1.0 0.1186082353
H  H58  1  0.09300000  0.54170000  0.21920000  1.0 0.1186082353
H  H59  1  0.70460000  0.43450000  0.40260000  1.0 0.1186082353
H  H60  1  0.29540000  0.56550000  0.59740000  1.0 0.1186082353
H  H61  1  0.17900000  0.78110000  0.94040000  1.0 0.1186082353
H  H62  1  0.82100000  0.21890000  0.05960000  1.0 0.1186082353
H  H63  1  0.92330000  0.66760000  0.07280000  1.0 0.1043255577
H  H64  1  0.07670000  0.33240000  0.92720000  1.0 0.1043255577
C  C1  1  0.79510000  0.91150000  0.19090000  1.0 -0.1090115409
C  C2  1  0.20490000  0.08850000  0.80910000  1.0 -0.1090115409
C  C3  1  0.75270000  0.77320000  0.34940000  1.0 -0.1310466281
C  C4  1  0.24730000  0.22680000  0.65060000  1.0 -0.1310466281
C  C5  1  0.76650000  0.86540000  0.23620000  1.0 -0.1526296264
C  C6  1  0.23350000  0.13460000  0.76380000  1.0 -0.1526296264
C  C7  1  0.70770000  0.72040000  0.38490000  1.0 -0.1735002061
C  C8  1  0.29230000  0.27960000  0.61510000  1.0 -0.1735002061
C  C9  1  0.09730000  0.54590000  0.87590000  1.0 0.5488362783
C  C10  1  0.90270000  0.45410000  0.12410000  1.0 0.5488362783
C  C11  1  0.38220000  0.16880000  0.15930000  1.0 -0.103334268
C  C12  1  0.61780000  0.83120000  0.84070000  1.0 -0.103334268
C  C13  1  0.95000000  0.59420000  0.54690000  1.0 -0.1310466281
C  C14  1  0.05000000  0.40580000  0.45310000  1.0 -0.1310466281
C  C15  1  0.97080000  0.78550000  0.20790000  1.0 -0.1589883244
C  C16  1  0.02920000  0.21450000  0.79210000  1.0 -0.1589883244
C  C17  1  0.91280000  0.89410000  0.15310000  1.0 -0.039380507
C  C18  1  0.08720000  0.10590000  0.84690000  1.0 -0.039380507
C  C19  1  0.45490000  0.23230000  0.20290000  1.0 -0.1589883244
C  C20  1  0.54510000  0.76770000  0.79710000  1.0 -0.1589883244
C  C21  1  0.17120000  0.24780000  0.15770000  1.0 -0.0940487957
C  C22  1  0.82880000  0.75220000  0.84230000  1.0 -0.0940487957
C  C23  1  0.78220000  0.61070000  0.29730000  1.0 -0.1735002061
C  C24  1  0.21780000  0.38930000  0.70270000  1.0 -0.1735002061
C  C25  1  0.10290000  0.60420000  0.77100000  1.0 -0.1090115409
C  C26  1  0.89710000  0.39580000  0.22900000  1.0 -0.1090115409
C  C27  1  0.81130000  0.74500000  0.28590000  1.0 0.0499833716
C  C28  1  0.18870000  0.25500000  0.71410000  1.0 0.0499833716
C  C29  1  0.24410000  0.31160000  0.20040000  1.0 -0.1526296264
C  C30  1  0.75590000  0.68840000  0.79960000  1.0 -0.1526296264
C  C31  1  0.00120000  0.83200000  0.16310000  1.0 -0.1090115409
C  C32  1  0.99880000  0.16800000  0.83690000  1.0 -0.1090115409
C  C33  1  0.82640000  0.66400000  0.26060000  1.0 -0.1310466281
C  C34  1  0.17360000  0.33600000  0.73940000  1.0 -0.1310466281
C  C35  1  0.23770000  0.17530000  0.13540000  1.0 -0.0341371106
C  C36  1  0.76230000  0.82470000  0.86460000  1.0 -0.0341371106
C  C37  1  0.56890000  0.37230000  0.32450000  1.0 -0.1357166445
C  C38  1  0.43110000  0.62770000  0.67550000  1.0 -0.1357166445
C  C39  1  0.74180000  0.58410000  0.46300000  1.0 0.1726359898
C  C40  1  0.25820000  0.41590000  0.53700000  1.0 0.1726359898
C  C41  1  0.66320000  0.56490000  0.51260000  1.0 -0.18108078
C  C42  1  0.33680000  0.43510000  0.48740000  1.0 -0.18108078
C  C43  1  0.93980000  0.94070000  0.10070000  1.0 0.5738341683
C  C44  1  0.06020000  0.05930000  0.89930000  1.0 0.5738341683
C  C45  1  0.05060000  0.61030000  0.70380000  1.0 -0.1526296264
C  C46  1  0.94940000  0.38970000  0.29620000  1.0 -0.1526296264
C  C47  1  0.54050000  0.84590000  0.01320000  1.0 -0.18108078
C  C48  1  0.45950000  0.15410000  0.98680000  1.0 -0.18108078
C  C49  1  0.73190000  0.58000000  0.94080000  1.0 0.0605938831
C  C50  1  0.26810000  0.42000000  0.05920000  1.0 0.0605938831
C  C51  1  0.62500000  0.63330000  0.93710000  1.0 -0.1735002061
C  C52  1  0.37500000  0.36670000  0.06290000  1.0 -0.1735002061
C  C53  1  0.50230000  0.51870000  0.29760000  1.0 -0.1735002061
C  C54  1  0.49770000  0.48130000  0.70240000  1.0 -0.1735002061
C  C55  1  0.51370000  0.76480000  0.98690000  1.0 0.1110881595
C  C56  1  0.48630000  0.23520000  0.01310000  1.0 0.1110881595
C  C57  1  0.74290000  0.71710000  0.04040000  1.0 -0.18108078
C  C58  1  0.25710000  0.28290000  0.95960000  1.0 -0.18108078
C  C59  1  0.37630000  0.74160000  0.95920000  1.0 -0.18108078
C  C60  1  0.62370000  0.25840000  0.04080000  1.0 -0.18108078
C  C61  1  0.85150000  0.79940000  0.24340000  1.0 0.0685035995
C  C62  1  0.14850000  0.20060000  0.75660000  1.0 0.0685035995
C  C63  1  0.38880000  0.30620000  0.22410000  1.0 0.0685035995
C  C64  1  0.61120000  0.69380000  0.77590000  1.0 0.0685035995
C  C65  1  0.60510000  0.51410000  0.35430000  1.0 0.1783479625
C  C66  1  0.39490000  0.48590000  0.64570000  1.0 0.1783479625
C  C67  1  0.46610000  0.37730000  0.26890000  1.0 0.0499833716
C  C68  1  0.53390000  0.62270000  0.73110000  1.0 0.0499833716
C  C69  1  0.88560000  0.60010000  0.48190000  1.0 -0.18108078
C  C70  1  0.11440000  0.39990000  0.51810000  1.0 -0.18108078
C  C71  1  0.89230000  0.50210000  0.69440000  1.0 -0.1526296264
C  C72  1  0.10770000  0.49790000  0.30560000  1.0 -0.1526296264
C  C73  1  0.87470000  0.57090000  0.59590000  1.0 0.0499833716
C  C74  1  0.12530000  0.42910000  0.40410000  1.0 0.0499833716
C  C75  1  0.72790000  0.55690000  0.57670000  1.0 -0.1310466281
C  C76  1  0.27210000  0.44310000  0.42330000  1.0 -0.1310466281
C  C77  1  0.94140000  0.56060000  0.66480000  1.0 0.0685035995
C  C78  1  0.05860000  0.43940000  0.33520000  1.0 0.0685035995
C  C79  1  0.04760000  0.54890000  0.80110000  1.0 -0.039380507
C  C80  1  0.95240000  0.45110000  0.19890000  1.0 -0.039380507
C  C81  1  0.42930000  0.89880000  0.01180000  1.0 0.0797929415
C  C82  1  0.57070000  0.10120000  0.98820000  1.0 0.0797929415
C  C83  1  0.62900000  0.70460000  0.98720000  1.0 0.1186082353
C  C84  1  0.37100000  0.29540000  0.01280000  1.0 0.1186082353
C  C85  1  0.72170000  0.63930000  0.35910000  1.0 0.1645388552
C  C86  1  0.27830000  0.36070000  0.64090000  1.0 0.1645388552
C  C87  1  0.43550000  0.45290000  0.25730000  1.0 -0.1310466281
C  C88  1  0.56450000  0.54710000  0.74270000  1.0 -0.1310466281
C  C89  1  0.15790000  0.10760000  0.08600000  1.0 0.5753559941
C  C90  1  0.84210000  0.89240000  0.91400000  1.0 0.5753559941
C  C91  1  0.94280000  0.49680000  0.76170000  1.0 -0.1211076876
C  C92  1  0.05720000  0.50320000  0.23830000  1.0 -0.1211076876
C  C93  1  0.63620000  0.43940000  0.36580000  1.0 -0.1884172014
C  C94  1  0.36380000  0.56060000  0.63420000  1.0 -0.1884172014
C  C95  1  0.27090000  0.79780000  0.95910000  1.0 0.0947840983
C  C96  1  0.72910000  0.20220000  0.04090000  1.0 0.0947840983
C  C97  1  0.84600000  0.65840000  0.03820000  1.0 0.0947840983
C  C98  1  0.15400000  0.34160000  0.96180000  1.0 0.0947840983
N  N1  1  0.67310000  0.58427000  0.39502000  1.0 -0.1735002061
N  N2  1  0.32690000  0.41573000  0.60498000  1.0 -0.1735002061
N  N3  1  0.84220000  0.59110000  0.99084000  1.0 -0.2126583284
N  N4  1  0.15780000  0.40890000  0.00916000  1.0 -0.2126583284
N  N5  1  0.29520000  0.87562000  0.98473000  1.0 -0.2207262567
N  N6  1  0.70480000  0.12438000  0.01527000  1.0 -0.2207262567
O  O1  1  0.18670000  0.59430000  0.91056000  1.0 -0.5569623834
O  O2  1  0.81330000  0.40570000  0.08944000  1.0 -0.5569623834
O  O3  1  0.02580000  0.11465000  0.07429000  1.0 -0.5533208376
O  O4  1  0.97420000  0.88535000  0.92571000  1.0 -0.5533208376
O  O5  1  0.05210000  0.92480000  0.07305000  1.0 -0.5415119058
O  O6  1  0.94790000  0.07520000  0.92695000  1.0 -0.5415119058
O  O7  1  0.84710000  0.98859000  0.08719000  1.0 -0.5280007845
O  O8  1  0.15290000  0.01141000  0.91281000  1.0 -0.5280007845
O  O9  1  0.22880000  0.04778000  0.06010000  1.0 -0.5415119058
O  O10  1  0.77120000  0.95222000  0.93990000  1.0 -0.5415119058
O  O11  1  0.03920000  0.49236000  0.89818000  1.0 -0.5776306516
O  O12  1  0.96080000  0.50764000  0.10182000  1.0 -0.5776306516
