# DDEC6 charges by PACMAN v1.1 (https://github.com/mtap-research/PACMAN-charge/)
data_PAXFEC_FSR_pacman
_symmetry_space_group_name_H-M   'P 1'
_cell_length_a   13.84960000
_cell_length_b   17.47650000
_cell_length_c   20.05770000
_cell_angle_alpha   90.00000000
_cell_angle_beta   132.12800000
_cell_angle_gamma   90.00000000
_symmetry_Int_Tables_number   1
_chemical_formula_structural   Mg3H44(C25O12)2
_chemical_formula_sum   'Mg6 H88 C100 O48'
_cell_volume   3600.56556215
_cell_formula_units_Z   2
loop_
 _symmetry_equiv_pos_site_id
 _symmetry_equiv_pos_as_xyz
  1  'x, y, z'
loop_
 _atom_site_type_symbol
 _atom_site_label
 _atom_site_symmetry_multiplicity
 _atom_site_fract_x
 _atom_site_fract_y
 _atom_site_fract_z
 _atom_site_occupancy
 _atom_site_charge
Mg  Mg1  1  0.27226000  0.06670000  0.77309000  1.0 1.3057084272
Mg  Mg2  1  0.72774000  0.56670000  0.72691000  1.0 1.3057084272
Mg  Mg3  1  0.72774000  0.93330000  0.22691000  1.0 1.3057084272
Mg  Mg4  1  0.27226000  0.43330000  0.27309000  1.0 1.3057084272
Mg  Mg5  1  0.50000000  0.00000000  0.00000000  1.0 1.379413862
Mg  Mg6  1  0.50000000  0.50000000  0.50000000  1.0 1.379413862
H  H1  1  0.35250000  0.11700000  0.91420000  1.0 0.3694211433
H  H2  1  0.45380000  0.12610000  0.91730000  1.0 0.3615986595
H  H3  1  0.89159000  0.20376000  0.64005000  1.0 0.1109839841
H  H4  1  0.74640000  0.30744000  0.57907000  1.0 0.1304430293
H  H5  1  0.01134000  0.51714000  0.74839000  1.0 0.1109839841
H  H6  1  0.23336000  0.53559000  0.86067000  1.0 0.1019554028
H  H7  1  0.37684000  0.43086000  0.92298000  1.0 0.1109839841
H  H8  1  0.29893000  0.30886000  0.87345000  1.0 0.1211668963
H  H9  1  0.50303000  0.05679000  0.27209000  1.0 0.1109839841
H  H10  1  0.46692000  0.15375000  0.33377000  1.0 0.1109839841
H  H11  1  0.49602000  0.37975000  0.22514000  1.0 0.1211668963
H  H12  1  0.53761000  0.41006000  0.13458000  1.0 0.1109839841
H  H13  1  0.56180000  0.31264000  0.06546000  1.0 0.1211668963
H  H14  1  0.55323000  0.18561000  0.09250000  1.0 0.1304430293
H  H15  1  0.16100000  0.98140000  0.65300000  1.0 0.3537242899
H  H16  1  0.95541000  0.01420000  0.52881000  1.0 0.0447879771
H  H17  1  0.98195000  0.99121000  0.61713000  1.0 0.1785071866
H  H18  1  0.97792000  0.07945000  0.59402000  1.0 0.2236462796
H  H19  1  0.14200000  0.98060000  0.62500000  1.0 0.3285500893
H  H20  1  0.10100000  0.05610000  0.59900000  1.0 0.240829874
H  H21  1  0.83500000  0.03900000  0.53800000  1.0 0.2063043678
H  H22  1  0.92500000  0.05000000  0.63000000  1.0 0.1892688686
H  H23  1  0.64750000  0.61700000  0.58580000  1.0 0.3694211433
H  H24  1  0.54620000  0.62610000  0.58270000  1.0 0.3615986595
H  H25  1  0.10841000  0.70376000  0.85995000  1.0 0.1109839841
H  H26  1  0.25360000  0.80744000  0.92093000  1.0 0.1304430293
H  H27  1  0.98866000  0.01714000  0.75161000  1.0 0.1109839841
H  H28  1  0.76664000  0.03559000  0.63933000  1.0 0.1019554028
H  H29  1  0.62316000  0.93086000  0.57702000  1.0 0.1109839841
H  H30  1  0.70107000  0.80886000  0.62655000  1.0 0.1211668963
H  H31  1  0.49697000  0.55679000  0.22791000  1.0 0.1109839841
H  H32  1  0.53308000  0.65375000  0.16623000  1.0 0.1109839841
H  H33  1  0.50398000  0.87975000  0.27486000  1.0 0.1211668963
H  H34  1  0.46239000  0.91006000  0.36542000  1.0 0.1109839841
H  H35  1  0.43820000  0.81264000  0.43454000  1.0 0.1211668963
H  H36  1  0.44677000  0.68561000  0.40750000  1.0 0.1304430293
H  H37  1  0.83900000  0.48140000  0.84700000  1.0 0.3537242899
H  H38  1  0.04459000  0.51420000  0.97119000  1.0 0.0447879771
H  H39  1  0.01805000  0.49121000  0.88287000  1.0 0.1785071866
H  H40  1  0.02208000  0.57945000  0.90598000  1.0 0.2236462796
H  H41  1  0.85800000  0.48060000  0.87500000  1.0 0.3285500893
H  H42  1  0.89900000  0.55610000  0.90100000  1.0 0.240829874
H  H43  1  0.16500000  0.53900000  0.96200000  1.0 0.2063043678
H  H44  1  0.07500000  0.55000000  0.87000000  1.0 0.1892688686
H  H45  1  0.64750000  0.88300000  0.08580000  1.0 0.3694211433
H  H46  1  0.54620000  0.87390000  0.08270000  1.0 0.3615986595
H  H47  1  0.10841000  0.79624000  0.35995000  1.0 0.1109839841
H  H48  1  0.25360000  0.69256000  0.42093000  1.0 0.1304430293
H  H49  1  0.98866000  0.48286000  0.25161000  1.0 0.1109839841
H  H50  1  0.76664000  0.46441000  0.13933000  1.0 0.1019554028
H  H51  1  0.62316000  0.56914000  0.07702000  1.0 0.1109839841
H  H52  1  0.70107000  0.69114000  0.12655000  1.0 0.1211668963
H  H53  1  0.49697000  0.94321000  0.72791000  1.0 0.1109839841
H  H54  1  0.53308000  0.84625000  0.66623000  1.0 0.1109839841
H  H55  1  0.50398000  0.62025000  0.77486000  1.0 0.1211668963
H  H56  1  0.46239000  0.58994000  0.86542000  1.0 0.1109839841
H  H57  1  0.43820000  0.68736000  0.93454000  1.0 0.1211668963
H  H58  1  0.44677000  0.81439000  0.90750000  1.0 0.1304430293
H  H59  1  0.83900000  0.01860000  0.34700000  1.0 0.3537242899
H  H60  1  0.04459000  0.98580000  0.47119000  1.0 0.0455794001
H  H61  1  0.01805000  0.00879000  0.38287000  1.0 0.1785071866
H  H62  1  0.02208000  0.92055000  0.40598000  1.0 0.2236462796
H  H63  1  0.85800000  0.01940000  0.37500000  1.0 0.3285500893
H  H64  1  0.89900000  0.94390000  0.40100000  1.0 0.240829874
H  H65  1  0.16500000  0.96100000  0.46200000  1.0 0.2063043678
H  H66  1  0.07500000  0.95000000  0.37000000  1.0 0.1892688686
H  H67  1  0.35250000  0.38300000  0.41420000  1.0 0.3694211433
H  H68  1  0.45380000  0.37390000  0.41730000  1.0 0.3615986595
H  H69  1  0.89159000  0.29624000  0.14005000  1.0 0.1109839841
H  H70  1  0.74640000  0.19256000  0.07907000  1.0 0.1304430293
H  H71  1  0.01134000  0.98286000  0.24839000  1.0 0.1109839841
H  H72  1  0.23336000  0.96441000  0.36067000  1.0 0.1019554028
H  H73  1  0.37684000  0.06914000  0.42298000  1.0 0.1109839841
H  H74  1  0.29893000  0.19114000  0.37345000  1.0 0.1211668963
H  H75  1  0.50303000  0.44321000  0.77209000  1.0 0.1109839841
H  H76  1  0.46692000  0.34625000  0.83377000  1.0 0.1109839841
H  H77  1  0.49602000  0.12025000  0.72514000  1.0 0.1211668963
H  H78  1  0.53761000  0.08994000  0.63458000  1.0 0.1109839841
H  H79  1  0.56180000  0.18736000  0.56546000  1.0 0.1211668963
H  H80  1  0.55323000  0.31439000  0.59250000  1.0 0.1304430293
H  H81  1  0.16100000  0.51860000  0.15300000  1.0 0.3537242899
H  H82  1  0.95541000  0.48580000  0.02881000  1.0 0.0455794001
H  H83  1  0.98195000  0.50879000  0.11713000  1.0 0.1785071866
H  H84  1  0.97792000  0.42055000  0.09402000  1.0 0.2236462796
H  H85  1  0.14200000  0.51940000  0.12500000  1.0 0.3285500893
H  H86  1  0.10100000  0.44390000  0.09900000  1.0 0.240829874
H  H87  1  0.83500000  0.46100000  0.03800000  1.0 0.2063043678
H  H88  1  0.92500000  0.45000000  0.13000000  1.0 0.1892688686
C  C1  1  0.13945000  0.19201000  0.78437000  1.0 0.5798936078
C  C2  1  0.05283000  0.26203000  0.74113000  1.0 -0.0495554417
C  C3  1  0.92325000  0.25284000  0.66704000  1.0 -0.1186837873
C  C4  1  0.83602000  0.31516000  0.63016000  1.0 -0.1010701245
C  C5  1  0.87937000  0.38661000  0.66733000  1.0 -0.0579888921
C  C6  1  0.01586000  0.39986000  0.73925000  1.0 0.0623169839
C  C7  1  0.06829000  0.47438000  0.77266000  1.0 -0.143130753
C  C8  1  0.19986000  0.48535000  0.83940000  1.0 -0.1186837873
C  C9  1  0.28578000  0.42260000  0.87669000  1.0 -0.1010701245
C  C10  1  0.23976000  0.35061000  0.84716000  1.0 -0.1186837873
C  C11  1  0.10363000  0.33664000  0.77711000  1.0 0.0623169839
C  C12  1  0.77857000  0.44644000  0.63834000  1.0 0.6192443708
C  C13  1  0.53941000  0.05928000  0.16189000  1.0 0.6192443708
C  C14  1  0.51770000  0.12542000  0.19851000  1.0 -0.0685175022
C  C15  1  0.50059000  0.10862000  0.25675000  1.0 -0.1186837873
C  C16  1  0.47955000  0.16662000  0.29406000  1.0 -0.1186837873
C  C17  1  0.47710000  0.24185000  0.27351000  1.0 -0.0495554417
C  C18  1  0.49887000  0.26229000  0.21575000  1.0 0.0623169839
C  C19  1  0.50731000  0.33992000  0.19866000  1.0 -0.133101344
C  C20  1  0.53139000  0.35794000  0.14476000  1.0 -0.1010701245
C  C21  1  0.54715000  0.29953000  0.10402000  1.0 -0.0882179102
C  C22  1  0.54142000  0.22430000  0.11974000  1.0 -0.1118479854
C  C23  1  0.51801000  0.20307000  0.17642000  1.0 0.0623169839
C  C24  1  0.44743000  0.30108000  0.31201000  1.0 0.5931741187
C  C25  1  0.00300000  0.02780000  0.59150000  1.0 0.0841495918
C  C26  1  0.86055000  0.69201000  0.71563000  1.0 0.5798936078
C  C27  1  0.94717000  0.76203000  0.75887000  1.0 -0.0495554417
C  C28  1  0.07675000  0.75284000  0.83296000  1.0 -0.1186837873
C  C29  1  0.16398000  0.81516000  0.86984000  1.0 -0.1010701245
C  C30  1  0.12063000  0.88661000  0.83267000  1.0 -0.0579888921
C  C31  1  0.98414000  0.89986000  0.76075000  1.0 0.0623169839
C  C32  1  0.93171000  0.97438000  0.72734000  1.0 -0.143130753
C  C33  1  0.80014000  0.98535000  0.66060000  1.0 -0.1186837873
C  C34  1  0.71422000  0.92260000  0.62331000  1.0 -0.1010701245
C  C35  1  0.76024000  0.85061000  0.65284000  1.0 -0.1186837873
C  C36  1  0.89637000  0.83664000  0.72289000  1.0 0.0623169839
C  C37  1  0.22143000  0.94644000  0.86166000  1.0 0.6192443708
C  C38  1  0.46059000  0.55928000  0.33811000  1.0 0.6192443708
C  C39  1  0.48230000  0.62542000  0.30149000  1.0 -0.0685175022
C  C40  1  0.49941000  0.60862000  0.24325000  1.0 -0.1186837873
C  C41  1  0.52045000  0.66666667  0.20594000  1.0 -0.1186837873
C  C42  1  0.52290000  0.74185000  0.22649000  1.0 -0.0495554417
C  C43  1  0.50113000  0.76229000  0.28425000  1.0 0.0623169839
C  C44  1  0.49269000  0.83992000  0.30134000  1.0 -0.133101344
C  C45  1  0.46861000  0.85794000  0.35524000  1.0 -0.1010701245
C  C46  1  0.45285000  0.79953000  0.39598000  1.0 -0.0882179102
C  C47  1  0.45858000  0.72430000  0.38026000  1.0 -0.1118479854
C  C48  1  0.48199000  0.70307000  0.32358000  1.0 0.0623169839
C  C49  1  0.55257000  0.80108000  0.18799000  1.0 0.5931741187
C  C50  1  0.99700000  0.52780000  0.90850000  1.0 0.0841495918
C  C51  1  0.86055000  0.80799000  0.21563000  1.0 0.5798936078
C  C52  1  0.94717000  0.73797000  0.25887000  1.0 -0.0495554417
C  C53  1  0.07675000  0.74716000  0.33296000  1.0 -0.1186837873
C  C54  1  0.16398000  0.68484000  0.36984000  1.0 -0.1010701245
C  C55  1  0.12063000  0.61339000  0.33267000  1.0 -0.0579888921
C  C56  1  0.98414000  0.60014000  0.26075000  1.0 0.0623169839
C  C57  1  0.93171000  0.52562000  0.22734000  1.0 -0.143130753
C  C58  1  0.80014000  0.51465000  0.16060000  1.0 -0.1186837873
C  C59  1  0.71422000  0.57740000  0.12331000  1.0 -0.1010701245
C  C60  1  0.76024000  0.64939000  0.15284000  1.0 -0.1186837873
C  C61  1  0.89637000  0.66336000  0.22289000  1.0 0.0623169839
C  C62  1  0.22143000  0.55356000  0.36166000  1.0 0.6192443708
C  C63  1  0.46059000  0.94072000  0.83811000  1.0 0.6192443708
C  C64  1  0.48230000  0.87458000  0.80149000  1.0 -0.0685175022
C  C65  1  0.49941000  0.89138000  0.74325000  1.0 -0.1186837873
C  C66  1  0.52045000  0.83338000  0.70594000  1.0 -0.1186837873
C  C67  1  0.52290000  0.75815000  0.72649000  1.0 -0.0495554417
C  C68  1  0.50113000  0.73771000  0.78425000  1.0 0.0623169839
C  C69  1  0.49269000  0.66008000  0.80134000  1.0 -0.133101344
C  C70  1  0.46861000  0.64206000  0.85524000  1.0 -0.1010701245
C  C71  1  0.45285000  0.70047000  0.89598000  1.0 -0.0882179102
C  C72  1  0.45858000  0.77570000  0.88026000  1.0 -0.1118479854
C  C73  1  0.48199000  0.79693000  0.82358000  1.0 0.0623169839
C  C74  1  0.55257000  0.69892000  0.68799000  1.0 0.5931741187
C  C75  1  0.99700000  0.97220000  0.40850000  1.0 0.0841495918
C  C76  1  0.13945000  0.30799000  0.28437000  1.0 0.5798936078
C  C77  1  0.05283000  0.23797000  0.24113000  1.0 -0.0495554417
C  C78  1  0.92325000  0.24716000  0.16704000  1.0 -0.1186837873
C  C79  1  0.83602000  0.18484000  0.13016000  1.0 -0.1010701245
C  C80  1  0.87937000  0.11339000  0.16733000  1.0 -0.0579888921
C  C81  1  0.01586000  0.10014000  0.23925000  1.0 0.0623169839
C  C82  1  0.06829000  0.02562000  0.27266000  1.0 -0.143130753
C  C83  1  0.19986000  0.01465000  0.33940000  1.0 -0.1186837873
C  C84  1  0.28578000  0.07740000  0.37669000  1.0 -0.1010701245
C  C85  1  0.23976000  0.14939000  0.34716000  1.0 -0.1186837873
C  C86  1  0.10363000  0.16336000  0.27711000  1.0 0.0623169839
C  C87  1  0.77857000  0.05356000  0.13834000  1.0 0.6192443708
C  C88  1  0.53941000  0.44072000  0.66189000  1.0 0.6192443708
C  C89  1  0.51770000  0.37458000  0.69851000  1.0 -0.0685175022
C  C90  1  0.50059000  0.39138000  0.75675000  1.0 -0.1186837873
C  C91  1  0.47955000  0.33338000  0.79406000  1.0 -0.1186837873
C  C92  1  0.47710000  0.25815000  0.77351000  1.0 -0.0495554417
C  C93  1  0.49887000  0.23771000  0.71575000  1.0 0.0623169839
C  C94  1  0.50731000  0.16008000  0.69866000  1.0 -0.133101344
C  C95  1  0.53139000  0.14206000  0.64476000  1.0 -0.1010701245
C  C96  1  0.54715000  0.20047000  0.60402000  1.0 -0.0882179102
C  C97  1  0.54142000  0.27570000  0.61974000  1.0 -0.1118479854
C  C98  1  0.51801000  0.29693000  0.67642000  1.0 0.0623169839
C  C99  1  0.44743000  0.19892000  0.81201000  1.0 0.5931741187
C  C100  1  0.00300000  0.47220000  0.09150000  1.0 0.0841495918
O  O1  1  0.13082000  0.14549000  0.73219000  1.0 -0.6478159687
O  O2  1  0.21214000  0.18483000  0.86755000  1.0 -0.5271886399
O  O3  1  0.60623000  0.00536000  0.21605000  1.0 -0.6652587464
O  O4  1  0.48860000  0.06116000  0.08165000  1.0 -0.6055640986
O  O5  1  0.51375000  0.29885000  0.39560000  1.0 -0.5416327527
O  O6  1  0.67559000  0.44845000  0.55721000  1.0 -0.6045233419
O  O7  1  0.35607000  0.34683000  0.25725000  1.0 -0.6244398764
O  O8  1  0.80449000  0.48629000  0.70055000  1.0 -0.663153719
O  O9  1  0.40394000  0.09436000  0.91274000  1.0 -0.7991514018
O  O10  1  0.13450000  0.02600000  0.63990000  1.0 -0.4758022016
O  O11  1  0.13720000  0.02410000  0.63840000  1.0 -0.4758022016
O  O12  1  0.89980000  0.06300000  0.58120000  1.0 -0.4007923267
O  O13  1  0.86918000  0.64549000  0.76781000  1.0 -0.6478159687
O  O14  1  0.78786000  0.68483000  0.63245000  1.0 -0.5271886399
O  O15  1  0.39377000  0.50536000  0.28395000  1.0 -0.6652587464
O  O16  1  0.51140000  0.56116000  0.41835000  1.0 -0.6055640986
O  O17  1  0.48625000  0.79885000  0.10440000  1.0 -0.5416327527
O  O18  1  0.32441000  0.94845000  0.94279000  1.0 -0.6045233419
O  O19  1  0.64393000  0.84683000  0.24275000  1.0 -0.6244398764
O  O20  1  0.19551000  0.98629000  0.79945000  1.0 -0.663153719
O  O21  1  0.59606000  0.59436000  0.58726000  1.0 -0.7991514018
O  O22  1  0.86550000  0.52600000  0.86010000  1.0 -0.4758022016
O  O23  1  0.86280000  0.52410000  0.86160000  1.0 -0.4758022016
O  O24  1  0.10020000  0.56300000  0.91880000  1.0 -0.4007923267
O  O25  1  0.86918000  0.85451000  0.26781000  1.0 -0.6478159687
O  O26  1  0.78786000  0.81517000  0.13245000  1.0 -0.5271886399
O  O27  1  0.39377000  0.99464000  0.78395000  1.0 -0.6652587464
O  O28  1  0.51140000  0.93884000  0.91835000  1.0 -0.6055640986
O  O29  1  0.48625000  0.70115000  0.60440000  1.0 -0.5416327527
O  O30  1  0.32441000  0.55155000  0.44279000  1.0 -0.6045233419
O  O31  1  0.64393000  0.65317000  0.74275000  1.0 -0.6244398764
O  O32  1  0.19551000  0.51371000  0.29945000  1.0 -0.663153719
O  O33  1  0.59606000  0.90564000  0.08726000  1.0 -0.7991514018
O  O34  1  0.86550000  0.97400000  0.36010000  1.0 -0.4758022016
O  O35  1  0.86280000  0.97590000  0.36160000  1.0 -0.4758022016
O  O36  1  0.10020000  0.93700000  0.41880000  1.0 -0.4007923267
O  O37  1  0.13082000  0.35451000  0.23219000  1.0 -0.6478159687
O  O38  1  0.21214000  0.31517000  0.36755000  1.0 -0.5271886399
O  O39  1  0.60623000  0.49464000  0.71605000  1.0 -0.6652587464
O  O40  1  0.48860000  0.43884000  0.58165000  1.0 -0.6055640986
O  O41  1  0.51375000  0.20115000  0.89560000  1.0 -0.5416327527
O  O42  1  0.67559000  0.05155000  0.05721000  1.0 -0.6045233419
O  O43  1  0.35607000  0.15317000  0.75725000  1.0 -0.6244398764
O  O44  1  0.80449000  0.01371000  0.20055000  1.0 -0.663153719
O  O45  1  0.40394000  0.40564000  0.41274000  1.0 -0.7991514018
O  O46  1  0.13450000  0.47400000  0.13990000  1.0 -0.4758022016
O  O47  1  0.13720000  0.47590000  0.13840000  1.0 -0.4758022016
O  O48  1  0.89980000  0.43700000  0.08120000  1.0 -0.4007923267
