# DDEC6 charges by PACMAN v1.1 (https://github.com/mtap-research/PACMAN-charge/)
data_PAZNEN_ASR_pacman
_symmetry_space_group_name_H-M   'P 1'
_cell_length_a   17.72800000
_cell_length_b   9.05280000
_cell_length_c   30.40590000
_cell_angle_alpha   90.00000000
_cell_angle_beta   107.46500000
_cell_angle_gamma   90.00000000
_symmetry_Int_Tables_number   1
_chemical_formula_structural   CoPt2C26S4N5(ClO4)2
_chemical_formula_sum   'Co4 Pt8 C104 S16 N20 Cl8 O32'
_cell_volume   4654.82750096
_cell_formula_units_Z   4
loop_
 _symmetry_equiv_pos_site_id
 _symmetry_equiv_pos_as_xyz
  1  'x, y, z'
loop_
 _atom_site_type_symbol
 _atom_site_label
 _atom_site_symmetry_multiplicity
 _atom_site_fract_x
 _atom_site_fract_y
 _atom_site_fract_z
 _atom_site_occupancy
 _atom_site_charge
Co  Co1  1  0.30400000  0.54400000  0.29300000  1.0 1.0116358733
Co  Co2  1  0.69600000  0.04400000  0.20700000  1.0 1.0116358733
Co  Co3  1  0.69600000  0.45600000  0.70700000  1.0 1.0116358733
Co  Co4  1  0.30400000  0.95600000  0.79300000  1.0 1.0116358733
Pt  Pt1  1  0.20450000  0.07700000  0.48050000  1.0 0.5063949263
Pt  Pt2  1  0.28790000  0.96000000  0.55690000  1.0 0.3498284629
Pt  Pt3  1  0.79550000  0.57700000  0.01950000  1.0 0.5045498049
Pt  Pt4  1  0.71210000  0.46000000  0.94310000  1.0 0.3498284629
Pt  Pt5  1  0.79550000  0.92300000  0.51950000  1.0 0.5063949263
Pt  Pt6  1  0.71210000  0.04000000  0.44310000  1.0 0.3498284629
Pt  Pt7  1  0.20450000  0.42300000  0.98050000  1.0 0.5063949263
Pt  Pt8  1  0.28790000  0.54000000  0.05690000  1.0 0.3498284629
C  C1  1  0.32000000  0.28000000  0.57000000  1.0 0.2480759209
C  C2  1  0.14000000  0.03000000  0.58000000  1.0 0.1403437635
C  C3  1  0.18000000  0.77000000  0.47000000  1.0 0.2015479243
C  C4  1  0.15000000  0.91000000  0.40000000  1.0 0.1110687795
C  C5  1  0.35000000  0.02000000  0.46000000  1.0 0.2602162993
C  C6  1  0.27000000  0.21000000  0.41000000  1.0 0.1285715549
C  C7  1  0.43000000  0.14000000  0.61000000  1.0 0.1454658693
C  C8  1  0.25000000  0.98000000  0.64000000  1.0 0.2410076557
C  C9  1  0.36000000  0.41000000  0.59000000  1.0 -0.0488007853
C  C10  1  0.09000000  0.04000000  0.60000000  1.0 -0.023298314
C  C11  1  0.13000000  0.65000000  0.44000000  1.0 -0.0390118425
C  C12  1  0.10000000  0.81000000  0.37000000  1.0 -0.1010438764
C  C13  1  0.40000000  0.03000000  0.43000000  1.0 -0.0390118425
C  C14  1  0.33000000  0.22000000  0.39000000  1.0 -0.023298314
C  C15  1  0.47000000  0.27000000  0.63000000  1.0 -0.0390118425
C  C16  1  0.20000000  0.00000000  0.67000000  1.0 -0.1010438764
C  C17  1  0.43000000  0.40000000  0.62000000  1.0 0.0264435921
C  C18  1  0.12000000  0.03000000  0.65000000  1.0 0.1697440332
C  C19  1  0.09000000  0.67000000  0.39000000  1.0 0.1403437635
C  C20  1  0.06000000  0.84000000  0.32000000  1.0 0.5604998505
C  C21  1  0.39000000  0.13000000  0.40000000  1.0 -0.023298314
C  C22  1  0.32000000  0.33000000  0.35000000  1.0 0.6112528404
C  C23  1  0.55000000  0.25000000  0.67000000  1.0 0.6112528404
C  C24  1  0.24000000  0.97000000  0.72000000  1.0 0.5778000986
C  C25  1  0.72000000  0.11000000  0.74000000  1.0 0.421770919
C  C26  1  0.80000000  0.20000000  0.69000000  1.0 0.2410076557
C  C27  1  0.68000000  0.78000000  0.93000000  1.0 0.2480759209
C  C28  1  0.86000000  0.53000000  0.92000000  1.0 0.1403437635
C  C29  1  0.82000000  0.27000000  0.03000000  1.0 0.2015479243
C  C30  1  0.85000000  0.41000000  0.10000000  1.0 0.1110687795
C  C31  1  0.65000000  0.52000000  0.04000000  1.0 0.2602162993
C  C32  1  0.73000000  0.71000000  0.09000000  1.0 0.1285715549
C  C33  1  0.57000000  0.64000000  0.89000000  1.0 0.1403437635
C  C34  1  0.75000000  0.48000000  0.86000000  1.0 0.2410076557
C  C35  1  0.64000000  0.91000000  0.91000000  1.0 -0.0488007853
C  C36  1  0.91000000  0.54000000  0.90000000  1.0 -0.023298314
C  C37  1  0.87000000  0.15000000  0.06000000  1.0 -0.0390118425
C  C38  1  0.90000000  0.31000000  0.13000000  1.0 -0.1010438764
C  C39  1  0.60000000  0.53000000  0.07000000  1.0 -0.0390118425
C  C40  1  0.67000000  0.72000000  0.11000000  1.0 -0.023298314
C  C41  1  0.53000000  0.77000000  0.87000000  1.0 -0.0390118425
C  C42  1  0.80000000  0.50000000  0.83000000  1.0 -0.1010438764
C  C43  1  0.57000000  0.90000000  0.88000000  1.0 0.0264435921
C  C44  1  0.88000000  0.53000000  0.85000000  1.0 0.1697440332
C  C45  1  0.91000000  0.17000000  0.11000000  1.0 0.1403437635
C  C46  1  0.94000000  0.34000000  0.18000000  1.0 0.5604998505
C  C47  1  0.61000000  0.63000000  0.10000000  1.0 -0.023298314
C  C48  1  0.68000000  0.83000000  0.15000000  1.0 0.6112528404
C  C49  1  0.45000000  0.75000000  0.83000000  1.0 0.6112528404
C  C50  1  0.76000000  0.47000000  0.78000000  1.0 0.5778000986
C  C51  1  0.28000000  0.61000000  0.76000000  1.0 0.421770919
C  C52  1  0.20000000  0.70000000  0.81000000  1.0 0.2410076557
C  C53  1  0.68000000  0.72000000  0.43000000  1.0 0.2480759209
C  C54  1  0.86000000  0.97000000  0.42000000  1.0 0.1403437635
C  C55  1  0.82000000  0.23000000  0.53000000  1.0 0.2015479243
C  C56  1  0.85000000  0.09000000  0.60000000  1.0 0.1110687795
C  C57  1  0.65000000  0.98000000  0.54000000  1.0 0.2602162993
C  C58  1  0.73000000  0.79000000  0.59000000  1.0 0.1285715549
C  C59  1  0.57000000  0.86000000  0.39000000  1.0 0.1403437635
C  C60  1  0.75000000  0.02000000  0.36000000  1.0 0.2410076557
C  C61  1  0.64000000  0.59000000  0.41000000  1.0 -0.0488007853
C  C62  1  0.91000000  0.96000000  0.40000000  1.0 -0.023298314
C  C63  1  0.87000000  0.35000000  0.56000000  1.0 -0.0390118425
C  C64  1  0.90000000  0.19000000  0.63000000  1.0 -0.1010438764
C  C65  1  0.60000000  0.97000000  0.57000000  1.0 -0.0390118425
C  C66  1  0.67000000  0.78000000  0.61000000  1.0 -0.023298314
C  C67  1  0.53000000  0.73000000  0.37000000  1.0 -0.0390118425
C  C68  1  0.80000000  0.00000000  0.33000000  1.0 -0.1010438764
C  C69  1  0.57000000  0.60000000  0.38000000  1.0 0.0264435921
C  C70  1  0.88000000  0.97000000  0.35000000  1.0 0.1697440332
C  C71  1  0.91000000  0.33000000  0.61000000  1.0 0.1403437635
C  C72  1  0.94000000  0.16000000  0.68000000  1.0 0.5604998505
C  C73  1  0.61000000  0.87000000  0.60000000  1.0 -0.023298314
C  C74  1  0.68000000  0.67000000  0.65000000  1.0 0.6112528404
C  C75  1  0.45000000  0.75000000  0.33000000  1.0 0.6112528404
C  C76  1  0.76000000  0.03000000  0.28000000  1.0 0.5778000986
C  C77  1  0.28000000  0.89000000  0.26000000  1.0 0.421770919
C  C78  1  0.20000000  0.80000000  0.31000000  1.0 0.2410076557
C  C79  1  0.32000000  0.22000000  0.07000000  1.0 0.2480759209
C  C80  1  0.14000000  0.47000000  0.08000000  1.0 0.1403437635
C  C81  1  0.18000000  0.73000000  0.97000000  1.0 0.2015479243
C  C82  1  0.15000000  0.59000000  0.90000000  1.0 0.1110687795
C  C83  1  0.35000000  0.48000000  0.96000000  1.0 0.2602162993
C  C84  1  0.27000000  0.29000000  0.91000000  1.0 0.1285715549
C  C85  1  0.43000000  0.36000000  0.11000000  1.0 0.1454658693
C  C86  1  0.25000000  0.52000000  0.14000000  1.0 0.2410076557
C  C87  1  0.36000000  0.09000000  0.09000000  1.0 -0.0488007853
C  C88  1  0.09000000  0.46000000  0.10000000  1.0 -0.023298314
C  C89  1  0.13000000  0.85000000  0.94000000  1.0 -0.0390118425
C  C90  1  0.10000000  0.69000000  0.87000000  1.0 -0.1010438764
C  C91  1  0.40000000  0.47000000  0.93000000  1.0 -0.0390118425
C  C92  1  0.33000000  0.28000000  0.89000000  1.0 -0.023298314
C  C93  1  0.47000000  0.23000000  0.13000000  1.0 -0.0390118425
C  C94  1  0.20000000  0.50000000  0.17000000  1.0 -0.1010438764
C  C95  1  0.43000000  0.10000000  0.12000000  1.0 0.0264435921
C  C96  1  0.12000000  0.47000000  0.15000000  1.0 0.1697440332
C  C97  1  0.09000000  0.83000000  0.89000000  1.0 0.1403437635
C  C98  1  0.06000000  0.66000000  0.82000000  1.0 0.5604998505
C  C99  1  0.39000000  0.37000000  0.90000000  1.0 -0.023298314
C  C100  1  0.32000000  0.17000000  0.85000000  1.0 0.6112528404
C  C101  1  0.55000000  0.25000000  0.17000000  1.0 0.6112528404
C  C102  1  0.24000000  0.53000000  0.22000000  1.0 0.5778000986
C  C103  1  0.72000000  0.39000000  0.24000000  1.0 0.421770919
C  C104  1  0.80000000  0.30000000  0.19000000  1.0 0.2410076557
S  S1  1  0.22600000  0.29000000  0.52000000  1.0 -0.2724605018
S  S2  1  0.10100000  0.03000000  0.51300000  1.0 -0.3073668593
S  S3  1  0.21900000  0.75000000  0.52900000  1.0 -0.0925708657
S  S4  1  0.37200000  0.90000000  0.51100000  1.0 -0.287589919
S  S5  1  0.77400000  0.79000000  0.98000000  1.0 -0.2724605018
S  S6  1  0.89900000  0.53000000  0.98700000  1.0 -0.3073668593
S  S7  1  0.78100000  0.25000000  0.97100000  1.0 -0.0925708657
S  S8  1  0.62800000  0.40000000  0.98900000  1.0 -0.287589919
S  S9  1  0.77400000  0.71000000  0.48000000  1.0 -0.2724605018
S  S10  1  0.89900000  0.97000000  0.48700000  1.0 -0.3073668593
S  S11  1  0.78100000  0.25000000  0.47100000  1.0 -0.0925708657
S  S12  1  0.62800000  0.10000000  0.48900000  1.0 -0.287589919
S  S13  1  0.22600000  0.21000000  0.02000000  1.0 -0.2724605018
S  S14  1  0.10100000  0.47000000  0.01300000  1.0 -0.3073668593
S  S15  1  0.21900000  0.75000000  0.02900000  1.0 -0.0925708657
S  S16  1  0.37200000  0.60000000  0.01100000  1.0 -0.287589919
N  N1  1  0.19000000  0.89000000  0.45000000  1.0 -0.1697682405
N  N2  1  0.29000000  0.12000000  0.45000000  1.0 -0.1823811197
N  N3  1  0.35000000  0.15000000  0.58000000  1.0 -0.1952662879
N  N4  1  0.22000000  0.00000000  0.60000000  1.0 -0.1453594083
N  N5  1  0.76000000  0.24000000  0.72000000  1.0 -0.3668598199
N  N6  1  0.81000000  0.39000000  0.05000000  1.0 -0.1697682405
N  N7  1  0.71000000  0.62000000  0.05000000  1.0 -0.1823811197
N  N8  1  0.65000000  0.65000000  0.92000000  1.0 -0.1952662879
N  N9  1  0.78000000  0.50000000  0.90000000  1.0 -0.144051439
N  N10  1  0.24000000  0.74000000  0.78000000  1.0 -0.3668598199
N  N11  1  0.81000000  0.11000000  0.55000000  1.0 -0.1697682405
N  N12  1  0.71000000  0.88000000  0.55000000  1.0 -0.1823811197
N  N13  1  0.65000000  0.85000000  0.42000000  1.0 -0.1952662879
N  N14  1  0.78000000  0.00000000  0.40000000  1.0 -0.144051439
N  N15  1  0.24000000  0.76000000  0.28000000  1.0 -0.3668598199
N  N16  1  0.19000000  0.61000000  0.95000000  1.0 -0.1697682405
N  N17  1  0.29000000  0.38000000  0.95000000  1.0 -0.1823811197
N  N18  1  0.35000000  0.35000000  0.08000000  1.0 -0.1952662879
N  N19  1  0.22000000  0.50000000  0.10000000  1.0 -0.144051439
N  N20  1  0.76000000  0.26000000  0.22000000  1.0 -0.3668598199
Cl  Cl1  1  0.11200000  0.19000000  0.40500000  1.0 -0.2329442614
Cl  Cl2  1  0.37700000  0.85000000  0.62900000  1.0 -0.287589919
Cl  Cl3  1  0.88800000  0.69000000  0.09500000  1.0 -0.2329442614
Cl  Cl4  1  0.62300000  0.35000000  0.87100000  1.0 -0.287589919
Cl  Cl5  1  0.88800000  0.81000000  0.59500000  1.0 -0.2329442614
Cl  Cl6  1  0.62300000  0.15000000  0.37100000  1.0 -0.287589919
Cl  Cl7  1  0.11200000  0.31000000  0.90500000  1.0 -0.2329442614
Cl  Cl8  1  0.37700000  0.65000000  0.12900000  1.0 -0.287589919
O  O1  1  0.04800000  0.97000000  0.30800000  1.0 -0.4193714896
O  O2  1  0.05000000  0.73000000  0.30000000  1.0 -0.3539941201
O  O3  1  0.27000000  0.43000000  0.34000000  1.0 -0.5075713807
O  O4  1  0.35700000  0.32000000  0.31700000  1.0 -0.5257654602
O  O5  1  0.58600000  0.37000000  0.68600000  1.0 -0.5667417908
O  O6  1  0.56000000  0.13000000  0.69000000  1.0 -0.4748596216
O  O7  1  0.20000000  0.97000000  0.75000000  1.0 -0.4421061838
O  O8  1  0.30100000  0.90000000  0.73100000  1.0 -0.4338450098
O  O9  1  0.95200000  0.47000000  0.19200000  1.0 -0.4193714896
O  O10  1  0.95000000  0.23000000  0.20000000  1.0 -0.3539941201
O  O11  1  0.73000000  0.93000000  0.16000000  1.0 -0.5075713807
O  O12  1  0.64300000  0.82000000  0.18300000  1.0 -0.5257654602
O  O13  1  0.41400000  0.87000000  0.81400000  1.0 -0.5667417908
O  O14  1  0.44000000  0.63000000  0.81000000  1.0 -0.4748596216
O  O15  1  0.80000000  0.47000000  0.75000000  1.0 -0.4421061838
O  O16  1  0.69900000  0.40000000  0.76900000  1.0 -0.4338450098
O  O17  1  0.95200000  0.03000000  0.69200000  1.0 -0.4193714896
O  O18  1  0.95000000  0.27000000  0.70000000  1.0 -0.3539941201
O  O19  1  0.73000000  0.57000000  0.66000000  1.0 -0.5075713807
O  O20  1  0.64300000  0.68000000  0.68300000  1.0 -0.5257654602
O  O21  1  0.41400000  0.63000000  0.31400000  1.0 -0.5667417908
O  O22  1  0.44000000  0.87000000  0.31000000  1.0 -0.4748596216
O  O23  1  0.80000000  0.03000000  0.25000000  1.0 -0.4421061838
O  O24  1  0.69900000  0.10000000  0.26900000  1.0 -0.4338450098
O  O25  1  0.04800000  0.53000000  0.80800000  1.0 -0.4193714896
O  O26  1  0.05000000  0.77000000  0.80000000  1.0 -0.3539941201
O  O27  1  0.27000000  0.07000000  0.84000000  1.0 -0.5075713807
O  O28  1  0.35700000  0.18000000  0.81700000  1.0 -0.5257654602
O  O29  1  0.58600000  0.13000000  0.18600000  1.0 -0.5667417908
O  O30  1  0.56000000  0.37000000  0.19000000  1.0 -0.4748596216
O  O31  1  0.20000000  0.53000000  0.25000000  1.0 -0.4421061838
O  O32  1  0.30100000  0.60000000  0.23100000  1.0 -0.4338450098
