# DDEC6 charges by PACMAN v1.1 (https://github.com/mtap-research/PACMAN-charge/)
data_PECLEP_FSR_pacman
_symmetry_space_group_name_H-M   'P 1'
_cell_length_a   11.63530000
_cell_length_b   19.81500000
_cell_length_c   13.50540000
_cell_angle_alpha   90.00000000
_cell_angle_beta   96.57790000
_cell_angle_gamma   90.00000000
_symmetry_Int_Tables_number   1
_chemical_formula_structural   CoH12C12(N2O)4
_chemical_formula_sum   'Co6 H72 C72 N48 O24'
_cell_volume   3093.21930697
_cell_formula_units_Z   6
loop_
 _symmetry_equiv_pos_site_id
 _symmetry_equiv_pos_as_xyz
  1  'x, y, z'
loop_
 _atom_site_type_symbol
 _atom_site_label
 _atom_site_symmetry_multiplicity
 _atom_site_fract_x
 _atom_site_fract_y
 _atom_site_fract_z
 _atom_site_occupancy
 _atom_site_charge
Co  Co1  1  0.68507000  0.78503000  0.57269000  1.0 0.7138196147
Co  Co2  1  0.81493000  0.28503000  0.42731000  1.0 0.7138196147
Co  Co3  1  0.31493000  0.21497000  0.42731000  1.0 0.7138196147
Co  Co4  1  0.18507000  0.71497000  0.57269000  1.0 0.7138196147
Co  Co5  1  0.00000000  0.00000000  0.50000000  1.0 0.728069163
Co  Co6  1  0.50000000  0.50000000  0.50000000  1.0 0.728069163
H  H1  1  0.61640000  0.87440000  0.11670000  1.0 0.3303377049
H  H2  1  0.88360000  0.37440000  0.88330000  1.0 0.3303377049
H  H3  1  0.38360000  0.12560000  0.88330000  1.0 0.3303377049
H  H4  1  0.11640000  0.62560000  0.11670000  1.0 0.3303377049
H  H5  1  0.74080000  0.67190000  0.03030000  1.0 0.3410215631
H  H6  1  0.75920000  0.17190000  0.96970000  1.0 0.3410215631
H  H7  1  0.25920000  0.32810000  0.96970000  1.0 0.3410215631
H  H8  1  0.24080000  0.82810000  0.03030000  1.0 0.3410215631
H  H9  1  0.84220000  0.99320000  0.91710000  1.0 0.3303377049
H  H10  1  0.65780000  0.49320000  0.08290000  1.0 0.3303377049
H  H11  1  0.15780000  0.00680000  0.08290000  1.0 0.3303377049
H  H12  1  0.34220000  0.50680000  0.91710000  1.0 0.3303377049
H  H13  1  0.84500000  0.82410000  0.41920000  1.0 0.1020989981
H  H14  1  0.65500000  0.32410000  0.58080000  1.0 0.1020989981
H  H15  1  0.15500000  0.17590000  0.58080000  1.0 0.1020989981
H  H16  1  0.34500000  0.67590000  0.41920000  1.0 0.1020989981
H  H17  1  0.57600000  0.70570000  0.22000000  1.0 0.1202525259
H  H18  1  0.92400000  0.20570000  0.78000000  1.0 0.1202525259
H  H19  1  0.42400000  0.29430000  0.78000000  1.0 0.1202525259
H  H20  1  0.07600000  0.79430000  0.22000000  1.0 0.1202525259
H  H21  1  0.04300000  0.11320000  0.15000000  1.0 0.0893473176
H  H22  1  0.45700000  0.61320000  0.85000000  1.0 0.0893473176
H  H23  1  0.95700000  0.88680000  0.85000000  1.0 0.0893473176
H  H24  1  0.54300000  0.38680000  0.15000000  1.0 0.0893473176
H  H25  1  0.04600000  0.09570000  0.33100000  1.0 0.1141322768
H  H26  1  0.45400000  0.59570000  0.66900000  1.0 0.1141322768
H  H27  1  0.95400000  0.90430000  0.66900000  1.0 0.1141322768
H  H28  1  0.54600000  0.40430000  0.33100000  1.0 0.1141322768
H  H29  1  0.85300000  0.80900000  0.24700000  1.0 0.1202525259
H  H30  1  0.64700000  0.30900000  0.75300000  1.0 0.1202525259
H  H31  1  0.14700000  0.19100000  0.75300000  1.0 0.1202525259
H  H32  1  0.35300000  0.69100000  0.24700000  1.0 0.1202525259
H  H33  1  0.55300000  0.71890000  0.39100000  1.0 0.0893473176
H  H34  1  0.94700000  0.21890000  0.60900000  1.0 0.0893473176
H  H35  1  0.44700000  0.28110000  0.60900000  1.0 0.0893473176
H  H36  1  0.05300000  0.78110000  0.39100000  1.0 0.0893473176
H  H37  1  0.88700000  0.92800000  0.14300000  1.0 0.1280465714
H  H38  1  0.61300000  0.42800000  0.85700000  1.0 0.1280465714
H  H39  1  0.11300000  0.07200000  0.85700000  1.0 0.1280465714
H  H40  1  0.38700000  0.57200000  0.14300000  1.0 0.1280465714
H  H41  1  0.75700000  0.87460000  0.75400000  1.0 0.1020989981
H  H42  1  0.74300000  0.37460000  0.24600000  1.0 0.1020989981
H  H43  1  0.24300000  0.12540000  0.24600000  1.0 0.1020989981
H  H44  1  0.25700000  0.62540000  0.75400000  1.0 0.1020989981
H  H45  1  0.89900000  0.92810000  0.31800000  1.0 0.1020989981
H  H46  1  0.60100000  0.42810000  0.68200000  1.0 0.1020989981
H  H47  1  0.10100000  0.07190000  0.68200000  1.0 0.1020989981
H  H48  1  0.39900000  0.57190000  0.31800000  1.0 0.1020989981
H  H49  1  0.57400000  0.70500000  0.73500000  1.0 0.0893473176
H  H50  1  0.92600000  0.20500000  0.26500000  1.0 0.0893473176
H  H51  1  0.42600000  0.29500000  0.26500000  1.0 0.0893473176
H  H52  1  0.07400000  0.79500000  0.73500000  1.0 0.0893473176
H  H53  1  0.74300000  0.88300000  0.91500000  1.0 0.1202525259
H  H54  1  0.75700000  0.38300000  0.08500000  1.0 0.1202525259
H  H55  1  0.25700000  0.11700000  0.08500000  1.0 0.1202525259
H  H56  1  0.24300000  0.61700000  0.91500000  1.0 0.1202525259
H  H57  1  0.56100000  0.71780000  0.92000000  1.0 0.1280465714
H  H58  1  0.93900000  0.21780000  0.08000000  1.0 0.1280465714
H  H59  1  0.43900000  0.28220000  0.08000000  1.0 0.1280465714
H  H60  1  0.06100000  0.78220000  0.92000000  1.0 0.1280465714
H  H61  1  0.51430000  0.82040000  0.10430000  1.0 0.3061648897
H  H62  1  0.98570000  0.32040000  0.89570000  1.0 0.3061648897
H  H63  1  0.48570000  0.17960000  0.89570000  1.0 0.3061648897
H  H64  1  0.01430000  0.67960000  0.10430000  1.0 0.3061648897
H  H65  1  0.87950000  0.73760000  0.08000000  1.0 0.3176075585
H  H66  1  0.62050000  0.23760000  0.92000000  1.0 0.3176075585
H  H67  1  0.12050000  0.26240000  0.92000000  1.0 0.3176075585
H  H68  1  0.37950000  0.76240000  0.08000000  1.0 0.3176075585
H  H69  1  0.93850000  0.08060000  0.92440000  1.0 0.3303377049
H  H70  1  0.56150000  0.58060000  0.07560000  1.0 0.3303377049
H  H71  1  0.06150000  0.91940000  0.07560000  1.0 0.3303377049
H  H72  1  0.43850000  0.41940000  0.92440000  1.0 0.3303377049
C  C1  1  0.62380000  0.73805000  0.35550000  1.0 0.0820620946
C  C2  1  0.87620000  0.23805000  0.64450000  1.0 0.0820620946
C  C3  1  0.37620000  0.26195000  0.64450000  1.0 0.0820620946
C  C4  1  0.12380000  0.76195000  0.35550000  1.0 0.0820620946
C  C5  1  0.78980000  0.79987000  0.37360000  1.0 0.0708299234
C  C6  1  0.71020000  0.29987000  0.62640000  1.0 0.0708299234
C  C7  1  0.21020000  0.20013000  0.62640000  1.0 0.0708299234
C  C8  1  0.28980000  0.70013000  0.37360000  1.0 0.0708299234
C  C9  1  0.63120000  0.72887000  0.25550000  1.0 -0.192079853
C  C10  1  0.86880000  0.22887000  0.74450000  1.0 -0.192079853
C  C11  1  0.36880000  0.27113000  0.74450000  1.0 -0.192079853
C  C12  1  0.13120000  0.77113000  0.25550000  1.0 -0.192079853
C  C13  1  0.80150000  0.79334000  0.27400000  1.0 -0.192079853
C  C14  1  0.69850000  0.29334000  0.72600000  1.0 -0.192079853
C  C15  1  0.19850000  0.20666000  0.72600000  1.0 -0.192079853
C  C16  1  0.30150000  0.70666000  0.27400000  1.0 -0.192079853
C  C17  1  0.72170000  0.75810000  0.21170000  1.0 0.0156965471
C  C18  1  0.77830000  0.25810000  0.78830000  1.0 0.0156965471
C  C19  1  0.27830000  0.24190000  0.78830000  1.0 0.0156965471
C  C20  1  0.22170000  0.74190000  0.21170000  1.0 0.0156965471
C  C21  1  0.72800000  0.75254000  0.10100000  1.0 0.3176075585
C  C22  1  0.77200000  0.25254000  0.89900000  1.0 0.3176075585
C  C23  1  0.27200000  0.24746000  0.89900000  1.0 0.3176075585
C  C24  1  0.22800000  0.74746000  0.10100000  1.0 0.3176075585
C  C25  1  0.71960000  0.83996000  0.78610000  1.0 0.061386808
C  C26  1  0.78040000  0.33996000  0.21390000  1.0 0.061386808
C  C27  1  0.28040000  0.16004000  0.21390000  1.0 0.061386808
C  C28  1  0.21960000  0.66004000  0.78610000  1.0 0.061386808
C  C29  1  0.60570000  0.74771000  0.77640000  1.0 0.0820620946
C  C30  1  0.89430000  0.24771000  0.22360000  1.0 0.0820620946
C  C31  1  0.39430000  0.25229000  0.22360000  1.0 0.0820620946
C  C32  1  0.10570000  0.75229000  0.77640000  1.0 0.0820620946
C  C33  1  0.71450000  0.84550000  0.88670000  1.0 -0.1589234405
C  C34  1  0.78550000  0.34550000  0.11330000  1.0 -0.1589234405
C  C35  1  0.28550000  0.15450000  0.11330000  1.0 -0.1589234405
C  C36  1  0.21450000  0.65450000  0.88670000  1.0 -0.1589234405
C  C37  1  0.59410000  0.75120000  0.87650000  1.0 -0.1841706158
C  C38  1  0.90590000  0.25120000  0.12350000  1.0 -0.1841706158
C  C39  1  0.40590000  0.24880000  0.12350000  1.0 -0.1841706158
C  C40  1  0.09410000  0.74880000  0.87650000  1.0 -0.1841706158
C  C41  1  0.65250000  0.80031000  0.93470000  1.0 0.026868405
C  C42  1  0.84750000  0.30031000  0.06530000  1.0 0.026868405
C  C43  1  0.34750000  0.19969000  0.06530000  1.0 0.026868405
C  C44  1  0.15250000  0.69969000  0.93470000  1.0 0.026868405
C  C45  1  0.64440000  0.80380000  0.04580000  1.0 0.3871034972
C  C46  1  0.85560000  0.30380000  0.95420000  1.0 0.3871034972
C  C47  1  0.35560000  0.19620000  0.95420000  1.0 0.3871034972
C  C48  1  0.14440000  0.69620000  0.04580000  1.0 0.3871034972
C  C49  1  0.01590000  0.06364000  0.29260000  1.0 0.0708299234
C  C50  1  0.48410000  0.56364000  0.70740000  1.0 0.0708299234
C  C51  1  0.98410000  0.93636000  0.70740000  1.0 0.0708299234
C  C52  1  0.51590000  0.43636000  0.29260000  1.0 0.0708299234
C  C53  1  0.93490000  0.96044000  0.28370000  1.0 0.0820620946
C  C54  1  0.56510000  0.46044000  0.71630000  1.0 0.0820620946
C  C55  1  0.06510000  0.03956000  0.71630000  1.0 0.0820620946
C  C56  1  0.43490000  0.53956000  0.28370000  1.0 0.0820620946
C  C57  1  0.92080000  0.96190000  0.18100000  1.0 -0.1979242497
C  C58  1  0.57920000  0.46190000  0.81900000  1.0 -0.1979242497
C  C59  1  0.07920000  0.03810000  0.81900000  1.0 -0.1979242497
C  C60  1  0.42080000  0.53810000  0.18100000  1.0 -0.192079853
C  C61  1  0.00690000  0.06868000  0.19000000  1.0 -0.1589234405
C  C62  1  0.49310000  0.56868000  0.81000000  1.0 -0.1589234405
C  C63  1  0.99310000  0.93132000  0.81000000  1.0 -0.1589234405
C  C64  1  0.50690000  0.43132000  0.19000000  1.0 -0.1589234405
C  C65  1  0.95960000  0.01637000  0.13160000  1.0 0.0014079807
C  C66  1  0.54040000  0.51637000  0.86840000  1.0 0.0014079807
C  C67  1  0.04040000  0.98363000  0.86840000  1.0 0.0014079807
C  C68  1  0.45960000  0.48363000  0.13160000  1.0 0.0014079807
C  C69  1  0.94930000  0.01848000  0.01870000  1.0 0.3410215631
C  C70  1  0.55070000  0.51848000  0.98130000  1.0 0.3410215631
C  C71  1  0.05070000  0.98152000  0.98130000  1.0 0.3410215631
C  C72  1  0.44930000  0.48152000  0.01870000  1.0 0.3410215631
N  N1  1  0.50210000  0.78860000  0.54045000  1.0 -0.4296508484
N  N2  1  0.99790000  0.28860000  0.45955000  1.0 -0.4296508484
N  N3  1  0.49790000  0.21140000  0.45955000  1.0 -0.4296508484
N  N4  1  0.00210000  0.71140000  0.54045000  1.0 -0.4296508484
N  N5  1  0.43340000  0.75499000  0.57431000  1.0 0.4233943663
N  N6  1  0.06660000  0.25499000  0.42569000  1.0 0.4233943663
N  N7  1  0.56660000  0.24501000  0.42569000  1.0 0.4233943663
N  N8  1  0.93340000  0.74501000  0.57431000  1.0 0.4233943663
N  N9  1  0.36600000  0.72147000  0.60925000  1.0 -0.4764320386
N  N10  1  0.13400000  0.22147000  0.39075000  1.0 -0.4764320386
N  N11  1  0.63400000  0.27853000  0.39075000  1.0 -0.4742406242
N  N12  1  0.86600000  0.77853000  0.60925000  1.0 -0.4764320386
N  N13  1  0.69980000  0.89199000  0.56318000  1.0 -0.4514526608
N  N14  1  0.80020000  0.39199000  0.43682000  1.0 -0.4514526608
N  N15  1  0.30020000  0.10801000  0.43682000  1.0 -0.4514526608
N  N16  1  0.19980000  0.60801000  0.56318000  1.0 -0.4514526608
N  N17  1  0.76360000  0.92675000  0.52453000  1.0 0.437381535
N  N18  1  0.73640000  0.42675000  0.47547000  1.0 0.437381535
N  N19  1  0.23640000  0.07325000  0.47547000  1.0 0.437381535
N  N20  1  0.26360000  0.57325000  0.52453000  1.0 0.437381535
N  N21  1  0.82290000  0.96341000  0.48536000  1.0 -0.4514526608
N  N22  1  0.67710000  0.46341000  0.51464000  1.0 -0.4514526608
N  N23  1  0.17710000  0.03659000  0.51464000  1.0 -0.4514526608
N  N24  1  0.32290000  0.53659000  0.48536000  1.0 -0.4514526608
N  N25  1  0.05550000  0.90010000  0.48376000  1.0 -0.4977835723
N  N26  1  0.44450000  0.40010000  0.51624000  1.0 -0.4977835723
N  N27  1  0.94450000  0.09990000  0.51624000  1.0 -0.4977835723
N  N28  1  0.55550000  0.59990000  0.48376000  1.0 -0.4977835723
N  N29  1  0.11550000  0.86268000  0.53422000  1.0 0.4284834332
N  N30  1  0.38450000  0.36268000  0.46578000  1.0 0.4284834332
N  N31  1  0.88450000  0.13732000  0.46578000  1.0 0.4284834332
N  N32  1  0.61550000  0.63732000  0.53422000  1.0 0.4284834332
N  N33  1  0.17330000  0.82428000  0.58262000  1.0 -0.4364398801
N  N34  1  0.32670000  0.32428000  0.41738000  1.0 -0.4364398801
N  N35  1  0.82670000  0.17572000  0.41738000  1.0 -0.4364398801
N  N36  1  0.67330000  0.67572000  0.58262000  1.0 -0.4364398801
N  N37  1  0.70200000  0.77365000  0.41590000  1.0 -0.2074382611
N  N38  1  0.79800000  0.27365000  0.58410000  1.0 -0.2074382611
N  N39  1  0.29800000  0.22635000  0.58410000  1.0 -0.2074382611
N  N40  1  0.20200000  0.72635000  0.41590000  1.0 -0.2074382611
N  N41  1  0.66866000  0.79153000  0.72955000  1.0 -0.1979242497
N  N42  1  0.83134000  0.29153000  0.27045000  1.0 -0.192079853
N  N43  1  0.33134000  0.20847000  0.27045000  1.0 -0.192079853
N  N44  1  0.16866000  0.70847000  0.72955000  1.0 -0.1979242497
N  N45  1  0.98050000  0.01044000  0.34080000  1.0 -0.1979242497
N  N46  1  0.51950000  0.51044000  0.65920000  1.0 -0.1979242497
N  N47  1  0.01950000  0.98956000  0.65920000  1.0 -0.1979242497
N  N48  1  0.48050000  0.48956000  0.34080000  1.0 -0.1979242497
O  O1  1  0.66700000  0.86320000  0.08240000  1.0 -0.4080511749
O  O2  1  0.83300000  0.36320000  0.91760000  1.0 -0.4080511749
O  O3  1  0.33300000  0.13680000  0.91760000  1.0 -0.4080511749
O  O4  1  0.16700000  0.63680000  0.08240000  1.0 -0.4080511749
O  O5  1  0.69670000  0.68520000  0.06930000  1.0 -0.5229910049
O  O6  1  0.80330000  0.18520000  0.93070000  1.0 -0.5251946681
O  O7  1  0.30330000  0.31480000  0.93070000  1.0 -0.5229910049
O  O8  1  0.19670000  0.81480000  0.06930000  1.0 -0.5229910049
O  O9  1  0.84620000  0.99150000  0.97810000  1.0 -0.4237440758
O  O10  1  0.65380000  0.49150000  0.02190000  1.0 -0.4237440758
O  O11  1  0.15380000  0.00850000  0.02190000  1.0 -0.4296508484
O  O12  1  0.34620000  0.50850000  0.97810000  1.0 -0.4237440758
O  O13  1  0.53180000  0.79340000  0.06260000  1.0 -0.4514526608
O  O14  1  0.96820000  0.29340000  0.93740000  1.0 -0.4514526608
O  O15  1  0.46820000  0.20660000  0.93740000  1.0 -0.4514526608
O  O16  1  0.03180000  0.70660000  0.06260000  1.0 -0.4514526608
O  O17  1  0.83760000  0.77090000  0.07750000  1.0 -0.5251946681
O  O18  1  0.66240000  0.27090000  0.92250000  1.0 -0.5251946681
O  O19  1  0.16240000  0.22910000  0.92250000  1.0 -0.5251946681
O  O20  1  0.33760000  0.72910000  0.07750000  1.0 -0.5251946681
O  O21  1  0.94420000  0.08090000  0.98550000  1.0 -0.4080511749
O  O22  1  0.55580000  0.58090000  0.01450000  1.0 -0.4080511749
O  O23  1  0.05580000  0.91910000  0.01450000  1.0 -0.4080511749
O  O24  1  0.44420000  0.41910000  0.98550000  1.0 -0.4080511749
