# DDEC6 charges by PACMAN v1.1 (https://github.com/mtap-research/PACMAN-charge/)
data_PEFRID01_ASR_pacman
_symmetry_space_group_name_H-M   'P 1'
_cell_length_a   17.01840000
_cell_length_b   11.35100000
_cell_length_c   27.09510000
_cell_angle_alpha   90.00000000
_cell_angle_beta   98.21800000
_cell_angle_gamma   90.00000000
_symmetry_Int_Tables_number   1
_chemical_formula_structural   SmH11C18N3O7
_chemical_formula_sum   'Sm8 H88 C144 N24 O56'
_cell_volume   5180.37198771
_cell_formula_units_Z   8
loop_
 _symmetry_equiv_pos_site_id
 _symmetry_equiv_pos_as_xyz
  1  'x, y, z'
loop_
 _atom_site_type_symbol
 _atom_site_label
 _atom_site_symmetry_multiplicity
 _atom_site_fract_x
 _atom_site_fract_y
 _atom_site_fract_z
 _atom_site_occupancy
 _atom_site_charge
Sm  Sm1  1  0.69044000  0.12356000  0.75181000  1.0 1.9833614151
Sm  Sm2  1  0.80956000  0.62356000  0.24819000  1.0 1.9833614151
Sm  Sm3  1  0.30956000  0.87644000  0.24819000  1.0 1.9833614151
Sm  Sm4  1  0.19044000  0.37644000  0.75181000  1.0 1.9833614151
Sm  Sm5  1  0.53017000  0.68661000  0.24912000  1.0 2.0337327838
Sm  Sm6  1  0.96983000  0.18661000  0.75088000  1.0 2.0355833094
Sm  Sm7  1  0.46983000  0.31339000  0.75088000  1.0 2.0337327838
Sm  Sm8  1  0.03017000  0.81339000  0.24912000  1.0 2.0337327838
H  H1  1  0.61990000  0.93020000  0.89430000  1.0 0.1101871322
H  H2  1  0.88010000  0.43020000  0.10570000  1.0 0.1101871322
H  H3  1  0.38010000  0.06980000  0.10570000  1.0 0.1101871322
H  H4  1  0.11990000  0.56980000  0.89430000  1.0 0.1101871322
H  H5  1  0.44480000  0.17060000  0.87860000  1.0 0.1195231243
H  H6  1  0.05520000  0.67060000  0.12140000  1.0 0.1195231243
H  H7  1  0.55520000  0.82940000  0.12140000  1.0 0.1195231243
H  H8  1  0.94480000  0.32940000  0.87860000  1.0 0.1195231243
H  H9  1  0.42070000  0.13190000  0.95920000  1.0 0.1101871322
H  H10  1  0.07930000  0.63190000  0.04080000  1.0 0.1101871322
H  H11  1  0.57930000  0.86810000  0.04080000  1.0 0.1101871322
H  H12  1  0.92070000  0.36810000  0.95920000  1.0 0.1101871322
H  H13  1  0.38820000  0.08640000  0.51570000  1.0 0.1101871322
H  H14  1  0.11180000  0.58640000  0.48430000  1.0 0.1101871322
H  H15  1  0.61180000  0.91360000  0.48430000  1.0 0.1101871322
H  H16  1  0.88820000  0.41360000  0.51570000  1.0 0.1101871322
H  H17  1  0.38940000  0.13810000  0.59860000  1.0 0.1101871322
H  H18  1  0.11060000  0.63810000  0.40140000  1.0 0.1101871322
H  H19  1  0.61060000  0.86190000  0.40140000  1.0 0.1101871322
H  H20  1  0.88940000  0.36190000  0.59860000  1.0 0.1101871322
H  H21  1  0.60930000  0.00440000  0.63180000  1.0 0.0929188202
H  H22  1  0.89070000  0.50440000  0.36820000  1.0 0.0929188202
H  H23  1  0.39070000  0.99560000  0.36820000  1.0 0.0929188202
H  H24  1  0.10930000  0.49560000  0.63180000  1.0 0.0929188202
H  H25  1  0.55670000  0.46400000  0.85820000  1.0 0.1002249345
H  H26  1  0.94330000  0.96400000  0.14180000  1.0 0.1002249345
H  H27  1  0.44330000  0.53600000  0.14180000  1.0 0.1002249345
H  H28  1  0.05670000  0.03600000  0.85820000  1.0 0.1002249345
H  H29  1  0.77890000  0.34450000  0.89790000  1.0 0.1101871322
H  H30  1  0.72110000  0.84450000  0.10210000  1.0 0.1101871322
H  H31  1  0.22110000  0.65550000  0.10210000  1.0 0.1101871322
H  H32  1  0.27890000  0.15550000  0.89790000  1.0 0.1101871322
H  H33  1  0.78210000  0.43060000  0.97590000  1.0 0.1002249345
H  H34  1  0.71790000  0.93060000  0.02410000  1.0 0.1002249345
H  H35  1  0.21790000  0.56940000  0.02410000  1.0 0.1002249345
H  H36  1  0.28210000  0.06940000  0.97590000  1.0 0.1002249345
H  H37  1  0.77540000  0.49700000  0.03850000  1.0 0.1101871322
H  H38  1  0.72460000  0.99700000  0.96150000  1.0 0.1101871322
H  H39  1  0.22460000  0.50300000  0.96150000  1.0 0.1101871322
H  H40  1  0.27540000  0.00300000  0.03850000  1.0 0.1101871322
H  H41  1  0.76430000  0.53200000  0.12160000  1.0 0.1101871322
H  H42  1  0.73570000  0.03200000  0.87840000  1.0 0.1101871322
H  H43  1  0.23570000  0.46800000  0.87840000  1.0 0.1101871322
H  H44  1  0.26430000  0.96800000  0.12160000  1.0 0.1101871322
H  H45  1  0.53660000  0.62770000  0.08250000  1.0 0.1002249345
H  H46  1  0.96340000  0.12770000  0.91750000  1.0 0.1002249345
H  H47  1  0.46340000  0.37230000  0.91750000  1.0 0.1002249345
H  H48  1  0.03660000  0.87230000  0.08250000  1.0 0.1002249345
H  H49  1  0.77190000  0.43710000  0.48670000  1.0 0.1101871322
H  H50  1  0.72810000  0.93710000  0.51330000  1.0 0.1101871322
H  H51  1  0.22810000  0.56290000  0.51330000  1.0 0.1101871322
H  H52  1  0.27190000  0.06290000  0.48670000  1.0 0.1101871322
H  H53  1  0.78250000  0.47540000  0.40380000  1.0 0.0929188202
H  H54  1  0.71750000  0.97540000  0.59620000  1.0 0.0929188202
H  H55  1  0.21750000  0.52460000  0.59620000  1.0 0.0929188202
H  H56  1  0.28250000  0.02460000  0.40380000  1.0 0.0929188202
H  H57  1  0.57060000  0.63810000  0.38740000  1.0 0.0929188202
H  H58  1  0.92940000  0.13810000  0.61260000  1.0 0.1002249345
H  H59  1  0.42940000  0.36190000  0.61260000  1.0 0.1002249345
H  H60  1  0.07060000  0.86190000  0.38740000  1.0 0.0929188202
H  H61  1  0.54390000  0.51410000  0.61810000  1.0 0.1002249345
H  H62  1  0.95610000  0.01410000  0.38190000  1.0 0.1002249345
H  H63  1  0.45610000  0.48590000  0.38190000  1.0 0.1002249345
H  H64  1  0.04390000  0.98590000  0.61810000  1.0 0.1002249345
H  H65  1  0.73760000  0.30850000  0.62680000  1.0 0.1101871322
H  H66  1  0.76240000  0.80850000  0.37320000  1.0 0.1101871322
H  H67  1  0.26240000  0.69150000  0.37320000  1.0 0.1101871322
H  H68  1  0.23760000  0.19150000  0.62680000  1.0 0.1101871322
H  H69  1  0.75560000  0.36540000  0.54700000  1.0 0.1101871322
H  H70  1  0.74440000  0.86540000  0.45300000  1.0 0.1101871322
H  H71  1  0.24440000  0.63460000  0.45300000  1.0 0.1101871322
H  H72  1  0.25560000  0.13460000  0.54700000  1.0 0.1101871322
H  H73  1  0.09580000  0.60850000  0.97480000  1.0 0.2519848976
H  H74  1  0.40420000  0.10850000  0.02520000  1.0 0.2519848976
H  H75  1  0.90420000  0.39150000  0.02520000  1.0 0.2519848976
H  H76  1  0.59580000  0.89150000  0.97480000  1.0 0.2519848976
H  H77  1  0.60810000  0.95270000  0.54880000  1.0 0.2519848976
H  H78  1  0.89190000  0.45270000  0.45120000  1.0 0.2519848976
H  H79  1  0.39190000  0.04730000  0.45120000  1.0 0.2519848976
H  H80  1  0.10810000  0.54730000  0.54880000  1.0 0.2519848976
H  H81  1  0.95230000  0.09270000  0.00060000  1.0 0.2618655483
H  H82  1  0.54770000  0.59270000  0.99940000  1.0 0.2618655483
H  H83  1  0.04770000  0.90730000  0.99940000  1.0 0.2618655483
H  H84  1  0.45230000  0.40730000  0.00060000  1.0 0.2618655483
H  H85  1  0.94000000  0.09980000  0.52970000  1.0 0.2741014357
H  H86  1  0.56000000  0.59980000  0.47030000  1.0 0.2741014357
H  H87  1  0.06000000  0.90020000  0.47030000  1.0 0.2741014357
H  H88  1  0.44000000  0.40020000  0.52970000  1.0 0.2741014357
C  C1  1  0.50590000  0.00790000  0.97500000  1.0 0.1312123327
C  C2  1  0.99410000  0.50790000  0.02500000  1.0 0.1312123327
C  C3  1  0.49410000  0.99210000  0.02500000  1.0 0.1312123327
C  C4  1  0.00590000  0.49210000  0.97500000  1.0 0.1312123327
C  C5  1  0.57990000  0.97060000  0.90730000  1.0 -0.0032883334
C  C6  1  0.92010000  0.47060000  0.09270000  1.0 0.0029621217
C  C7  1  0.42010000  0.02940000  0.09270000  1.0 -0.0032883334
C  C8  1  0.07990000  0.52940000  0.90730000  1.0 -0.0032883334
C  C9  1  0.53470000  0.05420000  0.87844000  1.0 -0.0898589291
C  C10  1  0.96530000  0.55420000  0.12156000  1.0 -0.0898589291
C  C11  1  0.46530000  0.94580000  0.12156000  1.0 -0.0898589291
C  C12  1  0.03470000  0.44580000  0.87844000  1.0 -0.0898589291
C  C13  1  0.47500000  0.11470000  0.89790000  1.0 -0.0693773102
C  C14  1  0.02500000  0.61470000  0.10210000  1.0 -0.0693773102
C  C15  1  0.52500000  0.88530000  0.10210000  1.0 -0.0693773102
C  C16  1  0.97500000  0.38530000  0.89790000  1.0 -0.0693773102
C  C17  1  0.46060000  0.09150000  0.94620000  1.0 -0.230530512
C  C18  1  0.03940000  0.59150000  0.05380000  1.0 -0.230530512
C  C19  1  0.53940000  0.90850000  0.05380000  1.0 -0.230530512
C  C20  1  0.96060000  0.40850000  0.94620000  1.0 -0.230530512
C  C21  1  0.55170000  0.08310000  0.82770000  1.0 0.6345198842
C  C22  1  0.94830000  0.58310000  0.17230000  1.0 0.6345198842
C  C23  1  0.44830000  0.91690000  0.17230000  1.0 0.6345198842
C  C24  1  0.05170000  0.41690000  0.82770000  1.0 0.6345198842
C  C25  1  0.49800000  0.01450000  0.52400000  1.0 0.1195231243
C  C26  1  0.00200000  0.51450000  0.47600000  1.0 0.1195231243
C  C27  1  0.50200000  0.98550000  0.47600000  1.0 0.1195231243
C  C28  1  0.99800000  0.48550000  0.52400000  1.0 0.1195231243
C  C29  1  0.43250000  0.07000000  0.53890000  1.0 -0.2086670589
C  C30  1  0.06750000  0.57000000  0.46110000  1.0 -0.2086670589
C  C31  1  0.56750000  0.93000000  0.46110000  1.0 -0.2086670589
C  C32  1  0.93250000  0.43000000  0.53890000  1.0 -0.2086670589
C  C33  1  0.43320000  0.10100000  0.58860000  1.0 -0.0898589291
C  C34  1  0.06680000  0.60100000  0.41140000  1.0 -0.0898589291
C  C35  1  0.56680000  0.89900000  0.41140000  1.0 -0.0898589291
C  C36  1  0.93320000  0.39900000  0.58860000  1.0 -0.0898589291
C  C37  1  0.49950000  0.07640000  0.62340000  1.0 -0.0798913096
C  C38  1  0.00050000  0.57640000  0.37660000  1.0 -0.0798913096
C  C39  1  0.50050000  0.92360000  0.37660000  1.0 -0.0798913096
C  C40  1  0.99950000  0.42360000  0.62340000  1.0 -0.0798913096
C  C41  1  0.56500000  0.02090000  0.60850000  1.0 0.0101126126
C  C42  1  0.93500000  0.52090000  0.39150000  1.0 0.0101126126
C  C43  1  0.43500000  0.97910000  0.39150000  1.0 0.0101126126
C  C44  1  0.06500000  0.47910000  0.60850000  1.0 0.0029621217
C  C45  1  0.50410000  0.12020000  0.67560000  1.0 0.6352923434
C  C46  1  0.99590000  0.62020000  0.32440000  1.0 0.6352923434
C  C47  1  0.49590000  0.87980000  0.32440000  1.0 0.6352923434
C  C48  1  0.00410000  0.37980000  0.67560000  1.0 0.6352923434
C  C49  1  0.67120000  0.49890000  0.96368000  1.0 0.1195231243
C  C50  1  0.82880000  0.99890000  0.03632000  1.0 0.1195231243
C  C51  1  0.32880000  0.50110000  0.03632000  1.0 0.1195231243
C  C52  1  0.17120000  0.00110000  0.96368000  1.0 0.1195231243
C  C53  1  0.60180000  0.45730000  0.88170000  1.0 0.0552590485
C  C54  1  0.89820000  0.95730000  0.11830000  1.0 0.0552590485
C  C55  1  0.39820000  0.54270000  0.11830000  1.0 0.0552590485
C  C56  1  0.10180000  0.04270000  0.88170000  1.0 0.0552590485
C  C57  1  0.66750000  0.39570000  0.87030000  1.0 -0.0693773102
C  C58  1  0.83250000  0.89570000  0.12970000  1.0 -0.0693773102
C  C59  1  0.33250000  0.60430000  0.12970000  1.0 -0.0693773102
C  C60  1  0.16750000  0.10430000  0.87030000  1.0 -0.0693773102
C  C61  1  0.73500000  0.38570000  0.90560000  1.0 -0.0693773102
C  C62  1  0.76500000  0.88570000  0.09440000  1.0 -0.0693773102
C  C63  1  0.26500000  0.61430000  0.09440000  1.0 -0.0693773102
C  C64  1  0.23500000  0.11430000  0.90560000  1.0 -0.0693773102
C  C65  1  0.73690000  0.43730000  0.95230000  1.0 -0.2011176427
C  C66  1  0.76310000  0.93730000  0.04770000  1.0 -0.2011176427
C  C67  1  0.26310000  0.56270000  0.04770000  1.0 -0.2011176427
C  C68  1  0.23690000  0.06270000  0.95230000  1.0 -0.2011176427
C  C69  1  0.66460000  0.32580000  0.82360000  1.0 0.6052476685
C  C70  1  0.83540000  0.82580000  0.17640000  1.0 0.6052476685
C  C71  1  0.33540000  0.67420000  0.17640000  1.0 0.6052476685
C  C72  1  0.16460000  0.17420000  0.82360000  1.0 0.6052476685
C  C73  1  0.66270000  0.54140000  0.01073000  1.0 0.1312123327
C  C74  1  0.83730000  0.04140000  0.98927000  1.0 0.1312123327
C  C75  1  0.33730000  0.45860000  0.98927000  1.0 0.1312123327
C  C76  1  0.16270000  0.95860000  0.01073000  1.0 0.1312123327
C  C77  1  0.72760000  0.52320000  0.04730000  1.0 -0.2162534636
C  C78  1  0.77240000  0.02320000  0.95270000  1.0 -0.2162534636
C  C79  1  0.27240000  0.47680000  0.95270000  1.0 -0.2162534636
C  C80  1  0.22760000  0.97680000  0.04730000  1.0 -0.2162534636
C  C81  1  0.72090000  0.54420000  0.09710000  1.0 -0.0647128788
C  C82  1  0.77910000  0.04420000  0.90290000  1.0 -0.0693773102
C  C83  1  0.27910000  0.45580000  0.90290000  1.0 -0.0693773102
C  C84  1  0.22090000  0.95580000  0.09710000  1.0 -0.0647128788
C  C85  1  0.64930000  0.58330000  0.11028000  1.0 -0.0982090426
C  C86  1  0.85070000  0.08330000  0.88972000  1.0 -0.0982090426
C  C87  1  0.35070000  0.41670000  0.88972000  1.0 -0.0982090426
C  C88  1  0.14930000  0.91670000  0.11028000  1.0 -0.0982090426
C  C89  1  0.58440000  0.60150000  0.07370000  1.0 0.0101126126
C  C90  1  0.91560000  0.10150000  0.92630000  1.0 0.0101126126
C  C91  1  0.41560000  0.39850000  0.92630000  1.0 0.0101126126
C  C92  1  0.08440000  0.89850000  0.07370000  1.0 0.0101126126
C  C93  1  0.64200000  0.59210000  0.16430000  1.0 0.6461078445
C  C94  1  0.85800000  0.09210000  0.83570000  1.0 0.6461078445
C  C95  1  0.35800000  0.40790000  0.83570000  1.0 0.6461078445
C  C96  1  0.14200000  0.90790000  0.16430000  1.0 0.6461078445
C  C97  1  0.66490000  0.51470000  0.48671000  1.0 0.1464324217
C  C98  1  0.83510000  0.01470000  0.51329000  1.0 0.1464324217
C  C99  1  0.33510000  0.48530000  0.51329000  1.0 0.1464324217
C  C100  1  0.16490000  0.98530000  0.48671000  1.0 0.1464324217
C  C101  1  0.73150000  0.47740000  0.46680000  1.0 -0.2162534636
C  C102  1  0.76850000  0.97740000  0.53320000  1.0 -0.2162534636
C  C103  1  0.26850000  0.52260000  0.53320000  1.0 -0.2162534636
C  C104  1  0.23150000  0.02260000  0.46680000  1.0 -0.2162534636
C  C105  1  0.73790000  0.50030000  0.41710000  1.0 -0.0982090426
C  C106  1  0.76210000  0.00030000  0.58290000  1.0 -0.0982090426
C  C107  1  0.26210000  0.49970000  0.58290000  1.0 -0.0982090426
C  C108  1  0.23790000  0.99970000  0.41710000  1.0 -0.0982090426
C  C109  1  0.67760000  0.56050000  0.38738000  1.0 -0.117690355
C  C110  1  0.82240000  0.06050000  0.61262000  1.0 -0.117690355
C  C111  1  0.32240000  0.43950000  0.61262000  1.0 -0.117690355
C  C112  1  0.17760000  0.93950000  0.38738000  1.0 -0.117690355
C  C113  1  0.61100000  0.59780000  0.40730000  1.0 0.0151158306
C  C114  1  0.88900000  0.09780000  0.59270000  1.0 0.0101126126
C  C115  1  0.38900000  0.40220000  0.59270000  1.0 0.0101126126
C  C116  1  0.11100000  0.90220000  0.40730000  1.0 0.0101126126
C  C117  1  0.68850000  0.58030000  0.33440000  1.0 0.4668014567
C  C118  1  0.81150000  0.08030000  0.66560000  1.0 0.4668014567
C  C119  1  0.31150000  0.41970000  0.66560000  1.0 0.4668014567
C  C120  1  0.18850000  0.91970000  0.33440000  1.0 0.4668014567
C  C121  1  0.66060000  0.47380000  0.53470000  1.0 0.1195231243
C  C122  1  0.83940000  0.97380000  0.46530000  1.0 0.1195231243
C  C123  1  0.33940000  0.52620000  0.46530000  1.0 0.1195231243
C  C124  1  0.16060000  0.02620000  0.53470000  1.0 0.1195231243
C  C125  1  0.58630000  0.48430000  0.60380000  1.0 0.043530826
C  C126  1  0.91370000  0.98430000  0.39620000  1.0 0.043530826
C  C127  1  0.41370000  0.51570000  0.39620000  1.0 0.043530826
C  C128  1  0.08630000  0.01570000  0.60380000  1.0 0.043530826
C  C129  1  0.63890000  0.40560000  0.63040000  1.0 -0.0798913096
C  C130  1  0.86110000  0.90560000  0.36960000  1.0 -0.0798913096
C  C131  1  0.36110000  0.59440000  0.36960000  1.0 -0.0798913096
C  C132  1  0.13890000  0.09440000  0.63040000  1.0 -0.0798913096
C  C133  1  0.70240000  0.36110000  0.60910000  1.0 -0.0798913096
C  C134  1  0.79760000  0.86110000  0.39090000  1.0 -0.0798913096
C  C135  1  0.29760000  0.63890000  0.39090000  1.0 -0.0798913096
C  C136  1  0.20240000  0.13890000  0.60910000  1.0 -0.0798913096
C  C137  1  0.71320000  0.39520000  0.56120000  1.0 -0.2011176427
C  C138  1  0.78680000  0.89520000  0.43880000  1.0 -0.2011176427
C  C139  1  0.28680000  0.60480000  0.43880000  1.0 -0.2011176427
C  C140  1  0.21320000  0.10480000  0.56120000  1.0 -0.2011176427
C  C141  1  0.62030000  0.35700000  0.67830000  1.0 0.6345198842
C  C142  1  0.87970000  0.85700000  0.32170000  1.0 0.6345198842
C  C143  1  0.37970000  0.64300000  0.32170000  1.0 0.6345198842
C  C144  1  0.12030000  0.14300000  0.67830000  1.0 0.6352923434
N  N1  1  0.56550000  0.94740000  0.95550000  1.0 -0.3073103731
N  N2  1  0.93450000  0.44740000  0.04450000  1.0 -0.3073103731
N  N3  1  0.43450000  0.05260000  0.04450000  1.0 -0.3073103731
N  N4  1  0.06550000  0.55260000  0.95550000  1.0 -0.3073103731
N  N5  1  0.56430000  0.98990000  0.55880000  1.0 -0.2972158272
N  N6  1  0.93570000  0.48990000  0.44120000  1.0 -0.2972158272
N  N7  1  0.43570000  0.01010000  0.44120000  1.0 -0.2972158272
N  N8  1  0.06430000  0.51010000  0.55880000  1.0 -0.2972158272
N  N9  1  0.60370000  0.50890000  0.92840000  1.0 -0.3638888974
N  N10  1  0.89630000  0.00890000  0.07160000  1.0 -0.3638888974
N  N11  1  0.39630000  0.49110000  0.07160000  1.0 -0.3638888974
N  N12  1  0.10370000  0.99110000  0.92840000  1.0 -0.3638888974
N  N13  1  0.59110000  0.58050000  0.02390000  1.0 -0.2665591915
N  N14  1  0.90890000  0.08050000  0.97610000  1.0 -0.2665591915
N  N15  1  0.40890000  0.41950000  0.97610000  1.0 -0.2665591915
N  N16  1  0.09110000  0.91950000  0.02390000  1.0 -0.2665591915
N  N17  1  0.60460000  0.57490000  0.45700000  1.0 -0.2541834046
N  N18  1  0.89540000  0.07490000  0.54300000  1.0 -0.2541834046
N  N19  1  0.39540000  0.42510000  0.54300000  1.0 -0.2541834046
N  N20  1  0.10460000  0.92510000  0.45700000  1.0 -0.2541834046
N  N21  1  0.59710000  0.51840000  0.55600000  1.0 -0.3699757014
N  N22  1  0.90290000  0.01840000  0.44400000  1.0 -0.3699757014
N  N23  1  0.40290000  0.48160000  0.44400000  1.0 -0.3699757014
N  N24  1  0.09710000  0.98160000  0.55600000  1.0 -0.3699757014
O  O1  1  0.56820000  0.10040000  0.70300000  1.0 -0.7225197484
O  O2  1  0.93180000  0.60040000  0.29700000  1.0 -0.7225197484
O  O3  1  0.43180000  0.89960000  0.29700000  1.0 -0.7225197484
O  O4  1  0.06820000  0.39960000  0.70300000  1.0 -0.7225197484
O  O5  1  0.72300000  0.27420000  0.81520000  1.0 -0.5715226759
O  O6  1  0.77700000  0.77420000  0.18480000  1.0 -0.5715226759
O  O7  1  0.27700000  0.72580000  0.18480000  1.0 -0.5715226759
O  O8  1  0.22300000  0.22580000  0.81520000  1.0 -0.5715226759
O  O9  1  0.67590000  0.30130000  0.70310000  1.0 -0.6608656649
O  O10  1  0.82410000  0.80130000  0.29690000  1.0 -0.6608656649
O  O11  1  0.32410000  0.69870000  0.29690000  1.0 -0.6608656649
O  O12  1  0.17590000  0.19870000  0.70310000  1.0 -0.6608656649
O  O13  1  0.61610000  0.05430000  0.81660000  1.0 -0.6337062795
O  O14  1  0.88390000  0.55430000  0.18340000  1.0 -0.6354054291
O  O15  1  0.38390000  0.94570000  0.18340000  1.0 -0.6337062795
O  O16  1  0.11610000  0.44570000  0.81660000  1.0 -0.6337062795
O  O17  1  0.69840000  0.56130000  0.19500000  1.0 -0.6794085085
O  O18  1  0.80160000  0.06130000  0.80500000  1.0 -0.6794085085
O  O19  1  0.30160000  0.43870000  0.80500000  1.0 -0.6794085085
O  O20  1  0.19840000  0.93870000  0.19500000  1.0 -0.6794085085
O  O21  1  0.75400000  0.58910000  0.32210000  1.0 -0.1505459434
O  O22  1  0.74600000  0.08910000  0.67790000  1.0 -0.1505459434
O  O23  1  0.24600000  0.41090000  0.67790000  1.0 -0.1505459434
O  O24  1  0.25400000  0.91090000  0.32210000  1.0 -0.1505459434
O  O25  1  0.58000000  0.63820000  0.17460000  1.0 -0.6794085085
O  O26  1  0.92000000  0.13820000  0.82540000  1.0 -0.674566694
O  O27  1  0.42000000  0.36180000  0.82540000  1.0 -0.6794085085
O  O28  1  0.08000000  0.86180000  0.17460000  1.0 -0.674566694
O  O29  1  0.60110000  0.32940000  0.79660000  1.0 -0.6608656649
O  O30  1  0.89890000  0.82940000  0.20340000  1.0 -0.6608656649
O  O31  1  0.39890000  0.67060000  0.20340000  1.0 -0.6608656649
O  O32  1  0.10110000  0.17060000  0.79660000  1.0 -0.6608656649
O  O33  1  0.49760000  0.14110000  0.80080000  1.0 -0.6857156982
O  O34  1  0.00240000  0.64110000  0.19920000  1.0 -0.6857156982
O  O35  1  0.50240000  0.85890000  0.19920000  1.0 -0.6857156982
O  O36  1  0.99760000  0.35890000  0.80080000  1.0 -0.6857156982
O  O37  1  0.44450000  0.17150000  0.68660000  1.0 -0.6208959152
O  O38  1  0.05550000  0.67150000  0.31340000  1.0 -0.6208959152
O  O39  1  0.55550000  0.82850000  0.31340000  1.0 -0.6208959152
O  O40  1  0.94450000  0.32850000  0.68660000  1.0 -0.6208959152
O  O41  1  0.55350000  0.37700000  0.68900000  1.0 -0.6527151098
O  O42  1  0.94650000  0.87700000  0.31100000  1.0 -0.6527151098
O  O43  1  0.44650000  0.62300000  0.31100000  1.0 -0.6527151098
O  O44  1  0.05350000  0.12300000  0.68900000  1.0 -0.6527151098
O  O45  1  0.62090000  0.57580000  0.30480000  1.0 -0.2389112007
O  O46  1  0.87910000  0.07580000  0.69520000  1.0 -0.2389112007
O  O47  1  0.37910000  0.42420000  0.69520000  1.0 -0.2389112007
O  O48  1  0.12090000  0.92420000  0.30480000  1.0 -0.2389112007
O  O49  1  0.75500000  0.03300000  0.68290000  1.0 -0.1505459434
O  O50  1  0.74500000  0.53300000  0.31710000  1.0 -0.1505459434
O  O51  1  0.24500000  0.96700000  0.31710000  1.0 -0.155583777
O  O52  1  0.25500000  0.46700000  0.68290000  1.0 -0.1505459434
O  O53  1  0.85670000  0.16500000  0.68830000  1.0 -0.230530512
O  O54  1  0.64330000  0.66500000  0.31170000  1.0 -0.230530512
O  O55  1  0.14330000  0.83500000  0.31170000  1.0 -0.230530512
O  O56  1  0.35670000  0.33500000  0.68830000  1.0 -0.230530512
