# DDEC6 charges by PACMAN v1.1 (https://github.com/mtap-research/PACMAN-charge/)
data_PEFSUQ_ASR_pacman
_symmetry_space_group_name_H-M   'P 1'
_cell_length_a   12.77110000
_cell_length_b   14.22900000
_cell_length_c   16.00300000
_cell_angle_alpha   106.64000000
_cell_angle_beta   103.93500000
_cell_angle_gamma   106.60600000
_symmetry_Int_Tables_number   1
_chemical_formula_structural   CuH8C12(NO)3
_chemical_formula_sum   'Cu6 H48 C72 N18 O18'
_cell_volume   2499.77411102
_cell_formula_units_Z   6
loop_
 _symmetry_equiv_pos_site_id
 _symmetry_equiv_pos_as_xyz
  1  'x, y, z'
loop_
 _atom_site_type_symbol
 _atom_site_label
 _atom_site_symmetry_multiplicity
 _atom_site_fract_x
 _atom_site_fract_y
 _atom_site_fract_z
 _atom_site_occupancy
 _atom_site_charge
Cu  Cu1  1  0.46707000  0.86680000  0.73471000  1.0 0.6998646308
Cu  Cu2  1  0.27375000  0.04311000  0.94758000  1.0 0.6998646308
Cu  Cu3  1  0.41433000  0.22627000  0.73395000  1.0 0.6443084825
Cu  Cu4  1  0.30886000  0.03766000  0.50944000  1.0 0.682976817
Cu  Cu5  1  0.51674000  0.89039000  0.15662000  1.0 0.7585194457
Cu  Cu6  1  0.21111000  0.60459000  0.85641000  1.0 0.7396874178
H  H1  1  0.25730000  0.10500000  0.35610000  1.0 0.2978084831
H  H2  1  0.58480000  0.88910000  0.93090000  1.0 0.281545167
H  H3  1  0.06350000  0.47200000  0.66550000  1.0 0.2978084831
H  H4  1  0.68770000  0.11020000  0.26630000  1.0 0.2978084831
H  H5  1  0.10890000  0.81650000  0.86570000  1.0 0.2889791477
H  H6  1  0.47040000  0.35660000  0.62890000  1.0 0.2889791477
H  H7  1  0.60360000  0.13160000  0.59980000  1.0 0.1404951675
H  H8  1  0.18380000  0.87460000  0.72090000  1.0 0.1404951675
H  H9  1  0.17370000  0.15470000  0.23690000  1.0 0.1588062891
H  H10  1  0.06170000  0.18160000  0.24310000  1.0 0.1404951675
H  H11  1  0.04550000  0.06800000  0.17350000  1.0 0.1404951675
H  H12  1  0.06010000  0.94130000  0.50870000  1.0 0.1490220485
H  H13  1  0.93800000  0.88390000  0.42390000  1.0 0.1404951675
H  H14  1  0.96870000  0.99800000  0.50060000  1.0 0.1490220485
H  H15  1  0.65520000  0.85930000  0.66010000  1.0 0.1490220485
H  H16  1  0.74470000  0.80280000  0.68110000  1.0 0.1404951675
H  H17  1  0.79220000  0.92870000  0.70990000  1.0 0.1490220485
H  H18  1  0.72540000  0.91130000  0.06970000  1.0 0.1490220485
H  H19  1  0.85390000  0.98240000  0.08040000  1.0 0.1404951675
H  H20  1  0.81600000  0.85700000  0.05200000  1.0 0.1490220485
H  H21  1  0.50950000  0.66470000  0.88440000  1.0 0.1404951675
H  H22  1  0.22180000  0.87160000  0.09260000  1.0 0.1404951675
H  H23  1  0.68050000  0.77520000  0.19190000  1.0 0.1490220485
H  H24  1  0.79140000  0.80670000  0.28170000  1.0 0.1404951675
H  H25  1  0.80850000  0.80780000  0.18610000  1.0 0.1490220485
H  H26  1  0.85990000  0.26460000  0.35220000  1.0 0.1404951675
H  H27  1  0.97070000  0.24800000  0.33040000  1.0 0.1404951675
H  H28  1  0.95330000  0.24570000  0.42560000  1.0 0.1588062891
H  H29  1  0.89880000  0.36380000  0.51910000  1.0 0.1300683964
H  H30  1  0.78490000  0.38860000  0.52230000  1.0 0.1404951675
H  H31  1  0.79560000  0.28380000  0.53480000  1.0 0.1490220485
H  H32  1  0.02040000  0.57630000  0.94340000  1.0 0.1490220485
H  H33  1  0.90880000  0.47080000  0.91450000  1.0 0.1490220485
H  H34  1  0.89190000  0.57420000  0.90310000  1.0 0.1404951675
H  H35  1  0.55080000  0.05680000  0.92550000  1.0 0.1300683964
H  H36  1  0.10860000  0.12040000  0.68000000  1.0 0.1404951675
H  H37  1  0.65560000  0.22590000  0.81910000  1.0 0.1490220485
H  H38  1  0.77670000  0.32620000  0.86360000  1.0 0.1490220485
H  H39  1  0.75420000  0.22710000  0.77330000  1.0 0.1404951675
H  H40  1  0.56240000  0.47840000  0.57270000  1.0 0.1588062891
H  H41  1  0.67080000  0.45680000  0.55020000  1.0 0.1490220485
H  H42  1  0.69280000  0.55520000  0.64090000  1.0 0.1404951675
H  H43  1  0.92790000  0.66460000  0.77440000  1.0 0.1404951675
H  H44  1  0.83070000  0.70390000  0.72990000  1.0 0.1404951675
H  H45  1  0.82690000  0.66950000  0.81630000  1.0 0.1490220485
H  H46  1  0.12650000  0.14260000  0.02230000  1.0 0.1404951675
H  H47  1  0.00690000  0.10300000  0.04090000  1.0 0.1404951675
H  H48  1  0.00630000  0.12520000  0.94830000  1.0 0.1490220485
C  C1  1  0.51270000  0.13220000  0.48450000  1.0 0.5370309103
C  C2  1  0.54760000  0.07280000  0.53990000  1.0 -0.0701907899
C  C3  1  0.44920000  0.97730000  0.62280000  1.0 0.3542224515
C  C4  1  0.32790000  0.93560000  0.62880000  1.0 0.361398672
C  C5  1  0.22310000  0.82570000  0.69940000  1.0 -0.01868577
C  C6  1  0.27050000  0.78980000  0.77630000  1.0 0.5702572016
C  C7  1  0.13490000  0.72560000  0.61370000  1.0 0.0681899984
C  C8  1  0.99800000  0.73700000  0.57200000  1.0 0.0203290025
C  C9  1  0.03300000  0.82700000  0.60800000  1.0 -0.0701907899
C  C10  1  0.96400000  0.62200000  0.48800000  1.0 -0.0330072109
C  C11  1  0.09300000  0.12560000  0.23430000  1.0 -0.479242171
C  C12  1  0.09020000  0.08240000  0.31120000  1.0 0.2107131172
C  C13  1  0.00330000  0.03540000  0.33840000  1.0 -0.1580201339
C  C14  1  0.05520000  0.00490000  0.40840000  1.0 0.2387567509
C  C15  1  0.00070000  0.95240000  0.46540000  1.0 -0.4711686473
C  C16  1  0.72810000  0.86660000  0.70400000  1.0 -0.479242171
C  C17  1  0.71630000  0.88070000  0.79860000  1.0 0.2346451182
C  C18  1  0.80150000  0.89380000  0.88080000  1.0 -0.1112431165
C  C19  1  0.74620000  0.89680000  0.94410000  1.0 0.2107131172
C  C20  1  0.78910000  0.91330000  0.04540000  1.0 -0.487784202
C  C21  1  0.36400000  0.56340000  0.76900000  1.0 0.5702572016
C  C22  1  0.43600000  0.60390000  0.87010000  1.0 -0.0364709731
C  C23  1  0.46690000  0.51220000  0.88840000  1.0 0.0355871219
C  C24  1  0.56640000  0.54450000  0.97620000  1.0 0.0614743598
C  C25  1  0.57800000  0.44800000  0.99600000  1.0 0.0790674536
C  C26  1  0.67600000  0.59600000  0.98300000  1.0 -0.1112431165
C  C27  1  0.40940000  0.70890000  0.00690000  1.0 0.361398672
C  C28  1  0.30990000  0.73660000  0.03390000  1.0 0.3719188123
C  C29  1  0.28320000  0.87480000  0.14680000  1.0 -0.0364709731
C  C30  1  0.22590000  0.83580000  0.21070000  1.0 0.0203290025
C  C31  1  0.11380000  0.74420000  0.16510000  1.0 0.1012680728
C  C32  1  0.06500000  0.70500000  0.23500000  1.0 -0.0364709731
C  C33  1  0.01650000  0.77300000  0.10990000  1.0 -0.0701907899
C  C34  1  0.37030000  0.98940000  0.20110000  1.0 0.5777532209
C  C35  1  0.76290000  0.82140000  0.22610000  1.0 -0.479242171
C  C36  1  0.77530000  0.93290000  0.25420000  1.0 0.2107131172
C  C37  1  0.88020000  0.02530000  0.30420000  1.0 -0.1167734316
C  C38  1  0.84470000  0.10980000  0.31270000  1.0 0.197424506
C  C39  1  0.91310000  0.22720000  0.35930000  1.0 -0.479242171
C  C40  1  0.83890000  0.35800000  0.54790000  1.0 -0.487784202
C  C41  1  0.89520000  0.41790000  0.65010000  1.0 0.1894703556
C  C42  1  0.84940000  0.43230000  0.72010000  1.0 -0.1477690365
C  C43  1  0.94330000  0.49500000  0.80180000  1.0 0.2107131172
C  C44  1  0.94090000  0.53240000  0.89920000  1.0 -0.479242171
C  C45  1  0.46870000  0.99820000  0.00950000  1.0 0.5702572016
C  C46  1  0.51410000  0.08320000  0.97100000  1.0 0.0058064742
C  C47  1  0.60520000  0.18780000  0.05230000  1.0 -0.1167734316
C  C48  1  0.71320000  0.22900000  0.06600000  1.0 0.0790674536
C  C49  1  0.78000000  0.33400000  0.15300000  1.0 0.030073357
C  C50  1  0.78050000  0.19310000  0.00820000  1.0 -0.0701907899
C  C51  1  0.40520000  0.13900000  0.86050000  1.0 0.3719188123
C  C52  1  0.28110000  0.13610000  0.82410000  1.0 0.3719188123
C  C53  1  0.17350000  0.19200000  0.70980000  1.0 -0.0364709731
C  C54  1  0.20890000  0.22640000  0.63250000  1.0 0.5553762067
C  C55  1  0.13400000  0.27100000  0.76380000  1.0 0.0495172936
C  C56  1  0.07000000  0.23900000  0.82300000  1.0 0.0681899984
C  C57  1  0.05600000  0.32600000  0.89000000  1.0 -0.0364709731
C  C58  1  0.95300000  0.14900000  0.76600000  1.0 -0.046727496
C  C59  1  0.71780000  0.27070000  0.80530000  1.0 -0.479242171
C  C60  1  0.66630000  0.32170000  0.74310000  1.0 0.197424506
C  C61  1  0.72210000  0.39090000  0.70690000  1.0 -0.130935381
C  C62  1  0.63900000  0.41300000  0.65530000  1.0 0.1894703556
C  C63  1  0.64150000  0.48200000  0.60000000  1.0 -0.4711686473
C  C64  1  0.87810000  0.70380000  0.78790000  1.0 -0.487784202
C  C65  1  0.95420000  0.81750000  0.85500000  1.0 0.217773651
C  C66  1  0.92110000  0.89940000  0.89270000  1.0 -0.1477690365
C  C67  1  0.02520000  0.98420000  0.94240000  1.0 0.2107131172
C  C68  1  0.04280000  0.09900000  0.99300000  1.0 -0.4711686473
C  C69  1  0.54400000  0.91400000  0.42590000  1.0 0.0790674536
C  C70  1  0.62100000  0.01300000  0.51500000  1.0 0.0614743598
C  C71  1  0.61800000  0.84400000  0.41300000  1.0 -0.0819899913
C  C72  1  0.43800000  0.85100000  0.44300000  1.0 0.0026612707
N  N1  1  0.18880000  0.08000000  0.36140000  1.0 -0.1580201339
N  N2  1  0.16760000  0.03230000  0.42310000  1.0 -0.2576893072
N  N3  1  0.45120000  0.02640000  0.56790000  1.0 -0.3900116932
N  N4  1  0.32470000  0.88150000  0.68110000  1.0 -0.3900116932
N  N5  1  0.61790000  0.87860000  0.81370000  1.0 -0.2526874643
N  N6  1  0.63660000  0.88840000  0.90330000  1.0 -0.1580201339
N  N7  1  0.01280000  0.47070000  0.69430000  1.0 -0.1477690365
N  N8  1  0.04250000  0.52030000  0.78640000  1.0 -0.2398993399
N  N9  1  0.37180000  0.63890000  0.92550000  1.0 -0.3666661631
N  N10  1  0.35150000  0.81540000  0.11250000  1.0 -0.3759714019
N  N11  1  0.68380000  0.96220000  0.23370000  1.0 -0.2576893072
N  N12  1  0.72940000  0.07090000  0.27030000  1.0 -0.1580201339
N  N13  1  0.11420000  0.95810000  0.93670000  1.0 -0.2398993399
N  N14  1  0.06800000  0.85440000  0.88160000  1.0 -0.1477690365
N  N15  1  0.41500000  0.10020000  0.92480000  1.0 -0.3900116932
N  N16  1  0.27830000  0.18450000  0.76350000  1.0 -0.4089491617
N  N17  1  0.55110000  0.30130000  0.71070000  1.0 -0.2310724806
N  N18  1  0.53820000  0.35680000  0.65840000  1.0 -0.1167734316
O  O1  1  0.58740000  0.18970000  0.46540000  1.0 -0.4645607125
O  O2  1  0.40720000  0.12360000  0.46130000  1.0 -0.4950642239
O  O3  1  0.24790000  0.96140000  0.58680000  1.0 -0.4489980589
O  O4  1  0.53010000  0.95690000  0.66990000  1.0 -0.4489980589
O  O5  1  0.37910000  0.80390000  0.80270000  1.0 -0.5313285839
O  O6  1  0.20160000  0.74670000  0.81040000  1.0 -0.5445871007
O  O7  1  0.41120000  0.54670000  0.70800000  1.0 -0.5197649251
O  O8  1  0.25510000  0.54430000  0.74880000  1.0 -0.5313285839
O  O9  1  0.20660000  0.68670000  0.97700000  1.0 -0.4489980589
O  O10  1  0.51340000  0.75960000  0.06440000  1.0 -0.4489980589
O  O11  1  0.48030000  0.00910000  0.22200000  1.0 -0.5197649251
O  O12  1  0.33350000  0.06280000  0.22320000  1.0 -0.5107708227
O  O13  1  0.53530000  0.95980000  0.04130000  1.0 -0.5107708227
O  O14  1  0.36280000  0.97310000  0.00720000  1.0 -0.5107708227
O  O15  1  0.20670000  0.09570000  0.85250000  1.0 -0.4089491617
O  O16  1  0.48230000  0.17560000  0.82830000  1.0 -0.4343511116
O  O17  1  0.30910000  0.23810000  0.63230000  1.0 -0.5313285839
O  O18  1  0.13630000  0.24230000  0.57840000  1.0 -0.4711686473
