# DDEC6 charges by PACMAN v1.1 (https://github.com/mtap-research/PACMAN-charge/)
data_PEHQID_ASR_pacman
_symmetry_space_group_name_H-M   'P 1'
_cell_length_a   9.71823000
_cell_length_b   9.71823000
_cell_length_c   25.39600000
_cell_angle_alpha   90.00000000
_cell_angle_beta   90.00000000
_cell_angle_gamma   120.95600000
_symmetry_Int_Tables_number   1
_chemical_formula_structural   Cd3H30C24N2ClO14
_chemical_formula_sum   'Cd6 H60 C48 N4 Cl2 O28'
_cell_volume   2056.86354681
_cell_formula_units_Z   2
loop_
 _symmetry_equiv_pos_site_id
 _symmetry_equiv_pos_as_xyz
  1  'x, y, z'
loop_
 _atom_site_type_symbol
 _atom_site_label
 _atom_site_symmetry_multiplicity
 _atom_site_fract_x
 _atom_site_fract_y
 _atom_site_fract_z
 _atom_site_occupancy
 _atom_site_charge
Cd  Cd1  1  0.89319000  0.06449000  0.60789000  1.0 0.7674976307
Cd  Cd2  1  0.10681000  0.93551000  0.10789000  1.0 0.7674976307
Cd  Cd3  1  0.93551000  0.10681000  0.89211000  1.0 0.7674976307
Cd  Cd4  1  0.06449000  0.89319000  0.39211000  1.0 0.7674976307
Cd  Cd5  1  0.76780000  0.76780000  0.50000000  1.0 0.8905060607
Cd  Cd6  1  0.23220000  0.23220000  0.00000000  1.0 0.8905060607
H  H1  1  0.39040000  0.80940000  0.52040000  1.0 0.0983720797
H  H2  1  0.60960000  0.19060000  0.02040000  1.0 0.0983720797
H  H3  1  0.19060000  0.60960000  0.97960000  1.0 0.0983720797
H  H4  1  0.80940000  0.39040000  0.47960000  1.0 0.0983720797
H  H5  1  0.31340000  0.90720000  0.61780000  1.0 0.1080912174
H  H6  1  0.68660000  0.09280000  0.11780000  1.0 0.1080912174
H  H7  1  0.09280000  0.68660000  0.88220000  1.0 0.1080912174
H  H8  1  0.90720000  0.31340000  0.38220000  1.0 0.1080912174
H  H9  1  0.36420000  0.01080000  0.56620000  1.0 0.0983720797
H  H10  1  0.63580000  0.98920000  0.06620000  1.0 0.0983720797
H  H11  1  0.98920000  0.63580000  0.93380000  1.0 0.0983720797
H  H12  1  0.01080000  0.36420000  0.43380000  1.0 0.0983720797
H  H13  1  0.13440000  0.82460000  0.52440000  1.0 0.0927693787
H  H14  1  0.86560000  0.17540000  0.02440000  1.0 0.0927693787
H  H15  1  0.17540000  0.86560000  0.97560000  1.0 0.0927693787
H  H16  1  0.82460000  0.13440000  0.47560000  1.0 0.0927693787
H  H17  1  0.05790000  0.63570000  0.61930000  1.0 0.0927693787
H  H18  1  0.94210000  0.36430000  0.11930000  1.0 0.0927693787
H  H19  1  0.36430000  0.94210000  0.88070000  1.0 0.0927693787
H  H20  1  0.63570000  0.05790000  0.38070000  1.0 0.0927693787
H  H21  1  0.94410000  0.58370000  0.57060000  1.0 0.0983720797
H  H22  1  0.05590000  0.41630000  0.07060000  1.0 0.0983720797
H  H23  1  0.41630000  0.05590000  0.92940000  1.0 0.0983720797
H  H24  1  0.58370000  0.94410000  0.42940000  1.0 0.0983720797
H  H25  1  0.11690000  0.54210000  0.52340000  1.0 0.1169581878
H  H26  1  0.88310000  0.45790000  0.02340000  1.0 0.1169581878
H  H27  1  0.45790000  0.88310000  0.97660000  1.0 0.1169581878
H  H28  1  0.54210000  0.11690000  0.47660000  1.0 0.1169581878
H  H29  1  0.32030000  0.64070000  0.61550000  1.0 0.1080912174
H  H30  1  0.67970000  0.35930000  0.11550000  1.0 0.1080912174
H  H31  1  0.35930000  0.67970000  0.88450000  1.0 0.1080912174
H  H32  1  0.64070000  0.32030000  0.38450000  1.0 0.1080912174
H  H33  1  0.36280000  0.58860000  0.56250000  1.0 0.0927693787
H  H34  1  0.63720000  0.41140000  0.06250000  1.0 0.0927693787
H  H35  1  0.41140000  0.63720000  0.93750000  1.0 0.0927693787
H  H36  1  0.58860000  0.36280000  0.43750000  1.0 0.0927693787
H  H37  1  0.92010000  0.88670000  0.71380000  1.0 0.0927693787
H  H38  1  0.07990000  0.11330000  0.21380000  1.0 0.0927693787
H  H39  1  0.11330000  0.07990000  0.78620000  1.0 0.0927693787
H  H40  1  0.88670000  0.92010000  0.28620000  1.0 0.0927693787
H  H41  1  0.73950000  0.83530000  0.70520000  1.0 0.1080912174
H  H42  1  0.26050000  0.16470000  0.20520000  1.0 0.1080912174
H  H43  1  0.16470000  0.26050000  0.79480000  1.0 0.1080912174
H  H44  1  0.83530000  0.73950000  0.29480000  1.0 0.1080912174
H  H45  1  0.14000000  0.14740000  0.70010000  1.0 0.0983720797
H  H46  1  0.86000000  0.85260000  0.20010000  1.0 0.0983720797
H  H47  1  0.85260000  0.86000000  0.79990000  1.0 0.0983720797
H  H48  1  0.14740000  0.14000000  0.29990000  1.0 0.0983720797
H  H49  1  0.11460000  0.29220000  0.71030000  1.0 0.0983720797
H  H50  1  0.88540000  0.70780000  0.21030000  1.0 0.0983720797
H  H51  1  0.70780000  0.88540000  0.78970000  1.0 0.0983720797
H  H52  1  0.29220000  0.11460000  0.28970000  1.0 0.0983720797
H  H53  1  0.70150000  0.10110000  0.71270000  1.0 0.1080912174
H  H54  1  0.29850000  0.89890000  0.21270000  1.0 0.1080912174
H  H55  1  0.89890000  0.29850000  0.78730000  1.0 0.1080912174
H  H56  1  0.10110000  0.70150000  0.28730000  1.0 0.1080912174
H  H57  1  0.86150000  0.26490000  0.70350000  1.0 0.0983720797
H  H58  1  0.13850000  0.73510000  0.20350000  1.0 0.0983720797
H  H59  1  0.73510000  0.13850000  0.79650000  1.0 0.0983720797
H  H60  1  0.26490000  0.86150000  0.29650000  1.0 0.0983720797
C  C1  1  0.58180000  0.91480000  0.57780000  1.0 0.5459329206
C  C2  1  0.41820000  0.08520000  0.07780000  1.0 0.5459329206
C  C3  1  0.08520000  0.41820000  0.92220000  1.0 0.5459329206
C  C4  1  0.91480000  0.58180000  0.42220000  1.0 0.5459329206
C  C5  1  0.39330000  0.81010000  0.55900000  1.0 -0.0953005162
C  C6  1  0.60670000  0.18990000  0.05900000  1.0 -0.0953005162
C  C7  1  0.18990000  0.60670000  0.94100000  1.0 -0.0953005162
C  C8  1  0.81010000  0.39330000  0.44100000  1.0 -0.0953005162
C  C9  1  0.30800000  0.90180000  0.57970000  1.0 -0.2248171997
C  C10  1  0.69200000  0.09820000  0.07970000  1.0 -0.2248171997
C  C11  1  0.09820000  0.69200000  0.92030000  1.0 -0.2248171997
C  C12  1  0.90180000  0.30800000  0.42030000  1.0 -0.2248171997
C  C13  1  0.13920000  0.82000000  0.56290000  1.0 -0.1487020385
C  C14  1  0.86080000  0.18000000  0.06290000  1.0 -0.1487020385
C  C15  1  0.18000000  0.86080000  0.93710000  1.0 -0.1487020385
C  C16  1  0.82000000  0.13920000  0.43710000  1.0 -0.1487020385
C  C17  1  0.05580000  0.63720000  0.58110000  1.0 -0.1697379822
C  C18  1  0.94420000  0.36280000  0.08110000  1.0 -0.1697379822
C  C19  1  0.36280000  0.94420000  0.91890000  1.0 -0.1697379822
C  C20  1  0.63720000  0.05580000  0.41890000  1.0 -0.1697379822
C  C21  1  0.12210000  0.54130000  0.56200000  1.0 -0.1802188438
C  C22  1  0.87790000  0.45870000  0.06200000  1.0 -0.1802188438
C  C23  1  0.45870000  0.87790000  0.93800000  1.0 -0.1802188438
C  C24  1  0.54130000  0.12210000  0.43800000  1.0 -0.1802188438
C  C25  1  0.31030000  0.64150000  0.57750000  1.0 -0.1916713994
C  C26  1  0.68970000  0.35850000  0.07750000  1.0 -0.1916713994
C  C27  1  0.35850000  0.68970000  0.92250000  1.0 -0.1916713994
C  C28  1  0.64150000  0.31030000  0.42250000  1.0 -0.1916713994
C  C29  1  0.06620000  0.90820000  0.58670000  1.0 0.4714201185
C  C30  1  0.93380000  0.09180000  0.08670000  1.0 0.4714201185
C  C31  1  0.09180000  0.93380000  0.91330000  1.0 0.4714201185
C  C32  1  0.90820000  0.06620000  0.41330000  1.0 0.4714201185
C  C33  1  0.04410000  0.38370000  0.57690000  1.0 0.4714201185
C  C34  1  0.95590000  0.61630000  0.07690000  1.0 0.4714201185
C  C35  1  0.61630000  0.95590000  0.92310000  1.0 0.4714201185
C  C36  1  0.38370000  0.04410000  0.42310000  1.0 0.4714201185
C  C37  1  0.84030000  0.91590000  0.72080000  1.0 -0.1138752346
C  C38  1  0.15970000  0.08410000  0.22080000  1.0 -0.1138752346
C  C39  1  0.08410000  0.15970000  0.77920000  1.0 -0.1138752346
C  C40  1  0.91590000  0.84030000  0.27920000  1.0 -0.1138752346
C  C41  1  0.07380000  0.18020000  0.71840000  1.0 -0.1697379822
C  C42  1  0.92620000  0.81980000  0.21840000  1.0 -0.1697379822
C  C43  1  0.81980000  0.92620000  0.78160000  1.0 -0.1697379822
C  C44  1  0.18020000  0.07380000  0.28160000  1.0 -0.1645304692
C  C45  1  0.81550000  0.16090000  0.72040000  1.0 -0.1354324203
C  C46  1  0.18450000  0.83910000  0.22040000  1.0 -0.1354324203
C  C47  1  0.83910000  0.18450000  0.77960000  1.0 -0.1354324203
C  C48  1  0.16090000  0.81550000  0.27960000  1.0 -0.1354324203
N  N1  1  0.89130000  0.07350000  0.69840000  1.0 -0.1138752346
N  N2  1  0.10870000  0.92650000  0.19840000  1.0 -0.1138752346
N  N3  1  0.92650000  0.10870000  0.80160000  1.0 -0.1138752346
N  N4  1  0.07350000  0.89130000  0.30160000  1.0 -0.1138752346
Cl  Cl1  1  0.19580000  0.19580000  0.50000000  1.0 0.0573291908
Cl  Cl2  1  0.80420000  0.80420000  0.00000000  1.0 0.0573291908
O  O1  1  0.67220000  0.91280000  0.53830000  1.0 -0.653999893
O  O2  1  0.32780000  0.08720000  0.03830000  1.0 -0.653999893
O  O3  1  0.08720000  0.32780000  0.96170000  1.0 -0.653999893
O  O4  1  0.91280000  0.67220000  0.46170000  1.0 -0.653999893
O  O5  1  0.61220000  0.93360000  0.62300000  1.0 -0.4870531839
O  O6  1  0.38780000  0.06640000  0.12300000  1.0 -0.4870531839
O  O7  1  0.06640000  0.38780000  0.87700000  1.0 -0.4870531839
O  O8  1  0.93360000  0.61220000  0.37700000  1.0 -0.4870531839
O  O9  1  0.93570000  0.89070000  0.56680000  1.0 -0.3258875143
O  O10  1  0.06430000  0.10930000  0.06680000  1.0 -0.3258875143
O  O11  1  0.10930000  0.06430000  0.93320000  1.0 -0.3258875143
O  O12  1  0.89070000  0.93570000  0.43320000  1.0 -0.3258875143
O  O13  1  0.14110000  0.99470000  0.61920000  1.0 -0.3596468997
O  O14  1  0.85890000  0.00530000  0.11920000  1.0 -0.3596468997
O  O15  1  0.00530000  0.85890000  0.88080000  1.0 -0.3596468997
O  O16  1  0.99470000  0.14110000  0.38080000  1.0 -0.3596468997
O  O17  1  0.07340000  0.28900000  0.56200000  1.0 -0.3902975005
O  O18  1  0.92660000  0.71100000  0.06200000  1.0 -0.3902975005
O  O19  1  0.71100000  0.92660000  0.93800000  1.0 -0.3902975005
O  O20  1  0.28900000  0.07340000  0.43800000  1.0 -0.3902975005
O  O21  1  0.93940000  0.33260000  0.60910000  1.0 -0.4194668215
O  O22  1  0.06060000  0.66740000  0.10910000  1.0 -0.4194668215
O  O23  1  0.66740000  0.06060000  0.89090000  1.0 -0.4194668215
O  O24  1  0.33260000  0.93940000  0.39090000  1.0 -0.4194668215
O  O25  1  0.07300000  0.01900000  0.55820000  1.0 -0.0624026787
O  O26  1  0.92700000  0.98100000  0.05820000  1.0 -0.0624026787
O  O27  1  0.98100000  0.92700000  0.94180000  1.0 -0.0624026787
O  O28  1  0.01900000  0.07300000  0.44180000  1.0 -0.0624026787
