# DDEC6 charges by PACMAN v1.1 (https://github.com/mtap-research/PACMAN-charge/)
data_PEJFOA_FSR_pacman
_symmetry_space_group_name_H-M   'P 1'
_cell_length_a   9.03900000
_cell_length_b   15.64100000
_cell_length_c   19.37000000
_cell_angle_alpha   90.00000000
_cell_angle_beta   90.00000000
_cell_angle_gamma   90.00000000
_symmetry_Int_Tables_number   1
_chemical_formula_structural   Ga5P5C2O27
_chemical_formula_sum   'Ga20 P20 C8 O108'
_cell_volume   2738.51121063
_cell_formula_units_Z   4
loop_
 _symmetry_equiv_pos_site_id
 _symmetry_equiv_pos_as_xyz
  1  'x, y, z'
loop_
 _atom_site_type_symbol
 _atom_site_label
 _atom_site_symmetry_multiplicity
 _atom_site_fract_x
 _atom_site_fract_y
 _atom_site_fract_z
 _atom_site_occupancy
 _atom_site_charge
Ga  Ga1  1  0.61250000  0.11285000  0.41129000  1.0 1.4264590338
Ga  Ga2  1  0.88750000  0.61285000  0.58871000  1.0 1.4264590338
Ga  Ga3  1  0.11250000  0.38715000  0.08871000  1.0 1.4264590338
Ga  Ga4  1  0.38750000  0.88715000  0.91129000  1.0 1.4264590338
Ga  Ga5  1  0.38750000  0.88715000  0.58871000  1.0 1.4264590338
Ga  Ga6  1  0.11250000  0.38715000  0.41129000  1.0 1.4264590338
Ga  Ga7  1  0.88750000  0.61285000  0.91129000  1.0 1.4264590338
Ga  Ga8  1  0.61250000  0.11285000  0.08871000  1.0 1.4264590338
Ga  Ga9  1  0.06580000  0.13297000  0.49747000  1.0 1.5555825129
Ga  Ga10  1  0.43420000  0.63297000  0.50253000  1.0 1.5555825129
Ga  Ga11  1  0.56580000  0.36703000  0.00253000  1.0 1.5555825129
Ga  Ga12  1  0.93420000  0.86703000  0.99747000  1.0 1.5555825129
Ga  Ga13  1  0.93420000  0.86703000  0.50253000  1.0 1.5555825129
Ga  Ga14  1  0.56580000  0.36703000  0.49747000  1.0 1.5555825129
Ga  Ga15  1  0.43420000  0.63297000  0.99747000  1.0 1.5542771712
Ga  Ga16  1  0.06580000  0.13297000  0.00253000  1.0 1.5555825129
Ga  Ga17  1  0.85240000  0.92890000  0.25000000  1.0 1.3620525793
Ga  Ga18  1  0.64760000  0.42890000  0.75000000  1.0 1.3620525793
Ga  Ga19  1  0.35240000  0.57110000  0.25000000  1.0 1.3620525793
Ga  Ga20  1  0.14760000  0.07110000  0.75000000  1.0 1.3620525793
P  P1  1  0.84110000  0.27080000  0.45860000  1.0 1.6037481124
P  P2  1  0.65890000  0.77080000  0.54140000  1.0 1.6037481124
P  P3  1  0.34110000  0.22920000  0.04140000  1.0 1.6037481124
P  P4  1  0.15890000  0.72920000  0.95860000  1.0 1.6057957307
P  P5  1  0.15890000  0.72920000  0.54140000  1.0 1.6057957307
P  P6  1  0.34110000  0.22920000  0.45860000  1.0 1.6037481124
P  P7  1  0.65890000  0.77080000  0.95860000  1.0 1.6037481124
P  P8  1  0.84110000  0.27080000  0.04140000  1.0 1.6037481124
P  P9  1  0.92690000  0.01460000  0.39520000  1.0 1.5873121068
P  P10  1  0.57310000  0.51460000  0.60480000  1.0 1.5873121068
P  P11  1  0.42690000  0.48540000  0.10480000  1.0 1.5873121068
P  P12  1  0.07310000  0.98540000  0.89520000  1.0 1.5873121068
P  P13  1  0.07310000  0.98540000  0.60480000  1.0 1.5873121068
P  P14  1  0.42690000  0.48540000  0.39520000  1.0 1.5873121068
P  P15  1  0.57310000  0.51460000  0.89520000  1.0 1.5873121068
P  P16  1  0.92690000  0.01460000  0.10480000  1.0 1.5873121068
P  P17  1  0.58870000  0.05840000  0.25000000  1.0 1.519513239
P  P18  1  0.91130000  0.55840000  0.75000000  1.0 1.519513239
P  P19  1  0.08870000  0.44160000  0.25000000  1.0 1.519513239
P  P20  1  0.41130000  0.94160000  0.75000000  1.0 1.519513239
C  C1  1  0.53320000  0.02690000  0.53070000  1.0 0.5194558322
C  C2  1  0.96680000  0.52690000  0.46930000  1.0 0.5194558322
C  C3  1  0.03320000  0.47310000  0.96930000  1.0 0.5194558322
C  C4  1  0.46680000  0.97310000  0.03070000  1.0 0.5194558322
C  C5  1  0.46680000  0.97310000  0.46930000  1.0 0.5194558322
C  C6  1  0.03320000  0.47310000  0.53070000  1.0 0.5194558322
C  C7  1  0.96680000  0.52690000  0.03070000  1.0 0.5194558322
C  C8  1  0.53320000  0.02690000  0.96930000  1.0 0.5194558322
O  O1  1  0.59010000  0.09580000  0.51570000  1.0 -0.4000393554
O  O2  1  0.90990000  0.59580000  0.48430000  1.0 -0.4000393554
O  O3  1  0.09010000  0.40420000  0.98430000  1.0 -0.4000393554
O  O4  1  0.40990000  0.90420000  0.01570000  1.0 -0.4000393554
O  O5  1  0.40990000  0.90420000  0.48430000  1.0 -0.4000393554
O  O6  1  0.09010000  0.40420000  0.51570000  1.0 -0.4000393554
O  O7  1  0.90990000  0.59580000  0.01570000  1.0 -0.4000393554
O  O8  1  0.59010000  0.09580000  0.98430000  1.0 -0.4000393554
O  O9  1  0.51310000  0.99480000  0.58990000  1.0 -0.4066449061
O  O10  1  0.98690000  0.49480000  0.41010000  1.0 -0.4066449061
O  O11  1  0.01310000  0.50520000  0.91010000  1.0 -0.4066449061
O  O12  1  0.48690000  0.00520000  0.08990000  1.0 -0.4066449061
O  O13  1  0.48690000  0.00520000  0.41010000  1.0 -0.4066449061
O  O14  1  0.01310000  0.50520000  0.58990000  1.0 -0.4066449061
O  O15  1  0.98690000  0.49480000  0.08990000  1.0 -0.4066449061
O  O16  1  0.51310000  0.99480000  0.91010000  1.0 -0.4066449061
O  O17  1  0.62480000  0.11180000  0.31300000  1.0 -0.721425186
O  O18  1  0.87520000  0.61180000  0.68700000  1.0 -0.721425186
O  O19  1  0.12480000  0.38820000  0.18700000  1.0 -0.721425186
O  O20  1  0.37520000  0.88820000  0.81300000  1.0 -0.721425186
O  O21  1  0.37520000  0.88820000  0.68700000  1.0 -0.721425186
O  O22  1  0.12480000  0.38820000  0.31300000  1.0 -0.721425186
O  O23  1  0.87520000  0.61180000  0.81300000  1.0 -0.721425186
O  O24  1  0.62480000  0.11180000  0.18700000  1.0 -0.721425186
O  O25  1  0.77780000  0.03420000  0.42360000  1.0 -0.7426889047
O  O26  1  0.72220000  0.53420000  0.57640000  1.0 -0.7426889047
O  O27  1  0.27780000  0.46580000  0.07640000  1.0 -0.7426889047
O  O28  1  0.22220000  0.96580000  0.92360000  1.0 -0.7426889047
O  O29  1  0.22220000  0.96580000  0.57640000  1.0 -0.7426889047
O  O30  1  0.27780000  0.46580000  0.42360000  1.0 -0.7426889047
O  O31  1  0.72220000  0.53420000  0.92360000  1.0 -0.7426889047
O  O32  1  0.77780000  0.03420000  0.07640000  1.0 -0.7426889047
O  O33  1  0.73500000  0.21320000  0.41850000  1.0 -0.7286178474
O  O34  1  0.76500000  0.71320000  0.58150000  1.0 -0.7286178474
O  O35  1  0.23500000  0.28680000  0.08150000  1.0 -0.7286178474
O  O36  1  0.26500000  0.78680000  0.91850000  1.0 -0.7286178474
O  O37  1  0.26500000  0.78680000  0.58150000  1.0 -0.7286178474
O  O38  1  0.23500000  0.28680000  0.41850000  1.0 -0.7286178474
O  O39  1  0.76500000  0.71320000  0.91850000  1.0 -0.7286178474
O  O40  1  0.73500000  0.21320000  0.08150000  1.0 -0.7286178474
O  O41  1  0.75750000  0.33440000  0.50530000  1.0 -0.7063569829
O  O42  1  0.74250000  0.83440000  0.49470000  1.0 -0.7063569829
O  O43  1  0.25750000  0.16560000  0.99470000  1.0 -0.7063569829
O  O44  1  0.24250000  0.66560000  0.00530000  1.0 -0.7063569829
O  O45  1  0.24250000  0.66560000  0.49470000  1.0 -0.7063569829
O  O46  1  0.25750000  0.16560000  0.50530000  1.0 -0.7063569829
O  O47  1  0.74250000  0.83440000  0.00530000  1.0 -0.7063569829
O  O48  1  0.75750000  0.33440000  0.99470000  1.0 -0.7063569829
O  O49  1  0.93890000  0.31770000  0.40690000  1.0 -0.6981598773
O  O50  1  0.56110000  0.81770000  0.59310000  1.0 -0.6981598773
O  O51  1  0.43890000  0.18230000  0.09310000  1.0 -0.6981598773
O  O52  1  0.06110000  0.68230000  0.90690000  1.0 -0.6981598773
O  O53  1  0.06110000  0.68230000  0.59310000  1.0 -0.6981598773
O  O54  1  0.43890000  0.18230000  0.40690000  1.0 -0.6981598773
O  O55  1  0.56110000  0.81770000  0.90690000  1.0 -0.6981598773
O  O56  1  0.93890000  0.31770000  0.09310000  1.0 -0.6981598773
O  O57  1  0.93710000  0.22070000  0.51050000  1.0 -0.6981598773
O  O58  1  0.56290000  0.72070000  0.48950000  1.0 -0.6981598773
O  O59  1  0.43710000  0.27930000  0.98950000  1.0 -0.6981598773
O  O60  1  0.06290000  0.77930000  0.01050000  1.0 -0.6981598773
O  O61  1  0.06290000  0.77930000  0.48950000  1.0 -0.6981598773
O  O62  1  0.43710000  0.27930000  0.51050000  1.0 -0.6981598773
O  O63  1  0.56290000  0.72070000  0.01050000  1.0 -0.6981598773
O  O64  1  0.93710000  0.22070000  0.98950000  1.0 -0.6981598773
O  O65  1  0.03600000  0.08940000  0.41230000  1.0 -0.6897435974
O  O66  1  0.46400000  0.58940000  0.58770000  1.0 -0.6981598773
O  O67  1  0.53600000  0.41060000  0.08770000  1.0 -0.6897435974
O  O68  1  0.96400000  0.91060000  0.91230000  1.0 -0.6897435974
O  O69  1  0.96400000  0.91060000  0.58770000  1.0 -0.6897435974
O  O70  1  0.53600000  0.41060000  0.41230000  1.0 -0.6897435974
O  O71  1  0.46400000  0.58940000  0.91230000  1.0 -0.6981598773
O  O72  1  0.03600000  0.08940000  0.08770000  1.0 -0.6897435974
O  O73  1  0.98720000  0.93220000  0.43100000  1.0 -0.6804646804
O  O74  1  0.51280000  0.43220000  0.56900000  1.0 -0.6804646804
O  O75  1  0.48720000  0.56780000  0.06900000  1.0 -0.6804646804
O  O76  1  0.01280000  0.06780000  0.93100000  1.0 -0.6804646804
O  O77  1  0.01280000  0.06780000  0.56900000  1.0 -0.6804646804
O  O78  1  0.48720000  0.56780000  0.43100000  1.0 -0.6804646804
O  O79  1  0.51280000  0.43220000  0.93100000  1.0 -0.6804646804
O  O80  1  0.98720000  0.93220000  0.06900000  1.0 -0.6804646804
O  O81  1  0.93230000  0.00440000  0.31770000  1.0 -0.6897435974
O  O82  1  0.56770000  0.50440000  0.68230000  1.0 -0.6897435974
O  O83  1  0.43230000  0.49560000  0.18230000  1.0 -0.6897435974
O  O84  1  0.06770000  0.99560000  0.81770000  1.0 -0.6897435974
O  O85  1  0.06770000  0.99560000  0.68230000  1.0 -0.6897435974
O  O86  1  0.43230000  0.49560000  0.31770000  1.0 -0.6897435974
O  O87  1  0.56770000  0.50440000  0.81770000  1.0 -0.6897435974
O  O88  1  0.93230000  0.00440000  0.18230000  1.0 -0.6897435974
O  O89  1  0.04200000  0.85980000  0.25000000  1.0 -0.2602105543
O  O90  1  0.45800000  0.35980000  0.75000000  1.0 -0.2658431634
O  O91  1  0.54200000  0.64020000  0.25000000  1.0 -0.2658431634
O  O92  1  0.95800000  0.14020000  0.75000000  1.0 -0.2658431634
O  O93  1  0.79100000  0.84370000  0.32020000  1.0 -0.1702881056
O  O94  1  0.70900000  0.34370000  0.67980000  1.0 -0.1702881056
O  O95  1  0.29100000  0.65630000  0.17980000  1.0 -0.1702881056
O  O96  1  0.20900000  0.15630000  0.82020000  1.0 -0.1702881056
O  O97  1  0.20900000  0.15630000  0.67980000  1.0 -0.1702881056
O  O98  1  0.29100000  0.65630000  0.32020000  1.0 -0.1702881056
O  O99  1  0.70900000  0.34370000  0.82020000  1.0 -0.1702881056
O  O100  1  0.79100000  0.84370000  0.17980000  1.0 -0.1702881056
O  O101  1  0.66300000  0.97380000  0.25000000  1.0 -0.7286178474
O  O102  1  0.83700000  0.47380000  0.75000000  1.0 -0.7286178474
O  O103  1  0.16300000  0.52620000  0.25000000  1.0 -0.7286178474
O  O104  1  0.33700000  0.02620000  0.75000000  1.0 -0.7286178474
O  O105  1  0.41700000  0.03930000  0.25000000  1.0 -0.6054516539
O  O106  1  0.08300000  0.53930000  0.75000000  1.0 -0.6054516539
O  O107  1  0.91700000  0.46070000  0.25000000  1.0 -0.6054516539
O  O108  1  0.58300000  0.96070000  0.75000000  1.0 -0.6054516539
