# DDEC6 charges by PACMAN v1.1 (https://github.com/mtap-research/PACMAN-charge/)
data_PEJMOI_ASR_pacman
_symmetry_space_group_name_H-M   'P 1'
_cell_length_a   17.93690000
_cell_length_b   17.93690000
_cell_length_c   17.93690000
_cell_angle_alpha   126.82800000
_cell_angle_beta   107.11700000
_cell_angle_gamma   96.09970000
_symmetry_Int_Tables_number   1
_chemical_formula_structural   K2Cd8C32(N8O13)3
_chemical_formula_sum   'K4 Cd16 C64 N48 O78'
_cell_volume   4102.16538143
_cell_formula_units_Z   2
loop_
 _symmetry_equiv_pos_site_id
 _symmetry_equiv_pos_as_xyz
  1  'x, y, z'
loop_
 _atom_site_type_symbol
 _atom_site_label
 _atom_site_symmetry_multiplicity
 _atom_site_fract_x
 _atom_site_fract_y
 _atom_site_fract_z
 _atom_site_occupancy
 _atom_site_charge
K  K1  1  0.41162000  0.24110000  0.15272000  1.0 0.8622754849
K  K2  1  0.08838000  0.24110000  0.82948000  1.0 0.8622754849
K  K3  1  0.58838000  0.75890000  0.84728000  1.0 0.8622754849
K  K4  1  0.91162000  0.75890000  0.17052000  1.0 0.8622754849
Cd  Cd1  1  0.73262000  0.65419000  0.60921000  1.0 0.8824740089
Cd  Cd2  1  0.76738000  0.37659000  0.92157000  1.0 0.8824740089
Cd  Cd3  1  0.54498000  0.62341000  0.39079000  1.0 0.8824740089
Cd  Cd4  1  0.95502000  0.34581000  0.07843000  1.0 0.8824740089
Cd  Cd5  1  0.26738000  0.34581000  0.39079000  1.0 0.8824740089
Cd  Cd6  1  0.23262000  0.62341000  0.07843000  1.0 0.8824740089
Cd  Cd7  1  0.45502000  0.37659000  0.60921000  1.0 0.8824740089
Cd  Cd8  1  0.04498000  0.65419000  0.92157000  1.0 0.8824740089
Cd  Cd9  1  0.62933000  0.42167000  0.24172000  1.0 0.9153673536
Cd  Cd10  1  0.87067000  0.11239000  0.79234000  1.0 0.9153673536
Cd  Cd11  1  0.67995000  0.88761000  0.75828000  1.0 0.9153673536
Cd  Cd12  1  0.82005000  0.57833000  0.20766000  1.0 0.9153673536
Cd  Cd13  1  0.37067000  0.57833000  0.75828000  1.0 0.9153673536
Cd  Cd14  1  0.12933000  0.88761000  0.20766000  1.0 0.9153673536
Cd  Cd15  1  0.32005000  0.11239000  0.24172000  1.0 0.9153673536
Cd  Cd16  1  0.17995000  0.42167000  0.79234000  1.0 0.9153673536
C  C1  1  0.58430000  0.45520000  0.48190000  1.0 0.010945876
C  C2  1  0.91570000  0.39760000  0.87090000  1.0 0.010945876
C  C3  1  0.47330000  0.60240000  0.51810000  1.0 0.010945876
C  C4  1  0.02670000  0.54480000  0.12910000  1.0 0.010945876
C  C5  1  0.41570000  0.54480000  0.51810000  1.0 0.010945876
C  C6  1  0.08430000  0.60240000  0.12910000  1.0 0.010945876
C  C7  1  0.52670000  0.39760000  0.48190000  1.0 0.010945876
C  C8  1  0.97330000  0.45520000  0.87090000  1.0 0.010945876
C  C9  1  0.60100000  0.44560000  0.40080000  1.0 0.5854674317
C  C10  1  0.89900000  0.29980000  0.84460000  1.0 0.5854674317
C  C11  1  0.54480000  0.70020000  0.59920000  1.0 0.5854674317
C  C12  1  0.95520000  0.55440000  0.15540000  1.0 0.5854674317
C  C13  1  0.39900000  0.55440000  0.59920000  1.0 0.5854674317
C  C14  1  0.10100000  0.70020000  0.15540000  1.0 0.5854674317
C  C15  1  0.45520000  0.29980000  0.40080000  1.0 0.5854674317
C  C16  1  0.04480000  0.44560000  0.84460000  1.0 0.5854674317
C  C17  1  0.84220000  0.74830000  0.84090000  1.0 -0.0188772715
C  C18  1  0.65780000  0.49870000  0.90610000  1.0 -0.0188772715
C  C19  1  0.40740000  0.50130000  0.15910000  1.0 -0.0188772715
C  C20  1  0.09260000  0.25170000  0.09390000  1.0 -0.0188772715
C  C21  1  0.15780000  0.25170000  0.15910000  1.0 -0.0188772715
C  C22  1  0.34220000  0.50130000  0.09390000  1.0 -0.0188772715
C  C23  1  0.59260000  0.49870000  0.84090000  1.0 -0.0188772715
C  C24  1  0.90740000  0.74830000  0.90610000  1.0 -0.0188772715
C  C25  1  0.78300000  0.80340000  0.85660000  1.0 0.4967705457
C  C26  1  0.71700000  0.57360000  0.02040000  1.0 0.4967705457
C  C27  1  0.44680000  0.42640000  0.14340000  1.0 0.4967705457
C  C28  1  0.05320000  0.19660000  0.97960000  1.0 0.4967705457
C  C29  1  0.21700000  0.19660000  0.14340000  1.0 0.4967705457
C  C30  1  0.28300000  0.42640000  0.97960000  1.0 0.4967705457
C  C31  1  0.55320000  0.57360000  0.85660000  1.0 0.4967705457
C  C32  1  0.94680000  0.80340000  0.02040000  1.0 0.4967705457
C  C33  1  0.18920000  0.79790000  0.94890000  1.0 0.0164531792
C  C34  1  0.31080000  0.25970000  0.60870000  1.0 0.0164531792
C  C35  1  0.34900000  0.74030000  0.05110000  1.0 0.0164531792
C  C36  1  0.15100000  0.20210000  0.39130000  1.0 0.0164531792
C  C37  1  0.81080000  0.20210000  0.05110000  1.0 0.0164531792
C  C38  1  0.68920000  0.74030000  0.39130000  1.0 0.0164531792
C  C39  1  0.65100000  0.25970000  0.94890000  1.0 0.0164531792
C  C40  1  0.84900000  0.79790000  0.60870000  1.0 0.0164531792
C  C41  1  0.24500000  0.89680000  0.01800000  1.0 0.0287235587
C  C42  1  0.25500000  0.27300000  0.65180000  1.0 0.0287235587
C  C43  1  0.37880000  0.72700000  0.98200000  1.0 0.0287235587
C  C44  1  0.12120000  0.10320000  0.34820000  1.0 0.0287235587
C  C45  1  0.75500000  0.10320000  0.98200000  1.0 0.0287235587
C  C46  1  0.74500000  0.72700000  0.34820000  1.0 0.0287235587
C  C47  1  0.62120000  0.27300000  0.01800000  1.0 0.0287235587
C  C48  1  0.87880000  0.89680000  0.65180000  1.0 0.0287235587
C  C49  1  0.15990000  0.70530000  0.83740000  1.0 0.5651806033
C  C50  1  0.34010000  0.17750000  0.54540000  1.0 0.5651806033
C  C51  1  0.36790000  0.82250000  0.16260000  1.0 0.5651806033
C  C52  1  0.13210000  0.29470000  0.45460000  1.0 0.5651806033
C  C53  1  0.84010000  0.29470000  0.16260000  1.0 0.5651806033
C  C54  1  0.65990000  0.82250000  0.45460000  1.0 0.5651806033
C  C55  1  0.63210000  0.17750000  0.83740000  1.0 0.5651806033
C  C56  1  0.86790000  0.70530000  0.54540000  1.0 0.5651806033
C  C57  1  0.30260000  0.95960000  0.01360000  1.0 0.5766357071
C  C58  1  0.19740000  0.21100000  0.65700000  1.0 0.5766357071
C  C59  1  0.44600000  0.78900000  0.98640000  1.0 0.5766357071
C  C60  1  0.05400000  0.04040000  0.34300000  1.0 0.5766357071
C  C61  1  0.69740000  0.04040000  0.98640000  1.0 0.5766357071
C  C62  1  0.80260000  0.78900000  0.34300000  1.0 0.5766357071
C  C63  1  0.55400000  0.21100000  0.01360000  1.0 0.5766357071
C  C64  1  0.94600000  0.95960000  0.65700000  1.0 0.5766357071
N  N1  1  0.63110000  0.54120000  0.58210000  1.0 -0.2056682744
N  N2  1  0.86890000  0.45100000  0.91010000  1.0 -0.2056682744
N  N3  1  0.45910000  0.54900000  0.41790000  1.0 -0.2056682744
N  N4  1  0.04090000  0.45880000  0.08990000  1.0 -0.2056682744
N  N5  1  0.36890000  0.45880000  0.41790000  1.0 -0.2056682744
N  N6  1  0.13110000  0.54900000  0.08990000  1.0 -0.2056682744
N  N7  1  0.54090000  0.45100000  0.58210000  1.0 -0.2056682744
N  N8  1  0.95910000  0.54120000  0.91010000  1.0 -0.2056682744
N  N9  1  0.60500000  0.53910000  0.64410000  1.0 -0.1169856415
N  N10  1  0.89500000  0.53910000  0.93410000  1.0 -0.1169856415
N  N11  1  0.39500000  0.46090000  0.35590000  1.0 -0.1169856415
N  N12  1  0.10500000  0.46090000  0.06590000  1.0 -0.1169856415
N  N13  1  0.83550000  0.68110000  0.74400000  1.0 -0.1630230286
N  N14  1  0.66450000  0.40850000  0.84560000  1.0 -0.1630230286
N  N15  1  0.43710000  0.59150000  0.25600000  1.0 -0.1630230286
N  N16  1  0.06290000  0.31890000  0.15440000  1.0 -0.1630230286
N  N17  1  0.16450000  0.31890000  0.25600000  1.0 -0.1630230286
N  N18  1  0.33550000  0.59150000  0.15440000  1.0 -0.1630230286
N  N19  1  0.56290000  0.40850000  0.74400000  1.0 -0.1630230286
N  N20  1  0.93710000  0.68110000  0.84560000  1.0 -0.1630230286
N  N21  1  0.89330000  0.64140000  0.74810000  1.0 -0.0023949642
N  N22  1  0.60670000  0.35480000  0.74810000  1.0 -0.0023949642
N  N23  1  0.39330000  0.64520000  0.25190000  1.0 -0.0023949642
N  N24  1  0.10670000  0.35860000  0.25190000  1.0 -0.0023949642
N  N25  1  0.15560000  0.79020000  0.00320000  1.0 -0.1850278788
N  N26  1  0.34440000  0.34760000  0.63460000  1.0 -0.184375506
N  N27  1  0.28700000  0.65240000  0.99680000  1.0 -0.184375506
N  N28  1  0.21300000  0.20980000  0.36540000  1.0 -0.1850278788
N  N29  1  0.84440000  0.20980000  0.99680000  1.0 -0.184375506
N  N30  1  0.65560000  0.65240000  0.36540000  1.0 -0.1850278788
N  N31  1  0.71300000  0.34760000  0.00320000  1.0 -0.184375506
N  N32  1  0.78700000  0.79020000  0.63460000  1.0 -0.184375506
N  N33  1  0.18600000  0.87790000  0.09970000  1.0 -0.0324951767
N  N34  1  0.31400000  0.41370000  0.69190000  1.0 -0.0324951767
N  N35  1  0.27820000  0.58630000  0.90030000  1.0 -0.0324951767
N  N36  1  0.22180000  0.12210000  0.30810000  1.0 -0.0324951767
N  N37  1  0.81400000  0.12210000  0.90030000  1.0 -0.0324951767
N  N38  1  0.68600000  0.58630000  0.30810000  1.0 -0.0324951767
N  N39  1  0.72180000  0.41370000  0.09970000  1.0 -0.0324951767
N  N40  1  0.77820000  0.87790000  0.69190000  1.0 -0.0324951767
N  N41  1  0.24060000  0.94370000  0.10930000  1.0 -0.2056682744
N  N42  1  0.25940000  0.36870000  0.70310000  1.0 -0.2056682744
N  N43  1  0.33440000  0.63130000  0.89070000  1.0 -0.2056682744
N  N44  1  0.16560000  0.05630000  0.29690000  1.0 -0.2056682744
N  N45  1  0.75940000  0.05630000  0.89070000  1.0 -0.2056682744
N  N46  1  0.74060000  0.63130000  0.29690000  1.0 -0.2056682744
N  N47  1  0.66560000  0.36870000  0.10930000  1.0 -0.2056682744
N  N48  1  0.83440000  0.94370000  0.70310000  1.0 -0.2056682744
O  O1  1  0.64257000  0.52637000  0.42680000  1.0 -0.5590635129
O  O2  1  0.85743000  0.28423000  0.88380000  1.0 -0.5590635129
O  O3  1  0.59957000  0.71577000  0.57320000  1.0 -0.5590635129
O  O4  1  0.90043000  0.47363000  0.11620000  1.0 -0.5590635129
O  O5  1  0.35743000  0.47363000  0.57320000  1.0 -0.5590635129
O  O6  1  0.14257000  0.71577000  0.11620000  1.0 -0.5590635129
O  O7  1  0.40043000  0.28423000  0.42680000  1.0 -0.5590635129
O  O8  1  0.09957000  0.52637000  0.88380000  1.0 -0.5590635129
O  O9  1  0.57455000  0.36205000  0.31110000  1.0 -0.5052938604
O  O10  1  0.92545000  0.23655000  0.78750000  1.0 -0.5043891334
O  O11  1  0.55095000  0.76345000  0.68890000  1.0 -0.5052938604
O  O12  1  0.94905000  0.63795000  0.21250000  1.0 -0.5052938604
O  O13  1  0.42545000  0.63795000  0.68890000  1.0 -0.5043891334
O  O14  1  0.07455000  0.76345000  0.21250000  1.0 -0.5052938604
O  O15  1  0.44905000  0.23655000  0.31110000  1.0 -0.5043891334
O  O16  1  0.05095000  0.36205000  0.78750000  1.0 -0.5052938604
O  O17  1  0.73220000  0.78500000  0.77620000  1.0 -0.5590635129
O  O18  1  0.76780000  0.54400000  0.05280000  1.0 -0.5590635129
O  O19  1  0.50880000  0.45600000  0.22380000  1.0 -0.5590635129
O  O20  1  0.99120000  0.21500000  0.94720000  1.0 -0.5590635129
O  O21  1  0.26780000  0.21500000  0.22380000  1.0 -0.5590635129
O  O22  1  0.23220000  0.45600000  0.94720000  1.0 -0.5590635129
O  O23  1  0.49120000  0.54400000  0.77620000  1.0 -0.5590635129
O  O24  1  0.00880000  0.78500000  0.05280000  1.0 -0.5590635129
O  O25  1  0.80600000  0.88770000  0.94650000  1.0 0.0392938324
O  O26  1  0.69400000  0.64050000  0.08170000  1.0 0.0392938324
O  O27  1  0.44120000  0.35950000  0.05350000  1.0 0.0392938324
O  O28  1  0.05880000  0.11230000  0.91830000  1.0 0.0392938324
O  O29  1  0.19400000  0.11230000  0.05350000  1.0 0.0287235587
O  O30  1  0.30600000  0.35950000  0.91830000  1.0 0.0392938324
O  O31  1  0.55880000  0.64050000  0.94650000  1.0 0.0287235587
O  O32  1  0.94120000  0.88770000  0.08170000  1.0 0.0392938324
O  O33  1  0.09940000  0.63230000  0.80170000  1.0 -0.5330891648
O  O34  1  0.40060000  0.20230000  0.53290000  1.0 -0.5330891648
O  O35  1  0.33060000  0.79770000  0.19830000  1.0 -0.5330891648
O  O36  1  0.16940000  0.36770000  0.46710000  1.0 -0.5330891648
O  O37  1  0.90060000  0.36770000  0.19830000  1.0 -0.5330891648
O  O38  1  0.59940000  0.79770000  0.46710000  1.0 -0.5330891648
O  O39  1  0.66940000  0.20230000  0.80170000  1.0 -0.5330891648
O  O40  1  0.83060000  0.63230000  0.53290000  1.0 -0.5330891648
O  O41  1  0.19670000  0.70570000  0.78900000  1.0 -0.4526035424
O  O42  1  0.30330000  0.09230000  0.50900000  1.0 -0.4526035424
O  O43  1  0.41670000  0.90770000  0.21100000  1.0 -0.4526035424
O  O44  1  0.08330000  0.29430000  0.49100000  1.0 -0.4526035424
O  O45  1  0.80330000  0.29430000  0.21100000  1.0 -0.4526035424
O  O46  1  0.69670000  0.90770000  0.49100000  1.0 -0.4526035424
O  O47  1  0.58330000  0.09230000  0.78900000  1.0 -0.4526035424
O  O48  1  0.91670000  0.70570000  0.50900000  1.0 -0.4526035424
O  O49  1  0.35270000  0.04340000  0.09870000  1.0 -0.5590635129
O  O50  1  0.14730000  0.24600000  0.69070000  1.0 -0.5590635129
O  O51  1  0.44470000  0.75400000  0.90130000  1.0 -0.5590635129
O  O52  1  0.05530000  0.95660000  0.30930000  1.0 -0.5590635129
O  O53  1  0.64730000  0.95660000  0.90130000  1.0 -0.5590635129
O  O54  1  0.85270000  0.75400000  0.30930000  1.0 -0.5590635129
O  O55  1  0.55530000  0.24600000  0.09870000  1.0 -0.5590635129
O  O56  1  0.94470000  0.04340000  0.69070000  1.0 -0.5590635129
O  O57  1  0.29580000  0.92610000  0.92730000  1.0 -0.4552448952
O  O58  1  0.20420000  0.13150000  0.63030000  1.0 -0.4526035424
O  O59  1  0.49880000  0.86850000  0.07270000  1.0 -0.4526035424
O  O60  1  0.00120000  0.07390000  0.36970000  1.0 -0.4552448952
O  O61  1  0.70420000  0.07390000  0.07270000  1.0 -0.4552448952
O  O62  1  0.79580000  0.86850000  0.36970000  1.0 -0.4552448952
O  O63  1  0.50120000  0.13150000  0.92730000  1.0 -0.4552448952
O  O64  1  0.99880000  0.92610000  0.63030000  1.0 -0.4526035424
O  O65  1  0.25000000  0.17600000  0.92600000  1.0 -0.0324951767
O  O66  1  0.75000000  0.82400000  0.07400000  1.0 -0.0188772715
O  O67  1  0.23490000  0.16870000  0.06820000  1.0 -0.096885505
O  O68  1  0.26510000  0.33333333  0.93380000  1.0 -0.096885505
O  O69  1  0.60050000  0.66666667  0.93180000  1.0 -0.096885505
O  O70  1  0.89950000  0.83130000  0.06620000  1.0 -0.0889143982
O  O71  1  0.76510000  0.83130000  0.93180000  1.0 -0.096885505
O  O72  1  0.73490000  0.66666667  0.06620000  1.0 -0.096885505
O  O73  1  0.39950000  0.33333333  0.06820000  1.0 -0.096885505
O  O74  1  0.10050000  0.16870000  0.93380000  1.0 -0.096885505
O  O75  1  0.27540000  0.26700000  0.04240000  1.0 0.0972761958
O  O76  1  0.22460000  0.26700000  0.99160000  1.0 0.0972761958
O  O77  1  0.72460000  0.73300000  0.95760000  1.0 0.0972761958
O  O78  1  0.77540000  0.73300000  0.00840000  1.0 0.0972761958
