# DDEC6 charges by PACMAN v1.1 (https://github.com/mtap-research/PACMAN-charge/)
data_PEJMUO_ASR_pacman
_symmetry_space_group_name_H-M   'P 1'
_cell_length_a   22.55570000
_cell_length_b   22.55570000
_cell_length_c   22.55570000
_cell_angle_alpha   90.00000000
_cell_angle_beta   90.00000000
_cell_angle_gamma   90.00000000
_symmetry_Int_Tables_number   1
_chemical_formula_structural   Cu7C12(N3O2)6
_chemical_formula_sum   'Cu56 C96 N144 O96'
_cell_volume   11475.42896588
_cell_formula_units_Z   8
loop_
 _symmetry_equiv_pos_site_id
 _symmetry_equiv_pos_as_xyz
  1  'x, y, z'
loop_
 _atom_site_type_symbol
 _atom_site_label
 _atom_site_symmetry_multiplicity
 _atom_site_fract_x
 _atom_site_fract_y
 _atom_site_fract_z
 _atom_site_occupancy
 _atom_site_charge
Cu  Cu1  1  0.50000000  0.18740000  0.23640000  1.0 0.2780566558
Cu  Cu2  1  0.50000000  0.81260000  0.23640000  1.0 0.2780566558
Cu  Cu3  1  0.50000000  0.18740000  0.76360000  1.0 0.2780566558
Cu  Cu4  1  0.50000000  0.81260000  0.76360000  1.0 0.2780566558
Cu  Cu5  1  0.23640000  0.50000000  0.18740000  1.0 0.2780566558
Cu  Cu6  1  0.23640000  0.50000000  0.81260000  1.0 0.2780566558
Cu  Cu7  1  0.76360000  0.50000000  0.18740000  1.0 0.2780566558
Cu  Cu8  1  0.76360000  0.50000000  0.81260000  1.0 0.2780566558
Cu  Cu9  1  0.18740000  0.23640000  0.50000000  1.0 0.2780566558
Cu  Cu10  1  0.81260000  0.23640000  0.50000000  1.0 0.2780566558
Cu  Cu11  1  0.18740000  0.76360000  0.50000000  1.0 0.2780566558
Cu  Cu12  1  0.81260000  0.76360000  0.50000000  1.0 0.2780566558
Cu  Cu13  1  0.68740000  0.00000000  0.26360000  1.0 0.2780566558
Cu  Cu14  1  0.31260000  0.00000000  0.26360000  1.0 0.2780566558
Cu  Cu15  1  0.68740000  0.00000000  0.73640000  1.0 0.2780566558
Cu  Cu16  1  0.31260000  0.00000000  0.73640000  1.0 0.2780566558
Cu  Cu17  1  0.00000000  0.73640000  0.31260000  1.0 0.2780566558
Cu  Cu18  1  0.00000000  0.73640000  0.68740000  1.0 0.2780566558
Cu  Cu19  1  0.00000000  0.26360000  0.31260000  1.0 0.2780566558
Cu  Cu20  1  0.00000000  0.26360000  0.68740000  1.0 0.2780566558
Cu  Cu21  1  0.73640000  0.68740000  0.00000000  1.0 0.2780566558
Cu  Cu22  1  0.73640000  0.31260000  0.00000000  1.0 0.2780566558
Cu  Cu23  1  0.26360000  0.68740000  0.00000000  1.0 0.2780566558
Cu  Cu24  1  0.26360000  0.31260000  0.00000000  1.0 0.2780566558
Cu  Cu25  1  0.25000000  0.25000000  0.25000000  1.0 0.9739670767
Cu  Cu26  1  0.75000000  0.75000000  0.25000000  1.0 0.9755637659
Cu  Cu27  1  0.75000000  0.25000000  0.75000000  1.0 0.9739670767
Cu  Cu28  1  0.25000000  0.75000000  0.75000000  1.0 0.9755637659
Cu  Cu29  1  0.75000000  0.75000000  0.75000000  1.0 0.9755637659
Cu  Cu30  1  0.25000000  0.25000000  0.75000000  1.0 0.9739670767
Cu  Cu31  1  0.25000000  0.75000000  0.25000000  1.0 0.9755637659
Cu  Cu32  1  0.75000000  0.25000000  0.25000000  1.0 0.9739670767
Cu  Cu33  1  0.24200000  0.31200000  0.00000000  1.0 0.2780566558
Cu  Cu34  1  0.75800000  0.68800000  0.00000000  1.0 0.2780566558
Cu  Cu35  1  0.75800000  0.31200000  0.00000000  1.0 0.2780566558
Cu  Cu36  1  0.24200000  0.68800000  0.00000000  1.0 0.2780566558
Cu  Cu37  1  0.00000000  0.24200000  0.31200000  1.0 0.2780566558
Cu  Cu38  1  0.00000000  0.75800000  0.68800000  1.0 0.2780566558
Cu  Cu39  1  0.00000000  0.75800000  0.31200000  1.0 0.2780566558
Cu  Cu40  1  0.00000000  0.24200000  0.68800000  1.0 0.2780566558
Cu  Cu41  1  0.31200000  0.00000000  0.24200000  1.0 0.2780566558
Cu  Cu42  1  0.68800000  0.00000000  0.75800000  1.0 0.2780566558
Cu  Cu43  1  0.31200000  0.00000000  0.75800000  1.0 0.2780566558
Cu  Cu44  1  0.68800000  0.00000000  0.24200000  1.0 0.2780566558
Cu  Cu45  1  0.81200000  0.74200000  0.50000000  1.0 0.2780566558
Cu  Cu46  1  0.18800000  0.25800000  0.50000000  1.0 0.2780566558
Cu  Cu47  1  0.81200000  0.25800000  0.50000000  1.0 0.2780566558
Cu  Cu48  1  0.18800000  0.74200000  0.50000000  1.0 0.2780566558
Cu  Cu49  1  0.74200000  0.50000000  0.18800000  1.0 0.2780566558
Cu  Cu50  1  0.25800000  0.50000000  0.81200000  1.0 0.2780566558
Cu  Cu51  1  0.25800000  0.50000000  0.18800000  1.0 0.2780566558
Cu  Cu52  1  0.74200000  0.50000000  0.81200000  1.0 0.2780566558
Cu  Cu53  1  0.50000000  0.81200000  0.25800000  1.0 0.2780566558
Cu  Cu54  1  0.50000000  0.18800000  0.74200000  1.0 0.2780566558
Cu  Cu55  1  0.50000000  0.81200000  0.74200000  1.0 0.2780566558
Cu  Cu56  1  0.50000000  0.18800000  0.25800000  1.0 0.2780566558
C  C1  1  0.38010000  0.16270000  0.24960000  1.0 -0.0738375522
C  C2  1  0.61990000  0.83730000  0.24960000  1.0 -0.0738375522
C  C3  1  0.61990000  0.16270000  0.75040000  1.0 -0.0738375522
C  C4  1  0.38010000  0.83730000  0.75040000  1.0 -0.0738375522
C  C5  1  0.24960000  0.38010000  0.16270000  1.0 -0.0738375522
C  C6  1  0.24960000  0.61990000  0.83730000  1.0 -0.0738375522
C  C7  1  0.75040000  0.61990000  0.16270000  1.0 -0.0738375522
C  C8  1  0.75040000  0.38010000  0.83730000  1.0 -0.0738375522
C  C9  1  0.16270000  0.24960000  0.38010000  1.0 -0.0738375522
C  C10  1  0.83730000  0.24960000  0.61990000  1.0 -0.0738375522
C  C11  1  0.16270000  0.75040000  0.61990000  1.0 -0.0738375522
C  C12  1  0.83730000  0.75040000  0.38010000  1.0 -0.0738375522
C  C13  1  0.66270000  0.88010000  0.25040000  1.0 -0.0738375522
C  C14  1  0.33730000  0.11990000  0.25040000  1.0 -0.0738375522
C  C15  1  0.66270000  0.11990000  0.74960000  1.0 -0.0738375522
C  C16  1  0.33730000  0.88010000  0.74960000  1.0 -0.0738375522
C  C17  1  0.88010000  0.74960000  0.33730000  1.0 -0.0738375522
C  C18  1  0.11990000  0.74960000  0.66270000  1.0 -0.0738375522
C  C19  1  0.11990000  0.25040000  0.33730000  1.0 -0.0738375522
C  C20  1  0.88010000  0.25040000  0.66270000  1.0 -0.0738375522
C  C21  1  0.74960000  0.66270000  0.11990000  1.0 -0.0738375522
C  C22  1  0.74960000  0.33730000  0.88010000  1.0 -0.0738375522
C  C23  1  0.25040000  0.66270000  0.88010000  1.0 -0.0738375522
C  C24  1  0.25040000  0.33730000  0.11990000  1.0 -0.0738375522
C  C25  1  0.61990000  0.83730000  0.75040000  1.0 -0.0738375522
C  C26  1  0.38010000  0.16270000  0.75040000  1.0 -0.0738375522
C  C27  1  0.38010000  0.83730000  0.24960000  1.0 -0.0738375522
C  C28  1  0.61990000  0.16270000  0.24960000  1.0 -0.0738375522
C  C29  1  0.75040000  0.61990000  0.83730000  1.0 -0.0738375522
C  C30  1  0.75040000  0.38010000  0.16270000  1.0 -0.0738375522
C  C31  1  0.24960000  0.38010000  0.83730000  1.0 -0.0738375522
C  C32  1  0.24960000  0.61990000  0.16270000  1.0 -0.0738375522
C  C33  1  0.83730000  0.75040000  0.61990000  1.0 -0.0738375522
C  C34  1  0.16270000  0.75040000  0.38010000  1.0 -0.0738375522
C  C35  1  0.83730000  0.24960000  0.38010000  1.0 -0.0738375522
C  C36  1  0.16270000  0.24960000  0.61990000  1.0 -0.0738375522
C  C37  1  0.33730000  0.11990000  0.74960000  1.0 -0.0738375522
C  C38  1  0.66270000  0.88010000  0.74960000  1.0 -0.0738375522
C  C39  1  0.33730000  0.88010000  0.25040000  1.0 -0.0738375522
C  C40  1  0.66270000  0.11990000  0.25040000  1.0 -0.0738375522
C  C41  1  0.11990000  0.25040000  0.66270000  1.0 -0.0738375522
C  C42  1  0.88010000  0.25040000  0.33730000  1.0 -0.0738375522
C  C43  1  0.88010000  0.74960000  0.66270000  1.0 -0.0738375522
C  C44  1  0.11990000  0.74960000  0.33730000  1.0 -0.0738375522
C  C45  1  0.25040000  0.33730000  0.88010000  1.0 -0.0738375522
C  C46  1  0.25040000  0.66270000  0.11990000  1.0 -0.0738375522
C  C47  1  0.74960000  0.33730000  0.11990000  1.0 -0.0738375522
C  C48  1  0.74960000  0.66270000  0.88010000  1.0 -0.0738375522
C  C49  1  0.38450000  0.22775000  0.24780000  1.0 0.5298953641
C  C50  1  0.61550000  0.77225000  0.24780000  1.0 0.5298953641
C  C51  1  0.61550000  0.22775000  0.75220000  1.0 0.5298953641
C  C52  1  0.38450000  0.77225000  0.75220000  1.0 0.5298953641
C  C53  1  0.24780000  0.38450000  0.22775000  1.0 0.5298953641
C  C54  1  0.24780000  0.61550000  0.77225000  1.0 0.5298953641
C  C55  1  0.75220000  0.61550000  0.22775000  1.0 0.5298953641
C  C56  1  0.75220000  0.38450000  0.77225000  1.0 0.5298953641
C  C57  1  0.22775000  0.24780000  0.38450000  1.0 0.5298953641
C  C58  1  0.77225000  0.24780000  0.61550000  1.0 0.5298953641
C  C59  1  0.22775000  0.75220000  0.61550000  1.0 0.5298953641
C  C60  1  0.77225000  0.75220000  0.38450000  1.0 0.5298953641
C  C61  1  0.72775000  0.88450000  0.25220000  1.0 0.5298953641
C  C62  1  0.27225000  0.11550000  0.25220000  1.0 0.5298953641
C  C63  1  0.72775000  0.11550000  0.74780000  1.0 0.5298953641
C  C64  1  0.27225000  0.88450000  0.74780000  1.0 0.5298953641
C  C65  1  0.88450000  0.74780000  0.27225000  1.0 0.5298953641
C  C66  1  0.11550000  0.74780000  0.72775000  1.0 0.5298953641
C  C67  1  0.11550000  0.25220000  0.27225000  1.0 0.5298953641
C  C68  1  0.88450000  0.25220000  0.72775000  1.0 0.5298953641
C  C69  1  0.74780000  0.72775000  0.11550000  1.0 0.5298953641
C  C70  1  0.74780000  0.27225000  0.88450000  1.0 0.5298953641
C  C71  1  0.25220000  0.72775000  0.88450000  1.0 0.5298953641
C  C72  1  0.25220000  0.27225000  0.11550000  1.0 0.5298953641
C  C73  1  0.61550000  0.77225000  0.75220000  1.0 0.5298953641
C  C74  1  0.38450000  0.22775000  0.75220000  1.0 0.5298953641
C  C75  1  0.38450000  0.77225000  0.24780000  1.0 0.5298953641
C  C76  1  0.61550000  0.22775000  0.24780000  1.0 0.5298953641
C  C77  1  0.75220000  0.61550000  0.77225000  1.0 0.5298953641
C  C78  1  0.75220000  0.38450000  0.22775000  1.0 0.5298953641
C  C79  1  0.24780000  0.38450000  0.77225000  1.0 0.5298953641
C  C80  1  0.24780000  0.61550000  0.22775000  1.0 0.5298953641
C  C81  1  0.77225000  0.75220000  0.61550000  1.0 0.5298953641
C  C82  1  0.22775000  0.75220000  0.38450000  1.0 0.5298953641
C  C83  1  0.77225000  0.24780000  0.38450000  1.0 0.5298953641
C  C84  1  0.22775000  0.24780000  0.61550000  1.0 0.5298953641
C  C85  1  0.27225000  0.11550000  0.74780000  1.0 0.5298953641
C  C86  1  0.72775000  0.88450000  0.74780000  1.0 0.5298953641
C  C87  1  0.27225000  0.88450000  0.25220000  1.0 0.5298953641
C  C88  1  0.72775000  0.11550000  0.25220000  1.0 0.5298953641
C  C89  1  0.11550000  0.25220000  0.72775000  1.0 0.5298953641
C  C90  1  0.88450000  0.25220000  0.27225000  1.0 0.5298953641
C  C91  1  0.88450000  0.74780000  0.72775000  1.0 0.5298953641
C  C92  1  0.11550000  0.74780000  0.27225000  1.0 0.5298953641
C  C93  1  0.25220000  0.27225000  0.88450000  1.0 0.5298953641
C  C94  1  0.25220000  0.72775000  0.11550000  1.0 0.5298953641
C  C95  1  0.74780000  0.27225000  0.11550000  1.0 0.5298953641
C  C96  1  0.74780000  0.72775000  0.88450000  1.0 0.5298953641
N  N1  1  0.43330000  0.13360000  0.23400000  1.0 -0.0086126531
N  N2  1  0.56670000  0.86640000  0.23400000  1.0 -0.0086126531
N  N3  1  0.56670000  0.13360000  0.76600000  1.0 -0.0086126531
N  N4  1  0.43330000  0.86640000  0.76600000  1.0 -0.0086126531
N  N5  1  0.23400000  0.43330000  0.13360000  1.0 -0.0086126531
N  N6  1  0.23400000  0.56670000  0.86640000  1.0 -0.0086126531
N  N7  1  0.76600000  0.56670000  0.13360000  1.0 -0.0086126531
N  N8  1  0.76600000  0.43330000  0.86640000  1.0 -0.0086126531
N  N9  1  0.13360000  0.23400000  0.43330000  1.0 -0.0086126531
N  N10  1  0.86640000  0.23400000  0.56670000  1.0 -0.0086126531
N  N11  1  0.13360000  0.76600000  0.56670000  1.0 -0.0086126531
N  N12  1  0.86640000  0.76600000  0.43330000  1.0 -0.0086126531
N  N13  1  0.63360000  0.93330000  0.26600000  1.0 -0.0086126531
N  N14  1  0.36640000  0.06670000  0.26600000  1.0 -0.0086126531
N  N15  1  0.63360000  0.06670000  0.73400000  1.0 -0.0086126531
N  N16  1  0.36640000  0.93330000  0.73400000  1.0 -0.0086126531
N  N17  1  0.93330000  0.73400000  0.36640000  1.0 -0.0086126531
N  N18  1  0.06670000  0.73400000  0.63360000  1.0 -0.0086126531
N  N19  1  0.06670000  0.26600000  0.36640000  1.0 -0.0086126531
N  N20  1  0.93330000  0.26600000  0.63360000  1.0 -0.0086126531
N  N21  1  0.73400000  0.63360000  0.06670000  1.0 -0.0086126531
N  N22  1  0.73400000  0.36640000  0.93330000  1.0 -0.0086126531
N  N23  1  0.26600000  0.63360000  0.93330000  1.0 -0.0086126531
N  N24  1  0.26600000  0.36640000  0.06670000  1.0 -0.0086126531
N  N25  1  0.56670000  0.86640000  0.76600000  1.0 -0.0086126531
N  N26  1  0.43330000  0.13360000  0.76600000  1.0 -0.0086126531
N  N27  1  0.43330000  0.86640000  0.23400000  1.0 -0.0086126531
N  N28  1  0.56670000  0.13360000  0.23400000  1.0 -0.0086126531
N  N29  1  0.76600000  0.56670000  0.86640000  1.0 -0.0086126531
N  N30  1  0.76600000  0.43330000  0.13360000  1.0 -0.0086126531
N  N31  1  0.23400000  0.43330000  0.86640000  1.0 -0.0086126531
N  N32  1  0.23400000  0.56670000  0.13360000  1.0 -0.0086126531
N  N33  1  0.86640000  0.76600000  0.56670000  1.0 -0.0086126531
N  N34  1  0.13360000  0.76600000  0.43330000  1.0 -0.0086126531
N  N35  1  0.86640000  0.23400000  0.43330000  1.0 -0.0086126531
N  N36  1  0.13360000  0.23400000  0.56670000  1.0 -0.0086126531
N  N37  1  0.36640000  0.06670000  0.73400000  1.0 -0.0086126531
N  N38  1  0.63360000  0.93330000  0.73400000  1.0 -0.0086126531
N  N39  1  0.36640000  0.93330000  0.26600000  1.0 -0.0086126531
N  N40  1  0.63360000  0.06670000  0.26600000  1.0 -0.0086126531
N  N41  1  0.06670000  0.26600000  0.63360000  1.0 -0.0086126531
N  N42  1  0.93330000  0.26600000  0.36640000  1.0 -0.0086126531
N  N43  1  0.93330000  0.73400000  0.63360000  1.0 -0.0086126531
N  N44  1  0.06670000  0.73400000  0.36640000  1.0 -0.0086126531
N  N45  1  0.26600000  0.36640000  0.93330000  1.0 -0.0086126531
N  N46  1  0.26600000  0.63360000  0.06670000  1.0 -0.0086126531
N  N47  1  0.73400000  0.36640000  0.06670000  1.0 -0.0086126531
N  N48  1  0.73400000  0.63360000  0.93330000  1.0 -0.0086126531
N  N49  1  0.42370000  0.07560000  0.23280000  1.0 -0.0569301711
N  N50  1  0.57630000  0.92440000  0.23280000  1.0 -0.0569301711
N  N51  1  0.57630000  0.07560000  0.76720000  1.0 -0.0569301711
N  N52  1  0.42370000  0.92440000  0.76720000  1.0 -0.0569301711
N  N53  1  0.23280000  0.42370000  0.07560000  1.0 -0.0569301711
N  N54  1  0.23280000  0.57630000  0.92440000  1.0 -0.0569301711
N  N55  1  0.76720000  0.57630000  0.07560000  1.0 -0.0569301711
N  N56  1  0.76720000  0.42370000  0.92440000  1.0 -0.0569301711
N  N57  1  0.07560000  0.23280000  0.42370000  1.0 -0.0569301711
N  N58  1  0.92440000  0.23280000  0.57630000  1.0 -0.0569301711
N  N59  1  0.07560000  0.76720000  0.57630000  1.0 -0.0569301711
N  N60  1  0.92440000  0.76720000  0.42370000  1.0 -0.0569301711
N  N61  1  0.57560000  0.92370000  0.26720000  1.0 -0.0569301711
N  N62  1  0.42440000  0.07630000  0.26720000  1.0 -0.0569301711
N  N63  1  0.57560000  0.07630000  0.73280000  1.0 -0.0569301711
N  N64  1  0.42440000  0.92370000  0.73280000  1.0 -0.0569301711
N  N65  1  0.92370000  0.73280000  0.42440000  1.0 -0.0569301711
N  N66  1  0.07630000  0.73280000  0.57560000  1.0 -0.0569301711
N  N67  1  0.07630000  0.26720000  0.42440000  1.0 -0.0569301711
N  N68  1  0.92370000  0.26720000  0.57560000  1.0 -0.0569301711
N  N69  1  0.73280000  0.57560000  0.07630000  1.0 -0.0569301711
N  N70  1  0.73280000  0.42440000  0.92370000  1.0 -0.0569301711
N  N71  1  0.26720000  0.57560000  0.92370000  1.0 -0.0569301711
N  N72  1  0.26720000  0.42440000  0.07630000  1.0 -0.0569301711
N  N73  1  0.57630000  0.92440000  0.76720000  1.0 -0.0569301711
N  N74  1  0.42370000  0.07560000  0.76720000  1.0 -0.0569301711
N  N75  1  0.42370000  0.92440000  0.23280000  1.0 -0.0569301711
N  N76  1  0.57630000  0.07560000  0.23280000  1.0 -0.0569301711
N  N77  1  0.76720000  0.57630000  0.92440000  1.0 -0.0569301711
N  N78  1  0.76720000  0.42370000  0.07560000  1.0 -0.0569301711
N  N79  1  0.23280000  0.42370000  0.92440000  1.0 -0.0569301711
N  N80  1  0.23280000  0.57630000  0.07560000  1.0 -0.0569301711
N  N81  1  0.92440000  0.76720000  0.57630000  1.0 -0.0569301711
N  N82  1  0.07560000  0.76720000  0.42370000  1.0 -0.0569301711
N  N83  1  0.92440000  0.23280000  0.42370000  1.0 -0.0569301711
N  N84  1  0.07560000  0.23280000  0.57630000  1.0 -0.0569301711
N  N85  1  0.42440000  0.07630000  0.73280000  1.0 -0.0569301711
N  N86  1  0.57560000  0.92370000  0.73280000  1.0 -0.0569301711
N  N87  1  0.42440000  0.92370000  0.26720000  1.0 -0.0569301711
N  N88  1  0.57560000  0.07630000  0.26720000  1.0 -0.0569301711
N  N89  1  0.07630000  0.26720000  0.57560000  1.0 -0.0569301711
N  N90  1  0.92370000  0.26720000  0.42440000  1.0 -0.0569301711
N  N91  1  0.92370000  0.73280000  0.57560000  1.0 -0.0569301711
N  N92  1  0.07630000  0.73280000  0.42440000  1.0 -0.0569301711
N  N93  1  0.26720000  0.42440000  0.92370000  1.0 -0.0569301711
N  N94  1  0.26720000  0.57560000  0.07630000  1.0 -0.0569301711
N  N95  1  0.73280000  0.42440000  0.07630000  1.0 -0.0569301711
N  N96  1  0.73280000  0.57560000  0.92370000  1.0 -0.0569301711
N  N97  1  0.23790000  0.36480000  0.06770000  1.0 0.0127278433
N  N98  1  0.76210000  0.63520000  0.06770000  1.0 0.0127278433
N  N99  1  0.76210000  0.36480000  0.93230000  1.0 0.0127278433
N  N100  1  0.23790000  0.63520000  0.93230000  1.0 0.0127278433
N  N101  1  0.06770000  0.23790000  0.36480000  1.0 0.0127278433
N  N102  1  0.06770000  0.76210000  0.63520000  1.0 0.0127278433
N  N103  1  0.93230000  0.76210000  0.36480000  1.0 0.0127278433
N  N104  1  0.93230000  0.23790000  0.63520000  1.0 0.0127278433
N  N105  1  0.36480000  0.06770000  0.23790000  1.0 0.0127278433
N  N106  1  0.63520000  0.06770000  0.76210000  1.0 0.0127278433
N  N107  1  0.36480000  0.93230000  0.76210000  1.0 0.0127278433
N  N108  1  0.63520000  0.93230000  0.23790000  1.0 0.0127278433
N  N109  1  0.86480000  0.73790000  0.43230000  1.0 0.0127278433
N  N110  1  0.13520000  0.26210000  0.43230000  1.0 0.0127278433
N  N111  1  0.86480000  0.26210000  0.56770000  1.0 0.0127278433
N  N112  1  0.13520000  0.73790000  0.56770000  1.0 0.0127278433
N  N113  1  0.73790000  0.56770000  0.13520000  1.0 0.0127278433
N  N114  1  0.26210000  0.56770000  0.86480000  1.0 0.0127278433
N  N115  1  0.26210000  0.43230000  0.13520000  1.0 0.0127278433
N  N116  1  0.73790000  0.43230000  0.86480000  1.0 0.0127278433
N  N117  1  0.56770000  0.86480000  0.26210000  1.0 0.0127278433
N  N118  1  0.56770000  0.13520000  0.73790000  1.0 0.0127278433
N  N119  1  0.43230000  0.86480000  0.73790000  1.0 0.0127278433
N  N120  1  0.43230000  0.13520000  0.26210000  1.0 0.0127278433
N  N121  1  0.76210000  0.63520000  0.93230000  1.0 0.0127278433
N  N122  1  0.23790000  0.36480000  0.93230000  1.0 0.0127278433
N  N123  1  0.23790000  0.63520000  0.06770000  1.0 0.0127278433
N  N124  1  0.76210000  0.36480000  0.06770000  1.0 0.0127278433
N  N125  1  0.93230000  0.76210000  0.63520000  1.0 0.0127278433
N  N126  1  0.93230000  0.23790000  0.36480000  1.0 0.0127278433
N  N127  1  0.06770000  0.23790000  0.63520000  1.0 0.0127278433
N  N128  1  0.06770000  0.76210000  0.36480000  1.0 0.0127278433
N  N129  1  0.63520000  0.93230000  0.76210000  1.0 0.0127278433
N  N130  1  0.36480000  0.93230000  0.23790000  1.0 0.0127278433
N  N131  1  0.63520000  0.06770000  0.23790000  1.0 0.0127278433
N  N132  1  0.36480000  0.06770000  0.76210000  1.0 0.0127278433
N  N133  1  0.13520000  0.26210000  0.56770000  1.0 0.0127278433
N  N134  1  0.86480000  0.73790000  0.56770000  1.0 0.0127278433
N  N135  1  0.13520000  0.73790000  0.43230000  1.0 0.0127278433
N  N136  1  0.86480000  0.26210000  0.43230000  1.0 0.0127278433
N  N137  1  0.26210000  0.43230000  0.86480000  1.0 0.0127278433
N  N138  1  0.73790000  0.43230000  0.13520000  1.0 0.0127278433
N  N139  1  0.73790000  0.56770000  0.86480000  1.0 0.0127278433
N  N140  1  0.26210000  0.56770000  0.13520000  1.0 0.0127278433
N  N141  1  0.43230000  0.13520000  0.73790000  1.0 0.0127278433
N  N142  1  0.43230000  0.86480000  0.26210000  1.0 0.0127278433
N  N143  1  0.56770000  0.13520000  0.26210000  1.0 0.0127278433
N  N144  1  0.56770000  0.86480000  0.73790000  1.0 0.0127278433
O  O1  1  0.43701000  0.24728000  0.24567000  1.0 -0.3824338273
O  O2  1  0.56299000  0.75272000  0.24567000  1.0 -0.3824338273
O  O3  1  0.56299000  0.24728000  0.75433000  1.0 -0.3824338273
O  O4  1  0.43701000  0.75272000  0.75433000  1.0 -0.3824338273
O  O5  1  0.24567000  0.43701000  0.24728000  1.0 -0.3824338273
O  O6  1  0.24567000  0.56299000  0.75272000  1.0 -0.3824338273
O  O7  1  0.75433000  0.56299000  0.24728000  1.0 -0.3824338273
O  O8  1  0.75433000  0.43701000  0.75272000  1.0 -0.3824338273
O  O9  1  0.24728000  0.24567000  0.43701000  1.0 -0.3824338273
O  O10  1  0.75272000  0.24567000  0.56299000  1.0 -0.3824338273
O  O11  1  0.24728000  0.75433000  0.56299000  1.0 -0.3824338273
O  O12  1  0.75272000  0.75433000  0.43701000  1.0 -0.3824338273
O  O13  1  0.74728000  0.93701000  0.25433000  1.0 -0.3824338273
O  O14  1  0.25272000  0.06299000  0.25433000  1.0 -0.3824338273
O  O15  1  0.74728000  0.06299000  0.74567000  1.0 -0.3824338273
O  O16  1  0.25272000  0.93701000  0.74567000  1.0 -0.3824338273
O  O17  1  0.93701000  0.74567000  0.25272000  1.0 -0.3824338273
O  O18  1  0.06299000  0.74567000  0.74728000  1.0 -0.3824338273
O  O19  1  0.06299000  0.25433000  0.25272000  1.0 -0.3824338273
O  O20  1  0.93701000  0.25433000  0.74728000  1.0 -0.3824338273
O  O21  1  0.74567000  0.74728000  0.06299000  1.0 -0.3824338273
O  O22  1  0.74567000  0.25272000  0.93701000  1.0 -0.3824338273
O  O23  1  0.25433000  0.74728000  0.93701000  1.0 -0.3824338273
O  O24  1  0.25433000  0.25272000  0.06299000  1.0 -0.3824338273
O  O25  1  0.56299000  0.75272000  0.75433000  1.0 -0.3824338273
O  O26  1  0.43701000  0.24728000  0.75433000  1.0 -0.3824338273
O  O27  1  0.43701000  0.75272000  0.24567000  1.0 -0.3824338273
O  O28  1  0.56299000  0.24728000  0.24567000  1.0 -0.3824338273
O  O29  1  0.75433000  0.56299000  0.75272000  1.0 -0.3824338273
O  O30  1  0.75433000  0.43701000  0.24728000  1.0 -0.3824338273
O  O31  1  0.24567000  0.43701000  0.75272000  1.0 -0.3824338273
O  O32  1  0.24567000  0.56299000  0.24728000  1.0 -0.3824338273
O  O33  1  0.75272000  0.75433000  0.56299000  1.0 -0.3824338273
O  O34  1  0.24728000  0.75433000  0.43701000  1.0 -0.3824338273
O  O35  1  0.75272000  0.24567000  0.43701000  1.0 -0.3824338273
O  O36  1  0.24728000  0.24567000  0.56299000  1.0 -0.3824338273
O  O37  1  0.25272000  0.06299000  0.74567000  1.0 -0.3824338273
O  O38  1  0.74728000  0.93701000  0.74567000  1.0 -0.3824338273
O  O39  1  0.25272000  0.93701000  0.25433000  1.0 -0.3824338273
O  O40  1  0.74728000  0.06299000  0.25433000  1.0 -0.3824338273
O  O41  1  0.06299000  0.25433000  0.74728000  1.0 -0.3824338273
O  O42  1  0.93701000  0.25433000  0.25272000  1.0 -0.3824338273
O  O43  1  0.93701000  0.74567000  0.74728000  1.0 -0.3824338273
O  O44  1  0.06299000  0.74567000  0.25272000  1.0 -0.3824338273
O  O45  1  0.25433000  0.25272000  0.93701000  1.0 -0.3824338273
O  O46  1  0.25433000  0.74728000  0.06299000  1.0 -0.3824338273
O  O47  1  0.74567000  0.25272000  0.06299000  1.0 -0.3824338273
O  O48  1  0.74567000  0.74728000  0.93701000  1.0 -0.3824338273
O  O49  1  0.34068000  0.25989000  0.24766000  1.0 -0.461326563
O  O50  1  0.65932000  0.74011000  0.24766000  1.0 -0.461326563
O  O51  1  0.65932000  0.25989000  0.75234000  1.0 -0.461326563
O  O52  1  0.34068000  0.74011000  0.75234000  1.0 -0.461326563
O  O53  1  0.24766000  0.34068000  0.25989000  1.0 -0.461326563
O  O54  1  0.24766000  0.65932000  0.74011000  1.0 -0.461326563
O  O55  1  0.75234000  0.65932000  0.25989000  1.0 -0.461326563
O  O56  1  0.75234000  0.34068000  0.74011000  1.0 -0.461326563
O  O57  1  0.25989000  0.24766000  0.34068000  1.0 -0.461326563
O  O58  1  0.74011000  0.24766000  0.65932000  1.0 -0.461326563
O  O59  1  0.25989000  0.75234000  0.65932000  1.0 -0.461326563
O  O60  1  0.74011000  0.75234000  0.34068000  1.0 -0.461326563
O  O61  1  0.75989000  0.84068000  0.25234000  1.0 -0.461326563
O  O62  1  0.24011000  0.15932000  0.25234000  1.0 -0.461326563
O  O63  1  0.75989000  0.15932000  0.74766000  1.0 -0.461326563
O  O64  1  0.24011000  0.84068000  0.74766000  1.0 -0.461326563
O  O65  1  0.84068000  0.74766000  0.24011000  1.0 -0.461326563
O  O66  1  0.15932000  0.74766000  0.75989000  1.0 -0.461326563
O  O67  1  0.15932000  0.25234000  0.24011000  1.0 -0.461326563
O  O68  1  0.84068000  0.25234000  0.75989000  1.0 -0.461326563
O  O69  1  0.74766000  0.75989000  0.15932000  1.0 -0.461326563
O  O70  1  0.74766000  0.24011000  0.84068000  1.0 -0.461326563
O  O71  1  0.25234000  0.75989000  0.84068000  1.0 -0.461326563
O  O72  1  0.25234000  0.24011000  0.15932000  1.0 -0.461326563
O  O73  1  0.65932000  0.74011000  0.75234000  1.0 -0.461326563
O  O74  1  0.34068000  0.25989000  0.75234000  1.0 -0.461326563
O  O75  1  0.34068000  0.74011000  0.24766000  1.0 -0.461326563
O  O76  1  0.65932000  0.25989000  0.24766000  1.0 -0.461326563
O  O77  1  0.75234000  0.65932000  0.74011000  1.0 -0.461326563
O  O78  1  0.75234000  0.34068000  0.25989000  1.0 -0.461326563
O  O79  1  0.24766000  0.34068000  0.74011000  1.0 -0.461326563
O  O80  1  0.24766000  0.65932000  0.25989000  1.0 -0.461326563
O  O81  1  0.74011000  0.75234000  0.65932000  1.0 -0.461326563
O  O82  1  0.25989000  0.75234000  0.34068000  1.0 -0.461326563
O  O83  1  0.74011000  0.24766000  0.34068000  1.0 -0.461326563
O  O84  1  0.25989000  0.24766000  0.65932000  1.0 -0.461326563
O  O85  1  0.24011000  0.15932000  0.74766000  1.0 -0.461326563
O  O86  1  0.75989000  0.84068000  0.74766000  1.0 -0.461326563
O  O87  1  0.24011000  0.84068000  0.25234000  1.0 -0.461326563
O  O88  1  0.75989000  0.15932000  0.25234000  1.0 -0.461326563
O  O89  1  0.15932000  0.25234000  0.75989000  1.0 -0.461326563
O  O90  1  0.84068000  0.25234000  0.24011000  1.0 -0.461326563
O  O91  1  0.84068000  0.74766000  0.75989000  1.0 -0.461326563
O  O92  1  0.15932000  0.74766000  0.24011000  1.0 -0.461326563
O  O93  1  0.25234000  0.24011000  0.84068000  1.0 -0.461326563
O  O94  1  0.25234000  0.75989000  0.15932000  1.0 -0.461326563
O  O95  1  0.74766000  0.24011000  0.15932000  1.0 -0.461326563
O  O96  1  0.74766000  0.75989000  0.84068000  1.0 -0.461326563
