# DDEC6 charges by PACMAN v1.1 (https://github.com/mtap-research/PACMAN-charge/)
data_PEKDEQ_FSR_pacman
_symmetry_space_group_name_H-M   'P 1'
_cell_length_a   13.21640000
_cell_length_b   13.21640000
_cell_length_c   34.99100000
_cell_angle_alpha   81.23650000
_cell_angle_beta   98.76350000
_cell_angle_gamma   130.45000000
_symmetry_Int_Tables_number   1
_chemical_formula_structural   Mn4H64C68N4O23
_chemical_formula_sum   'Mn8 H128 C136 N8 O46'
_cell_volume   4585.10909092
_cell_formula_units_Z   2
loop_
 _symmetry_equiv_pos_site_id
 _symmetry_equiv_pos_as_xyz
  1  'x, y, z'
loop_
 _atom_site_type_symbol
 _atom_site_label
 _atom_site_symmetry_multiplicity
 _atom_site_fract_x
 _atom_site_fract_y
 _atom_site_fract_z
 _atom_site_occupancy
 _atom_site_charge
Mn  Mn1  1  0.79095000  0.13869000  0.49481000  1.0 0.9832215286
Mn  Mn2  1  0.13869000  0.79095000  0.00519000  1.0 0.9832215286
Mn  Mn3  1  0.20905000  0.86131000  0.50519000  1.0 0.9832215286
Mn  Mn4  1  0.86131000  0.20905000  0.99481000  1.0 0.9832215286
Mn  Mn5  1  0.99820000  0.48980000  0.50130000  1.0 1.1680622077
Mn  Mn6  1  0.48980000  0.99820000  0.99870000  1.0 1.1680622077
Mn  Mn7  1  0.00180000  0.51020000  0.49870000  1.0 1.1680622077
Mn  Mn8  1  0.51020000  0.00180000  0.00130000  1.0 1.1680622077
H  H1  1  0.94390000  0.53050000  0.37530000  1.0 0.128978152
H  H2  1  0.53050000  0.94390000  0.12470000  1.0 0.128978152
H  H3  1  0.05610000  0.46950000  0.62470000  1.0 0.128978152
H  H4  1  0.46950000  0.05610000  0.87530000  1.0 0.128978152
H  H5  1  0.88210000  0.55530000  0.31180000  1.0 0.128978152
H  H6  1  0.55530000  0.88210000  0.18820000  1.0 0.128978152
H  H7  1  0.11790000  0.44470000  0.68820000  1.0 0.128978152
H  H8  1  0.44470000  0.11790000  0.81180000  1.0 0.128978152
H  H9  1  0.55390000  0.17310000  0.31910000  1.0 0.1400622709
H  H10  1  0.17310000  0.55390000  0.18090000  1.0 0.1400622709
H  H11  1  0.44610000  0.82690000  0.68090000  1.0 0.1400622709
H  H12  1  0.82690000  0.44610000  0.81910000  1.0 0.1400622709
H  H13  1  0.61640000  0.15200000  0.38180000  1.0 0.1222816152
H  H14  1  0.15200000  0.61640000  0.11820000  1.0 0.128978152
H  H15  1  0.38360000  0.84800000  0.61820000  1.0 0.128978152
H  H16  1  0.84800000  0.38360000  0.88180000  1.0 0.1222816152
H  H17  1  0.80640000  0.53100000  0.24190000  1.0 0.0999983395
H  H18  1  0.53100000  0.80640000  0.25810000  1.0 0.0999983395
H  H19  1  0.19360000  0.46900000  0.75810000  1.0 0.0999983395
H  H20  1  0.46900000  0.19360000  0.74190000  1.0 0.0999983395
H  H21  1  0.73900000  0.56020000  0.26680000  1.0 0.0999983395
H  H22  1  0.56020000  0.73900000  0.23320000  1.0 0.0999983395
H  H23  1  0.26100000  0.43980000  0.73320000  1.0 0.0999983395
H  H24  1  0.43980000  0.26100000  0.76680000  1.0 0.0999983395
H  H25  1  0.43080000  0.40320000  0.20860000  1.0 0.0999983395
H  H26  1  0.40320000  0.43080000  0.29140000  1.0 0.0999983395
H  H27  1  0.56920000  0.59680000  0.79140000  1.0 0.0999983395
H  H28  1  0.59680000  0.56920000  0.70860000  1.0 0.0999983395
H  H29  1  0.45700000  0.34380000  0.24760000  1.0 0.0999983395
H  H30  1  0.34380000  0.45700000  0.25240000  1.0 0.0999983395
H  H31  1  0.54300000  0.65620000  0.75240000  1.0 0.0999983395
H  H32  1  0.65620000  0.54300000  0.74760000  1.0 0.0999983395
H  H33  1  0.55020000  0.28300000  0.20670000  1.0 0.1082981652
H  H34  1  0.28300000  0.55020000  0.29330000  1.0 0.1082981652
H  H35  1  0.44980000  0.71700000  0.79330000  1.0 0.1082981652
H  H36  1  0.71700000  0.44980000  0.70670000  1.0 0.1082981652
H  H37  1  0.53370000  0.35530000  0.16920000  1.0 0.0999983395
H  H38  1  0.35530000  0.53370000  0.33080000  1.0 0.0999983395
H  H39  1  0.46630000  0.64470000  0.83080000  1.0 0.0999983395
H  H40  1  0.64470000  0.46630000  0.66920000  1.0 0.0999983395
H  H41  1  0.72140000  0.67400000  0.20750000  1.0 0.0999983395
H  H42  1  0.67400000  0.72140000  0.29250000  1.0 0.0999983395
H  H43  1  0.27860000  0.32600000  0.79250000  1.0 0.0999983395
H  H44  1  0.32600000  0.27860000  0.70750000  1.0 0.0999983395
H  H45  1  0.77090000  0.62950000  0.18100000  1.0 0.0999983395
H  H46  1  0.62950000  0.77090000  0.31900000  1.0 0.0999983395
H  H47  1  0.22910000  0.37050000  0.81900000  1.0 0.0999983395
H  H48  1  0.37050000  0.22910000  0.68100000  1.0 0.0999983395
H  H49  1  0.45160000  0.60180000  0.11360000  1.0 0.1492956332
H  H50  1  0.60180000  0.45160000  0.38640000  1.0 0.1492956332
H  H51  1  0.54840000  0.39820000  0.88640000  1.0 0.1492956332
H  H52  1  0.39820000  0.54840000  0.61360000  1.0 0.1492956332
H  H53  1  0.50160000  0.75840000  0.06400000  1.0 0.1222816152
H  H54  1  0.75840000  0.50160000  0.43600000  1.0 0.1222816152
H  H55  1  0.49840000  0.24160000  0.93600000  1.0 0.1222816152
H  H56  1  0.24160000  0.49840000  0.56400000  1.0 0.1222816152
H  H57  1  0.88810000  0.95550000  0.09200000  1.0 0.128978152
H  H58  1  0.95550000  0.88810000  0.40800000  1.0 0.128978152
H  H59  1  0.11190000  0.04450000  0.90800000  1.0 0.128978152
H  H60  1  0.04450000  0.11190000  0.59200000  1.0 0.128978152
H  H61  1  0.83540000  0.79820000  0.14280000  1.0 0.128978152
H  H62  1  0.79820000  0.83540000  0.35720000  1.0 0.128978152
H  H63  1  0.16460000  0.20180000  0.85720000  1.0 0.128978152
H  H64  1  0.20180000  0.16460000  0.64280000  1.0 0.128978152
H  H65  1  0.54390000  0.88990000  0.54090000  1.0 0.1771526313
H  H66  1  0.88990000  0.54390000  0.95910000  1.0 0.1771526313
H  H67  1  0.45610000  0.11010000  0.45910000  1.0 0.1771526313
H  H68  1  0.11010000  0.45610000  0.04090000  1.0 0.1771526313
H  H69  1  0.50920000  0.75140000  0.55190000  1.0 0.1492956332
H  H70  1  0.75140000  0.50920000  0.94810000  1.0 0.1492956332
H  H71  1  0.49080000  0.24860000  0.44810000  1.0 0.1492956332
H  H72  1  0.24860000  0.49080000  0.05190000  1.0 0.1492956332
H  H73  1  0.40940000  0.76040000  0.52450000  1.0 0.1586050889
H  H74  1  0.76040000  0.40940000  0.97550000  1.0 0.1586050889
H  H75  1  0.59060000  0.23960000  0.47550000  1.0 0.1586050889
H  H76  1  0.23960000  0.59060000  0.02450000  1.0 0.1586050889
H  H77  1  0.37510000  0.58290000  0.51400000  1.0 0.1222816152
H  H78  1  0.58290000  0.37510000  0.98600000  1.0 0.1222816152
H  H79  1  0.62490000  0.41710000  0.48600000  1.0 0.1222816152
H  H80  1  0.41710000  0.62490000  0.01400000  1.0 0.1222816152
H  H81  1  0.43980000  0.53040000  0.49990000  1.0 0.1222816152
H  H82  1  0.53040000  0.43980000  0.00010000  1.0 0.1222816152
H  H83  1  0.56020000  0.46960000  0.50010000  1.0 0.1222816152
H  H84  1  0.46960000  0.56020000  0.99990000  1.0 0.1222816152
H  H85  1  0.34450000  0.54290000  0.47120000  1.0 0.1400622709
H  H86  1  0.54290000  0.34450000  0.02880000  1.0 0.1400622709
H  H87  1  0.65550000  0.45710000  0.52880000  1.0 0.1400622709
H  H88  1  0.45710000  0.65550000  0.97120000  1.0 0.1400622709
H  H89  1  0.66540000  0.82880000  0.44270000  1.0 0.1492956332
H  H90  1  0.82880000  0.66540000  0.05730000  1.0 0.1492956332
H  H91  1  0.33460000  0.17120000  0.55730000  1.0 0.1492956332
H  H92  1  0.17120000  0.33460000  0.94270000  1.0 0.1492956332
H  H93  1  0.53030000  0.70290000  0.42520000  1.0 0.128978152
H  H94  1  0.70290000  0.53030000  0.07480000  1.0 0.128978152
H  H95  1  0.46970000  0.29710000  0.57480000  1.0 0.128978152
H  H96  1  0.29710000  0.46970000  0.92520000  1.0 0.128978152
H  H97  1  0.62420000  0.68740000  0.45340000  1.0 0.128978152
H  H98  1  0.68740000  0.62420000  0.04660000  1.0 0.128978152
H  H99  1  0.37580000  0.31260000  0.54660000  1.0 0.128978152
H  H100  1  0.31260000  0.37580000  0.95340000  1.0 0.128978152
H  H101  1  0.93110000  0.46430000  0.08750000  1.0 0.128978152
H  H102  1  0.46430000  0.93110000  0.41250000  1.0 0.128978152
H  H103  1  0.06890000  0.53570000  0.91250000  1.0 0.128978152
H  H104  1  0.53570000  0.06890000  0.58750000  1.0 0.128978152
H  H105  1  0.52320000  0.20980000  0.13990000  1.0 0.128978152
H  H106  1  0.20980000  0.52320000  0.36010000  1.0 0.128978152
H  H107  1  0.47680000  0.79020000  0.86010000  1.0 0.128978152
H  H108  1  0.79020000  0.47680000  0.63990000  1.0 0.128978152
H  H109  1  0.91570000  0.52110000  0.14390000  1.0 0.1400622709
H  H110  1  0.52110000  0.91570000  0.35610000  1.0 0.1400622709
H  H111  1  0.08430000  0.47890000  0.85610000  1.0 0.1400622709
H  H112  1  0.47890000  0.08430000  0.64390000  1.0 0.1400622709
H  H113  1  0.54270000  0.15550000  0.08280000  1.0 0.128978152
H  H114  1  0.15550000  0.54270000  0.41720000  1.0 0.128978152
H  H115  1  0.45730000  0.84450000  0.91720000  1.0 0.128978152
H  H116  1  0.84450000  0.45730000  0.58280000  1.0 0.128978152
H  H117  1  0.11300000  0.14960000  0.48440000  1.0 0.1400622709
H  H118  1  0.14960000  0.11300000  0.01560000  1.0 0.1400622709
H  H119  1  0.88700000  0.85040000  0.51560000  1.0 0.1400622709
H  H120  1  0.85040000  0.88700000  0.98440000  1.0 0.1400622709
H  H121  1  0.25130000  0.27270000  0.46880000  1.0 0.1222816152
H  H122  1  0.27270000  0.25130000  0.03120000  1.0 0.1222816152
H  H123  1  0.74870000  0.72730000  0.53120000  1.0 0.1222816152
H  H124  1  0.72730000  0.74870000  0.96880000  1.0 0.1222816152
H  H125  1  0.18410000  0.12890000  0.45830000  1.0 0.1400622709
H  H126  1  0.12890000  0.18410000  0.04170000  1.0 0.1400622709
H  H127  1  0.81590000  0.87110000  0.54170000  1.0 0.1400622709
H  H128  1  0.87110000  0.81590000  0.95830000  1.0 0.1400622709
C  C1  1  0.78889000  0.33911000  0.38551000  1.0 -0.0522327763
C  C2  1  0.33911000  0.78889000  0.11449000  1.0 -0.0522327763
C  C3  1  0.21111000  0.66089000  0.61449000  1.0 -0.0522327763
C  C4  1  0.66089000  0.21111000  0.88551000  1.0 -0.0522327763
C  C5  1  0.86451000  0.45769000  0.36396000  1.0 -0.081856612
C  C6  1  0.45769000  0.86451000  0.13604000  1.0 -0.081856612
C  C7  1  0.13549000  0.54231000  0.63604000  1.0 -0.081856612
C  C8  1  0.54231000  0.13549000  0.86396000  1.0 -0.081856612
C  C9  1  0.82760000  0.47360000  0.32595000  1.0 -0.2220448819
C  C10  1  0.47360000  0.82760000  0.17405000  1.0 -0.2220448819
C  C11  1  0.17240000  0.52640000  0.67405000  1.0 -0.2220448819
C  C12  1  0.52640000  0.17240000  0.82595000  1.0 -0.2220448819
C  C13  1  0.70950000  0.36710000  0.30932000  1.0 0.2510455301
C  C14  1  0.36710000  0.70950000  0.19068000  1.0 0.2510455301
C  C15  1  0.29050000  0.63290000  0.69068000  1.0 0.2510455301
C  C16  1  0.63290000  0.29050000  0.80932000  1.0 0.2510455301
C  C17  1  0.63270000  0.24650000  0.33051000  1.0 -0.2025345289
C  C18  1  0.24650000  0.63270000  0.16949000  1.0 -0.2025345289
C  C19  1  0.36730000  0.75350000  0.66949000  1.0 -0.2025345289
C  C20  1  0.75350000  0.36730000  0.83051000  1.0 -0.2025345289
C  C21  1  0.67100000  0.23380000  0.36777000  1.0 -0.0897728783
C  C22  1  0.23380000  0.67100000  0.13223000  1.0 -0.0897728783
C  C23  1  0.32900000  0.76620000  0.63223000  1.0 -0.0897728783
C  C24  1  0.76620000  0.32900000  0.86777000  1.0 -0.0897728783
C  C25  1  0.72235000  0.49645000  0.25075000  1.0 -0.0897728783
C  C26  1  0.49645000  0.72235000  0.24925000  1.0 -0.0897728783
C  C27  1  0.27765000  0.50355000  0.74925000  1.0 -0.0897728783
C  C28  1  0.50355000  0.27765000  0.75075000  1.0 -0.0897728783
C  C29  1  0.62398000  0.47142000  0.21604000  1.0 0.0646935529
C  C30  1  0.47142000  0.62398000  0.28396000  1.0 0.0646935529
C  C31  1  0.37602000  0.52858000  0.78396000  1.0 0.0646935529
C  C32  1  0.52858000  0.37602000  0.71604000  1.0 0.0646935529
C  C33  1  0.49518000  0.42362000  0.23027000  1.0 -0.0897728783
C  C34  1  0.42362000  0.49518000  0.26973000  1.0 -0.0897728783
C  C35  1  0.50482000  0.57638000  0.76973000  1.0 -0.0897728783
C  C36  1  0.57638000  0.50482000  0.73027000  1.0 -0.0897728783
C  C37  1  0.59300000  0.36780000  0.19165000  1.0 -0.0897728783
C  C38  1  0.36780000  0.59300000  0.30835000  1.0 -0.0897728783
C  C39  1  0.40700000  0.63220000  0.80835000  1.0 -0.0897728783
C  C40  1  0.63220000  0.40700000  0.69165000  1.0 -0.0897728783
C  C41  1  0.69313000  0.60427000  0.19173000  1.0 -0.0897728783
C  C42  1  0.60427000  0.69313000  0.30827000  1.0 -0.0897728783
C  C43  1  0.30687000  0.39573000  0.80827000  1.0 -0.0897728783
C  C44  1  0.39573000  0.30687000  0.69173000  1.0 -0.0897728783
C  C45  1  0.63848000  0.68432000  0.13314000  1.0 0.2449891395
C  C46  1  0.68432000  0.63848000  0.36686000  1.0 0.2449891395
C  C47  1  0.36152000  0.31568000  0.86686000  1.0 0.2449891395
C  C48  1  0.31568000  0.36152000  0.63314000  1.0 0.2449891395
C  C49  1  0.54030000  0.67370000  0.10943000  1.0 -0.2096272693
C  C50  1  0.67370000  0.54030000  0.39057000  1.0 -0.2096272693
C  C51  1  0.45970000  0.32630000  0.89057000  1.0 -0.2096272693
C  C52  1  0.32630000  0.45970000  0.60943000  1.0 -0.2096272693
C  C53  1  0.57024000  0.76716000  0.07957000  1.0 -0.1023742989
C  C54  1  0.76716000  0.57024000  0.42043000  1.0 -0.1023742989
C  C55  1  0.42976000  0.23284000  0.92043000  1.0 -0.1023742989
C  C56  1  0.23284000  0.42976000  0.57957000  1.0 -0.1023742989
C  C57  1  0.69939000  0.87301000  0.07237000  1.0 -0.044405499
C  C58  1  0.87301000  0.69939000  0.42763000  1.0 -0.044405499
C  C59  1  0.30061000  0.12699000  0.92763000  1.0 -0.044405499
C  C60  1  0.12699000  0.30061000  0.57237000  1.0 -0.044405499
C  C61  1  0.73720000  0.98200000  0.04074000  1.0 0.5864443457
C  C62  1  0.98200000  0.73720000  0.45926000  1.0 0.5864443457
C  C63  1  0.26280000  0.01800000  0.95926000  1.0 0.5864443457
C  C64  1  0.01800000  0.26280000  0.54074000  1.0 0.5864443457
C  C65  1  0.79920000  0.88420000  0.09629000  1.0 -0.07212963
C  C66  1  0.88420000  0.79920000  0.40371000  1.0 -0.07212963
C  C67  1  0.20080000  0.11580000  0.90371000  1.0 -0.07212963
C  C68  1  0.11580000  0.20080000  0.59629000  1.0 -0.07212963
C  C69  1  0.76770000  0.78950000  0.12671000  1.0 -0.2220448819
C  C70  1  0.78950000  0.76770000  0.37329000  1.0 -0.2220448819
C  C71  1  0.23230000  0.21050000  0.87329000  1.0 -0.2220448819
C  C72  1  0.21050000  0.23230000  0.62671000  1.0 -0.2220448819
C  C73  1  0.82810000  0.32430000  0.42695000  1.0 0.5970490701
C  C74  1  0.32430000  0.82810000  0.07305000  1.0 0.5970490701
C  C75  1  0.17190000  0.67570000  0.57305000  1.0 0.5970490701
C  C76  1  0.67570000  0.17190000  0.92695000  1.0 0.5970490701
C  C77  1  0.56889000  0.82431000  0.49724000  1.0 0.5058872677
C  C78  1  0.82431000  0.56889000  0.00276000  1.0 0.5058872677
C  C79  1  0.43111000  0.17569000  0.50276000  1.0 0.5058872677
C  C80  1  0.17569000  0.43111000  0.99724000  1.0 0.5058872677
C  C81  1  0.50190000  0.80470000  0.53174000  1.0 -0.600414338
C  C82  1  0.80470000  0.50190000  0.96826000  1.0 -0.600414338
C  C83  1  0.49810000  0.19530000  0.46826000  1.0 -0.600414338
C  C84  1  0.19530000  0.49810000  0.03174000  1.0 -0.600414338
C  C85  1  0.41140000  0.58200000  0.49240000  1.0 -0.3533307158
C  C86  1  0.58200000  0.41140000  0.00760000  1.0 -0.3533307158
C  C87  1  0.58860000  0.41800000  0.50760000  1.0 -0.3533307158
C  C88  1  0.41800000  0.58860000  0.99240000  1.0 -0.3533307158
C  C89  1  0.59180000  0.73580000  0.44766000  1.0 -0.3346273923
C  C90  1  0.73580000  0.59180000  0.05234000  1.0 -0.3346273923
C  C91  1  0.40820000  0.26420000  0.55234000  1.0 -0.3346273923
C  C92  1  0.26420000  0.40820000  0.94766000  1.0 -0.3346273923
C  C93  1  0.74810000  0.26470000  0.04304000  1.0 0.5804859823
C  C94  1  0.26470000  0.74810000  0.45696000  1.0 0.5804859823
C  C95  1  0.25190000  0.73530000  0.95696000  1.0 0.5804859823
C  C96  1  0.73530000  0.25190000  0.54304000  1.0 0.5804859823
C  C97  1  0.73873000  0.30347000  0.07952000  1.0 -0.0522327763
C  C98  1  0.30347000  0.73873000  0.42048000  1.0 -0.0522327763
C  C99  1  0.26127000  0.69653000  0.92048000  1.0 -0.0522327763
C  C100  1  0.69653000  0.26127000  0.57952000  1.0 -0.0522327763
C  C101  1  0.84890000  0.41290000  0.09799000  1.0 -0.081856612
C  C102  1  0.41290000  0.84890000  0.40201000  1.0 -0.081856612
C  C103  1  0.15110000  0.58710000  0.90201000  1.0 -0.081856612
C  C104  1  0.58710000  0.15110000  0.59799000  1.0 -0.081856612
C  C105  1  0.71770000  0.37270000  0.14685000  1.0 0.2510455301
C  C106  1  0.37270000  0.71770000  0.35315000  1.0 0.2510455301
C  C107  1  0.28230000  0.62730000  0.85315000  1.0 0.2510455301
C  C108  1  0.62730000  0.28230000  0.64685000  1.0 0.2510455301
C  C109  1  0.60520000  0.26160000  0.12926000  1.0 -0.2295666212
C  C110  1  0.26160000  0.60520000  0.37074000  1.0 -0.2295666212
C  C111  1  0.39480000  0.73840000  0.87074000  1.0 -0.2295666212
C  C112  1  0.73840000  0.39480000  0.62926000  1.0 -0.2295666212
C  C113  1  0.84000000  0.44760000  0.13152000  1.0 -0.2096272693
C  C114  1  0.44760000  0.84000000  0.36848000  1.0 -0.2096272693
C  C115  1  0.16000000  0.55240000  0.86848000  1.0 -0.2096272693
C  C116  1  0.55240000  0.16000000  0.63152000  1.0 -0.2096272693
C  C117  1  0.61790000  0.22910000  0.09519000  1.0 -0.081856612
C  C118  1  0.22910000  0.61790000  0.40481000  1.0 -0.081856612
C  C119  1  0.38210000  0.77090000  0.90481000  1.0 -0.081856612
C  C120  1  0.77090000  0.38210000  0.59519000  1.0 -0.081856612
C  C121  1  0.98240000  0.15760000  0.42940000  1.0 0.3321494139
C  C122  1  0.15760000  0.98240000  0.07060000  1.0 0.3321494139
C  C123  1  0.01760000  0.84240000  0.57060000  1.0 0.3321494139
C  C124  1  0.84240000  0.01760000  0.92940000  1.0 0.3321494139
C  C125  1  0.16750000  0.18650000  0.46290000  1.0 -0.2597047636
C  C126  1  0.18650000  0.16750000  0.03710000  1.0 -0.2597047636
C  C127  1  0.83250000  0.81350000  0.53710000  1.0 -0.2597047636
C  C128  1  0.81350000  0.83250000  0.96290000  1.0 -0.2597047636
C  C129  1  0.16650000  0.24590000  0.39310000  1.0 -0.355943563
C  C130  1  0.24590000  0.16650000  0.10690000  1.0 -0.355943563
C  C131  1  0.83350000  0.75410000  0.60690000  1.0 -0.355943563
C  C132  1  0.75410000  0.83350000  0.89310000  1.0 -0.3533307158
C  C133  1  0.97000000  0.17000000  0.39730000  1.0 -0.4058343196
C  C134  1  0.17000000  0.97000000  0.10270000  1.0 -0.4037786944
C  C135  1  0.03000000  0.83000000  0.60270000  1.0 -0.4037786944
C  C136  1  0.83000000  0.03000000  0.89730000  1.0 -0.4037786944
N  N1  1  0.52500000  0.71800000  0.48032000  1.0 -0.0150511987
N  N2  1  0.71800000  0.52500000  0.01968000  1.0 -0.0150511987
N  N3  1  0.47500000  0.28200000  0.51968000  1.0 -0.0150511987
N  N4  1  0.28200000  0.47500000  0.98032000  1.0 -0.0150511987
N  N5  1  0.10380000  0.20120000  0.43020000  1.0 0.0999983395
N  N6  1  0.20120000  0.10380000  0.06980000  1.0 0.0999983395
N  N7  1  0.89620000  0.79880000  0.56980000  1.0 0.0999983395
N  N8  1  0.79880000  0.89620000  0.93020000  1.0 0.0999983395
O  O1  1  0.66031000  0.36929000  0.27218000  1.0 -0.1785530409
O  O2  1  0.36929000  0.66031000  0.22782000  1.0 -0.1785530409
O  O3  1  0.33969000  0.63071000  0.72782000  1.0 -0.1785530409
O  O4  1  0.63071000  0.33969000  0.77218000  1.0 -0.1785530409
O  O5  1  0.71723000  0.41597000  0.17963000  1.0 -0.1785530409
O  O6  1  0.41597000  0.71723000  0.32037000  1.0 -0.1785530409
O  O7  1  0.28277000  0.58403000  0.82037000  1.0 -0.1785530409
O  O8  1  0.58403000  0.28277000  0.67963000  1.0 -0.1785530409
O  O9  1  0.59784000  0.58496000  0.16135000  1.0 -0.1785530409
O  O10  1  0.58496000  0.59784000  0.33865000  1.0 -0.1785530409
O  O11  1  0.40216000  0.41504000  0.83865000  1.0 -0.1785530409
O  O12  1  0.41504000  0.40216000  0.66135000  1.0 -0.1785530409
O  O13  1  0.52790000  0.52790000  0.25000000  1.0 -0.1858239197
O  O14  1  0.47210000  0.47210000  0.75000000  1.0 -0.1858239197
O  O15  1  0.92530000  0.42630000  0.44298000  1.0 -0.6458688998
O  O16  1  0.42630000  0.92530000  0.05702000  1.0 -0.6458688998
O  O17  1  0.07470000  0.57370000  0.55702000  1.0 -0.6458688998
O  O18  1  0.57370000  0.07470000  0.94298000  1.0 -0.6458688998
O  O19  1  0.75764000  0.20776000  0.44306000  1.0 -0.5178020844
O  O20  1  0.20776000  0.75764000  0.05694000  1.0 -0.5178020844
O  O21  1  0.24236000  0.79224000  0.55694000  1.0 -0.5178020844
O  O22  1  0.79224000  0.24236000  0.94306000  1.0 -0.5178020844
O  O23  1  0.66462000  0.93818000  0.48490000  1.0 -0.5268334174
O  O24  1  0.93818000  0.66462000  0.01510000  1.0 -0.5268334174
O  O25  1  0.33538000  0.06182000  0.51510000  1.0 -0.5268334174
O  O26  1  0.06182000  0.33538000  0.98490000  1.0 -0.5268334174
O  O27  1  0.86187000  0.31213000  0.03499000  1.0 -0.5178020844
O  O28  1  0.31213000  0.86187000  0.46501000  1.0 -0.5178020844
O  O29  1  0.13813000  0.68787000  0.96501000  1.0 -0.5178020844
O  O30  1  0.68787000  0.13813000  0.53499000  1.0 -0.5178020844
O  O31  1  0.85628000  0.07912000  0.03806000  1.0 -0.4829370402
O  O32  1  0.07912000  0.85628000  0.46194000  1.0 -0.4829370402
O  O33  1  0.14372000  0.92088000  0.96194000  1.0 -0.4829370402
O  O34  1  0.92088000  0.14372000  0.53806000  1.0 -0.4829370402
O  O35  1  0.64497000  0.96663000  0.01848000  1.0 -0.668109762
O  O36  1  0.96663000  0.64497000  0.48152000  1.0 -0.668109762
O  O37  1  0.35503000  0.03337000  0.98152000  1.0 -0.668109762
O  O38  1  0.03337000  0.35503000  0.51848000  1.0 -0.668109762
O  O39  1  0.64390000  0.18930000  0.02238000  1.0 -0.668109762
O  O40  1  0.18930000  0.64390000  0.47762000  1.0 -0.668109762
O  O41  1  0.35610000  0.81070000  0.97762000  1.0 -0.668109762
O  O42  1  0.81070000  0.35610000  0.52238000  1.0 -0.668109762
O  O43  1  0.93220000  0.14260000  0.45780000  1.0 -0.4408739829
O  O44  1  0.14260000  0.93220000  0.04220000  1.0 -0.4408739829
O  O45  1  0.06780000  0.85740000  0.54220000  1.0 -0.4408739829
O  O46  1  0.85740000  0.06780000  0.95780000  1.0 -0.4408739829
