# DDEC6 charges by PACMAN v1.1 (https://github.com/mtap-research/PACMAN-charge/)
data_PEKDAM_FSR_pacman
_symmetry_space_group_name_H-M   'P 1'
_cell_length_a   14.19080000
_cell_length_b   14.19080000
_cell_length_c   34.28040000
_cell_angle_alpha   77.78550000
_cell_angle_beta   102.21400000
_cell_angle_gamma   137.12400000
_symmetry_Int_Tables_number   1
_chemical_formula_structural   Mn3H54C58N2O23
_chemical_formula_sum   'Mn6 H108 C116 N4 O46'
_cell_volume   4574.19164632
_cell_formula_units_Z   2
loop_
 _symmetry_equiv_pos_site_id
 _symmetry_equiv_pos_as_xyz
  1  'x, y, z'
loop_
 _atom_site_type_symbol
 _atom_site_label
 _atom_site_symmetry_multiplicity
 _atom_site_fract_x
 _atom_site_fract_y
 _atom_site_fract_z
 _atom_site_occupancy
 _atom_site_charge
Mn  Mn1  1  0.60038000  0.93562000  0.83793000  1.0 1.1191763743
Mn  Mn2  1  0.06438000  0.39962000  0.33793000  1.0 1.1191763743
Mn  Mn3  1  0.97477000  0.17837000  0.85526000  1.0 1.0014011725
Mn  Mn4  1  0.82163000  0.02523000  0.35526000  1.0 1.0014011725
Mn  Mn5  1  0.22518000  0.69360000  0.81838000  1.0 0.9900044961
Mn  Mn6  1  0.30640000  0.77482000  0.31838000  1.0 0.9900044961
H  H1  1  0.26090000  0.34230000  0.11730000  1.0 0.1086457148
H  H2  1  0.65770000  0.73910000  0.61730000  1.0 0.1086457148
H  H3  1  0.34150000  0.36410000  0.15960000  1.0 0.0997726705
H  H4  1  0.63590000  0.65850000  0.65960000  1.0 0.0997726705
H  H5  1  0.53010000  0.63890000  0.08260000  1.0 0.0997726705
H  H6  1  0.36110000  0.46990000  0.58260000  1.0 0.0997726705
H  H7  1  0.57820000  0.58920000  0.06360000  1.0 0.1086457148
H  H8  1  0.41080000  0.42180000  0.56360000  1.0 0.1086457148
H  H9  1  0.40960000  0.27700000  0.12680000  1.0 0.0997726705
H  H10  1  0.72300000  0.59040000  0.62680000  1.0 0.0997726705
H  H11  1  0.34450000  0.28390000  0.08460000  1.0 0.0997726705
H  H12  1  0.71610000  0.65550000  0.58460000  1.0 0.0997726705
H  H13  1  0.67810000  0.57970000  0.12920000  1.0 0.0997726705
H  H14  1  0.42030000  0.32190000  0.62920000  1.0 0.0997726705
H  H15  1  0.62500000  0.62080000  0.15020000  1.0 0.0997726705
H  H16  1  0.37920000  0.37500000  0.65020000  1.0 0.0997726705
H  H17  1  0.21460000  0.34200000  0.19470000  1.0 0.1213956599
H  H18  1  0.65800000  0.78540000  0.69470000  1.0 0.1213956599
H  H19  1  0.18340000  0.38980000  0.24880000  1.0 0.1376247235
H  H20  1  0.61020000  0.81660000  0.74880000  1.0 0.1376247235
H  H21  1  0.44900000  0.79000000  0.20910000  1.0 0.1086457148
H  H22  1  0.21000000  0.55100000  0.70910000  1.0 0.1086457148
H  H23  1  0.47880000  0.74520000  0.15420000  1.0 0.1376247235
H  H24  1  0.25480000  0.52120000  0.65420000  1.0 0.1376247235
H  H25  1  0.57850000  0.73870000  0.01610000  1.0 0.1213956599
H  H26  1  0.26130000  0.42150000  0.51610000  1.0 0.1213956599
H  H27  1  0.56360000  0.82320000  0.95120000  1.0 0.1311494722
H  H28  1  0.17680000  0.43640000  0.45120000  1.0 0.1311494722
H  H29  1  0.18240000  0.44440000  0.92960000  1.0 0.1213956599
H  H30  1  0.55560000  0.81760000  0.42960000  1.0 0.1213956599
H  H31  1  0.19280000  0.36380000  0.99430000  1.0 0.1376247235
H  H32  1  0.63620000  0.80720000  0.49430000  1.0 0.1376247235
H  H33  1  0.55730000  0.28930000  0.22710000  1.0 0.1311494722
H  H34  1  0.71070000  0.44270000  0.72710000  1.0 0.1311494722
H  H35  1  0.73000000  0.33200000  0.27240000  1.0 0.1213956599
H  H36  1  0.66800000  0.27000000  0.77240000  1.0 0.1213956599
H  H37  1  0.00890000  0.73030000  0.22780000  1.0 0.1213956599
H  H38  1  0.26970000  0.99110000  0.72780000  1.0 0.1213956599
H  H39  1  0.83770000  0.68770000  0.18170000  1.0 0.1213956599
H  H40  1  0.31230000  0.16230000  0.68170000  1.0 0.1213956599
H  H41  1  0.81720000  0.51000000  0.03140000  1.0 0.0997726705
H  H42  1  0.49000000  0.18280000  0.53140000  1.0 0.0997726705
H  H43  1  0.75510000  0.54130000  0.05270000  1.0 0.0997726705
H  H44  1  0.45870000  0.24490000  0.55270000  1.0 0.0997726705
H  H45  1  0.56040000  0.22140000  0.01410000  1.0 0.0997726705
H  H46  1  0.77860000  0.43960000  0.51410000  1.0 0.0997726705
H  H47  1  0.55360000  0.13960000  0.05450000  1.0 0.1086457148
H  H48  1  0.86040000  0.44640000  0.55450000  1.0 0.1086457148
H  H49  1  0.75550000  0.42130000  0.11640000  1.0 0.1086457148
H  H50  1  0.57870000  0.24450000  0.61640000  1.0 0.1086457148
H  H51  1  0.82350000  0.39630000  0.09550000  1.0 0.0997726705
H  H52  1  0.60370000  0.17650000  0.59550000  1.0 0.0997726705
H  H53  1  0.46730000  0.19670000  0.09180000  1.0 0.0997726705
H  H54  1  0.80330000  0.53270000  0.59180000  1.0 0.0997726705
H  H55  1  0.45080000  0.25040000  0.04850000  1.0 0.0997726705
H  H56  1  0.74960000  0.54920000  0.54850000  1.0 0.0997726705
H  H57  1  0.88490000  0.71710000  0.99770000  1.0 0.1213956599
H  H58  1  0.28290000  0.11510000  0.49770000  1.0 0.1213956599
H  H59  1  0.92960000  0.88560000  0.94960000  1.0 0.1213956599
H  H60  1  0.11440000  0.07040000  0.44960000  1.0 0.1213956599
H  H61  1  0.53700000  0.60460000  0.90200000  1.0 0.1213956599
H  H62  1  0.39540000  0.46300000  0.40200000  1.0 0.1213956599
H  H63  1  0.49480000  0.43500000  0.94700000  1.0 0.1376247235
H  H64  1  0.56500000  0.50520000  0.44700000  1.0 0.1376247235
H  H65  1  0.55210000  0.09610000  0.98100000  1.0 0.1213956599
H  H66  1  0.90390000  0.44790000  0.48100000  1.0 0.1213956599
H  H67  1  0.59250000  0.05690000  0.92670000  1.0 0.1311494722
H  H68  1  0.94310000  0.40750000  0.42670000  1.0 0.1311494722
H  H69  1  0.99910000  0.34490000  0.96040000  1.0 0.1086457148
H  H70  1  0.65510000  0.00090000  0.46040000  1.0 0.1086457148
H  H71  1  0.95940000  0.39160000  0.01200000  1.0 0.1311494722
H  H72  1  0.60840000  0.04060000  0.51200000  1.0 0.1311494722
H  H73  1  0.90480000  0.41520000  0.16550000  1.0 0.1311494722
H  H74  1  0.58480000  0.09520000  0.66550000  1.0 0.1213956599
H  H75  1  0.96900000  0.37980000  0.22960000  1.0 0.1213956599
H  H76  1  0.62020000  0.03100000  0.72960000  1.0 0.1213956599
H  H77  1  0.58310000  0.99190000  0.23850000  1.0 0.1086457148
H  H78  1  0.00810000  0.41690000  0.73850000  1.0 0.1086457148
H  H79  1  0.52270000  0.02210000  0.17250000  1.0 0.1311494722
H  H80  1  0.97790000  0.47730000  0.67250000  1.0 0.1311494722
H  H81  1  0.12770000  0.63670000  0.90050000  1.0 0.1086457148
H  H82  1  0.36330000  0.87230000  0.40050000  1.0 0.1086457148
H  H83  1  0.02670000  0.59270000  0.95540000  1.0 0.1311494722
H  H84  1  0.40730000  0.97330000  0.45540000  1.0 0.1311494722
H  H85  1  0.03590000  0.70730000  0.95940000  1.0 0.1376247235
H  H86  1  0.29270000  0.96410000  0.45940000  1.0 0.1376247235
H  H87  1  0.89850000  0.56870000  0.94080000  1.0 0.1376247235
H  H88  1  0.43130000  0.10150000  0.44080000  1.0 0.1376247235
H  H89  1  0.05170000  0.80890000  0.85670000  1.0 0.1376247235
H  H90  1  0.19110000  0.94830000  0.35670000  1.0 0.1461909328
H  H91  1  0.91600000  0.70900000  0.87890000  1.0 0.1376247235
H  H92  1  0.29100000  0.08400000  0.37890000  1.0 0.1376247235
H  H93  1  0.05580000  0.84660000  0.89730000  1.0 0.1376247235
H  H94  1  0.15340000  0.94420000  0.39730000  1.0 0.1376247235
H  H95  1  0.11430000  0.27870000  0.77710000  1.0 0.0997726705
H  H96  1  0.72130000  0.88570000  0.27710000  1.0 0.0997726705
H  H97  1  0.23150000  0.34770000  0.72720000  1.0 0.1311494722
H  H98  1  0.65230000  0.76850000  0.22720000  1.0 0.1311494722
H  H99  1  0.33030000  0.32910000  0.73780000  1.0 0.1376247235
H  H100  1  0.67090000  0.66970000  0.23780000  1.0 0.1376247235
H  H101  1  0.19400000  0.22920000  0.70960000  1.0 0.1311494722
H  H102  1  0.77080000  0.80600000  0.20960000  1.0 0.1311494722
H  H103  1  0.10020000  0.02820000  0.80290000  1.0 0.1461909328
H  H104  1  0.97180000  0.89980000  0.30290000  1.0 0.1461909328
H  H105  1  0.11110000  0.02370000  0.75890000  1.0 0.1311494722
H  H106  1  0.97630000  0.88890000  0.25890000  1.0 0.1311494722
H  H107  1  0.24640000  0.12420000  0.78740000  1.0 0.1376247235
H  H108  1  0.87580000  0.75360000  0.28740000  1.0 0.1376247235
C  C1  1  0.46900000  0.46140000  0.11299000  1.0 0.0733786741
C  C2  1  0.53860000  0.53100000  0.61299000  1.0 0.0733786741
C  C3  1  0.34820000  0.40900000  0.13319000  1.0 -0.0784430258
C  C4  1  0.59100000  0.65180000  0.63319000  1.0 -0.0784430258
C  C5  1  0.50250000  0.55810000  0.07575000  1.0 -0.0893100724
C  C6  1  0.44190000  0.49750000  0.57575000  1.0 -0.0893100724
C  C7  1  0.42720000  0.33520000  0.10266000  1.0 -0.0975151687
C  C8  1  0.66480000  0.57280000  0.60266000  1.0 -0.0975151687
C  C9  1  0.60090000  0.54350000  0.14195000  1.0 -0.0893100724
C  C10  1  0.45650000  0.39910000  0.64195000  1.0 -0.0975151687
C  C11  1  0.35130000  0.53910000  0.16961000  1.0 0.2479319958
C  C12  1  0.46090000  0.64870000  0.66961000  1.0 0.2479319958
C  C13  1  0.26220000  0.43240000  0.19752000  1.0 -0.2507264816
C  C14  1  0.56760000  0.73780000  0.69752000  1.0 -0.2507264816
C  C15  1  0.24420000  0.46160000  0.23009000  1.0 -0.0784430258
C  C16  1  0.53840000  0.75580000  0.73009000  1.0 -0.0784430258
C  C17  1  0.31520000  0.59480000  0.23477000  1.0 -0.0470467798
C  C18  1  0.40520000  0.68480000  0.73477000  1.0 -0.0470467798
C  C19  1  0.40200000  0.69980000  0.20625000  1.0 -0.0975151687
C  C20  1  0.30020000  0.59800000  0.70625000  1.0 -0.0975151687
C  C21  1  0.42070000  0.67370000  0.17341000  1.0 -0.2311737921
C  C22  1  0.32630000  0.57930000  0.67341000  1.0 -0.2311737921
C  C23  1  0.29990000  0.62890000  0.27054000  1.0 0.5732672079
C  C24  1  0.37110000  0.70010000  0.77054000  1.0 0.5732672079
C  C25  1  0.38730000  0.54410000  0.01128000  1.0 0.2570477589
C  C26  1  0.45590000  0.61270000  0.51128000  1.0 0.2570477589
C  C27  1  0.49860000  0.68040000  0.99891000  1.0 -0.2550869123
C  C28  1  0.31960000  0.50140000  0.49891000  1.0 -0.2507264816
C  C29  1  0.48970000  0.73030000  0.95971000  1.0 -0.0707530179
C  C30  1  0.26970000  0.51030000  0.45971000  1.0 -0.0707530179
C  C31  1  0.37300000  0.64340000  0.93384000  1.0 -0.059818965
C  C32  1  0.35660000  0.62700000  0.43384000  1.0 -0.059818965
C  C33  1  0.26120000  0.50420000  0.94691000  1.0 -0.0893100724
C  C34  1  0.49580000  0.73880000  0.44691000  1.0 -0.0893100724
C  C35  1  0.26810000  0.45590000  0.98542000  1.0 -0.2232043382
C  C36  1  0.54410000  0.73190000  0.48542000  1.0 -0.2232043382
C  C37  1  0.36127000  0.69453000  0.89206000  1.0 0.5511491312
C  C38  1  0.30547000  0.63873000  0.39206000  1.0 0.5511491312
C  C39  1  0.68140000  0.48580000  0.20055000  1.0 0.2338221012
C  C40  1  0.51420000  0.31860000  0.70055000  1.0 0.2338221012
C  C41  1  0.64810000  0.37790000  0.22726000  1.0 -0.2232043382
C  C42  1  0.62210000  0.35190000  0.72726000  1.0 -0.2232043382
C  C43  1  0.75175000  0.40345000  0.25425000  1.0 -0.0784430258
C  C44  1  0.59655000  0.24825000  0.75425000  1.0 -0.0784430258
C  C45  1  0.88709000  0.53471000  0.25430000  1.0 -0.0470467798
C  C46  1  0.46529000  0.11291000  0.75430000  1.0 -0.0470467798
C  C47  1  0.91850000  0.64150000  0.22745000  1.0 -0.0893100724
C  C48  1  0.35850000  0.08150000  0.72745000  1.0 -0.0893100724
C  C49  1  0.81590000  0.61670000  0.20008000  1.0 -0.2507264816
C  C50  1  0.38330000  0.18410000  0.70008000  1.0 -0.2507264816
C  C51  1  0.00005000  0.56155000  0.28333000  1.0 0.5857186927
C  C52  1  0.43845000  0.99995000  0.78333000  1.0 0.5857186927
C  C53  1  0.64970000  0.33550000  0.06303000  1.0 0.0733786741
C  C54  1  0.66450000  0.35030000  0.56303000  1.0 0.0733786741
C  C55  1  0.73170000  0.47410000  0.03804000  1.0 -0.0975151687
C  C56  1  0.52590000  0.26830000  0.53804000  1.0 -0.0975151687
C  C57  1  0.61110000  0.23010000  0.03947000  1.0 -0.0893100724
C  C58  1  0.76990000  0.38890000  0.53947000  1.0 -0.0893100724
C  C59  1  0.73590000  0.35730000  0.10128000  1.0 -0.0893100724
C  C60  1  0.64270000  0.26410000  0.60128000  1.0 -0.0893100724
C  C61  1  0.51300000  0.27760000  0.07265000  1.0 -0.0784430258
C  C62  1  0.72240000  0.48700000  0.57265000  1.0 -0.0784430258
C  C63  1  0.68430000  0.55830000  0.97700000  1.0 0.2421518429
C  C64  1  0.44170000  0.31570000  0.47700000  1.0 0.2421518429
C  C65  1  0.81560000  0.69400000  0.97823000  1.0 -0.2507264816
C  C66  1  0.30600000  0.18440000  0.47823000  1.0 -0.2507264816
C  C67  1  0.84100000  0.79500000  0.94949000  1.0 -0.0893100724
C  C68  1  0.20500000  0.15900000  0.44949000  1.0 -0.0893100724
C  C69  1  0.73970000  0.76490000  0.92105000  1.0 -0.0470467798
C  C70  1  0.23510000  0.26030000  0.42105000  1.0 -0.0470467798
C  C71  1  0.60780000  0.62740000  0.92078000  1.0 -0.0707530179
C  C72  1  0.37260000  0.39220000  0.42078000  1.0 -0.0707530179
C  C73  1  0.58220000  0.52640000  0.94799000  1.0 -0.2232043382
C  C74  1  0.47360000  0.41780000  0.44799000  1.0 -0.2232043382
C  C75  1  0.76690000  0.87610000  0.89127000  1.0 0.5857186927
C  C76  1  0.12390000  0.23310000  0.39127000  1.0 0.5857186927
C  C77  1  0.75120000  0.24760000  0.00074000  1.0 0.2421518429
C  C78  1  0.75240000  0.24880000  0.50074000  1.0 0.2421518429
C  C79  1  0.64250000  0.14790000  0.97632000  1.0 -0.2445308403
C  C80  1  0.85210000  0.35750000  0.47632000  1.0 -0.2445308403
C  C81  1  0.66666667  0.12320000  0.94403000  1.0 -0.0707530179
C  C82  1  0.87680000  0.33340000  0.44403000  1.0 -0.0707530179
C  C83  1  0.80200000  0.19820000  0.93785000  1.0 -0.059818965
C  C84  1  0.80180000  0.19800000  0.43785000  1.0 -0.059818965
C  C85  1  0.90860000  0.29580000  0.96386000  1.0 -0.0893100724
C  C86  1  0.70420000  0.09140000  0.46386000  1.0 -0.0893100724
C  C87  1  0.88550000  0.32330000  0.99514000  1.0 -0.2311737921
C  C88  1  0.67670000  0.11450000  0.49514000  1.0 -0.2311737921
C  C89  1  0.83050000  0.17670000  0.90319000  1.0 0.5769707127
C  C90  1  0.82330000  0.16950000  0.40319000  1.0 0.5769707127
C  C91  1  0.70780000  0.22080000  0.16251000  1.0 0.2570477589
C  C92  1  0.77920000  0.29220000  0.66251000  1.0 0.2570477589
C  C93  1  0.84150000  0.32950000  0.17999000  1.0 -0.2507264816
C  C94  1  0.67050000  0.15850000  0.67999000  1.0 -0.2507264816
C  C95  1  0.87880000  0.30880000  0.21857000  1.0 -0.0707530179
C  C96  1  0.69120000  0.12120000  0.71857000  1.0 -0.0707530179
C  C97  1  0.78426000  0.18374000  0.24144000  1.0 -0.0707530179
C  C98  1  0.81626000  0.21574000  0.74144000  1.0 -0.0707530179
C  C99  1  0.64830000  0.07590000  0.22359000  1.0 -0.0893100724
C  C100  1  0.92410000  0.35170000  0.72359000  1.0 -0.0784430258
C  C101  1  0.61130000  0.09410000  0.18422000  1.0 -0.2311737921
C  C102  1  0.90590000  0.38870000  0.68422000  1.0 -0.2311737921
C  C103  1  0.82103000  0.15977000  0.28311000  1.0 0.5511491312
C  C104  1  0.84023000  0.17897000  0.78311000  1.0 0.5511491312
C  C105  1  0.11360000  0.68960000  0.88650000  1.0 0.2570477589
C  C106  1  0.31040000  0.88640000  0.38650000  1.0 0.2570477589
C  C107  1  0.99810000  0.63670000  0.94310000  1.0 -0.3359463946
C  C108  1  0.36330000  0.00190000  0.44310000  1.0 -0.3359463946
C  C109  1  0.01510000  0.77190000  0.88240000  1.0 -0.3121794001
C  C110  1  0.22810000  0.98490000  0.38240000  1.0 -0.3121794001
C  C111  1  0.10550000  0.20630000  0.78662000  1.0 0.282155381
C  C112  1  0.79370000  0.89450000  0.28662000  1.0 0.282155381
C  C113  1  0.23530000  0.28130000  0.73250000  1.0 -0.3464648859
C  C114  1  0.71870000  0.76470000  0.23250000  1.0 -0.3464648859
C  C115  1  0.15390000  0.08250000  0.78010000  1.0 -0.3155695633
C  C116  1  0.91750000  0.84610000  0.28010000  1.0 -0.3155695633
N  N1  1  0.04760000  0.69880000  0.90413000  1.0 0.0284712272
N  N2  1  0.30120000  0.95240000  0.40413000  1.0 0.0284712272
N  N3  1  0.15960000  0.18760000  0.76694000  1.0 0.0284712272
N  N4  1  0.81240000  0.84040000  0.26694000  1.0 0.0284712272
O  O1  1  0.19623000  0.36837000  0.86391000  1.0 -0.2026188757
O  O2  1  0.63163000  0.80377000  0.36391000  1.0 -0.2026188757
O  O3  1  0.54566000  0.38314000  0.08880000  1.0 -0.1814206318
O  O4  1  0.61686000  0.45434000  0.58880000  1.0 -0.1814206318
O  O5  1  0.00293000  0.50647000  0.80914000  1.0 -0.2026188757
O  O6  1  0.49353000  0.99707000  0.30914000  1.0 -0.2068884061
O  O7  1  0.37641000  0.52539000  0.13601000  1.0 -0.1814206318
O  O8  1  0.47461000  0.62359000  0.63601000  1.0 -0.1814206318
O  O9  1  0.37939000  0.48181000  0.04851000  1.0 -0.1814206318
O  O10  1  0.51819000  0.62061000  0.54851000  1.0 -0.1814206318
O  O11  1  0.57124000  0.44956000  0.17562000  1.0 -0.1897048974
O  O12  1  0.55044000  0.42876000  0.67562000  1.0 -0.1897048974
O  O13  1  0.22475000  0.53305000  0.29681000  1.0 -0.5563061969
O  O14  1  0.46695000  0.77525000  0.79681000  1.0 -0.5563061969
O  O15  1  0.36577000  0.75243000  0.27197000  1.0 -0.5091348128
O  O16  1  0.24757000  0.63423000  0.77197000  1.0 -0.5091348128
O  O17  1  0.44815000  0.82225000  0.88151000  1.0 -0.579473971
O  O18  1  0.17775000  0.55185000  0.38151000  1.0 -0.579473971
O  O19  1  0.25879000  0.60261000  0.86870000  1.0 -0.497026919
O  O20  1  0.39739000  0.74121000  0.36870000  1.0 -0.497026919
O  O21  1  0.11987000  0.68553000  0.28339000  1.0 -0.5693018572
O  O22  1  0.31447000  0.88013000  0.78339000  1.0 -0.5693018572
O  O23  1  0.96714000  0.46006000  0.30484000  1.0 -0.5408310876
O  O24  1  0.53994000  0.03286000  0.80484000  1.0 -0.5408310876
O  O25  1  0.64419000  0.44821000  0.00233000  1.0 -0.1814206318
O  O26  1  0.55179000  0.35581000  0.50233000  1.0 -0.1814206318
O  O27  1  0.74122000  0.28258000  0.03305000  1.0 -0.1897048974
O  O28  1  0.71742000  0.25878000  0.53305000  1.0 -0.1897048974
O  O29  1  0.65932000  0.22608000  0.12370000  1.0 -0.1814206318
O  O30  1  0.77392000  0.34068000  0.62370000  1.0 -0.1814206318
O  O31  1  0.66387000  0.84093000  0.86950000  1.0 -0.5408310876
O  O32  1  0.15907000  0.33613000  0.36950000  1.0 -0.5408310876
O  O33  1  0.89057000  0.99403000  0.89036000  1.0 -0.5693018572
O  O34  1  0.00597000  0.10943000  0.39036000  1.0 -0.5693018572
O  O35  1  0.73261000  0.09919000  0.87744000  1.0 -0.5521840589
O  O36  1  0.90081000  0.26739000  0.37744000  1.0 -0.5521840589
O  O37  1  0.95382000  0.23878000  0.90168000  1.0 -0.5196321146
O  O38  1  0.76122000  0.04618000  0.40168000  1.0 -0.5196321146
O  O39  1  0.94637000  0.23803000  0.29683000  1.0 -0.579473971
O  O40  1  0.76197000  0.05363000  0.79683000  1.0 -0.579473971
O  O41  1  0.72367000  0.05353000  0.30455000  1.0 -0.4878688888
O  O42  1  0.94647000  0.27633000  0.80455000  1.0 -0.4878688888
O  O43  1  0.15750000  0.74210000  0.85421000  1.0 -0.3964961456
O  O44  1  0.25790000  0.84250000  0.35421000  1.0 -0.3964961456
O  O45  1  0.04343000  0.13417000  0.81714000  1.0 -0.4414311783
O  O46  1  0.86583000  0.95657000  0.31714000  1.0 -0.4414311783
