# DDEC6 charges by PACMAN v1.1 (https://github.com/mtap-research/PACMAN-charge/)
data_PEKVUY_FSR_pacman
_symmetry_space_group_name_H-M   'P 1'
_cell_length_a   9.52130000
_cell_length_b   10.58170000
_cell_length_c   18.33190000
_cell_angle_alpha   95.92700000
_cell_angle_beta   99.68100000
_cell_angle_gamma   114.19400000
_symmetry_Int_Tables_number   1
_chemical_formula_structural   BaU3P4H12(C8O11)2
_chemical_formula_sum   'Ba2 U6 P8 H24 C32 O44'
_cell_volume   1630.01193322
_cell_formula_units_Z   2
loop_
 _symmetry_equiv_pos_site_id
 _symmetry_equiv_pos_as_xyz
  1  'x, y, z'
loop_
 _atom_site_type_symbol
 _atom_site_label
 _atom_site_symmetry_multiplicity
 _atom_site_fract_x
 _atom_site_fract_y
 _atom_site_fract_z
 _atom_site_occupancy
 _atom_site_charge
Ba  Ba1  1  0.56914000  0.31604000  0.27747000  1.0 1.5002498104
Ba  Ba2  1  0.43086000  0.68396000  0.72253000  1.0 1.5002498104
U  U1  1  0.29407000  0.81252000  0.25744000  1.0 2.5659129693
U  U2  1  0.70593000  0.18748000  0.74256000  1.0 2.5659129693
U  U3  1  0.64642000  0.69363000  0.24719000  1.0 2.5404620243
U  U4  1  0.35358000  0.30637000  0.75281000  1.0 2.5404620243
U  U5  1  0.00028000  0.24162000  0.24751000  1.0 2.5900886131
U  U6  1  0.99972000  0.75838000  0.75249000  1.0 2.5900886131
P  P1  1  0.64802000  0.03902000  0.32640000  1.0 1.3217365814
P  P2  1  0.35198000  0.96098000  0.67360000  1.0 1.3217365814
P  P3  1  0.94670000  0.03636000  0.66519000  1.0 1.4018448068
P  P4  1  0.05330000  0.96364000  0.33481000  1.0 1.4018448068
P  P5  1  0.30371000  0.48399000  0.15877000  1.0 1.2446312977
P  P6  1  0.69629000  0.51601000  0.84123000  1.0 1.2455935551
P  P7  1  0.11606000  0.48527000  0.80697000  1.0 1.3285949303
P  P8  1  0.88394000  0.51473000  0.19303000  1.0 1.3285949303
H  H1  1  0.53550000  0.89390000  0.44220000  1.0 0.1487495033
H  H2  1  0.46450000  0.10610000  0.55780000  1.0 0.1487495033
H  H3  1  0.64170000  0.89420000  0.56450000  1.0 0.1487495033
H  H4  1  0.35830000  0.10580000  0.43550000  1.0 0.1487495033
H  H5  1  0.05650000  0.20040000  0.55510000  1.0 0.1487495033
H  H6  1  0.94350000  0.79960000  0.44490000  1.0 0.1487495033
H  H7  1  0.94740000  0.20540000  0.43240000  1.0 0.1487495033
H  H8  1  0.05260000  0.79460000  0.56760000  1.0 0.1487495033
H  H9  1  0.48190000  0.57060000  0.04270000  1.0 0.1200980567
H  H10  1  0.51810000  0.42940000  0.95730000  1.0 0.1200980567
H  H11  1  0.41470000  0.57350000  0.91760000  1.0 0.1271852104
H  H12  1  0.58530000  0.42650000  0.08240000  1.0 0.1271852104
H  H13  1  0.08060000  0.27090000  0.90890000  1.0 0.1487495033
H  H14  1  0.91940000  0.72910000  0.09110000  1.0 0.1487495033
H  H15  1  0.01330000  0.41990000  0.04110000  1.0 0.1200980567
H  H16  1  0.98670000  0.58010000  0.95890000  1.0 0.1200980567
H  H17  1  0.95870000  0.42380000  0.93870000  1.0 0.1200980567
H  H18  1  0.04130000  0.57620000  0.06130000  1.0 0.1200980567
H  H19  1  0.13610000  0.27300000  0.01060000  1.0 0.143287502
H  H20  1  0.86390000  0.72700000  0.98940000  1.0 0.143287502
H  H21  1  0.40180000  0.69470000  0.06430000  1.0 0.143287502
H  H22  1  0.59820000  0.30530000  0.93570000  1.0 0.143287502
H  H23  1  0.34170000  0.69560000  0.93700000  1.0 0.143287502
H  H24  1  0.65830000  0.30440000  0.06300000  1.0 0.143287502
C  C1  1  0.73280000  0.04670000  0.42320000  1.0 -0.1477300303
C  C2  1  0.26720000  0.95330000  0.57680000  1.0 -0.1477300303
C  C3  1  0.64080000  0.95500000  0.46440000  1.0 -0.0601720178
C  C4  1  0.35920000  0.04500000  0.53560000  1.0 -0.0601720178
C  C5  1  0.70470000  0.95440000  0.53740000  1.0 -0.0524336921
C  C6  1  0.29530000  0.04560000  0.46260000  1.0 -0.0524336921
C  C7  1  0.86180000  0.04270000  0.57090000  1.0 -0.1629903765
C  C8  1  0.13820000  0.95730000  0.42910000  1.0 -0.1629903765
C  C9  1  0.95210000  0.13780000  0.53210000  1.0 -0.0399246451
C  C10  1  0.04790000  0.86220000  0.46790000  1.0 -0.0399246451
C  C11  1  0.88660000  0.14020000  0.45810000  1.0 -0.0399246451
C  C12  1  0.11340000  0.85980000  0.54190000  1.0 -0.0399246451
C  C13  1  0.25930000  0.48530000  0.05970000  1.0 -0.1072271915
C  C14  1  0.74070000  0.51470000  0.94030000  1.0 -0.1072271915
C  C15  1  0.37580000  0.53690000  0.01860000  1.0 -0.0601720178
C  C16  1  0.62420000  0.46310000  0.98140000  1.0 -0.0601720178
C  C17  1  0.33560000  0.53840000  0.94380000  1.0 -0.0524336921
C  C18  1  0.66440000  0.46160000  0.05620000  1.0 -0.0524336921
C  C19  1  0.17820000  0.48820000  0.90630000  1.0 -0.0969900938
C  C20  1  0.82180000  0.51180000  0.09370000  1.0 -0.0969900938
C  C21  1  0.11140000  0.36310000  0.93280000  1.0 -0.0399246451
C  C22  1  0.88860000  0.63690000  0.06720000  1.0 -0.0338003687
C  C23  1  0.10080000  0.42540000  0.02290000  1.0 -0.0399246451
C  C24  1  0.89920000  0.57460000  0.97710000  1.0 -0.0399246451
C  C25  1  0.05970000  0.42820000  0.94570000  1.0 -0.0338003687
C  C26  1  0.94030000  0.57180000  0.05430000  1.0 -0.0338003687
C  C27  1  0.15330000  0.36590000  0.00980000  1.0 -0.0156812539
C  C28  1  0.84670000  0.63410000  0.99020000  1.0 -0.0156812539
C  C29  1  0.32960000  0.61190000  0.03110000  1.0 -0.0399246451
C  C30  1  0.67040000  0.38810000  0.96890000  1.0 -0.0399246451
C  C31  1  0.29260000  0.61370000  0.95540000  1.0 -0.0399246451
C  C32  1  0.70740000  0.38630000  0.04460000  1.0 -0.0399246451
O  O1  1  0.28750000  0.86490000  0.16850000  1.0 -0.6108101832
O  O2  1  0.71250000  0.13510000  0.83150000  1.0 -0.6108101832
O  O3  1  0.30410000  0.76300000  0.34710000  1.0 -0.6477969812
O  O4  1  0.69590000  0.23700000  0.65290000  1.0 -0.6477969812
O  O5  1  0.68310000  0.75310000  0.16210000  1.0 -0.6732832121
O  O6  1  0.31690000  0.24690000  0.83790000  1.0 -0.6732832121
O  O7  1  0.60390000  0.62600000  0.33030000  1.0 -0.6307543444
O  O8  1  0.39610000  0.37400000  0.66970000  1.0 -0.6307543444
O  O9  1  0.89180000  0.09950000  0.17040000  1.0 -0.6247880386
O  O10  1  0.10820000  0.90050000  0.82960000  1.0 -0.6307543444
O  O11  1  0.10860000  0.38320000  0.32580000  1.0 -0.5781389402
O  O12  1  0.89140000  0.61680000  0.67420000  1.0 -0.5781389402
O  O13  1  0.58970000  0.88730000  0.28250000  1.0 -0.8890957164
O  O14  1  0.41030000  0.11270000  0.71750000  1.0 -0.8890957164
O  O15  1  0.49410000  0.05660000  0.31920000  1.0 -0.7912952629
O  O16  1  0.50590000  0.94340000  0.68080000  1.0 -0.7912952629
O  O17  1  0.76990000  0.15300000  0.29670000  1.0 -0.7821425127
O  O18  1  0.23010000  0.84700000  0.70330000  1.0 -0.7821425127
O  O19  1  0.11740000  0.14650000  0.68460000  1.0 -0.7977799105
O  O20  1  0.88260000  0.85350000  0.31540000  1.0 -0.7977799105
O  O21  1  0.85190000  0.06770000  0.71840000  1.0 -0.7592382954
O  O22  1  0.14810000  0.93230000  0.28160000  1.0 -0.7592382954
O  O23  1  0.93170000  0.88750000  0.66710000  1.0 -0.746918075
O  O24  1  0.06830000  0.11250000  0.33290000  1.0 -0.746918075
O  O25  1  0.36200000  0.63690000  0.20280000  1.0 -0.8556395697
O  O26  1  0.63800000  0.36310000  0.79720000  1.0 -0.8556395697
O  O27  1  0.45040000  0.45640000  0.17970000  1.0 -0.8105575966
O  O28  1  0.54960000  0.54360000  0.82030000  1.0 -0.8105575966
O  O29  1  0.15430000  0.37830000  0.17490000  1.0 -0.7340044008
O  O30  1  0.84570000  0.62170000  0.82510000  1.0 -0.7340044008
O  O31  1  0.14130000  0.63380000  0.79610000  1.0 -0.7821425127
O  O32  1  0.85870000  0.36620000  0.20390000  1.0 -0.7912952629
O  O33  1  0.22390000  0.44630000  0.76500000  1.0 -0.8317600416
O  O34  1  0.77610000  0.55370000  0.23500000  1.0 -0.8317600416
O  O35  1  0.94470000  0.37510000  0.78190000  1.0 -0.7821425127
O  O36  1  0.05530000  0.62490000  0.21810000  1.0 -0.7821425127
O  O37  1  0.22610000  0.17010000  0.22010000  1.0 -0.4382147567
O  O38  1  0.77390000  0.82990000  0.77990000  1.0 -0.4382147567
O  O39  1  0.79970000  0.43840000  0.40720000  1.0 -0.5471918808
O  O40  1  0.20030000  0.56160000  0.59280000  1.0 -0.5471918808
O  O41  1  0.40550000  0.33990000  0.38970000  1.0 -0.329259597
O  O42  1  0.59450000  0.66010000  0.61030000  1.0 -0.329259597
O  O43  1  0.50580000  0.14060000  0.14310000  1.0 -0.4784612285
O  O44  1  0.49420000  0.85940000  0.85690000  1.0 -0.4784612285
