# DDEC6 charges by PACMAN v1.1 (https://github.com/mtap-research/PACMAN-charge/)
data_PEKZIP_FSR_pacman
_symmetry_space_group_name_H-M   'P 1'
_cell_length_a   5.58640000
_cell_length_b   12.76900000
_cell_length_c   15.62100000
_cell_angle_alpha   90.00000000
_cell_angle_beta   90.00000000
_cell_angle_gamma   90.00000000
_symmetry_Int_Tables_number   1
_chemical_formula_structural   Cu2H16C20N4Cl
_chemical_formula_sum   'Cu4 H32 C40 N8 Cl2'
_cell_volume   1114.28875653
_cell_formula_units_Z   2
loop_
 _symmetry_equiv_pos_site_id
 _symmetry_equiv_pos_as_xyz
  1  'x, y, z'
loop_
 _atom_site_type_symbol
 _atom_site_label
 _atom_site_symmetry_multiplicity
 _atom_site_fract_x
 _atom_site_fract_y
 _atom_site_fract_z
 _atom_site_occupancy
 _atom_site_charge
Cu  Cu1  1  0.00000000  0.50000000  0.34770000  1.0 0.2488130798
Cu  Cu2  1  0.00000000  0.50000000  0.65230000  1.0 0.2488130798
Cu  Cu3  1  0.50000000  0.00000000  0.15230000  1.0 0.2488130798
Cu  Cu4  1  0.50000000  0.00000000  0.84770000  1.0 0.2488130798
H  H1  1  0.62610000  0.37490000  0.42900000  1.0 0.0962232445
H  H2  1  0.37390000  0.62510000  0.42900000  1.0 0.0962232445
H  H3  1  0.37390000  0.37490000  0.57100000  1.0 0.0962232445
H  H4  1  0.62610000  0.62510000  0.57100000  1.0 0.0962232445
H  H5  1  0.87390000  0.12510000  0.07100000  1.0 0.0962232445
H  H6  1  0.12610000  0.87490000  0.07100000  1.0 0.0962232445
H  H7  1  0.12610000  0.12510000  0.92900000  1.0 0.0962232445
H  H8  1  0.87390000  0.87490000  0.92900000  1.0 0.0962232445
H  H9  1  0.31820000  0.26730000  0.39080000  1.0 0.1253130307
H  H10  1  0.68180000  0.73270000  0.39080000  1.0 0.1253130307
H  H11  1  0.68180000  0.26730000  0.60920000  1.0 0.1253130307
H  H12  1  0.31820000  0.73270000  0.60920000  1.0 0.1253130307
H  H13  1  0.18180000  0.23270000  0.10920000  1.0 0.1253130307
H  H14  1  0.81820000  0.76730000  0.10920000  1.0 0.1253130307
H  H15  1  0.81820000  0.23270000  0.89080000  1.0 0.1253130307
H  H16  1  0.18180000  0.76730000  0.89080000  1.0 0.1253130307
H  H17  1  0.46260000  0.32780000  0.14640000  1.0 0.1220400186
H  H18  1  0.53740000  0.67220000  0.14640000  1.0 0.1220400186
H  H19  1  0.53740000  0.32780000  0.85360000  1.0 0.1220400186
H  H20  1  0.46260000  0.67220000  0.85360000  1.0 0.1220400186
H  H21  1  0.03740000  0.17220000  0.35360000  1.0 0.1220400186
H  H22  1  0.96260000  0.82780000  0.35360000  1.0 0.1220400186
H  H23  1  0.96260000  0.17220000  0.64640000  1.0 0.1220400186
H  H24  1  0.03740000  0.82780000  0.64640000  1.0 0.1220400186
H  H25  1  0.77520000  0.43020000  0.19100000  1.0 0.0880102004
H  H26  1  0.22480000  0.56980000  0.19100000  1.0 0.0880102004
H  H27  1  0.22480000  0.43020000  0.80900000  1.0 0.0880102004
H  H28  1  0.77520000  0.56980000  0.80900000  1.0 0.0880102004
H  H29  1  0.72480000  0.06980000  0.30900000  1.0 0.0880102004
H  H30  1  0.27520000  0.93020000  0.30900000  1.0 0.0880102004
H  H31  1  0.27520000  0.06980000  0.69100000  1.0 0.0880102004
H  H32  1  0.72480000  0.93020000  0.69100000  1.0 0.0880102004
C  C1  1  0.59530000  0.36420000  0.37110000  1.0 0.0528585763
C  C2  1  0.40470000  0.63580000  0.37110000  1.0 0.0528585763
C  C3  1  0.40470000  0.36420000  0.62890000  1.0 0.0528585763
C  C4  1  0.59530000  0.63580000  0.62890000  1.0 0.0528585763
C  C5  1  0.90470000  0.13580000  0.12890000  1.0 0.0528585763
C  C6  1  0.09530000  0.86420000  0.12890000  1.0 0.0528585763
C  C7  1  0.09530000  0.13580000  0.87110000  1.0 0.0528585763
C  C8  1  0.90470000  0.86420000  0.87110000  1.0 0.0528585763
C  C9  1  0.40790000  0.30020000  0.34850000  1.0 -0.2164520154
C  C10  1  0.59210000  0.69980000  0.34850000  1.0 -0.2164520154
C  C11  1  0.59210000  0.30020000  0.65150000  1.0 -0.2164520154
C  C12  1  0.40790000  0.69980000  0.65150000  1.0 -0.2164520154
C  C13  1  0.09210000  0.19980000  0.15150000  1.0 -0.2164520154
C  C14  1  0.90790000  0.80020000  0.15150000  1.0 -0.2164520154
C  C15  1  0.90790000  0.19980000  0.84850000  1.0 -0.2164520154
C  C16  1  0.09210000  0.80020000  0.84850000  1.0 -0.2164520154
C  C17  1  0.35170000  0.28420000  0.26370000  1.0 0.0962232445
C  C18  1  0.64830000  0.71580000  0.26370000  1.0 0.0962232445
C  C19  1  0.64830000  0.28420000  0.73630000  1.0 0.0962232445
C  C20  1  0.35170000  0.71580000  0.73630000  1.0 0.0962232445
C  C21  1  0.14830000  0.21580000  0.23630000  1.0 0.0962232445
C  C22  1  0.85170000  0.78420000  0.23630000  1.0 0.0962232445
C  C23  1  0.85170000  0.21580000  0.76370000  1.0 0.0962232445
C  C24  1  0.14830000  0.78420000  0.76370000  1.0 0.0962232445
C  C25  1  0.49340000  0.33510000  0.20460000  1.0 -0.2089359181
C  C26  1  0.50660000  0.66490000  0.20460000  1.0 -0.2089359181
C  C27  1  0.50660000  0.33510000  0.79540000  1.0 -0.2089359181
C  C28  1  0.49340000  0.66490000  0.79540000  1.0 -0.2089359181
C  C29  1  0.00660000  0.16490000  0.29540000  1.0 -0.2089359181
C  C30  1  0.99340000  0.83510000  0.29540000  1.0 -0.2089359181
C  C31  1  0.99340000  0.16490000  0.70460000  1.0 -0.2089359181
C  C32  1  0.00660000  0.83510000  0.70460000  1.0 -0.2089359181
C  C33  1  0.68140000  0.39710000  0.23210000  1.0 0.0528585763
C  C34  1  0.31860000  0.60290000  0.23210000  1.0 0.0528585763
C  C35  1  0.31860000  0.39710000  0.76790000  1.0 0.0528585763
C  C36  1  0.68140000  0.60290000  0.76790000  1.0 0.0528585763
C  C37  1  0.81860000  0.10290000  0.26790000  1.0 0.0528585763
C  C38  1  0.18140000  0.89710000  0.26790000  1.0 0.0528585763
C  C39  1  0.18140000  0.10290000  0.73210000  1.0 0.0528585763
C  C40  1  0.81860000  0.89710000  0.73210000  1.0 0.0528585763
N  N1  1  0.73500000  0.41170000  0.31370000  1.0 -0.1906637082
N  N2  1  0.26500000  0.58830000  0.31370000  1.0 -0.1906637082
N  N3  1  0.26500000  0.41170000  0.68630000  1.0 -0.1906637082
N  N4  1  0.73500000  0.58830000  0.68630000  1.0 -0.1906637082
N  N5  1  0.76500000  0.08830000  0.18630000  1.0 -0.1906637082
N  N6  1  0.23500000  0.91170000  0.18630000  1.0 -0.1906637082
N  N7  1  0.23500000  0.08830000  0.81370000  1.0 -0.1906637082
N  N8  1  0.76500000  0.91170000  0.81370000  1.0 -0.1906637082
Cl  Cl1  1  0.00000000  0.50000000  0.50000000  1.0 -0.5675271581
Cl  Cl2  1  0.50000000  0.00000000  0.00000000  1.0 -0.5675271581
