# DDEC6 charges by PACMAN v1.1 (https://github.com/mtap-research/PACMAN-charge/)
data_PELGOE_ASR_pacman
_symmetry_space_group_name_H-M   'P 1'
_cell_length_a   11.42840000
_cell_length_b   11.42840000
_cell_length_c   30.74300000
_cell_angle_alpha   90.00000000
_cell_angle_beta   90.00000000
_cell_angle_gamma   120.00000000
_symmetry_Int_Tables_number   1
_chemical_formula_structural   CoH12C17SN2O5
_chemical_formula_sum   'Co6 H72 C102 S6 N12 O30'
_cell_volume   3477.34468806
_cell_formula_units_Z   6
loop_
 _symmetry_equiv_pos_site_id
 _symmetry_equiv_pos_as_xyz
  1  'x, y, z'
loop_
 _atom_site_type_symbol
 _atom_site_label
 _atom_site_symmetry_multiplicity
 _atom_site_fract_x
 _atom_site_fract_y
 _atom_site_fract_z
 _atom_site_occupancy
 _atom_site_charge
Co  Co1  1  0.00000000  0.93788000  0.83333000  1.0 0.747332307
Co  Co2  1  0.06212000  0.06212000  0.50000000  1.0 0.7439226829
Co  Co3  1  0.93788000  0.00000000  0.16667000  1.0 0.7439226829
Co  Co4  1  0.08570000  0.08570000  0.00000000  1.0 0.9261756264
Co  Co5  1  0.91430000  0.00000000  0.66666667  1.0 0.9261756264
Co  Co6  1  0.00000000  0.91430000  0.33333333  1.0 0.924293729
H  H1  1  0.55850000  0.13070000  0.99760000  1.0 0.1336050429
H  H2  1  0.86930000  0.42780000  0.66427000  1.0 0.1336050429
H  H3  1  0.57220000  0.44150000  0.33093000  1.0 0.1336050429
H  H4  1  0.42780000  0.86930000  0.33573000  1.0 0.1336050429
H  H5  1  0.44150000  0.57220000  0.66907000  1.0 0.1336050429
H  H6  1  0.13070000  0.55850000  0.00240000  1.0 0.1336050429
H  H7  1  0.57070000  0.77530000  0.00070000  1.0 0.1407033062
H  H8  1  0.22470000  0.79540000  0.66737000  1.0 0.1407033062
H  H9  1  0.20460000  0.42930000  0.33403000  1.0 0.1407033062
H  H10  1  0.79540000  0.22470000  0.33263000  1.0 0.1407033062
H  H11  1  0.42930000  0.20460000  0.66597000  1.0 0.1407033062
H  H12  1  0.77530000  0.57070000  0.99930000  1.0 0.1407033062
H  H13  1  0.77840000  0.97660000  0.00290000  1.0 0.1195846658
H  H14  1  0.02340000  0.80180000  0.66957000  1.0 0.1195846658
H  H15  1  0.19820000  0.22160000  0.33623000  1.0 0.1195846658
H  H16  1  0.80180000  0.02340000  0.33043000  1.0 0.1195846658
H  H17  1  0.22160000  0.19820000  0.66377000  1.0 0.1195846658
H  H18  1  0.97660000  0.77840000  0.99710000  1.0 0.1195846658
H  H19  1  0.40650000  0.24260000  0.87200000  1.0 0.1195846658
H  H20  1  0.75740000  0.16390000  0.53867000  1.0 0.1195846658
H  H21  1  0.83610000  0.59350000  0.20533000  1.0 0.1195846658
H  H22  1  0.16390000  0.75740000  0.46133000  1.0 0.1195846658
H  H23  1  0.59350000  0.83610000  0.79467000  1.0 0.1195846658
H  H24  1  0.24260000  0.40650000  0.12800000  1.0 0.1195846658
H  H25  1  0.63260000  0.36700000  0.89150000  1.0 0.1089487117
H  H26  1  0.63300000  0.26560000  0.55817000  1.0 0.1089487117
H  H27  1  0.73440000  0.36740000  0.22483000  1.0 0.1089487117
H  H28  1  0.26560000  0.63300000  0.44183000  1.0 0.1089487117
H  H29  1  0.36740000  0.73440000  0.77517000  1.0 0.1089487117
H  H30  1  0.36700000  0.63260000  0.10850000  1.0 0.1089487117
H  H31  1  0.97630000  0.33790000  0.89850000  1.0 0.1407033062
H  H32  1  0.66210000  0.63840000  0.56517000  1.0 0.1407033062
H  H33  1  0.36160000  0.02370000  0.23183000  1.0 0.1407033062
H  H34  1  0.63840000  0.66210000  0.43483000  1.0 0.1407033062
H  H35  1  0.02370000  0.36160000  0.76817000  1.0 0.1407033062
H  H36  1  0.33790000  0.97630000  0.10150000  1.0 0.1407033062
H  H37  1  0.97670000  0.13450000  0.89690000  1.0 0.1195846658
H  H38  1  0.86550000  0.84220000  0.56357000  1.0 0.1195846658
H  H39  1  0.15780000  0.02330000  0.23023000  1.0 0.1195846658
H  H40  1  0.84220000  0.86550000  0.43643000  1.0 0.1195846658
H  H41  1  0.02330000  0.15780000  0.76977000  1.0 0.1195846658
H  H42  1  0.13450000  0.97670000  0.10310000  1.0 0.1195846658
H  H43  1  0.03130000  0.54290000  0.89820000  1.0 0.1470485948
H  H44  1  0.45710000  0.48840000  0.56487000  1.0 0.1470485948
H  H45  1  0.51160000  0.96870000  0.23153000  1.0 0.1470485948
H  H46  1  0.48840000  0.45710000  0.43513000  1.0 0.1470485948
H  H47  1  0.96870000  0.51160000  0.76847000  1.0 0.1470485948
H  H48  1  0.54290000  0.03130000  0.10180000  1.0 0.1470485948
H  H49  1  0.55660000  0.43510000  0.05280000  1.0 0.1407033062
H  H50  1  0.56490000  0.12150000  0.71947000  1.0 0.1407033062
H  H51  1  0.87850000  0.44340000  0.38613000  1.0 0.1407033062
H  H52  1  0.12150000  0.56490000  0.28053000  1.0 0.1407033062
H  H53  1  0.44340000  0.87850000  0.61387000  1.0 0.1407033062
H  H54  1  0.43510000  0.55660000  0.94720000  1.0 0.1407033062
H  H55  1  0.34980000  0.23720000  0.05210000  1.0 0.1089487117
H  H56  1  0.76280000  0.11260000  0.71877000  1.0 0.1089487117
H  H57  1  0.88740000  0.65020000  0.38543000  1.0 0.1089487117
H  H58  1  0.11260000  0.76280000  0.28123000  1.0 0.1089487117
H  H59  1  0.65020000  0.88740000  0.61457000  1.0 0.1089487117
H  H60  1  0.23720000  0.34980000  0.94790000  1.0 0.1089487117
H  H61  1  0.03900000  0.74960000  0.89560000  1.0 0.1195846658
H  H62  1  0.25040000  0.28940000  0.56227000  1.0 0.1195846658
H  H63  1  0.71060000  0.96100000  0.22893000  1.0 0.1195846658
H  H64  1  0.28940000  0.25040000  0.43773000  1.0 0.1195846658
H  H65  1  0.96100000  0.71060000  0.77107000  1.0 0.1195846658
H  H66  1  0.74960000  0.03900000  0.10440000  1.0 0.1195846658
H  H67  1  0.71070000  0.31170000  0.95440000  1.0 0.1195846658
H  H68  1  0.68830000  0.39900000  0.62107000  1.0 0.1195846658
H  H69  1  0.60100000  0.28930000  0.28773000  1.0 0.1195846658
H  H70  1  0.39900000  0.68830000  0.37893000  1.0 0.1195846658
H  H71  1  0.28930000  0.60100000  0.71227000  1.0 0.1195846658
H  H72  1  0.31170000  0.71070000  0.04560000  1.0 0.1195846658
C  C1  1  0.00000000  0.50260000  0.83333000  1.0 0.1195846658
C  C2  1  0.49740000  0.49740000  0.50000000  1.0 0.1195846658
C  C3  1  0.50260000  0.00000000  0.16667000  1.0 0.1195846658
C  C4  1  0.51870000  0.51870000  0.00000000  1.0 0.1089487117
C  C5  1  0.48130000  0.00000000  0.66666667  1.0 0.1089487117
C  C6  1  0.00000000  0.48130000  0.33333333  1.0 0.1089487117
C  C7  1  0.52690000  0.15560000  0.97264000  1.0 -0.0946735618
C  C8  1  0.84440000  0.37130000  0.63931000  1.0 -0.0946735618
C  C9  1  0.62870000  0.47310000  0.30597000  1.0 -0.0946735618
C  C10  1  0.37130000  0.84440000  0.36069000  1.0 -0.0946735618
C  C11  1  0.47310000  0.62870000  0.69403000  1.0 -0.0946735618
C  C12  1  0.15560000  0.52690000  0.02736000  1.0 -0.0946735618
C  C13  1  0.19570000  0.05060000  0.91034000  1.0 0.5904114468
C  C14  1  0.94940000  0.14510000  0.57701000  1.0 0.5904114468
C  C15  1  0.85490000  0.80430000  0.24367000  1.0 0.5904114468
C  C16  1  0.14510000  0.94940000  0.42299000  1.0 0.5904114468
C  C17  1  0.80430000  0.85490000  0.75633000  1.0 0.5904114468
C  C18  1  0.05060000  0.19570000  0.08966000  1.0 0.5904114468
C  C19  1  0.34280000  0.11790000  0.92503000  1.0 -0.035497285
C  C20  1  0.88210000  0.22490000  0.59170000  1.0 -0.035497285
C  C21  1  0.77510000  0.65720000  0.25836000  1.0 -0.035497285
C  C22  1  0.22490000  0.88210000  0.40830000  1.0 -0.035497285
C  C23  1  0.65720000  0.77510000  0.74164000  1.0 -0.035497285
C  C24  1  0.11790000  0.34280000  0.07497000  1.0 -0.035497285
C  C25  1  0.65240000  0.77260000  0.00069000  1.0 -0.203695444
C  C26  1  0.22740000  0.87980000  0.66736000  1.0 -0.203695444
C  C27  1  0.12020000  0.34760000  0.33402000  1.0 -0.203695444
C  C28  1  0.87980000  0.22740000  0.33264000  1.0 -0.203695444
C  C29  1  0.34760000  0.12020000  0.66598000  1.0 -0.203695444
C  C30  1  0.77260000  0.65240000  0.99931000  1.0 -0.203695444
C  C31  1  0.77740000  0.89300000  0.00138000  1.0 0.1089487117
C  C32  1  0.10700000  0.88440000  0.66805000  1.0 0.1089487117
C  C33  1  0.11560000  0.22260000  0.33471000  1.0 0.1089487117
C  C34  1  0.88440000  0.10700000  0.33195000  1.0 0.1089487117
C  C35  1  0.22260000  0.11560000  0.66529000  1.0 0.1089487117
C  C36  1  0.89300000  0.77740000  0.99862000  1.0 0.1089487117
C  C37  1  0.38870000  0.08460000  0.96240000  1.0 -0.1048028204
C  C38  1  0.91540000  0.30410000  0.62907000  1.0 -0.1111541442
C  C39  1  0.69590000  0.61130000  0.29573000  1.0 -0.1111541442
C  C40  1  0.30410000  0.91540000  0.37093000  1.0 -0.1048028204
C  C41  1  0.61130000  0.69590000  0.70427000  1.0 -0.1048028204
C  C42  1  0.08460000  0.38870000  0.03760000  1.0 -0.1048028204
C  C43  1  0.43630000  0.22180000  0.89825000  1.0 -0.1111541442
C  C44  1  0.77820000  0.21450000  0.56492000  1.0 -0.1111541442
C  C45  1  0.78550000  0.56370000  0.23158000  1.0 -0.1111541442
C  C46  1  0.21450000  0.77820000  0.43508000  1.0 -0.1111541442
C  C47  1  0.56370000  0.78550000  0.76842000  1.0 -0.1111541442
C  C48  1  0.22180000  0.43630000  0.10175000  1.0 -0.1111541442
C  C49  1  0.57110000  0.29430000  0.90943000  1.0 -0.0946735618
C  C50  1  0.70570000  0.27680000  0.57610000  1.0 -0.0946735618
C  C51  1  0.72320000  0.42890000  0.24276000  1.0 -0.0946735618
C  C52  1  0.27680000  0.70570000  0.42390000  1.0 -0.0946735618
C  C53  1  0.42890000  0.72320000  0.75724000  1.0 -0.0946735618
C  C54  1  0.29430000  0.57110000  0.09057000  1.0 -0.0946735618
C  C55  1  0.00000000  0.37190000  0.83333000  1.0 0.0989095951
C  C56  1  0.62810000  0.62810000  0.50000000  1.0 0.0989095951
C  C57  1  0.37190000  0.00000000  0.16667000  1.0 0.0989095951
C  C58  1  0.98610000  0.30290000  0.87157000  1.0 -0.179646349
C  C59  1  0.69710000  0.68320000  0.53824000  1.0 -0.179646349
C  C60  1  0.31680000  0.01390000  0.20490000  1.0 -0.179646349
C  C61  1  0.68320000  0.69710000  0.46176000  1.0 -0.179646349
C  C62  1  0.01390000  0.31680000  0.79510000  1.0 -0.179646349
C  C63  1  0.30290000  0.98610000  0.12843000  1.0 -0.179646349
C  C64  1  0.98650000  0.18090000  0.87033000  1.0 0.0989095951
C  C65  1  0.81910000  0.80560000  0.53700000  1.0 0.0989095951
C  C66  1  0.19440000  0.01350000  0.20366000  1.0 0.0989095951
C  C67  1  0.80560000  0.81910000  0.46300000  1.0 0.0989095951
C  C68  1  0.01350000  0.19440000  0.79634000  1.0 0.0989095951
C  C69  1  0.18090000  0.98650000  0.12967000  1.0 0.0989095951
C  C70  1  0.01940000  0.57620000  0.87122000  1.0 -0.179646349
C  C71  1  0.42380000  0.44320000  0.53789000  1.0 -0.179646349
C  C72  1  0.55680000  0.98060000  0.20455000  1.0 -0.179646349
C  C73  1  0.44320000  0.42380000  0.46211000  1.0 -0.179646349
C  C74  1  0.98060000  0.55680000  0.79545000  1.0 -0.179646349
C  C75  1  0.57620000  0.01940000  0.12878000  1.0 -0.179646349
C  C76  1  0.49170000  0.42100000  0.03112000  1.0 -0.179646349
C  C77  1  0.57900000  0.07070000  0.69779000  1.0 -0.179646349
C  C78  1  0.92930000  0.50830000  0.36445000  1.0 -0.179646349
C  C79  1  0.07070000  0.57900000  0.30221000  1.0 -0.179646349
C  C80  1  0.50830000  0.92930000  0.63555000  1.0 -0.179646349
C  C81  1  0.42100000  0.49170000  0.96888000  1.0 -0.179646349
C  C82  1  0.36830000  0.30240000  0.03005000  1.0 0.0924083911
C  C83  1  0.69760000  0.06590000  0.69672000  1.0 0.0924083911
C  C84  1  0.93410000  0.63170000  0.36338000  1.0 0.0924083911
C  C85  1  0.06590000  0.69760000  0.30328000  1.0 0.0924083911
C  C86  1  0.63170000  0.93410000  0.63662000  1.0 0.0924083911
C  C87  1  0.30240000  0.36830000  0.96995000  1.0 0.0924083911
C  C88  1  0.02150000  0.69880000  0.86958000  1.0 0.0989095951
C  C89  1  0.30120000  0.32270000  0.53625000  1.0 0.0989095951
C  C90  1  0.67730000  0.97850000  0.20291000  1.0 0.0989095951
C  C91  1  0.32270000  0.30120000  0.46375000  1.0 0.0989095951
C  C92  1  0.97850000  0.67730000  0.79709000  1.0 0.0989095951
C  C93  1  0.69880000  0.02150000  0.13042000  1.0 0.0989095951
C  C94  1  0.61780000  0.26180000  0.94675000  1.0 -0.0840395244
C  C95  1  0.73820000  0.35600000  0.61342000  1.0 -0.0840395244
C  C96  1  0.64400000  0.38220000  0.28008000  1.0 -0.0840395244
C  C97  1  0.35600000  0.73820000  0.38658000  1.0 -0.0840395244
C  C98  1  0.38220000  0.64400000  0.71992000  1.0 -0.0840395244
C  C99  1  0.26180000  0.61780000  0.05325000  1.0 -0.0840395244
C  C100  1  0.64920000  0.64920000  0.00000000  1.0 0.0989095951
C  C101  1  0.35080000  0.00000000  0.66666667  1.0 0.0989095951
C  C102  1  0.00000000  0.35080000  0.33333333  1.0 0.0989095951
S  S1  1  0.27906000  0.94652000  0.99704000  1.0 1.1682998263
S  S2  1  0.05348000  0.33254000  0.66371000  1.0 1.1682998263
S  S3  1  0.66746000  0.72094000  0.33037000  1.0 1.1682998263
S  S4  1  0.33254000  0.05348000  0.33629000  1.0 1.1682998263
S  S5  1  0.72094000  0.66746000  0.66963000  1.0 1.1682998263
S  S6  1  0.94652000  0.27906000  0.00296000  1.0 1.1682998263
N  N1  1  0.89440000  0.89440000  0.00000000  1.0 -0.2155623215
N  N2  1  0.10560000  0.00000000  0.66666667  1.0 -0.2155623215
N  N3  1  0.00000000  0.10560000  0.33333333  1.0 -0.2155623215
N  N4  1  0.00000000  0.12620000  0.83333000  1.0 -0.2527372665
N  N5  1  0.87380000  0.87380000  0.50000000  1.0 -0.2527372665
N  N6  1  0.12620000  0.00000000  0.16667000  1.0 -0.2527372665
N  N7  1  0.27410000  0.27410000  0.00000000  1.0 -0.2601562716
N  N8  1  0.72590000  0.00000000  0.66666667  1.0 -0.2601562716
N  N9  1  0.00000000  0.72590000  0.33333333  1.0 -0.2601562716
N  N10  1  0.00000000  0.74780000  0.83333000  1.0 -0.2379888323
N  N11  1  0.25220000  0.25220000  0.50000000  1.0 -0.2379888323
N  N12  1  0.74780000  0.00000000  0.16667000  1.0 -0.2379888323
O  O1  1  0.10440000  0.03640000  0.93672000  1.0 -0.5801275647
O  O2  1  0.96360000  0.06800000  0.60339000  1.0 -0.5801275647
O  O3  1  0.93200000  0.89560000  0.27005000  1.0 -0.5801275647
O  O4  1  0.06800000  0.96360000  0.39661000  1.0 -0.5801275647
O  O5  1  0.89560000  0.93200000  0.72995000  1.0 -0.5801275647
O  O6  1  0.03640000  0.10440000  0.06328000  1.0 -0.5801275647
O  O7  1  0.19420000  0.98940000  0.02097000  1.0 -0.6555351294
O  O8  1  0.01060000  0.20480000  0.68764000  1.0 -0.6549825944
O  O9  1  0.79520000  0.80580000  0.35430000  1.0 -0.6549825944
O  O10  1  0.20480000  0.01060000  0.31236000  1.0 -0.6549825944
O  O11  1  0.80580000  0.79520000  0.64570000  1.0 -0.6555351294
O  O12  1  0.98940000  0.19420000  0.97903000  1.0 -0.6555351294
O  O13  1  0.36770000  0.92900000  0.02686000  1.0 -0.6134887216
O  O14  1  0.07100000  0.43870000  0.69353000  1.0 -0.6134887216
O  O15  1  0.56130000  0.63230000  0.36019000  1.0 -0.6134887216
O  O16  1  0.43870000  0.07100000  0.30647000  1.0 -0.6134887216
O  O17  1  0.63230000  0.56130000  0.63981000  1.0 -0.6134887216
O  O18  1  0.92900000  0.36770000  0.97314000  1.0 -0.6134887216
O  O19  1  0.17440000  0.01820000  0.87134000  1.0 -0.5310958402
O  O20  1  0.98180000  0.15620000  0.53801000  1.0 -0.5310958402
O  O21  1  0.84380000  0.82560000  0.20467000  1.0 -0.5310958402
O  O22  1  0.15620000  0.98180000  0.46199000  1.0 -0.5310958402
O  O23  1  0.82560000  0.84380000  0.79533000  1.0 -0.5310958402
O  O24  1  0.01820000  0.17440000  0.12866000  1.0 -0.5310958402
O  O25  1  0.19980000  0.83280000  0.96852000  1.0 -0.5921661036
O  O26  1  0.16720000  0.36700000  0.63519000  1.0 -0.5921661036
O  O27  1  0.63300000  0.80020000  0.30185000  1.0 -0.5921661036
O  O28  1  0.36700000  0.16720000  0.36481000  1.0 -0.5921661036
O  O29  1  0.80020000  0.63300000  0.69815000  1.0 -0.5921661036
O  O30  1  0.83280000  0.19980000  0.03148000  1.0 -0.5921661036
