# DDEC6 charges by PACMAN v1.1 (https://github.com/mtap-research/PACMAN-charge/)
data_PENDIY_ASR_pacman
_symmetry_space_group_name_H-M   'P 1'
_cell_length_a   22.24880000
_cell_length_b   19.61520000
_cell_length_c   16.39950000
_cell_angle_alpha   75.72020000
_cell_angle_beta   58.69220000
_cell_angle_gamma   45.58760000
_symmetry_Int_Tables_number   1
_chemical_formula_structural   CdH21C27N7O
_chemical_formula_sum   'Cd4 H84 C108 N28 O4'
_cell_volume   4286.95470833
_cell_formula_units_Z   4
loop_
 _symmetry_equiv_pos_site_id
 _symmetry_equiv_pos_as_xyz
  1  'x, y, z'
loop_
 _atom_site_type_symbol
 _atom_site_label
 _atom_site_symmetry_multiplicity
 _atom_site_fract_x
 _atom_site_fract_y
 _atom_site_fract_z
 _atom_site_occupancy
 _atom_site_charge
Cd  Cd1  1  0.10378000  0.79632000  0.84002000  1.0 0.7426953335
Cd  Cd2  1  0.25988000  0.84002000  0.79632000  1.0 0.7426953335
Cd  Cd3  1  0.45368000  0.14622000  0.99012000  1.0 0.7426953335
Cd  Cd4  1  0.40998000  0.99012000  0.14622000  1.0 0.7426953335
H  H1  1  0.64610000  0.25010000  0.40630000  1.0 0.1192568114
H  H2  1  0.48060000  0.39940000  0.47060000  1.0 0.1192568114
H  H3  1  0.48600000  0.44380000  0.68640000  1.0 0.1192568114
H  H4  1  0.64960000  0.28500000  0.63020000  1.0 0.1192568114
H  H5  1  0.34200000  0.54280000  0.51340000  1.0 0.1117040471
H  H6  1  0.18180000  0.70160000  0.61900000  1.0 0.1192568114
H  H7  1  0.34270000  0.57490000  0.73950000  1.0 0.1117040471
H  H8  1  0.68360000  0.12320000  0.63700000  1.0 0.1192568114
H  H9  1  0.74460000  0.03560000  0.74260000  1.0 0.1192568114
H  H10  1  0.98570000  0.97510000  0.55230000  1.0 0.1192568114
H  H11  1  0.92600000  0.06600000  0.45800000  1.0 0.1306364183
H  H12  1  0.85420000  0.87900000  0.77460000  1.0 0.1192568114
H  H13  1  0.94950000  0.78810000  0.85250000  1.0 0.1192568114
H  H14  1  0.99970000  0.94490000  0.69810000  1.0 0.1192568114
H  H15  1  0.79010000  0.26070000  0.35930000  1.0 0.1192568114
H  H16  1  0.88620000  0.22140000  0.18060000  1.0 0.1117040471
H  H17  1  0.97260000  0.96200000  0.18880000  1.0 0.1117040471
H  H18  1  0.90490000  0.99870000  0.36250000  1.0 0.1306364183
H  H19  1  0.99630000  0.17770000  0.02470000  1.0 0.1306364183
H  H20  1  0.08820000  0.08540000  0.86220000  1.0 0.1192568114
H  H21  1  0.09960000  0.91020000  0.03360000  1.0 0.1117040471
H  H22  1  0.69750000  0.40630000  0.25010000  1.0 0.1192568114
H  H23  1  0.64940000  0.47060000  0.39940000  1.0 0.1192568114
H  H24  1  0.38380000  0.68640000  0.44380000  1.0 0.1192568114
H  H25  1  0.43520000  0.63020000  0.28500000  1.0 0.1192568114
H  H26  1  0.60180000  0.51340000  0.54280000  1.0 0.1117040471
H  H27  1  0.49760000  0.61900000  0.70160000  1.0 0.1192568114
H  H28  1  0.34290000  0.73950000  0.57490000  1.0 0.1117040471
H  H29  1  0.55620000  0.63700000  0.12320000  1.0 0.1192568114
H  H30  1  0.47720000  0.74260000  0.03560000  1.0 0.1192568114
H  H31  1  0.48690000  0.55230000  0.97510000  1.0 0.1192568114
H  H32  1  0.55000000  0.45800000  0.06600000  1.0 0.1306364183
H  H33  1  0.49220000  0.77460000  0.87900000  1.0 0.1192568114
H  H34  1  0.40990000  0.85250000  0.78810000  1.0 0.1192568114
H  H35  1  0.35730000  0.69810000  0.94490000  1.0 0.1192568114
H  H36  1  0.58990000  0.35930000  0.26070000  1.0 0.1192568114
H  H37  1  0.71180000  0.18060000  0.22140000  1.0 0.1117040471
H  H38  1  0.87660000  0.18880000  0.96200000  1.0 0.1117040471
H  H39  1  0.73390000  0.36250000  0.99870000  1.0 0.1306364183
H  H40  1  0.80130000  0.02470000  0.17770000  1.0 0.1306364183
H  H41  1  0.96420000  0.86220000  0.08540000  1.0 0.1192568114
H  H42  1  0.95660000  0.03360000  0.91020000  1.0 0.1117040471
H  H43  1  0.99990000  0.60390000  0.55250000  1.0 0.1192568114
H  H44  1  0.85060000  0.76940000  0.60060000  1.0 0.1192568114
H  H45  1  0.80620000  0.76400000  0.86620000  1.0 0.1192568114
H  H46  1  0.96500000  0.60040000  0.81480000  1.0 0.1192568114
H  H47  1  0.70720000  0.90800000  0.64820000  1.0 0.1117040471
H  H48  1  0.54840000  0.06820000  0.75240000  1.0 0.1192568114
H  H49  1  0.67510000  0.90730000  0.90710000  1.0 0.1117040471
H  H50  1  0.12680000  0.56640000  0.69380000  1.0 0.1192568114
H  H51  1  0.21440000  0.50540000  0.77280000  1.0 0.1192568114
H  H52  1  0.27490000  0.26430000  0.76310000  1.0 0.1192568114
H  H53  1  0.18400000  0.32400000  0.70000000  1.0 0.1306364183
H  H54  1  0.37100000  0.39580000  0.75780000  1.0 0.1192568114
H  H55  1  0.46190000  0.30050000  0.84010000  1.0 0.1192568114
H  H56  1  0.30510000  0.25030000  0.89270000  1.0 0.1192568114
H  H57  1  0.98930000  0.45990000  0.66010000  1.0 0.1192568114
H  H58  1  0.02860000  0.36380000  0.53820000  1.0 0.1117040471
H  H59  1  0.28800000  0.27740000  0.37340000  1.0 0.1117040471
H  H60  1  0.25130000  0.34510000  0.51610000  1.0 0.1306364183
H  H61  1  0.07230000  0.25370000  0.44870000  1.0 0.1306364183
H  H62  1  0.16460000  0.16180000  0.28580000  1.0 0.1192568114
H  H63  1  0.33980000  0.15040000  0.29340000  1.0 0.1117040471
H  H64  1  0.84370000  0.55250000  0.60390000  1.0 0.1192568114
H  H65  1  0.77940000  0.60060000  0.76940000  1.0 0.1192568114
H  H66  1  0.56360000  0.86620000  0.76400000  1.0 0.1192568114
H  H67  1  0.61980000  0.81480000  0.60040000  1.0 0.1192568114
H  H68  1  0.73660000  0.64820000  0.90800000  1.0 0.1117040471
H  H69  1  0.63100000  0.75240000  0.06820000  1.0 0.1192568114
H  H70  1  0.51050000  0.90710000  0.90730000  1.0 0.1117040471
H  H71  1  0.61300000  0.69380000  0.56640000  1.0 0.1192568114
H  H72  1  0.50740000  0.77280000  0.50540000  1.0 0.1192568114
H  H73  1  0.69770000  0.76310000  0.26430000  1.0 0.1192568114
H  H74  1  0.79200000  0.70000000  0.32400000  1.0 0.1306364183
H  H75  1  0.47540000  0.75780000  0.39580000  1.0 0.1192568114
H  H76  1  0.39750000  0.84010000  0.30050000  1.0 0.1192568114
H  H77  1  0.55190000  0.89270000  0.25030000  1.0 0.1192568114
H  H78  1  0.89070000  0.66010000  0.45990000  1.0 0.1192568114
H  H79  1  0.06940000  0.53820000  0.36380000  1.0 0.1117040471
H  H80  1  0.06120000  0.37340000  0.27740000  1.0 0.1117040471
H  H81  1  0.88750000  0.51610000  0.34510000  1.0 0.1306364183
H  H82  1  0.22530000  0.44870000  0.25370000  1.0 0.1306364183
H  H83  1  0.38780000  0.28580000  0.16180000  1.0 0.1192568114
H  H84  1  0.21640000  0.29340000  0.15040000  1.0 0.1117040471
C  C1  1  0.65920000  0.25680000  0.50940000  1.0 0.1597292051
C  C2  1  0.61400000  0.28740000  0.46460000  1.0 -0.1622511688
C  C3  1  0.51440000  0.37860000  0.50200000  1.0 -0.2006304959
C  C4  1  0.47210000  0.43210000  0.58333000  1.0 0.1306364183
C  C5  1  0.51760000  0.40340000  0.63080000  1.0 -0.2006304959
C  C6  1  0.61700000  0.30880000  0.59660000  1.0 -0.2006304959
C  C7  1  0.32250000  0.56770000  0.57250000  1.0 -0.0938422363
C  C8  1  0.23250000  0.65710000  0.63230000  1.0 -0.0704423915
C  C9  1  0.32000000  0.58760000  0.69840000  1.0 0.0636785571
C  C10  1  0.80150000  0.10290000  0.53090000  1.0 0.1597292051
C  C11  1  0.74550000  0.09310000  0.61990000  1.0 -0.2006304959
C  C12  1  0.78300000  0.03820000  0.68260000  1.0 -0.1622511688
C  C13  1  0.87150000  0.99150000  0.65590000  1.0 0.092524441
C  C14  1  0.92370000  0.00510000  0.56990000  1.0 -0.1622511688
C  C15  1  0.88840000  0.05840000  0.51360000  1.0 -0.1424037944
C  C16  1  0.89840000  0.87960000  0.76640000  1.0 -0.0704423915
C  C17  1  0.94850000  0.83070000  0.81130000  1.0 -0.0704423915
C  C18  1  0.97680000  0.91480000  0.72560000  1.0 0.0799624119
C  C19  1  0.82260000  0.13900000  0.37160000  1.0 0.1483541895
C  C20  1  0.82610000  0.20110000  0.32550000  1.0 -0.2006304959
C  C21  1  0.88930000  0.17510000  0.21630000  1.0 -0.1622511688
C  C22  1  0.94680000  0.08860000  0.17440000  1.0 0.1483541895
C  C23  1  0.94400000  0.01840000  0.22120000  1.0 -0.1833928953
C  C24  1  0.89080000  0.04700000  0.32540000  1.0 -0.2006304959
C  C25  1  0.02510000  0.11530000  0.00870000  1.0 -0.1736421566
C  C26  1  0.08430000  0.06030000  0.91870000  1.0 0.020424861
C  C27  1  0.08610000  0.96630000  0.01390000  1.0 -0.0066195115
C  C28  1  0.57460000  0.50940000  0.25680000  1.0 0.1597292051
C  C29  1  0.63400000  0.46460000  0.28740000  1.0 -0.1622511688
C  C30  1  0.60500000  0.50200000  0.37860000  1.0 -0.2006304959
C  C31  1  0.51247000  0.58333000  0.43210000  1.0 0.1306364183
C  C32  1  0.44820000  0.63080000  0.40340000  1.0 -0.2006304959
C  C33  1  0.47760000  0.59660000  0.30880000  1.0 -0.2006304959
C  C34  1  0.53730000  0.57250000  0.56770000  1.0 -0.0938422363
C  C35  1  0.47810000  0.63230000  0.65710000  1.0 -0.0704423915
C  C36  1  0.39400000  0.69840000  0.58760000  1.0 0.0636785571
C  C37  1  0.56470000  0.53090000  0.10290000  1.0 0.1597292051
C  C38  1  0.54150000  0.61990000  0.09310000  1.0 -0.2006304959
C  C39  1  0.49620000  0.68260000  0.03820000  1.0 -0.1622511688
C  C40  1  0.48110000  0.65590000  0.99150000  1.0 0.092524441
C  C41  1  0.50130000  0.56990000  0.00510000  1.0 -0.1622511688
C  C42  1  0.53960000  0.51360000  0.05840000  1.0 -0.1424037944
C  C43  1  0.45560000  0.76640000  0.87960000  1.0 -0.0704423915
C  C44  1  0.40950000  0.81130000  0.83070000  1.0 -0.0704423915
C  C45  1  0.38280000  0.72560000  0.91480000  1.0 0.0799624119
C  C46  1  0.66680000  0.37160000  0.13900000  1.0 0.1483541895
C  C47  1  0.64730000  0.32550000  0.20110000  1.0 -0.2006304959
C  C48  1  0.71930000  0.21630000  0.17510000  1.0 -0.1622511688
C  C49  1  0.79020000  0.17440000  0.08860000  1.0 0.1483541895
C  C50  1  0.81640000  0.22120000  0.01840000  1.0 -0.1833928953
C  C51  1  0.73680000  0.32540000  0.04700000  1.0 -0.2006304959
C  C52  1  0.85090000  0.00870000  0.11530000  1.0 -0.1736421566
C  C53  1  0.93670000  0.91870000  0.06030000  1.0 0.0250999984
C  C54  1  0.93370000  0.01390000  0.96630000  1.0 -0.0066195115
C  C55  1  0.99320000  0.59080000  0.67540000  1.0 0.1597292051
C  C56  1  0.96260000  0.63600000  0.61600000  1.0 -0.1622511688
C  C57  1  0.87140000  0.73560000  0.64500000  1.0 -0.2006304959
C  C58  1  0.81790000  0.77790000  0.73753000  1.0 0.1306364183
C  C59  1  0.84660000  0.73240000  0.80180000  1.0 -0.2006304959
C  C60  1  0.94120000  0.63300000  0.77240000  1.0 -0.2006304959
C  C61  1  0.68230000  0.92750000  0.71270000  1.0 -0.0938422363
C  C62  1  0.59290000  0.01750000  0.77190000  1.0 -0.0704423915
C  C63  1  0.66240000  0.93000000  0.85600000  1.0 0.0636785571
C  C64  1  0.14710000  0.44850000  0.68530000  1.0 0.1597292051
C  C65  1  0.15690000  0.50450000  0.70850000  1.0 -0.2006304959
C  C66  1  0.21180000  0.46700000  0.75380000  1.0 -0.1622511688
C  C67  1  0.25850000  0.37850000  0.76890000  1.0 0.092524441
C  C68  1  0.24490000  0.32630000  0.74870000  1.0 -0.1622511688
C  C69  1  0.19160000  0.36160000  0.71040000  1.0 -0.1424037944
C  C70  1  0.37040000  0.35160000  0.79440000  1.0 -0.0704423915
C  C71  1  0.41930000  0.30150000  0.84050000  1.0 -0.0704423915
C  C72  1  0.33520000  0.27320000  0.86720000  1.0 0.0799624119
C  C73  1  0.11100000  0.42740000  0.58320000  1.0 0.1483541895
C  C74  1  0.04890000  0.42390000  0.60270000  1.0 -0.2006304959
C  C75  1  0.07490000  0.36070000  0.53070000  1.0 -0.1622511688
C  C76  1  0.16140000  0.30320000  0.45980000  1.0 0.1483541895
C  C77  1  0.23160000  0.30600000  0.43360000  1.0 -0.1833928953
C  C78  1  0.20300000  0.35920000  0.51320000  1.0 -0.2006304959
C  C79  1  0.13470000  0.22490000  0.39910000  1.0 -0.1736421566
C  C80  1  0.18970000  0.16570000  0.31330000  1.0 0.020424861
C  C81  1  0.28370000  0.16390000  0.31630000  1.0 -0.0066195115
C  C82  1  0.74060000  0.67540000  0.59080000  1.0 0.1597292051
C  C83  1  0.78540000  0.61600000  0.63600000  1.0 -0.1622511688
C  C84  1  0.74800000  0.64500000  0.73560000  1.0 -0.2006304959
C  C85  1  0.66666667  0.73753000  0.77790000  1.0 0.1306364183
C  C86  1  0.61920000  0.80180000  0.73240000  1.0 -0.2006304959
C  C87  1  0.65340000  0.77240000  0.63300000  1.0 -0.2006304959
C  C88  1  0.67750000  0.71270000  0.92750000  1.0 -0.0938422363
C  C89  1  0.61770000  0.77190000  0.01750000  1.0 -0.0704423915
C  C90  1  0.55160000  0.85600000  0.93000000  1.0 0.0636785571
C  C91  1  0.71910000  0.68530000  0.44850000  1.0 0.1597292051
C  C92  1  0.63010000  0.70850000  0.50450000  1.0 -0.2006304959
C  C93  1  0.56740000  0.75380000  0.46700000  1.0 -0.1622511688
C  C94  1  0.59410000  0.76890000  0.37850000  1.0 0.092524441
C  C95  1  0.68010000  0.74870000  0.32630000  1.0 -0.1622511688
C  C96  1  0.73640000  0.71040000  0.36160000  1.0 -0.1424037944
C  C97  1  0.48360000  0.79440000  0.35160000  1.0 -0.0704423915
C  C98  1  0.43870000  0.84050000  0.30150000  1.0 -0.0704423915
C  C99  1  0.52440000  0.86720000  0.27320000  1.0 0.0799624119
C  C100  1  0.87840000  0.58320000  0.42740000  1.0 0.1483541895
C  C101  1  0.92450000  0.60270000  0.42390000  1.0 -0.2006304959
C  C102  1  0.03370000  0.53070000  0.36070000  1.0 -0.1622511688
C  C103  1  0.07560000  0.45980000  0.30320000  1.0 0.1483541895
C  C104  1  0.02880000  0.43360000  0.30600000  1.0 -0.1833928953
C  C105  1  0.92460000  0.51320000  0.35920000  1.0 -0.2006304959
C  C106  1  0.24130000  0.39910000  0.22490000  1.0 -0.1736421566
C  C107  1  0.33130000  0.31330000  0.16570000  1.0 0.020424861
C  C108  1  0.23610000  0.31630000  0.16390000  1.0 -0.0066195115
N  N1  1  0.76030000  0.16070000  0.47350000  1.0 -0.1906839292
N  N2  1  0.22850000  0.67130000  0.71630000  1.0 -0.2973374705
N  N3  1  0.37550000  0.52430000  0.61570000  1.0 -0.0045573207
N  N4  1  0.99900000  0.85380000  0.78340000  1.0 -0.2426096797
N  N5  1  0.91560000  0.92760000  0.71160000  1.0 0.020424861
N  N6  1  0.13090000  0.97550000  0.92090000  1.0 -0.2426096797
N  N7  1  0.01790000  0.05490000  0.07170000  1.0 0.0080843699
N  N8  1  0.60550000  0.47350000  0.16070000  1.0 -0.1906839292
N  N9  1  0.38390000  0.71630000  0.67130000  1.0 -0.2973374705
N  N10  1  0.48450000  0.61570000  0.52430000  1.0 -0.0045573207
N  N11  1  0.36380000  0.78340000  0.85380000  1.0 -0.2426096797
N  N12  1  0.44520000  0.71160000  0.92760000  1.0 0.020424861
N  N13  1  0.97270000  0.92090000  0.97550000  1.0 -0.2426096797
N  N14  1  0.85550000  0.07170000  0.05490000  1.0 0.0080843699
N  N15  1  0.08930000  0.48970000  0.64450000  1.0 -0.1906839292
N  N16  1  0.57870000  0.02150000  0.86610000  1.0 -0.2973374705
N  N17  1  0.72570000  0.87450000  0.76550000  1.0 -0.0045573207
N  N18  1  0.39620000  0.25100000  0.88620000  1.0 -0.2426096797
N  N19  1  0.32240000  0.33440000  0.80480000  1.0 0.020424861
N  N20  1  0.27450000  0.11910000  0.27730000  1.0 -0.2426096797
N  N21  1  0.19510000  0.23210000  0.39450000  1.0 0.0080843699
N  N22  1  0.77650000  0.64450000  0.48970000  1.0 -0.1906839292
N  N23  1  0.53370000  0.86610000  0.02150000  1.0 -0.2973374705
N  N24  1  0.63430000  0.76550000  0.87450000  1.0 -0.0045573207
N  N25  1  0.46660000  0.88620000  0.25100000  1.0 -0.2426096797
N  N26  1  0.53840000  0.80480000  0.33440000  1.0 0.020424861
N  N27  1  0.32910000  0.27730000  0.11910000  1.0 -0.2426096797
N  N28  1  0.17830000  0.39450000  0.23210000  1.0 0.0080843699
O  O1  1  0.22066000  0.73584000  0.90116000  1.0 -0.6367576401
O  O2  1  0.14234000  0.90116000  0.73584000  1.0 -0.6367576401
O  O3  1  0.51416000  0.02934000  0.10766000  1.0 -0.6326850932
O  O4  1  0.34884000  0.10766000  0.02934000  1.0 -0.6326850932
