# DDEC6 charges by PACMAN v1.1 (https://github.com/mtap-research/PACMAN-charge/)
data_PENNUT_FSR_pacman
_symmetry_space_group_name_H-M   'P 1'
_cell_length_a   11.72700000
_cell_length_b   13.45100000
_cell_length_c   16.03020000
_cell_angle_alpha   63.02280000
_cell_angle_beta   70.40510000
_cell_angle_gamma   77.03000000
_symmetry_Int_Tables_number   1
_chemical_formula_structural   Zn3H20C31(NO8)2
_chemical_formula_sum   'Zn6 H40 C62 N4 O32'
_cell_volume   2115.06590295
_cell_formula_units_Z   2
loop_
 _symmetry_equiv_pos_site_id
 _symmetry_equiv_pos_as_xyz
  1  'x, y, z'
loop_
 _atom_site_type_symbol
 _atom_site_label
 _atom_site_symmetry_multiplicity
 _atom_site_fract_x
 _atom_site_fract_y
 _atom_site_fract_z
 _atom_site_occupancy
 _atom_site_charge
Zn  Zn1  1  0.65136000  0.69281000  0.65291000  1.0 1.006941999
Zn  Zn2  1  0.34864000  0.30719000  0.34709000  1.0 1.006941999
Zn  Zn3  1  0.51958000  0.49895000  0.30940000  1.0 0.804882432
Zn  Zn4  1  0.48042000  0.50105000  0.69060000  1.0 0.804882432
Zn  Zn5  1  0.92343000  0.73223000  0.68807000  1.0 0.8502218375
Zn  Zn6  1  0.07657000  0.26777000  0.31193000  1.0 0.8502218375
H  H1  1  0.89680000  0.63360000  0.37210000  1.0 0.1281310078
H  H2  1  0.10320000  0.36640000  0.62790000  1.0 0.1281310078
H  H3  1  0.09980000  0.55020000  0.29870000  1.0 0.1410966773
H  H4  1  0.90020000  0.44980000  0.70130000  1.0 0.1410966773
H  H5  1  0.44880000  0.69600000  0.95330000  1.0 0.1410966773
H  H6  1  0.55120000  0.30400000  0.04670000  1.0 0.1410966773
H  H7  1  0.33740000  0.59890000  0.13100000  1.0 0.1493981729
H  H8  1  0.66260000  0.40110000  0.86900000  1.0 0.1493981729
H  H9  1  0.81090000  0.08910000  0.63750000  1.0 0.1410966773
H  H10  1  0.18910000  0.91090000  0.36250000  1.0 0.1410966773
H  H11  1  0.73260000  0.28050000  0.53270000  1.0 0.1410966773
H  H12  1  0.26740000  0.71950000  0.46730000  1.0 0.1410966773
H  H13  1  0.98940000  0.03820000  0.41200000  1.0 0.1176438537
H  H14  1  0.01060000  0.96180000  0.58800000  1.0 0.1176438537
H  H15  1  0.83770000  0.94530000  0.42920000  1.0 0.1410966773
H  H16  1  0.16230000  0.05470000  0.57080000  1.0 0.1410966773
H  H17  1  0.87290000  0.31280000  0.21940000  1.0 0.1176438537
H  H18  1  0.12710000  0.68720000  0.78060000  1.0 0.1176438537
H  H19  1  0.71500000  0.22610000  0.23510000  1.0 0.1410966773
H  H20  1  0.28500000  0.77390000  0.76490000  1.0 0.1410966773
H  H21  1  0.65340000  0.94120000  0.40310000  1.0 0.1281310078
H  H22  1  0.34660000  0.05880000  0.59690000  1.0 0.1281310078
H  H23  1  0.57350000  0.05570000  0.37630000  1.0 0.1410966773
H  H24  1  0.42650000  0.94430000  0.62370000  1.0 0.1410966773
H  H25  1  0.65040000  0.08340000  0.21190000  1.0 0.1015822055
H  H26  1  0.34960000  0.91660000  0.78810000  1.0 0.1015822055
H  H27  1  0.56430000  0.98690000  0.27660000  1.0 0.1015822055
H  H28  1  0.43570000  0.01310000  0.72340000  1.0 0.1015822055
H  H29  1  0.80130000  0.90840000  0.26650000  1.0 0.1176438537
H  H30  1  0.19870000  0.09160000  0.73350000  1.0 0.1176438537
H  H31  1  0.77780000  0.96750000  0.16340000  1.0 0.110444077
H  H32  1  0.22220000  0.03250000  0.83660000  1.0 0.110444077
H  H33  1  0.67410000  0.87540000  0.11840000  1.0 0.1410966773
H  H34  1  0.32590000  0.12460000  0.88160000  1.0 0.1410966773
H  H35  1  0.67970000  0.74010000  0.39260000  1.0 0.1493981729
H  H36  1  0.32030000  0.25990000  0.60740000  1.0 0.1493981729
H  H37  1  0.59900000  0.58500000  0.41690000  1.0 0.1281310078
H  H38  1  0.40100000  0.41500000  0.58310000  1.0 0.1281310078
H  H39  1  0.59690000  0.71880000  0.14550000  1.0 0.1281310078
H  H40  1  0.40310000  0.28120000  0.85450000  1.0 0.1176438537
C  C1  1  0.90630000  0.70240000  0.51840000  1.0 0.5504814187
C  C2  1  0.09370000  0.29760000  0.48160000  1.0 0.5504814187
C  C3  1  0.98650000  0.65390000  0.44990000  1.0 0.067637365
C  C4  1  0.01350000  0.34610000  0.55010000  1.0 0.067637365
C  C5  1  0.96960000  0.62490000  0.38690000  1.0 -0.1794967304
C  C6  1  0.03040000  0.37510000  0.61310000  1.0 -0.1794967304
C  C7  1  0.08370000  0.57760000  0.34570000  1.0 -0.1712787052
C  C8  1  0.91630000  0.42240000  0.65430000  1.0 -0.1712787052
C  C9  1  0.16250000  0.58080000  0.38810000  1.0 0.0936229849
C  C10  1  0.83750000  0.41920000  0.61190000  1.0 0.0936229849
C  C11  1  0.29180000  0.53920000  0.38280000  1.0 0.5282613436
C  C12  1  0.70820000  0.46080000  0.61720000  1.0 0.5282613436
C  C13  1  0.44040000  0.58440000  0.83550000  1.0 0.5566466699
C  C14  1  0.55960000  0.41560000  0.16450000  1.0 0.5566466699
C  C15  1  0.38890000  0.57710000  0.93560000  1.0 0.067637365
C  C16  1  0.61110000  0.42290000  0.06440000  1.0 0.067637365
C  C17  1  0.40520000  0.63350000  0.98150000  1.0 -0.1794967304
C  C18  1  0.59480000  0.36650000  0.01850000  1.0 -0.1794967304
C  C19  1  0.34300000  0.57890000  0.08120000  1.0 -0.1627171338
C  C20  1  0.65700000  0.42110000  0.91880000  1.0 -0.1627171338
C  C21  1  0.29320000  0.49150000  0.08970000  1.0 0.0752883988
C  C22  1  0.70680000  0.50850000  0.91030000  1.0 0.0752883988
C  C23  1  0.21780000  0.40680000  0.17180000  1.0 0.5282613436
C  C24  1  0.78220000  0.59320000  0.82820000  1.0 0.5282613436
C  C25  1  0.71580000  0.90710000  0.63990000  1.0 0.5504814187
C  C26  1  0.28420000  0.09290000  0.36010000  1.0 0.5504814187
C  C27  1  0.69560000  0.02980000  0.60220000  1.0 0.0600556588
C  C28  1  0.30440000  0.97020000  0.39780000  1.0 0.0600556588
C  C29  1  0.75330000  0.10500000  0.60400000  1.0 -0.1794967304
C  C30  1  0.24670000  0.89500000  0.39600000  1.0 -0.1794967304
C  C31  1  0.70930000  0.21230000  0.54540000  1.0 -0.1627171338
C  C32  1  0.29070000  0.78770000  0.45460000  1.0 -0.1712787052
C  C33  1  0.62590000  0.19640000  0.51110000  1.0 0.0600556588
C  C34  1  0.37410000  0.80360000  0.48890000  1.0 0.0600556588
C  C35  1  0.55400000  0.27770000  0.44520000  1.0 0.5422245512
C  C36  1  0.44600000  0.72230000  0.55480000  1.0 0.5422245512
C  C37  1  0.93300000  0.07720000  0.37640000  1.0 0.067637365
C  C38  1  0.06700000  0.92280000  0.62360000  1.0 0.067637365
C  C39  1  0.84150000  0.02060000  0.38730000  1.0 -0.1970522603
C  C40  1  0.15850000  0.97940000  0.61270000  1.0 -0.1970522603
C  C41  1  0.75420000  0.07520000  0.33600000  1.0 0.1817373881
C  C42  1  0.24580000  0.92480000  0.66400000  1.0 0.1817373881
C  C43  1  0.86480000  0.23860000  0.26380000  1.0 0.0936229849
C  C44  1  0.13520000  0.76140000  0.73620000  1.0 0.0936229849
C  C45  1  0.76940000  0.18610000  0.27250000  1.0 -0.1970522603
C  C46  1  0.23060000  0.81390000  0.72750000  1.0 -0.1970522603
C  C47  1  0.64830000  0.01630000  0.35290000  1.0 -0.2399488663
C  C48  1  0.35170000  0.98370000  0.64710000  1.0 -0.2399488663
C  C49  1  0.64330000  0.00930000  0.26460000  1.0 -0.1312424293
C  C50  1  0.35670000  0.99070000  0.73540000  1.0 -0.1312424293
C  C51  1  0.73950000  0.92960000  0.23230000  1.0 -0.2281417487
C  C52  1  0.26050000  0.07040000  0.76770000  1.0 -0.2281417487
C  C53  1  0.69010000  0.82570000  0.25040000  1.0 0.1658236036
C  C54  1  0.30990000  0.17430000  0.74960000  1.0 0.1658236036
C  C55  1  0.66140000  0.81680000  0.17990000  1.0 -0.1935539109
C  C56  1  0.33860000  0.18320000  0.82010000  1.0 -0.1935539109
C  C57  1  0.66400000  0.73720000  0.34070000  1.0 -0.1935539109
C  C58  1  0.33600000  0.26280000  0.65930000  1.0 -0.1935539109
C  C59  1  0.61460000  0.64350000  0.35540000  1.0 0.110444077
C  C60  1  0.38540000  0.35650000  0.64460000  1.0 0.110444077
C  C61  1  0.61340000  0.72240000  0.19690000  1.0 0.067637365
C  C62  1  0.38660000  0.27760000  0.80310000  1.0 0.067637365
N  N1  1  0.94600000  0.18730000  0.31640000  1.0 -0.2399488663
N  N2  1  0.05400000  0.81270000  0.68360000  1.0 -0.2399488663
N  N3  1  0.58930000  0.63550000  0.28440000  1.0 -0.2281417487
N  N4  1  0.41070000  0.36450000  0.71560000  1.0 -0.2281417487
O  O1  1  0.79310000  0.69850000  0.53540000  1.0 -0.5432091107
O  O2  1  0.20690000  0.30150000  0.46460000  1.0 -0.5432091107
O  O3  1  0.06350000  0.57970000  0.69620000  1.0 -0.1105021773
O  O4  1  0.93650000  0.42030000  0.30380000  1.0 -0.1105021773
O  O5  1  0.95430000  0.74250000  0.55340000  1.0 -0.5014994095
O  O6  1  0.04570000  0.25750000  0.44660000  1.0 -0.5014994095
O  O7  1  0.10660000  0.62950000  0.45240000  1.0 -0.0994032821
O  O8  1  0.89340000  0.37050000  0.54760000  1.0 -0.0994032821
O  O9  1  0.34670000  0.50040000  0.31790000  1.0 -0.5609677186
O  O10  1  0.65330000  0.49960000  0.68210000  1.0 -0.5609677186
O  O11  1  0.34220000  0.54690000  0.43510000  1.0 -0.4937943469
O  O12  1  0.65780000  0.45310000  0.56490000  1.0 -0.4937943469
O  O13  1  0.40700000  0.51580000  0.81660000  1.0 -0.519191598
O  O14  1  0.59300000  0.48420000  0.18340000  1.0 -0.519191598
O  O15  1  0.51340000  0.65780000  0.77900000  1.0 -0.5295604964
O  O16  1  0.48660000  0.34220000  0.22100000  1.0 -0.5295604964
O  O17  1  0.31720000  0.49000000  0.00000000  1.0 -0.0932947596
O  O18  1  0.68280000  0.51000000  0.00000000  1.0 -0.0932947596
O  O19  1  0.22020000  0.38570000  0.25610000  1.0 -0.5432091107
O  O20  1  0.77980000  0.61430000  0.74390000  1.0 -0.5432091107
O  O21  1  0.14950000  0.35910000  0.15830000  1.0 -0.4937943469
O  O22  1  0.85050000  0.64090000  0.84170000  1.0 -0.5014994095
O  O23  1  0.80160000  0.86670000  0.68060000  1.0 -0.5609677186
O  O24  1  0.19840000  0.13330000  0.31940000  1.0 -0.5609677186
O  O25  1  0.64900000  0.85390000  0.63020000  1.0 -0.519191598
O  O26  1  0.35100000  0.14610000  0.36980000  1.0 -0.519191598
O  O27  1  0.61420000  0.08410000  0.54660000  1.0 -0.1216832449
O  O28  1  0.38580000  0.91590000  0.45340000  1.0 -0.1216832449
O  O29  1  0.46920000  0.24880000  0.43350000  1.0 -0.519191598
O  O30  1  0.53080000  0.75120000  0.56650000  1.0 -0.519191598
O  O31  1  0.59040000  0.37590000  0.40440000  1.0 -0.5295604964
O  O32  1  0.40960000  0.62410000  0.59560000  1.0 -0.5295604964
