# DDEC6 charges by PACMAN v1.1 (https://github.com/mtap-research/PACMAN-charge/)
data_PENNAZ_ASR_pacman
_symmetry_space_group_name_H-M   'P 1'
_cell_length_a   19.75400000
_cell_length_b   19.75400000
_cell_length_c   23.56170000
_cell_angle_alpha   63.88070000
_cell_angle_beta   116.11900000
_cell_angle_gamma   123.77000000
_symmetry_Int_Tables_number   1
_chemical_formula_structural   Cd3H14C30(N2O7)2
_chemical_formula_sum   'Cd12 H56 C120 N16 O56'
_cell_volume   6622.81055788
_cell_formula_units_Z   4
loop_
 _symmetry_equiv_pos_site_id
 _symmetry_equiv_pos_as_xyz
  1  'x, y, z'
loop_
 _atom_site_type_symbol
 _atom_site_label
 _atom_site_symmetry_multiplicity
 _atom_site_fract_x
 _atom_site_fract_y
 _atom_site_fract_z
 _atom_site_occupancy
 _atom_site_charge
Cd  Cd1  1  0.66783000  0.08699000  0.69552000  1.0 0.9278784327
Cd  Cd2  1  0.08699000  0.66783000  0.80448000  1.0 0.9278784327
Cd  Cd3  1  0.33217000  0.91301000  0.30448000  1.0 0.9278784327
Cd  Cd4  1  0.91301000  0.33217000  0.19552000  1.0 0.9278784327
Cd  Cd5  1  0.53875000  0.18051000  0.67747000  1.0 1.0118400089
Cd  Cd6  1  0.18051000  0.53875000  0.82253000  1.0 1.0118400089
Cd  Cd7  1  0.46125000  0.81949000  0.32253000  1.0 1.0118400089
Cd  Cd8  1  0.81949000  0.46125000  0.17747000  1.0 1.0118400089
Cd  Cd9  1  0.26021000  0.61133000  0.95887000  1.0 1.064647042
Cd  Cd10  1  0.61133000  0.26021000  0.54113000  1.0 1.066856308
Cd  Cd11  1  0.73979000  0.38867000  0.04113000  1.0 1.066856308
Cd  Cd12  1  0.38867000  0.73979000  0.45887000  1.0 1.066856308
H  H1  1  0.34410000  0.90330000  0.75210000  1.0 0.1403341729
H  H2  1  0.90330000  0.34410000  0.74790000  1.0 0.1403341729
H  H3  1  0.65590000  0.09670000  0.24790000  1.0 0.1403341729
H  H4  1  0.09670000  0.65590000  0.25210000  1.0 0.1403341729
H  H5  1  0.57630000  0.91910000  0.81690000  1.0 0.12161476
H  H6  1  0.91910000  0.57630000  0.68310000  1.0 0.12161476
H  H7  1  0.42370000  0.08090000  0.18310000  1.0 0.12161476
H  H8  1  0.08090000  0.42370000  0.31690000  1.0 0.12161476
H  H9  1  0.37750000  0.69450000  0.85660000  1.0 0.12161476
H  H10  1  0.69450000  0.37750000  0.64340000  1.0 0.12161476
H  H11  1  0.62250000  0.30550000  0.14340000  1.0 0.12161476
H  H12  1  0.30550000  0.62250000  0.35660000  1.0 0.12161476
H  H13  1  0.64050000  0.73010000  0.98580000  1.0 0.12161476
H  H14  1  0.73010000  0.64050000  0.51420000  1.0 0.12161476
H  H15  1  0.35950000  0.26990000  0.01420000  1.0 0.12161476
H  H16  1  0.26990000  0.35950000  0.48580000  1.0 0.12161476
H  H17  1  0.50160000  0.55440000  0.88790000  1.0 0.1288416381
H  H18  1  0.55440000  0.50160000  0.61210000  1.0 0.1288416381
H  H19  1  0.49840000  0.44560000  0.11210000  1.0 0.1288416381
H  H20  1  0.44560000  0.49840000  0.38790000  1.0 0.1288416381
H  H21  1  0.71490000  0.65550000  0.06160000  1.0 0.12161476
H  H22  1  0.65550000  0.71490000  0.43840000  1.0 0.12161476
H  H23  1  0.28510000  0.34450000  0.93840000  1.0 0.12161476
H  H24  1  0.34450000  0.28510000  0.56160000  1.0 0.12161476
H  H25  1  0.57680000  0.47900000  0.96590000  1.0 0.12161476
H  H26  1  0.47900000  0.57680000  0.53410000  1.0 0.12161476
H  H27  1  0.42320000  0.52100000  0.03410000  1.0 0.12161476
H  H28  1  0.52100000  0.42320000  0.46590000  1.0 0.12161476
H  H29  1  0.55450000  0.06770000  0.45080000  1.0 0.1288416381
H  H30  1  0.06770000  0.55450000  0.04920000  1.0 0.1288416381
H  H31  1  0.44550000  0.93230000  0.54920000  1.0 0.1288416381
H  H32  1  0.93230000  0.44550000  0.95080000  1.0 0.1288416381
H  H33  1  0.75620000  0.06320000  0.60030000  1.0 0.12161476
H  H34  1  0.06320000  0.75620000  0.89970000  1.0 0.12161476
H  H35  1  0.24380000  0.93680000  0.39970000  1.0 0.12161476
H  H36  1  0.93680000  0.24380000  0.10030000  1.0 0.12161476
H  H37  1  0.63180000  0.89680000  0.49240000  1.0 0.1288416381
H  H38  1  0.89680000  0.63180000  0.00760000  1.0 0.1288416381
H  H39  1  0.36820000  0.10320000  0.50760000  1.0 0.1288416381
H  H40  1  0.10320000  0.36820000  0.99240000  1.0 0.1288416381
H  H41  1  0.88550000  0.92810000  0.68080000  1.0 0.1124332778
H  H42  1  0.92810000  0.88550000  0.81920000  1.0 0.1124332778
H  H43  1  0.11450000  0.07190000  0.31920000  1.0 0.1124332778
H  H44  1  0.07190000  0.11450000  0.18080000  1.0 0.1124332778
H  H45  1  0.76190000  0.76810000  0.57410000  1.0 0.12161476
H  H46  1  0.76810000  0.76190000  0.92590000  1.0 0.12161476
H  H47  1  0.23810000  0.23190000  0.42590000  1.0 0.12161476
H  H48  1  0.23190000  0.23810000  0.07410000  1.0 0.12161476
H  H49  1  0.97970000  0.86970000  0.74210000  1.0 0.1124332778
H  H50  1  0.86970000  0.97970000  0.75790000  1.0 0.1124332778
H  H51  1  0.02030000  0.13030000  0.25790000  1.0 0.1124332778
H  H52  1  0.13030000  0.02030000  0.24210000  1.0 0.1124332778
H  H53  1  0.85530000  0.71050000  0.63230000  1.0 0.10444142
H  H54  1  0.71050000  0.85530000  0.86770000  1.0 0.10444142
H  H55  1  0.14470000  0.28950000  0.36770000  1.0 0.10444142
H  H56  1  0.28950000  0.14470000  0.13230000  1.0 0.10444142
C  C1  1  0.37980000  0.87760000  0.77470000  1.0 -0.0894513496
C  C2  1  0.87760000  0.37980000  0.72530000  1.0 -0.0894513496
C  C3  1  0.62020000  0.12240000  0.22530000  1.0 -0.0894513496
C  C4  1  0.12240000  0.62020000  0.27470000  1.0 -0.0894513496
C  C5  1  0.49940000  0.01880000  0.74800000  1.0 0.5684425614
C  C6  1  0.01880000  0.49940000  0.75200000  1.0 0.5684425614
C  C7  1  0.50060000  0.98120000  0.25200000  1.0 0.5684425614
C  C8  1  0.98120000  0.50060000  0.24800000  1.0 0.5684425614
C  C9  1  0.46531000  0.92569000  0.77890000  1.0 -0.0213438569
C  C10  1  0.92569000  0.46531000  0.72110000  1.0 -0.0213438569
C  C11  1  0.53469000  0.07431000  0.22110000  1.0 -0.0213438569
C  C12  1  0.07431000  0.53469000  0.27890000  1.0 -0.0213438569
C  C13  1  0.34685000  0.79075000  0.80420000  1.0 -0.0306414545
C  C14  1  0.79075000  0.34685000  0.69580000  1.0 -0.0306414545
C  C15  1  0.65315000  0.20925000  0.19580000  1.0 -0.0306414545
C  C16  1  0.20925000  0.65315000  0.30420000  1.0 -0.0306414545
C  C17  1  0.25623000  0.74137000  0.80360000  1.0 0.577478633
C  C18  1  0.74137000  0.25623000  0.69640000  1.0 0.577478633
C  C19  1  0.74377000  0.25863000  0.19640000  1.0 0.577478633
C  C20  1  0.25863000  0.74377000  0.30360000  1.0 0.577478633
C  C21  1  0.51870000  0.88710000  0.81310000  1.0 -0.1612235281
C  C22  1  0.88710000  0.51870000  0.68690000  1.0 -0.1612235281
C  C23  1  0.48130000  0.11290000  0.18690000  1.0 -0.1612235281
C  C24  1  0.11290000  0.48130000  0.31310000  1.0 -0.1612235281
C  C25  1  0.39930000  0.75230000  0.83720000  1.0 -0.1612235281
C  C26  1  0.75230000  0.39930000  0.66280000  1.0 -0.1612235281
C  C27  1  0.60070000  0.24770000  0.16280000  1.0 -0.1676587392
C  C28  1  0.24770000  0.60070000  0.33720000  1.0 -0.1612235281
C  C29  1  0.48550000  0.80110000  0.84110000  1.0 0.158687252
C  C30  1  0.80110000  0.48550000  0.65890000  1.0 0.1544344805
C  C31  1  0.51450000  0.19890000  0.15890000  1.0 0.1544344805
C  C32  1  0.19890000  0.51450000  0.34110000  1.0 0.1544344805
C  C33  1  0.56510000  0.65030000  0.92880000  1.0 0.1403341729
C  C34  1  0.65030000  0.56510000  0.57120000  1.0 0.1403341729
C  C35  1  0.43490000  0.34970000  0.07120000  1.0 0.1403341729
C  C36  1  0.34970000  0.43490000  0.42880000  1.0 0.1403341729
C  C37  1  0.62800000  0.67980000  0.98090000  1.0 -0.1676587392
C  C38  1  0.67980000  0.62800000  0.51910000  1.0 -0.1676587392
C  C39  1  0.37200000  0.32020000  0.01910000  1.0 -0.1676587392
C  C40  1  0.32020000  0.37200000  0.48090000  1.0 -0.1676587392
C  C41  1  0.54510000  0.57550000  0.92260000  1.0 -0.1612235281
C  C42  1  0.57550000  0.54510000  0.57740000  1.0 -0.1612235281
C  C43  1  0.45490000  0.42450000  0.07740000  1.0 -0.1612235281
C  C44  1  0.42450000  0.45490000  0.42260000  1.0 -0.1612235281
C  C45  1  0.67260000  0.63560000  0.02600000  1.0 -0.0997925356
C  C46  1  0.63560000  0.67260000  0.47400000  1.0 -0.0997925356
C  C47  1  0.32740000  0.36440000  0.97400000  1.0 -0.0997925356
C  C48  1  0.36440000  0.32740000  0.52600000  1.0 -0.0997925356
C  C49  1  0.59110000  0.53070000  0.96950000  1.0 -0.0997925356
C  C50  1  0.53070000  0.59110000  0.53050000  1.0 -0.0997925356
C  C51  1  0.40890000  0.46930000  0.03050000  1.0 -0.0997925356
C  C52  1  0.46930000  0.40890000  0.46950000  1.0 -0.0997925356
C  C53  1  0.65370000  0.56010000  0.01810000  1.0 -0.0395088375
C  C54  1  0.56010000  0.65370000  0.48190000  1.0 -0.0395088375
C  C55  1  0.34630000  0.43990000  0.98190000  1.0 -0.0395088375
C  C56  1  0.43990000  0.34630000  0.51810000  1.0 -0.0395088375
C  C57  1  0.70180000  0.51200000  0.07030000  1.0 0.5684425614
C  C58  1  0.51200000  0.70180000  0.42970000  1.0 0.5684425614
C  C59  1  0.29820000  0.48800000  0.92970000  1.0 0.5684425614
C  C60  1  0.48800000  0.29820000  0.57030000  1.0 0.5684425614
C  C61  1  0.59141000  0.04379000  0.47670000  1.0 -0.0997925356
C  C62  1  0.04379000  0.59141000  0.02330000  1.0 -0.0997925356
C  C63  1  0.40859000  0.95621000  0.52330000  1.0 -0.0997925356
C  C64  1  0.95621000  0.40859000  0.97670000  1.0 -0.0997925356
C  C65  1  0.66360000  0.14580000  0.54320000  1.0 0.577478633
C  C66  1  0.14580000  0.66360000  0.95680000  1.0 0.577478633
C  C67  1  0.33640000  0.85420000  0.45680000  1.0 0.577478633
C  C68  1  0.85420000  0.33640000  0.04320000  1.0 0.577478633
C  C69  1  0.65618000  0.07582000  0.52830000  1.0 -0.0306414545
C  C70  1  0.07582000  0.65618000  0.97170000  1.0 -0.0306414545
C  C71  1  0.34382000  0.92418000  0.47170000  1.0 -0.0306414545
C  C72  1  0.92418000  0.34382000  0.02830000  1.0 -0.0306414545
C  C73  1  0.58116000  0.97644000  0.46330000  1.0 -0.0116045325
C  C74  1  0.97644000  0.58116000  0.03670000  1.0 -0.0116045325
C  C75  1  0.41884000  0.02356000  0.53670000  1.0 -0.0116045325
C  C76  1  0.02356000  0.41884000  0.96330000  1.0 -0.0116045325
C  C77  1  0.50638000  0.93682000  0.41140000  1.0 0.5871463648
C  C78  1  0.93682000  0.50638000  0.08860000  1.0 0.5871463648
C  C79  1  0.49362000  0.06318000  0.58860000  1.0 0.5871463648
C  C80  1  0.06318000  0.49362000  0.91140000  1.0 0.5871463648
C  C81  1  0.71250000  0.04190000  0.56580000  1.0 -0.1676587392
C  C82  1  0.04190000  0.71250000  0.93420000  1.0 -0.1676587392
C  C83  1  0.28750000  0.95810000  0.43420000  1.0 -0.1676587392
C  C84  1  0.95810000  0.28750000  0.06580000  1.0 -0.1676587392
C  C85  1  0.63794000  0.94186000  0.50110000  1.0 -0.1676587392
C  C86  1  0.94186000  0.63794000  0.99890000  1.0 -0.1676587392
C  C87  1  0.36206000  0.05814000  0.49890000  1.0 -0.1676587392
C  C88  1  0.05814000  0.36206000  0.00110000  1.0 -0.1676587392
C  C89  1  0.70338000  0.97542000  0.55150000  1.0 0.158687252
C  C90  1  0.97542000  0.70338000  0.94850000  1.0 0.158687252
C  C91  1  0.29662000  0.02458000  0.44850000  1.0 0.158687252
C  C92  1  0.02458000  0.29662000  0.05150000  1.0 0.158687252
C  C93  1  0.82020000  0.85920000  0.61770000  1.0 0.158687252
C  C94  1  0.85920000  0.82020000  0.88230000  1.0 0.158687252
C  C95  1  0.17980000  0.14080000  0.38230000  1.0 0.158687252
C  C96  1  0.14080000  0.17980000  0.11770000  1.0 0.158687252
C  C97  1  0.88040000  0.88560000  0.66950000  1.0 -0.1612235281
C  C98  1  0.88560000  0.88040000  0.83050000  1.0 -0.1612235281
C  C99  1  0.11960000  0.11440000  0.33050000  1.0 -0.1612235281
C  C100  1  0.11440000  0.11960000  0.16950000  1.0 -0.1612235281
C  C101  1  0.80830000  0.79130000  0.60670000  1.0 -0.1505678364
C  C102  1  0.79130000  0.80830000  0.89330000  1.0 -0.1505678364
C  C103  1  0.19170000  0.20870000  0.39330000  1.0 -0.1505678364
C  C104  1  0.20870000  0.19170000  0.10670000  1.0 -0.1505678364
C  C105  1  0.93640000  0.84920000  0.70700000  1.0 -0.1097073553
C  C106  1  0.84920000  0.93640000  0.79300000  1.0 -0.1097073553
C  C107  1  0.06360000  0.15080000  0.29300000  1.0 -0.1097073553
C  C108  1  0.15080000  0.06360000  0.20700000  1.0 -0.1097073553
C  C109  1  0.86290000  0.75510000  0.64250000  1.0 -0.1268307038
C  C110  1  0.75510000  0.86290000  0.85750000  1.0 -0.1268307038
C  C111  1  0.13710000  0.24490000  0.35750000  1.0 -0.1268307038
C  C112  1  0.24490000  0.13710000  0.14250000  1.0 -0.1268307038
C  C113  1  0.92850000  0.78610000  0.69320000  1.0 -0.0751415261
C  C114  1  0.78610000  0.92850000  0.80680000  1.0 -0.0736902374
C  C115  1  0.07150000  0.21390000  0.30680000  1.0 -0.0736902374
C  C116  1  0.21390000  0.07150000  0.19320000  1.0 -0.0736902374
C  C117  1  0.98760000  0.74540000  0.73450000  1.0 0.3411015503
C  C118  1  0.74540000  0.98760000  0.76550000  1.0 0.3411015503
C  C119  1  0.01240000  0.25460000  0.26550000  1.0 0.3411015503
C  C120  1  0.25460000  0.01240000  0.23450000  1.0 0.3411015503
N  N1  1  0.54357000  0.76583000  0.87930000  1.0 -0.1204312004
N  N2  1  0.76583000  0.54357000  0.62070000  1.0 -0.1204312004
N  N3  1  0.45643000  0.23417000  0.12070000  1.0 -0.1204312004
N  N4  1  0.23417000  0.45643000  0.37930000  1.0 -0.1204312004
N  N5  1  0.51179000  0.68981000  0.88360000  1.0 -0.1097073553
N  N6  1  0.68981000  0.51179000  0.61640000  1.0 -0.1097073553
N  N7  1  0.48821000  0.31019000  0.11640000  1.0 -0.1097073553
N  N8  1  0.31019000  0.48821000  0.38360000  1.0 -0.1097073553
N  N9  1  0.76557000  0.94563000  0.59290000  1.0 -0.1097073553
N  N10  1  0.94563000  0.76557000  0.90710000  1.0 -0.1097073553
N  N11  1  0.23443000  0.05437000  0.40710000  1.0 -0.1097073553
N  N12  1  0.05437000  0.23443000  0.09290000  1.0 -0.1204312004
N  N13  1  0.75880000  0.89040000  0.57660000  1.0 -0.1097073553
N  N14  1  0.89040000  0.75880000  0.92340000  1.0 -0.1097073553
N  N15  1  0.24120000  0.10960000  0.42340000  1.0 -0.1097073553
N  N16  1  0.10960000  0.24120000  0.07660000  1.0 -0.1097073553
O  O1  1  0.57688000  0.06272000  0.75060000  1.0 -0.5936638482
O  O2  1  0.06272000  0.57688000  0.74940000  1.0 -0.5936638482
O  O3  1  0.42312000  0.93728000  0.24940000  1.0 -0.5936638482
O  O4  1  0.93728000  0.42312000  0.25060000  1.0 -0.5950514444
O  O5  1  0.44883000  0.04937000  0.72010000  1.0 -0.5097015269
O  O6  1  0.04937000  0.44883000  0.77990000  1.0 -0.5097015269
O  O7  1  0.55117000  0.95063000  0.27990000  1.0 -0.5097015269
O  O8  1  0.95063000  0.55117000  0.22010000  1.0 -0.5097015269
O  O9  1  0.23192000  0.66688000  0.84200000  1.0 -0.6432137258
O  O10  1  0.66688000  0.23192000  0.65800000  1.0 -0.6432137258
O  O11  1  0.76808000  0.33312000  0.15800000  1.0 -0.6432137258
O  O12  1  0.33312000  0.76808000  0.34200000  1.0 -0.6432137258
O  O13  1  0.20599000  0.77121000  0.76690000  1.0 -0.4755348929
O  O14  1  0.77121000  0.20599000  0.73310000  1.0 -0.4743074246
O  O15  1  0.79401000  0.22879000  0.23310000  1.0 -0.4755348929
O  O16  1  0.22879000  0.79401000  0.26690000  1.0 -0.4755348929
O  O17  1  0.68263000  0.44337000  0.06470000  1.0 -0.5821922265
O  O18  1  0.44337000  0.68263000  0.43530000  1.0 -0.5821922265
O  O19  1  0.31737000  0.55663000  0.93530000  1.0 -0.5821922265
O  O20  1  0.55663000  0.31737000  0.56470000  1.0 -0.5821922265
O  O21  1  0.75740000  0.54240000  0.11640000  1.0 -0.5037292011
O  O22  1  0.54240000  0.75740000  0.38360000  1.0 -0.5037292011
O  O23  1  0.24260000  0.45760000  0.88360000  1.0 -0.5037292011
O  O24  1  0.45760000  0.24260000  0.61640000  1.0 -0.5037292011
O  O25  1  0.70942000  0.16278000  0.59750000  1.0 -0.5821922265
O  O26  1  0.16278000  0.70942000  0.90250000  1.0 -0.5821922265
O  O27  1  0.29058000  0.83722000  0.40250000  1.0 -0.5821922265
O  O28  1  0.83722000  0.29058000  0.09750000  1.0 -0.5821922265
O  O29  1  0.61932000  0.18268000  0.50120000  1.0 -0.5672790922
O  O30  1  0.18268000  0.61932000  0.99880000  1.0 -0.5672790922
O  O31  1  0.38068000  0.81732000  0.49880000  1.0 -0.5672790922
O  O32  1  0.81732000  0.38068000  0.00120000  1.0 -0.5672790922
O  O33  1  0.46126000  0.97334000  0.37360000  1.0 -0.547971166
O  O34  1  0.97334000  0.46126000  0.12640000  1.0 -0.547971166
O  O35  1  0.53874000  0.02666000  0.62640000  1.0 -0.547971166
O  O36  1  0.02666000  0.53874000  0.87360000  1.0 -0.547971166
O  O37  1  0.49193000  0.86587000  0.41120000  1.0 -0.6127047308
O  O38  1  0.86587000  0.49193000  0.08880000  1.0 -0.6127047308
O  O39  1  0.50807000  0.13413000  0.58880000  1.0 -0.6127047308
O  O40  1  0.13413000  0.50807000  0.91120000  1.0 -0.6127047308
O  O41  1  0.97540000  0.68500000  0.72910000  1.0 -0.0116045325
O  O42  1  0.68500000  0.97540000  0.77090000  1.0 -0.0213438569
O  O43  1  0.02460000  0.31500000  0.27090000  1.0 -0.0213438569
O  O44  1  0.31500000  0.02460000  0.22910000  1.0 -0.0213438569
O  O45  1  0.05440000  0.78400000  0.77620000  1.0 -0.1612235281
O  O46  1  0.78400000  0.05440000  0.72380000  1.0 -0.1612235281
O  O47  1  0.94560000  0.21600000  0.22380000  1.0 -0.1612235281
O  O48  1  0.21600000  0.94560000  0.27620000  1.0 -0.1612235281
O  O49  1  0.00650000  0.72010000  0.69710000  1.0 -0.1393245824
O  O50  1  0.72010000  0.00650000  0.80290000  1.0 -0.1393245824
O  O51  1  0.99350000  0.27990000  0.30290000  1.0 -0.1393245824
O  O52  1  0.27990000  0.99350000  0.19710000  1.0 -0.1393245824
O  O53  1  0.00940000  0.73080000  0.78700000  1.0 -0.0213438569
O  O54  1  0.73080000  0.00940000  0.71300000  1.0 -0.0213438569
O  O55  1  0.99060000  0.26920000  0.21300000  1.0 -0.0213438569
O  O56  1  0.26920000  0.99060000  0.28700000  1.0 -0.0306414545
