# DDEC6 charges by PACMAN v1.1 (https://github.com/mtap-research/PACMAN-charge/)
data_PEQTIQ_FSR_pacman
_symmetry_space_group_name_H-M   'P 1'
_cell_length_a   12.49030000
_cell_length_b   12.49030000
_cell_length_c   24.05550000
_cell_angle_alpha   67.59130000
_cell_angle_beta   112.40900000
_cell_angle_gamma   119.77900000
_symmetry_Int_Tables_number   1
_chemical_formula_structural   DyCuH16C24N4(ClO5)2
_chemical_formula_sum   'Dy4 Cu4 H64 C96 N16 Cl8 O40'
_cell_volume   2923.93615799
_cell_formula_units_Z   4
loop_
 _symmetry_equiv_pos_site_id
 _symmetry_equiv_pos_as_xyz
  1  'x, y, z'
loop_
 _atom_site_type_symbol
 _atom_site_label
 _atom_site_symmetry_multiplicity
 _atom_site_fract_x
 _atom_site_fract_y
 _atom_site_fract_z
 _atom_site_occupancy
 _atom_site_charge
Dy  Dy1  1  0.95401000  0.57155000  0.36001000  1.0 2.0032371735
Dy  Dy2  1  0.42845000  0.04599000  0.86001000  1.0 2.0032371735
Dy  Dy3  1  0.57155000  0.95401000  0.13999000  1.0 2.0032371735
Dy  Dy4  1  0.04599000  0.42845000  0.63999000  1.0 2.0032371735
Cu  Cu1  1  0.65693000  0.79139000  0.57894000  1.0 0.4000124638
Cu  Cu2  1  0.20861000  0.34307000  0.07894000  1.0 0.4000124638
Cu  Cu3  1  0.79139000  0.65693000  0.92106000  1.0 0.4000124638
Cu  Cu4  1  0.34307000  0.20861000  0.42106000  1.0 0.4000124638
H  H1  1  0.70750000  0.47470000  0.51150000  1.0 0.1292532665
H  H2  1  0.52530000  0.29250000  0.01150000  1.0 0.1292532665
H  H3  1  0.63390000  0.53250000  0.56510000  1.0 0.1056216923
H  H4  1  0.46750000  0.36610000  0.06510000  1.0 0.1056216923
H  H5  1  0.87510000  0.84450000  0.43060000  1.0 0.1292532665
H  H6  1  0.15550000  0.12490000  0.93060000  1.0 0.1292532665
H  H7  1  0.90750000  0.04130000  0.42320000  1.0 0.1292532665
H  H8  1  0.95870000  0.09250000  0.92320000  1.0 0.1292532665
H  H9  1  0.81780000  0.24640000  0.47650000  1.0 0.1292532665
H  H10  1  0.75360000  0.18220000  0.97650000  1.0 0.1292532665
H  H11  1  0.70560000  0.06500000  0.53840000  1.0 0.0888180961
H  H12  1  0.93500000  0.29440000  0.03840000  1.0 0.0888180961
H  H13  1  0.90120000  0.65240000  0.78420000  1.0 0.1292532665
H  H14  1  0.34760000  0.09880000  0.28420000  1.0 0.1292532665
H  H15  1  0.93340000  0.00340000  0.62260000  1.0 0.1056216923
H  H16  1  0.99660000  0.06660000  0.12260000  1.0 0.1056216923
H  H17  1  0.10430000  0.01310000  0.70580000  1.0 0.1476048366
H  H18  1  0.98690000  0.89570000  0.20580000  1.0 0.1476048366
H  H19  1  0.72090000  0.48710000  0.77330000  1.0 0.1379979406
H  H20  1  0.51290000  0.27910000  0.27330000  1.0 0.1379979406
H  H21  1  0.36390000  0.36130000  0.66940000  1.0 0.1476048366
H  H22  1  0.63870000  0.63610000  0.16940000  1.0 0.1476048366
H  H23  1  0.41630000  0.55430000  0.59990000  1.0 0.0825533201
H  H24  1  0.44570000  0.58370000  0.09990000  1.0 0.0825533201
H  H25  1  0.99450000  0.54030000  0.26160000  1.0 0.3879063581
H  H26  1  0.45970000  0.00550000  0.76160000  1.0 0.3879063581
H  H27  1  0.01670000  0.44310000  0.31330000  1.0 0.3785537039
H  H28  1  0.55690000  0.98330000  0.81330000  1.0 0.3785537039
H  H29  1  0.13300000  0.59420000  0.47020000  1.0 0.367113844
H  H30  1  0.40580000  0.86700000  0.97020000  1.0 0.367113844
H  H31  1  0.15700000  0.71880000  0.43590000  1.0 0.3411110794
H  H32  1  0.28120000  0.84300000  0.93590000  1.0 0.3411110794
H  H33  1  0.47470000  0.70750000  0.98850000  1.0 0.1292532665
H  H34  1  0.29250000  0.52530000  0.48850000  1.0 0.1292532665
H  H35  1  0.53250000  0.63390000  0.93490000  1.0 0.1056216923
H  H36  1  0.36610000  0.46750000  0.43490000  1.0 0.1056216923
H  H37  1  0.84450000  0.87510000  0.06940000  1.0 0.1292532665
H  H38  1  0.12490000  0.15550000  0.56940000  1.0 0.1292532665
H  H39  1  0.04130000  0.90750000  0.07680000  1.0 0.1292532665
H  H40  1  0.09250000  0.95870000  0.57680000  1.0 0.1292532665
H  H41  1  0.24640000  0.81780000  0.02350000  1.0 0.1292532665
H  H42  1  0.18220000  0.75360000  0.52350000  1.0 0.1292532665
H  H43  1  0.06500000  0.70560000  0.96160000  1.0 0.0888180961
H  H44  1  0.29440000  0.93500000  0.46160000  1.0 0.0888180961
H  H45  1  0.65240000  0.90120000  0.71580000  1.0 0.1292532665
H  H46  1  0.09880000  0.34760000  0.21580000  1.0 0.1292532665
H  H47  1  0.00340000  0.93340000  0.87740000  1.0 0.1056216923
H  H48  1  0.06660000  0.99660000  0.37740000  1.0 0.1056216923
H  H49  1  0.01310000  0.10430000  0.79420000  1.0 0.1476048366
H  H50  1  0.89570000  0.98690000  0.29420000  1.0 0.1476048366
H  H51  1  0.48710000  0.72090000  0.72670000  1.0 0.1379979406
H  H52  1  0.27910000  0.51290000  0.22670000  1.0 0.1379979406
H  H53  1  0.36130000  0.36390000  0.83060000  1.0 0.1476048366
H  H54  1  0.63610000  0.63870000  0.33060000  1.0 0.1476048366
H  H55  1  0.55430000  0.41630000  0.90010000  1.0 0.0825533201
H  H56  1  0.58370000  0.44570000  0.40010000  1.0 0.0825533201
H  H57  1  0.54030000  0.99450000  0.23840000  1.0 0.3879063581
H  H58  1  0.00550000  0.45970000  0.73840000  1.0 0.3879063581
H  H59  1  0.44310000  0.01670000  0.18670000  1.0 0.3785537039
H  H60  1  0.98330000  0.55690000  0.68670000  1.0 0.3785537039
H  H61  1  0.59420000  0.13300000  0.02980000  1.0 0.367113844
H  H62  1  0.86700000  0.40580000  0.52980000  1.0 0.367113844
H  H63  1  0.71880000  0.15700000  0.06410000  1.0 0.3411110794
H  H64  1  0.84300000  0.28120000  0.56410000  1.0 0.3411110794
C  C1  1  0.85490000  0.62290000  0.43020000  1.0 0.5387538825
C  C2  1  0.37710000  0.14510000  0.93020000  1.0 0.5387538825
C  C3  1  0.80160000  0.65400000  0.46550000  1.0 0.0401339518
C  C4  1  0.34600000  0.19840000  0.96550000  1.0 0.0401339518
C  C5  1  0.72740000  0.55980000  0.50590000  1.0 -0.160030467
C  C6  1  0.44020000  0.27260000  0.00590000  1.0 -0.160030467
C  C7  1  0.68350000  0.59550000  0.53780000  1.0 0.0825533201
C  C8  1  0.40450000  0.31650000  0.03780000  1.0 0.0825533201
C  C9  1  0.82660000  0.77980000  0.45790000  1.0 -0.1798296715
C  C10  1  0.22020000  0.17340000  0.95790000  1.0 -0.1798296715
C  C11  1  0.77870000  0.80750000  0.49110000  1.0 0.1664039199
C  C12  1  0.19250000  0.22130000  0.99110000  1.0 0.1664039199
C  C13  1  0.79820000  0.93880000  0.48540000  1.0 0.1606494392
C  C14  1  0.06120000  0.20180000  0.98540000  1.0 0.1606494392
C  C15  1  0.86770000  0.04730000  0.44700000  1.0 -0.2044602851
C  C16  1  0.95270000  0.13230000  0.94700000  1.0 -0.2044602851
C  C17  1  0.81470000  0.16910000  0.47850000  1.0 -0.160030467
C  C18  1  0.83090000  0.18530000  0.97850000  1.0 -0.160030467
C  C19  1  0.87720000  0.16380000  0.44440000  1.0 0.0401339518
C  C20  1  0.83620000  0.12280000  0.94440000  1.0 0.0401339518
C  C21  1  0.74810000  0.06030000  0.51550000  1.0 0.030570027
C  C22  1  0.93970000  0.25190000  0.01550000  1.0 0.030570027
C  C23  1  0.95440000  0.28560000  0.40420000  1.0 0.5803905507
C  C24  1  0.71440000  0.04560000  0.90420000  1.0 0.5803905507
C  C25  1  0.13300000  0.83860000  0.81170000  1.0 0.5803905507
C  C26  1  0.16140000  0.86700000  0.31170000  1.0 0.5803905507
C  C27  1  0.02230000  0.83410000  0.75440000  1.0 0.0401339518
C  C28  1  0.16590000  0.97770000  0.25440000  1.0 0.0401339518
C  C29  1  0.90950000  0.72470000  0.75180000  1.0 -0.1890543918
C  C30  1  0.27530000  0.09050000  0.25180000  1.0 -0.1890543918
C  C31  1  0.81030000  0.72570000  0.70030000  1.0 0.1606494392
C  C32  1  0.27430000  0.18970000  0.20030000  1.0 0.1606494392
C  C33  1  0.92700000  0.93220000  0.65550000  1.0 0.0696950913
C  C34  1  0.06780000  0.07300000  0.15550000  1.0 0.0696950913
C  C35  1  0.03020000  0.93880000  0.70530000  1.0 -0.1482978458
C  C36  1  0.06120000  0.96980000  0.20530000  1.0 -0.1482978458
C  C37  1  0.68500000  0.61380000  0.69460000  1.0 0.1606494392
C  C38  1  0.38620000  0.31500000  0.19460000  1.0 0.1606494392
C  C39  1  0.65830000  0.49950000  0.73820000  1.0 -0.1890543918
C  C40  1  0.50050000  0.34170000  0.23820000  1.0 -0.1890543918
C  C41  1  0.53780000  0.40380000  0.72930000  1.0 0.0455595111
C  C42  1  0.59620000  0.46220000  0.22930000  1.0 0.0455595111
C  C43  1  0.44570000  0.42450000  0.67640000  1.0 -0.1482978458
C  C44  1  0.57550000  0.55430000  0.17640000  1.0 -0.1482978458
C  C45  1  0.47810000  0.53990000  0.63490000  1.0 0.0455595111
C  C46  1  0.46010000  0.52190000  0.13490000  1.0 0.0401339518
C  C47  1  0.50380000  0.27780000  0.77620000  1.0 0.5263292049
C  C48  1  0.72220000  0.49620000  0.27620000  1.0 0.5263292049
C  C49  1  0.62290000  0.85490000  0.06980000  1.0 0.5387538825
C  C50  1  0.14510000  0.37710000  0.56980000  1.0 0.5387538825
C  C51  1  0.65400000  0.80160000  0.03450000  1.0 0.0401339518
C  C52  1  0.19840000  0.34600000  0.53450000  1.0 0.0401339518
C  C53  1  0.55980000  0.72740000  0.99410000  1.0 -0.160030467
C  C54  1  0.27260000  0.44020000  0.49410000  1.0 -0.160030467
C  C55  1  0.59550000  0.68350000  0.96220000  1.0 0.0825533201
C  C56  1  0.31650000  0.40450000  0.46220000  1.0 0.0825533201
C  C57  1  0.77980000  0.82660000  0.04210000  1.0 -0.1798296715
C  C58  1  0.17340000  0.22020000  0.54210000  1.0 -0.1798296715
C  C59  1  0.80750000  0.77870000  0.00890000  1.0 0.1664039199
C  C60  1  0.22130000  0.19250000  0.50890000  1.0 0.1664039199
C  C61  1  0.93880000  0.79820000  0.01460000  1.0 0.1606494392
C  C62  1  0.20180000  0.06120000  0.51460000  1.0 0.1606494392
C  C63  1  0.04730000  0.86770000  0.05300000  1.0 -0.2044602851
C  C64  1  0.13230000  0.95270000  0.55300000  1.0 -0.2044602851
C  C65  1  0.16910000  0.81470000  0.02150000  1.0 -0.160030467
C  C66  1  0.18530000  0.83090000  0.52150000  1.0 -0.160030467
C  C67  1  0.16380000  0.87720000  0.05560000  1.0 0.0401339518
C  C68  1  0.12280000  0.83620000  0.55560000  1.0 0.0401339518
C  C69  1  0.06030000  0.74810000  0.98450000  1.0 0.030570027
C  C70  1  0.25190000  0.93970000  0.48450000  1.0 0.030570027
C  C71  1  0.28560000  0.95440000  0.09580000  1.0 0.5803905507
C  C72  1  0.04560000  0.71440000  0.59580000  1.0 0.5803905507
C  C73  1  0.83860000  0.13300000  0.68830000  1.0 0.5803905507
C  C74  1  0.86700000  0.16140000  0.18830000  1.0 0.5803905507
C  C75  1  0.83410000  0.02230000  0.74560000  1.0 0.0401339518
C  C76  1  0.97770000  0.16590000  0.24560000  1.0 0.0401339518
C  C77  1  0.72470000  0.90950000  0.74820000  1.0 -0.1890543918
C  C78  1  0.09050000  0.27530000  0.24820000  1.0 -0.1890543918
C  C79  1  0.72570000  0.81030000  0.79970000  1.0 0.1606494392
C  C80  1  0.18970000  0.27430000  0.29970000  1.0 0.1606494392
C  C81  1  0.93220000  0.92700000  0.84450000  1.0 0.0696950913
C  C82  1  0.07300000  0.06780000  0.34450000  1.0 0.0696950913
C  C83  1  0.93880000  0.03020000  0.79470000  1.0 -0.1482978458
C  C84  1  0.96980000  0.06120000  0.29470000  1.0 -0.1482978458
C  C85  1  0.61380000  0.68500000  0.80540000  1.0 0.1606494392
C  C86  1  0.31500000  0.38620000  0.30540000  1.0 0.1606494392
C  C87  1  0.49950000  0.65830000  0.76180000  1.0 -0.1890543918
C  C88  1  0.34170000  0.50050000  0.26180000  1.0 -0.1890543918
C  C89  1  0.40380000  0.53780000  0.77070000  1.0 0.0455595111
C  C90  1  0.46220000  0.59620000  0.27070000  1.0 0.0455595111
C  C91  1  0.42450000  0.44570000  0.82360000  1.0 -0.1482978458
C  C92  1  0.55430000  0.57550000  0.32360000  1.0 -0.1482978458
C  C93  1  0.53990000  0.47810000  0.86510000  1.0 0.0401339518
C  C94  1  0.52190000  0.46010000  0.36510000  1.0 0.0401339518
C  C95  1  0.27780000  0.50380000  0.72380000  1.0 0.5263292049
C  C96  1  0.49620000  0.72220000  0.22380000  1.0 0.5263292049
N  N1  1  0.70870000  0.71630000  0.53130000  1.0 -0.2509706164
N  N2  1  0.28370000  0.29130000  0.03130000  1.0 -0.2509706164
N  N3  1  0.74120000  0.94720000  0.52025000  1.0 -0.2408158551
N  N4  1  0.05280000  0.25880000  0.02025000  1.0 -0.2408158551
N  N5  1  0.81710000  0.82690000  0.65223000  1.0 -0.23222167
N  N6  1  0.17310000  0.18290000  0.15223000  1.0 -0.23222167
N  N7  1  0.59560000  0.63320000  0.64277000  1.0 -0.2509706164
N  N8  1  0.36680000  0.40440000  0.14277000  1.0 -0.2509706164
N  N9  1  0.71630000  0.70870000  0.96870000  1.0 -0.2509706164
N  N10  1  0.29130000  0.28370000  0.46870000  1.0 -0.2509706164
N  N11  1  0.94720000  0.74120000  0.97975000  1.0 -0.2408158551
N  N12  1  0.25880000  0.05280000  0.47975000  1.0 -0.2408158551
N  N13  1  0.82690000  0.81710000  0.84777000  1.0 -0.23222167
N  N14  1  0.18290000  0.17310000  0.34777000  1.0 -0.23222167
N  N15  1  0.63320000  0.59560000  0.85723000  1.0 -0.2509706164
N  N16  1  0.40440000  0.36680000  0.35723000  1.0 -0.2509706164
Cl  Cl1  1  0.46125000  0.79305000  0.52581000  1.0 0.1158236046
Cl  Cl2  1  0.20695000  0.53875000  0.02581000  1.0 0.1158236046
Cl  Cl3  1  0.48500000  0.82240000  0.56600000  1.0 0.1158236046
Cl  Cl4  1  0.17760000  0.51500000  0.06600000  1.0 0.1158236046
Cl  Cl5  1  0.79305000  0.46125000  0.97419000  1.0 0.1158236046
Cl  Cl6  1  0.53875000  0.20695000  0.47419000  1.0 0.1158236046
Cl  Cl7  1  0.82240000  0.48500000  0.93400000  1.0 0.1158236046
Cl  Cl8  1  0.51500000  0.17760000  0.43400000  1.0 0.1158236046
O  O1  1  0.84986000  0.51214000  0.44426000  1.0 -0.6318814303
O  O2  1  0.48786000  0.15014000  0.94426000  1.0 -0.6318814303
O  O3  1  0.90270000  0.70770000  0.38680000  1.0 -0.6236012722
O  O4  1  0.29230000  0.09730000  0.88680000  1.0 -0.6236012722
O  O5  1  0.99460000  0.27940000  0.36700000  1.0 -0.5323572899
O  O6  1  0.72060000  0.00540000  0.86700000  1.0 -0.5323572899
O  O7  1  0.97085000  0.38615000  0.41382000  1.0 -0.6925248648
O  O8  1  0.61385000  0.02915000  0.91382000  1.0 -0.6925248648
O  O9  1  0.03170000  0.52410000  0.30130000  1.0 -0.7805459644
O  O10  1  0.47590000  0.96830000  0.80130000  1.0 -0.7805459644
O  O11  1  0.14155000  0.64485000  0.43479000  1.0 -0.7927060868
O  O12  1  0.35515000  0.85845000  0.93479000  1.0 -0.7927060868
O  O13  1  0.23500000  0.93280000  0.80570000  1.0 -0.6592554296
O  O14  1  0.06720000  0.76500000  0.30570000  1.0 -0.6592554296
O  O15  1  0.11450000  0.75210000  0.85880000  1.0 -0.5536774541
O  O16  1  0.24790000  0.88550000  0.35880000  1.0 -0.5536774541
O  O17  1  0.58530000  0.25810000  0.82280000  1.0 -0.6077866177
O  O18  1  0.74190000  0.41470000  0.32280000  1.0 -0.6077866177
O  O19  1  0.39240000  0.19660000  0.76680000  1.0 -0.6077866177
O  O20  1  0.80340000  0.60760000  0.26680000  1.0 -0.6077866177
O  O21  1  0.51214000  0.84986000  0.05574000  1.0 -0.6318814303
O  O22  1  0.15014000  0.48786000  0.55574000  1.0 -0.6318814303
O  O23  1  0.70770000  0.90270000  0.11320000  1.0 -0.6236012722
O  O24  1  0.09730000  0.29230000  0.61320000  1.0 -0.6236012722
O  O25  1  0.27940000  0.99460000  0.13300000  1.0 -0.5323572899
O  O26  1  0.00540000  0.72060000  0.63300000  1.0 -0.5323572899
O  O27  1  0.38615000  0.97085000  0.08618000  1.0 -0.6925248648
O  O28  1  0.02915000  0.61385000  0.58618000  1.0 -0.6925248648
O  O29  1  0.52410000  0.03170000  0.19870000  1.0 -0.7805459644
O  O30  1  0.96830000  0.47590000  0.69870000  1.0 -0.7805459644
O  O31  1  0.64485000  0.14155000  0.06521000  1.0 -0.7927060868
O  O32  1  0.85845000  0.35515000  0.56521000  1.0 -0.7927060868
O  O33  1  0.93280000  0.23500000  0.69430000  1.0 -0.6592554296
O  O34  1  0.76500000  0.06720000  0.19430000  1.0 -0.6592554296
O  O35  1  0.75210000  0.11450000  0.64120000  1.0 -0.5536774541
O  O36  1  0.88550000  0.24790000  0.14120000  1.0 -0.5536774541
O  O37  1  0.25810000  0.58530000  0.67720000  1.0 -0.6077866177
O  O38  1  0.41470000  0.74190000  0.17720000  1.0 -0.6077866177
O  O39  1  0.19660000  0.39240000  0.73320000  1.0 -0.6077866177
O  O40  1  0.60760000  0.80340000  0.23320000  1.0 -0.6077866177
