# DDEC6 charges by PACMAN v1.1 (https://github.com/mtap-research/PACMAN-charge/)
data_PESVIV_ASR_pacman
_symmetry_space_group_name_H-M   'P 1'
_cell_length_a   10.54170000
_cell_length_b   10.54170000
_cell_length_c   10.54170000
_cell_angle_alpha   98.72180000
_cell_angle_beta   98.72180000
_cell_angle_gamma   134.16500000
_symmetry_Int_Tables_number   1
_chemical_formula_structural   CuSiH32C40(N2F3)2
_chemical_formula_sum   'Cu1 Si1 H32 C40 N4 F6'
_cell_volume   774.00820907
_cell_formula_units_Z   1
loop_
 _symmetry_equiv_pos_site_id
 _symmetry_equiv_pos_as_xyz
  1  'x, y, z'
loop_
 _atom_site_type_symbol
 _atom_site_label
 _atom_site_symmetry_multiplicity
 _atom_site_fract_x
 _atom_site_fract_y
 _atom_site_fract_z
 _atom_site_occupancy
 _atom_site_charge
Cu  Cu1  1  0.00000000  0.00000000  0.00000000  1.0 0.2921161944
Si  Si1  1  0.50000000  0.50000000  0.00000000  1.0 1.5653933281
H  H1  1  0.29555000  0.59506000  0.37261000  1.0 0.0651689241
H  H2  1  0.28235000  0.40458000  0.19275000  1.0 0.0523381451
H  H3  1  0.22245000  0.92294000  0.62739000  1.0 0.0651689241
H  H4  1  0.21183000  0.08960000  0.80725000  1.0 0.0523381451
H  H5  1  0.92294000  0.29555000  0.70049000  1.0 0.0651689241
H  H6  1  0.08960000  0.28235000  0.87777000  1.0 0.0523381451
H  H7  1  0.59506000  0.22245000  0.29951000  1.0 0.0651689241
H  H8  1  0.40458000  0.21183000  0.12223000  1.0 0.0523381451
H  H9  1  0.70445000  0.07706000  0.29951000  1.0 0.0651689241
H  H10  1  0.71765000  0.91040000  0.12223000  1.0 0.0523381451
H  H11  1  0.77755000  0.40494000  0.70049000  1.0 0.0651689241
H  H12  1  0.78817000  0.59542000  0.87777000  1.0 0.0523381451
H  H13  1  0.07706000  0.77755000  0.37261000  1.0 0.0651689241
H  H14  1  0.91040000  0.78817000  0.19275000  1.0 0.0523381451
H  H15  1  0.40494000  0.70445000  0.62739000  1.0 0.0651689241
H  H16  1  0.59542000  0.71765000  0.80725000  1.0 0.0523381451
H  H17  1  0.70445000  0.40494000  0.62739000  1.0 0.0651689241
H  H18  1  0.71765000  0.59542000  0.80725000  1.0 0.0523381451
H  H19  1  0.77755000  0.07706000  0.37261000  1.0 0.0651689241
H  H20  1  0.78817000  0.91040000  0.19275000  1.0 0.0523381451
H  H21  1  0.07706000  0.70445000  0.29951000  1.0 0.0651689241
H  H22  1  0.91040000  0.71765000  0.12223000  1.0 0.0523381451
H  H23  1  0.40494000  0.77755000  0.70049000  1.0 0.0651689241
H  H24  1  0.59542000  0.78817000  0.87777000  1.0 0.0523381451
H  H25  1  0.29555000  0.92294000  0.70049000  1.0 0.0651689241
H  H26  1  0.28235000  0.08960000  0.87777000  1.0 0.0523381451
H  H27  1  0.22245000  0.59506000  0.29951000  1.0 0.0651689241
H  H28  1  0.21183000  0.40458000  0.12223000  1.0 0.0523381451
H  H29  1  0.92294000  0.22245000  0.62739000  1.0 0.0651689241
H  H30  1  0.08960000  0.21183000  0.80725000  1.0 0.0523381451
H  H31  1  0.59506000  0.29555000  0.37261000  1.0 0.0651689241
H  H32  1  0.40458000  0.28235000  0.19275000  1.0 0.0523381451
C  C1  1  0.16732000  0.44238000  0.32512000  1.0 -0.0026723161
C  C2  1  0.15866000  0.33510000  0.22178000  1.0 0.0523381451
C  C3  1  0.11726000  0.84220000  0.67488000  1.0 -0.0026723161
C  C4  1  0.11332000  0.93688000  0.77822000  1.0 0.0523381451
C  C5  1  0.84220000  0.16732000  0.72494000  1.0 -0.0026723161
C  C6  1  0.93688000  0.15866000  0.82356000  1.0 0.0523381451
C  C7  1  0.44238000  0.11726000  0.27506000  1.0 -0.0026723161
C  C8  1  0.33510000  0.11332000  0.17644000  1.0 0.0523381451
C  C9  1  0.83268000  0.15780000  0.27506000  1.0 -0.0026723161
C  C10  1  0.84134000  0.06312000  0.17644000  1.0 0.0523381451
C  C11  1  0.88274000  0.55762000  0.72494000  1.0 -0.0026723161
C  C12  1  0.88668000  0.66490000  0.82356000  1.0 0.0523381451
C  C13  1  0.15780000  0.88274000  0.32512000  1.0 -0.0026723161
C  C14  1  0.06312000  0.88668000  0.22178000  1.0 0.0523381451
C  C15  1  0.55762000  0.83268000  0.67488000  1.0 -0.0026723161
C  C16  1  0.66490000  0.84134000  0.77822000  1.0 0.0523381451
C  C17  1  0.83268000  0.55762000  0.67488000  1.0 -0.0026723161
C  C18  1  0.84134000  0.66490000  0.77822000  1.0 0.0523381451
C  C19  1  0.88274000  0.15780000  0.32512000  1.0 -0.0026723161
C  C20  1  0.88668000  0.06312000  0.22178000  1.0 0.0523381451
C  C21  1  0.15780000  0.83268000  0.27506000  1.0 -0.0026723161
C  C22  1  0.06312000  0.84134000  0.17644000  1.0 0.0523381451
C  C23  1  0.55762000  0.88274000  0.72494000  1.0 -0.0026723161
C  C24  1  0.66490000  0.88668000  0.82356000  1.0 0.0523381451
C  C25  1  0.16732000  0.84220000  0.72494000  1.0 -0.0026723161
C  C26  1  0.15866000  0.93688000  0.82356000  1.0 0.0523381451
C  C27  1  0.11726000  0.44238000  0.27506000  1.0 -0.0026723161
C  C28  1  0.11332000  0.33510000  0.17644000  1.0 0.0523381451
C  C29  1  0.84220000  0.11726000  0.67488000  1.0 -0.0026723161
C  C30  1  0.93688000  0.11332000  0.77822000  1.0 0.0523381451
C  C31  1  0.44238000  0.16732000  0.32512000  1.0 -0.0026723161
C  C32  1  0.33510000  0.15866000  0.22178000  1.0 0.0523381451
C  C33  1  0.00000000  0.35274000  0.35274000  1.0 0.0773760597
C  C34  1  0.00000000  0.45581000  0.45581000  1.0 -0.25171198
C  C35  1  0.00000000  0.64726000  0.64726000  1.0 0.0773760597
C  C36  1  0.00000000  0.54419000  0.54419000  1.0 -0.25171198
C  C37  1  0.64726000  0.00000000  0.64726000  1.0 0.0773760597
C  C38  1  0.54419000  0.00000000  0.54419000  1.0 -0.25171198
C  C39  1  0.35274000  0.00000000  0.35274000  1.0 0.0773760597
C  C40  1  0.45581000  0.00000000  0.45581000  1.0 -0.25171198
N  N1  1  0.00000000  0.14897000  0.14897000  1.0 -0.1832297748
N  N2  1  0.00000000  0.85103000  0.85103000  1.0 -0.1832297748
N  N3  1  0.85103000  0.00000000  0.85103000  1.0 -0.1832297748
N  N4  1  0.14897000  0.00000000  0.14897000  1.0 -0.1832297748
F  F1  1  0.28300000  0.28300000  0.00000000  1.0 -0.5170021857
F  F2  1  0.71700000  0.71700000  0.00000000  1.0 -0.5170021857
F  F3  1  0.58780000  0.58780000  0.17560000  1.0 -0.5170021857
F  F4  1  0.41220000  0.41220000  0.82440000  1.0 -0.5170021857
F  F5  1  0.41220000  0.58780000  0.00000000  1.0 -0.5170021857
F  F6  1  0.58780000  0.41220000  0.00000000  1.0 -0.5170021857
