# DDEC6 charges by PACMAN v1.1 (https://github.com/mtap-research/PACMAN-charge/)
data_PETNOS_FSR_pacman
_symmetry_space_group_name_H-M   'P 1'
_cell_length_a   9.46100000
_cell_length_b   9.40280000
_cell_length_c   20.96300000
_cell_angle_alpha   90.00000000
_cell_angle_beta   100.18600000
_cell_angle_gamma   90.00000000
_symmetry_Int_Tables_number   1
_chemical_formula_structural   In2P5H7O15
_chemical_formula_sum   'In8 P20 H28 O60'
_cell_volume   1835.47375238
_cell_formula_units_Z   4
loop_
 _symmetry_equiv_pos_site_id
 _symmetry_equiv_pos_as_xyz
  1  'x, y, z'
loop_
 _atom_site_type_symbol
 _atom_site_label
 _atom_site_symmetry_multiplicity
 _atom_site_fract_x
 _atom_site_fract_y
 _atom_site_fract_z
 _atom_site_occupancy
 _atom_site_charge
In  In1  1  0.62758000  0.66577000  0.59670000  1.0 1.6338442518
In  In2  1  0.37242000  0.16577000  0.90330000  1.0 1.6364649488
In  In3  1  0.37242000  0.33423000  0.40330000  1.0 1.6338442518
In  In4  1  0.62758000  0.83423000  0.09670000  1.0 1.6364649488
In  In5  1  0.87511000  0.83550000  0.40962000  1.0 1.6596097304
In  In6  1  0.12489000  0.33550000  0.09038000  1.0 1.6596097304
In  In7  1  0.12489000  0.16450000  0.59038000  1.0 1.6596097304
In  In8  1  0.87511000  0.66450000  0.90962000  1.0 1.6596097304
P  P1  1  0.38089000  0.41096000  0.56008000  1.0 1.2493391984
P  P2  1  0.61911000  0.91096000  0.93992000  1.0 1.2493391984
P  P3  1  0.61911000  0.58904000  0.43992000  1.0 1.2560061766
P  P4  1  0.38089000  0.08904000  0.06008000  1.0 1.2560061766
P  P5  1  0.33390000  0.87448000  0.55722000  1.0 1.2669683052
P  P6  1  0.66610000  0.37448000  0.94278000  1.0 1.2669683052
P  P7  1  0.66610000  0.12552000  0.44278000  1.0 1.2669683052
P  P8  1  0.33390000  0.62552000  0.05722000  1.0 1.2669683052
P  P9  1  0.79154000  0.73660000  0.74738000  1.0 1.2493391984
P  P10  1  0.20846000  0.23660000  0.75262000  1.0 1.2493391984
P  P11  1  0.20846000  0.26340000  0.25262000  1.0 1.2493391984
P  P12  1  0.79154000  0.76340000  0.24738000  1.0 1.2493391984
P  P13  1  0.90400000  0.88114000  0.57706000  1.0 1.2013393594
P  P14  1  0.09600000  0.38114000  0.92294000  1.0 1.2013393594
P  P15  1  0.09600000  0.11886000  0.42294000  1.0 1.2013393594
P  P16  1  0.90400000  0.61886000  0.07706000  1.0 1.2013393594
P  P17  1  0.96509000  0.48886000  0.60281000  1.0 1.2013393594
P  P18  1  0.03491000  0.98886000  0.89719000  1.0 1.2013393594
P  P19  1  0.03491000  0.51114000  0.39719000  1.0 1.206921394
P  P20  1  0.96509000  0.01114000  0.10281000  1.0 1.206921394
H  H1  1  0.91000000  0.74000000  0.72000000  1.0 -0.1021262096
H  H2  1  0.09000000  0.24000000  0.78000000  1.0 -0.1021262096
H  H3  1  0.09000000  0.26000000  0.28000000  1.0 -0.1021262096
H  H4  1  0.91000000  0.76000000  0.22000000  1.0 -0.1021262096
H  H5  1  0.99400000  0.80800000  0.62000000  1.0 -0.0920739308
H  H6  1  0.00600000  0.30800000  0.88000000  1.0 -0.0920739308
H  H7  1  0.00600000  0.19200000  0.38000000  1.0 -0.0920739308
H  H8  1  0.99400000  0.69200000  0.12000000  1.0 -0.0920739308
H  H9  1  0.28700000  0.51900000  0.53800000  1.0 -0.0920739308
H  H10  1  0.71300000  0.01900000  0.96200000  1.0 -0.1021262096
H  H11  1  0.71300000  0.48100000  0.46200000  1.0 -0.0920739308
H  H12  1  0.28700000  0.98100000  0.03800000  1.0 -0.0920739308
H  H13  1  0.01300000  0.56100000  0.55300000  1.0 -0.0920739308
H  H14  1  0.98700000  0.06100000  0.94700000  1.0 -0.0920739308
H  H15  1  0.98700000  0.43900000  0.44700000  1.0 -0.0920739308
H  H16  1  0.01300000  0.93900000  0.05300000  1.0 -0.0920739308
H  H17  1  0.14600000  0.51780000  0.66370000  1.0 0.3960084273
H  H18  1  0.85400000  0.01780000  0.83630000  1.0 0.3960084273
H  H19  1  0.85400000  0.48220000  0.33630000  1.0 0.3960084273
H  H20  1  0.14600000  0.98220000  0.16370000  1.0 0.3960084273
H  H21  1  0.14770000  0.78720000  0.52410000  1.0 0.3905720962
H  H22  1  0.85230000  0.28720000  0.97590000  1.0 0.3905720962
H  H23  1  0.85230000  0.21280000  0.47590000  1.0 0.3905720962
H  H24  1  0.14770000  0.71280000  0.02410000  1.0 0.3905720962
H  H25  1  0.40800000  0.95300000  0.51500000  1.0 -0.0682095094
H  H26  1  0.59200000  0.45300000  0.98500000  1.0 -0.0682095094
H  H27  1  0.59200000  0.04700000  0.48500000  1.0 -0.0682095094
H  H28  1  0.40800000  0.54700000  0.01500000  1.0 -0.0682095094
O  O1  1  0.75330000  0.84990000  0.58958000  1.0 -0.7002389254
O  O2  1  0.24670000  0.34990000  0.91042000  1.0 -0.7002389254
O  O3  1  0.24670000  0.15010000  0.41042000  1.0 -0.7002389254
O  O4  1  0.75330000  0.65010000  0.08958000  1.0 -0.7002389254
O  O5  1  0.66190000  0.67590000  0.70114000  1.0 -0.6587611111
O  O6  1  0.33810000  0.17590000  0.79886000  1.0 -0.6587611111
O  O7  1  0.33810000  0.32410000  0.29886000  1.0 -0.6587611111
O  O8  1  0.66190000  0.82410000  0.20114000  1.0 -0.6587611111
O  O9  1  0.93380000  0.82100000  0.51323000  1.0 -0.7225119667
O  O10  1  0.06620000  0.32100000  0.98677000  1.0 -0.7225119667
O  O11  1  0.06620000  0.17900000  0.48677000  1.0 -0.7225119667
O  O12  1  0.93380000  0.67900000  0.01323000  1.0 -0.7225119667
O  O13  1  0.76660000  0.89110000  0.76369000  1.0 -0.529481952
O  O14  1  0.23340000  0.39110000  0.73631000  1.0 -0.529481952
O  O15  1  0.23340000  0.10890000  0.23631000  1.0 -0.529481952
O  O16  1  0.76660000  0.60890000  0.26369000  1.0 -0.529481952
O  O17  1  0.50540000  0.47610000  0.60905000  1.0 -0.6587611111
O  O18  1  0.49460000  0.97610000  0.89095000  1.0 -0.6587611111
O  O19  1  0.49460000  0.52390000  0.39095000  1.0 -0.6587611111
O  O20  1  0.50540000  0.02390000  0.10905000  1.0 -0.6587611111
O  O21  1  0.83060000  0.64360000  0.80677000  1.0 -0.6713401423
O  O22  1  0.16940000  0.14360000  0.69323000  1.0 -0.6713401423
O  O23  1  0.16940000  0.35640000  0.19323000  1.0 -0.6713401423
O  O24  1  0.83060000  0.85640000  0.30677000  1.0 -0.6713401423
O  O25  1  0.97290000  0.32900000  0.59704000  1.0 -0.6713401423
O  O26  1  0.02710000  0.82900000  0.90296000  1.0 -0.6713401423
O  O27  1  0.02710000  0.67100000  0.40296000  1.0 -0.6713401423
O  O28  1  0.97290000  0.17100000  0.09704000  1.0 -0.6713401423
O  O29  1  0.93320000  0.04030000  0.58535000  1.0 -0.6839859234
O  O30  1  0.06680000  0.54030000  0.91465000  1.0 -0.6839859234
O  O31  1  0.06680000  0.95970000  0.41465000  1.0 -0.6839859234
O  O32  1  0.93320000  0.45970000  0.08535000  1.0 -0.6839859234
O  O33  1  0.29670000  0.30910000  0.59536000  1.0 -0.7087552594
O  O34  1  0.70330000  0.80910000  0.90464000  1.0 -0.7087552594
O  O35  1  0.70330000  0.69090000  0.40464000  1.0 -0.7087552594
O  O36  1  0.29670000  0.19090000  0.09536000  1.0 -0.7087552594
O  O37  1  0.43840000  0.34110000  0.50448000  1.0 -0.7264947938
O  O38  1  0.56160000  0.84110000  0.99552000  1.0 -0.7264947938
O  O39  1  0.56160000  0.65890000  0.49552000  1.0 -0.7264947938
O  O40  1  0.43840000  0.15890000  0.00448000  1.0 -0.7264947938
O  O41  1  0.81320000  0.53510000  0.60235000  1.0 -0.6925758915
O  O42  1  0.18680000  0.03510000  0.89765000  1.0 -0.6925758915
O  O43  1  0.18680000  0.46490000  0.39765000  1.0 -0.6925758915
O  O44  1  0.81320000  0.96490000  0.10235000  1.0 -0.6925758915
O  O45  1  0.44530000  0.79540000  0.60349000  1.0 -0.6713401423
O  O46  1  0.55470000  0.29540000  0.89651000  1.0 -0.6713401423
O  O47  1  0.55470000  0.20460000  0.39651000  1.0 -0.6713401423
O  O48  1  0.44530000  0.70460000  0.10349000  1.0 -0.6713401423
O  O49  1  0.25590000  0.98370000  0.58810000  1.0 -0.7002389254
O  O50  1  0.74410000  0.48370000  0.91190000  1.0 -0.7002389254
O  O51  1  0.74410000  0.01630000  0.41190000  1.0 -0.7002389254
O  O52  1  0.25590000  0.51630000  0.08810000  1.0 -0.7002389254
O  O53  1  0.06330000  0.54340000  0.66400000  1.0 -0.5110564725
O  O54  1  0.93670000  0.04340000  0.83600000  1.0 -0.5110564725
O  O55  1  0.93670000  0.45660000  0.33600000  1.0 -0.5110564725
O  O56  1  0.06330000  0.95660000  0.16400000  1.0 -0.5110564725
O  O57  1  0.23010000  0.76640000  0.52050000  1.0 -0.4998414414
O  O58  1  0.76990000  0.26640000  0.97950000  1.0 -0.4998414414
O  O59  1  0.76990000  0.23360000  0.47950000  1.0 -0.4998414414
O  O60  1  0.23010000  0.73360000  0.02050000  1.0 -0.4998414414
