# DDEC6 charges by PACMAN v1.1 (https://github.com/mtap-research/PACMAN-charge/)
data_PETWUI_FSR_pacman
_symmetry_space_group_name_H-M   'P 1'
_cell_length_a   17.37230000
_cell_length_b   17.37230000
_cell_length_c   17.37230000
_cell_angle_alpha   60.00000000
_cell_angle_beta   60.00000000
_cell_angle_gamma   60.00000000
_symmetry_Int_Tables_number   1
_chemical_formula_structural   U3C69O19
_chemical_formula_sum   'U6 C138 O38'
_cell_volume   3707.29344901
_cell_formula_units_Z   2
loop_
 _symmetry_equiv_pos_site_id
 _symmetry_equiv_pos_as_xyz
  1  'x, y, z'
loop_
 _atom_site_type_symbol
 _atom_site_label
 _atom_site_symmetry_multiplicity
 _atom_site_fract_x
 _atom_site_fract_y
 _atom_site_fract_z
 _atom_site_occupancy
 _atom_site_charge
U  U1  1  0.88978000  0.11022000  0.11022000  1.0 2.4235200793
U  U2  1  0.11022000  0.88978000  0.88978000  1.0 2.4235200793
U  U3  1  0.11022000  0.88978000  0.11022000  1.0 2.4235200793
U  U4  1  0.88978000  0.11022000  0.88978000  1.0 2.4235200793
U  U5  1  0.11022000  0.11022000  0.88978000  1.0 2.4235200793
U  U6  1  0.88978000  0.88978000  0.11022000  1.0 2.4235200793
C  C1  1  0.73670000  0.99170000  0.28190000  1.0 0.4708319019
C  C2  1  0.99170000  0.73670000  0.98970000  1.0 0.4708319019
C  C3  1  0.28190000  0.98970000  0.73670000  1.0 0.4708319019
C  C4  1  0.98970000  0.28190000  0.99170000  1.0 0.4708319019
C  C5  1  0.28190000  0.73670000  0.99170000  1.0 0.4708319019
C  C6  1  0.98970000  0.99170000  0.73670000  1.0 0.4708319019
C  C7  1  0.73670000  0.28190000  0.98970000  1.0 0.4708319019
C  C8  1  0.99170000  0.98970000  0.28190000  1.0 0.4708319019
C  C9  1  0.99170000  0.28190000  0.73670000  1.0 0.4708319019
C  C10  1  0.73670000  0.98970000  0.99170000  1.0 0.4708319019
C  C11  1  0.98970000  0.73670000  0.28190000  1.0 0.4708319019
C  C12  1  0.28190000  0.99170000  0.98970000  1.0 0.4708319019
C  C13  1  0.65600000  0.96740000  0.36700000  1.0 -0.0310122431
C  C14  1  0.96740000  0.65600000  0.00960000  1.0 -0.0310122431
C  C15  1  0.36700000  0.00960000  0.65600000  1.0 -0.0310122431
C  C16  1  0.00960000  0.36700000  0.96740000  1.0 -0.0310122431
C  C17  1  0.36700000  0.65600000  0.96740000  1.0 -0.0310122431
C  C18  1  0.00960000  0.96740000  0.65600000  1.0 -0.0310122431
C  C19  1  0.65600000  0.36700000  0.00960000  1.0 -0.0310122431
C  C20  1  0.96740000  0.00960000  0.36700000  1.0 -0.0310122431
C  C21  1  0.96740000  0.36700000  0.65600000  1.0 -0.0310122431
C  C22  1  0.65600000  0.00960000  0.96740000  1.0 -0.0310122431
C  C23  1  0.00960000  0.65600000  0.36700000  1.0 -0.0310122431
C  C24  1  0.36700000  0.96740000  0.00960000  1.0 -0.0310122431
C  C25  1  0.61270000  0.02950000  0.41710000  1.0 0.0402083542
C  C26  1  0.02950000  0.61270000  0.94070000  1.0 0.0402083542
C  C27  1  0.41710000  0.94070000  0.61270000  1.0 0.0402083542
C  C28  1  0.94070000  0.41710000  0.02950000  1.0 0.0402083542
C  C29  1  0.41710000  0.61270000  0.02950000  1.0 0.0402083542
C  C30  1  0.94070000  0.02950000  0.61270000  1.0 0.0402083542
C  C31  1  0.61270000  0.41710000  0.94070000  1.0 0.0402083542
C  C32  1  0.02950000  0.94070000  0.41710000  1.0 0.0402083542
C  C33  1  0.02950000  0.41710000  0.61270000  1.0 0.0402083542
C  C34  1  0.61270000  0.94070000  0.02950000  1.0 0.0402083542
C  C35  1  0.94070000  0.61270000  0.41710000  1.0 0.0402083542
C  C36  1  0.41710000  0.02950000  0.94070000  1.0 0.0402083542
C  C37  1  0.49650000  0.95070000  0.52850000  1.0 0.0402083542
C  C38  1  0.95070000  0.49650000  0.02430000  1.0 0.0402083542
C  C39  1  0.52850000  0.02430000  0.49650000  1.0 0.0402083542
C  C40  1  0.02430000  0.52850000  0.95070000  1.0 0.0402083542
C  C41  1  0.52850000  0.49650000  0.95070000  1.0 0.0402083542
C  C42  1  0.02430000  0.95070000  0.49650000  1.0 0.0402083542
C  C43  1  0.49650000  0.52850000  0.02430000  1.0 0.0402083542
C  C44  1  0.95070000  0.02430000  0.52850000  1.0 0.0402083542
C  C45  1  0.95070000  0.52850000  0.49650000  1.0 0.0402083542
C  C46  1  0.49650000  0.02430000  0.95070000  1.0 0.0402083542
C  C47  1  0.02430000  0.49650000  0.52850000  1.0 0.0402083542
C  C48  1  0.52850000  0.95070000  0.02430000  1.0 0.0402083542
C  C49  1  0.62630000  0.89150000  0.40250000  1.0 -0.0690749246
C  C50  1  0.89150000  0.62630000  0.07970000  1.0 -0.0690749246
C  C51  1  0.40250000  0.07970000  0.62630000  1.0 -0.0690749246
C  C52  1  0.07970000  0.40250000  0.89150000  1.0 -0.0690749246
C  C53  1  0.40250000  0.62630000  0.89150000  1.0 -0.0690749246
C  C54  1  0.07970000  0.89150000  0.62630000  1.0 -0.0690749246
C  C55  1  0.62630000  0.40250000  0.07970000  1.0 -0.0690749246
C  C56  1  0.89150000  0.07970000  0.40250000  1.0 -0.0690749246
C  C57  1  0.89150000  0.40250000  0.62630000  1.0 -0.0690749246
C  C58  1  0.62630000  0.07970000  0.89150000  1.0 -0.0690749246
C  C59  1  0.07970000  0.62630000  0.40250000  1.0 -0.0690749246
C  C60  1  0.40250000  0.89150000  0.07970000  1.0 -0.0690749246
C  C61  1  0.54270000  0.88730000  0.47730000  1.0 -0.0614395981
C  C62  1  0.88730000  0.54270000  0.09270000  1.0 -0.0614395981
C  C63  1  0.47730000  0.09270000  0.54270000  1.0 -0.0614395981
C  C64  1  0.09270000  0.47730000  0.88730000  1.0 -0.0614395981
C  C65  1  0.47730000  0.54270000  0.88730000  1.0 -0.0614395981
C  C66  1  0.09270000  0.88730000  0.54270000  1.0 -0.0614395981
C  C67  1  0.54270000  0.47730000  0.09270000  1.0 -0.0614395981
C  C68  1  0.88730000  0.09270000  0.47730000  1.0 -0.0614395981
C  C69  1  0.88730000  0.47730000  0.54270000  1.0 -0.0614395981
C  C70  1  0.54270000  0.09270000  0.88730000  1.0 -0.0614395981
C  C71  1  0.09270000  0.54270000  0.47730000  1.0 -0.0614395981
C  C72  1  0.47730000  0.88730000  0.09270000  1.0 -0.0614395981
C  C73  1  0.65320000  0.00840000  0.36520000  1.0 -0.0310122431
C  C74  1  0.00840000  0.65320000  0.97320000  1.0 -0.0310122431
C  C75  1  0.36520000  0.97320000  0.65320000  1.0 -0.0310122431
C  C76  1  0.97320000  0.36520000  0.00840000  1.0 -0.0310122431
C  C77  1  0.36520000  0.65320000  0.00840000  1.0 -0.0310122431
C  C78  1  0.97320000  0.00840000  0.65320000  1.0 -0.0310122431
C  C79  1  0.65320000  0.36520000  0.97320000  1.0 -0.0310122431
C  C80  1  0.00840000  0.97320000  0.36520000  1.0 -0.0310122431
C  C81  1  0.00840000  0.36520000  0.65320000  1.0 -0.0310122431
C  C82  1  0.65320000  0.97320000  0.00840000  1.0 -0.0310122431
C  C83  1  0.97320000  0.65320000  0.36520000  1.0 -0.0310122431
C  C84  1  0.36520000  0.00840000  0.97320000  1.0 -0.0310122431
C  C85  1  0.58580000  0.97220000  0.38680000  1.0 -0.0025170089
C  C86  1  0.97220000  0.58580000  0.05520000  1.0 -0.0025170089
C  C87  1  0.38680000  0.05520000  0.58580000  1.0 -0.0025170089
C  C88  1  0.05520000  0.38680000  0.97220000  1.0 -0.0025170089
C  C89  1  0.38680000  0.58580000  0.97220000  1.0 -0.0025170089
C  C90  1  0.05520000  0.97220000  0.58580000  1.0 -0.0025170089
C  C91  1  0.58580000  0.38680000  0.05520000  1.0 -0.0025170089
C  C92  1  0.97220000  0.05520000  0.38680000  1.0 -0.0025170089
C  C93  1  0.97220000  0.38680000  0.58580000  1.0 -0.0025170089
C  C94  1  0.58580000  0.05520000  0.97220000  1.0 -0.0025170089
C  C95  1  0.05520000  0.58580000  0.38680000  1.0 -0.0025170089
C  C96  1  0.38680000  0.97220000  0.05520000  1.0 -0.0025170089
C  C97  1  0.47780000  0.04820000  0.50560000  1.0 0.0402083542
C  C98  1  0.04820000  0.47780000  0.96840000  1.0 0.0402083542
C  C99  1  0.50560000  0.96840000  0.47780000  1.0 0.0402083542
C  C100  1  0.96840000  0.50560000  0.04820000  1.0 0.0402083542
C  C101  1  0.50560000  0.47780000  0.04820000  1.0 0.0402083542
C  C102  1  0.96840000  0.04820000  0.47780000  1.0 0.0402083542
C  C103  1  0.47780000  0.50560000  0.96840000  1.0 0.0402083542
C  C104  1  0.04820000  0.96840000  0.50560000  1.0 0.0402083542
C  C105  1  0.04820000  0.50560000  0.47780000  1.0 0.0402083542
C  C106  1  0.47780000  0.96840000  0.04820000  1.0 0.0402083542
C  C107  1  0.96840000  0.47780000  0.50560000  1.0 0.0402083542
C  C108  1  0.50560000  0.04820000  0.96840000  1.0 0.0402083542
C  C109  1  0.62970000  0.07190000  0.40610000  1.0 0.0018417474
C  C110  1  0.07190000  0.62970000  0.89230000  1.0 0.0018417474
C  C111  1  0.40610000  0.89230000  0.62970000  1.0 0.0018417474
C  C112  1  0.89230000  0.40610000  0.07190000  1.0 0.0018417474
C  C113  1  0.40610000  0.62970000  0.07190000  1.0 0.0018417474
C  C114  1  0.89230000  0.07190000  0.62970000  1.0 0.0018417474
C  C115  1  0.62970000  0.40610000  0.89230000  1.0 0.0018417474
C  C116  1  0.07190000  0.89230000  0.40610000  1.0 0.0018417474
C  C117  1  0.07190000  0.40610000  0.62970000  1.0 0.0018417474
C  C118  1  0.62970000  0.89230000  0.07190000  1.0 0.0018417474
C  C119  1  0.89230000  0.62970000  0.40610000  1.0 0.0018417474
C  C120  1  0.40610000  0.07190000  0.89230000  1.0 0.0018417474
C  C121  1  0.54660000  0.08580000  0.48120000  1.0 -0.0508657062
C  C122  1  0.08580000  0.54660000  0.88640000  1.0 -0.0508657062
C  C123  1  0.48120000  0.88640000  0.54660000  1.0 -0.0508657062
C  C124  1  0.88640000  0.48120000  0.08580000  1.0 -0.0508657062
C  C125  1  0.48120000  0.54660000  0.08580000  1.0 -0.0508657062
C  C126  1  0.88640000  0.08580000  0.54660000  1.0 -0.0508657062
C  C127  1  0.54660000  0.48120000  0.88640000  1.0 -0.0508657062
C  C128  1  0.08580000  0.88640000  0.48120000  1.0 -0.0508657062
C  C129  1  0.08580000  0.48120000  0.54660000  1.0 -0.0508657062
C  C130  1  0.54660000  0.88640000  0.08580000  1.0 -0.0508657062
C  C131  1  0.88640000  0.54660000  0.48120000  1.0 -0.0508657062
C  C132  1  0.48120000  0.08580000  0.88640000  1.0 -0.0508657062
C  C133  1  0.29360000  0.29360000  0.70640000  1.0 0.5774243783
C  C134  1  0.70640000  0.70640000  0.29360000  1.0 0.5774243783
C  C135  1  0.70640000  0.29360000  0.29360000  1.0 0.5774243783
C  C136  1  0.29360000  0.70640000  0.70640000  1.0 0.5774243783
C  C137  1  0.29360000  0.70640000  0.29360000  1.0 0.5774243783
C  C138  1  0.70640000  0.29360000  0.70640000  1.0 0.5774243783
O  O1  1  0.76030000  0.06450000  0.23890000  1.0 -0.4601917405
O  O2  1  0.06450000  0.76030000  0.93630000  1.0 -0.4601917405
O  O3  1  0.23890000  0.93630000  0.76030000  1.0 -0.4601917405
O  O4  1  0.93630000  0.23890000  0.06450000  1.0 -0.4601917405
O  O5  1  0.23890000  0.76030000  0.06450000  1.0 -0.4601917405
O  O6  1  0.93630000  0.06450000  0.76030000  1.0 -0.4601917405
O  O7  1  0.76030000  0.23890000  0.93630000  1.0 -0.4601917405
O  O8  1  0.06450000  0.93630000  0.23890000  1.0 -0.4601917405
O  O9  1  0.06450000  0.23890000  0.76030000  1.0 -0.4601917405
O  O10  1  0.76030000  0.93630000  0.06450000  1.0 -0.4601917405
O  O11  1  0.93630000  0.76030000  0.23890000  1.0 -0.4601917405
O  O12  1  0.23890000  0.06450000  0.93630000  1.0 -0.4601917405
O  O13  1  0.76420000  0.93180000  0.24340000  1.0 -0.4718406934
O  O14  1  0.93180000  0.76420000  0.06060000  1.0 -0.4718406934
O  O15  1  0.24340000  0.06060000  0.76420000  1.0 -0.4718406934
O  O16  1  0.06060000  0.24340000  0.93180000  1.0 -0.4718406934
O  O17  1  0.24340000  0.76420000  0.93180000  1.0 -0.4718406934
O  O18  1  0.06060000  0.93180000  0.76420000  1.0 -0.4718406934
O  O19  1  0.76420000  0.24340000  0.06060000  1.0 -0.4718406934
O  O20  1  0.93180000  0.06060000  0.24340000  1.0 -0.4718406934
O  O21  1  0.93180000  0.24340000  0.76420000  1.0 -0.4718406934
O  O22  1  0.76420000  0.06060000  0.93180000  1.0 -0.4718406934
O  O23  1  0.06060000  0.76420000  0.24340000  1.0 -0.4718406934
O  O24  1  0.24340000  0.93180000  0.06060000  1.0 -0.4718406934
O  O25  1  0.95740000  0.12780000  0.95740000  1.0 -0.9975530693
O  O26  1  0.12780000  0.95740000  0.95740000  1.0 -0.9975530693
O  O27  1  0.95740000  0.95740000  0.95740000  1.0 -0.9975530693
O  O28  1  0.95740000  0.95740000  0.12780000  1.0 -0.9975530693
O  O29  1  0.05810000  0.05810000  0.05810000  1.0 -0.9975530693
O  O30  1  0.05810000  0.05810000  0.82570000  1.0 -0.9975530693
O  O31  1  0.05810000  0.82570000  0.05810000  1.0 -0.9948594261
O  O32  1  0.82570000  0.05810000  0.05810000  1.0 -0.9948594261
O  O33  1  0.78108000  0.21892000  0.21892000  1.0 -0.5024606873
O  O34  1  0.21892000  0.78108000  0.78108000  1.0 -0.5024606873
O  O35  1  0.21892000  0.78108000  0.21892000  1.0 -0.5024606873
O  O36  1  0.78108000  0.21892000  0.78108000  1.0 -0.5024606873
O  O37  1  0.21892000  0.21892000  0.78108000  1.0 -0.5024606873
O  O38  1  0.78108000  0.78108000  0.21892000  1.0 -0.5024606873
