# DDEC6 charges by PACMAN v1.1 (https://github.com/mtap-research/PACMAN-charge/)
data_PETXAP_ASR_pacman
_symmetry_space_group_name_H-M   'P 1'
_cell_length_a   19.41190000
_cell_length_b   19.41190000
_cell_length_c   19.41190000
_cell_angle_alpha   60.00000000
_cell_angle_beta   60.00000000
_cell_angle_gamma   60.00000000
_symmetry_Int_Tables_number   1
_chemical_formula_structural   U3(C33O8)2
_chemical_formula_sum   'U6 C132 O32'
_cell_volume   5172.36469088
_cell_formula_units_Z   2
loop_
 _symmetry_equiv_pos_site_id
 _symmetry_equiv_pos_as_xyz
  1  'x, y, z'
loop_
 _atom_site_type_symbol
 _atom_site_label
 _atom_site_symmetry_multiplicity
 _atom_site_fract_x
 _atom_site_fract_y
 _atom_site_fract_z
 _atom_site_occupancy
 _atom_site_charge
U  U1  1  0.40113000  0.59887000  0.40113000  1.0 2.4331997136
U  U2  1  0.59887000  0.40113000  0.59887000  1.0 2.4331997136
U  U3  1  0.40113000  0.40113000  0.59887000  1.0 2.446342955
U  U4  1  0.59887000  0.59887000  0.40113000  1.0 2.4331997136
U  U5  1  0.59887000  0.40113000  0.40113000  1.0 2.4331997136
U  U6  1  0.40113000  0.59887000  0.59887000  1.0 2.446342955
C  C1  1  0.50000000  0.73940000  0.26060000  1.0 0.6728643973
C  C2  1  0.73940000  0.50000000  0.50000000  1.0 0.6728643973
C  C3  1  0.26060000  0.50000000  0.50000000  1.0 0.6728643973
C  C4  1  0.50000000  0.26060000  0.73940000  1.0 0.6728643973
C  C5  1  0.26060000  0.50000000  0.73940000  1.0 0.6728643973
C  C6  1  0.50000000  0.73940000  0.50000000  1.0 0.6728643973
C  C7  1  0.50000000  0.26060000  0.50000000  1.0 0.6728643973
C  C8  1  0.73940000  0.50000000  0.26060000  1.0 0.6728643973
C  C9  1  0.73940000  0.26060000  0.50000000  1.0 0.6728643973
C  C10  1  0.50000000  0.50000000  0.73940000  1.0 0.6728643973
C  C11  1  0.50000000  0.50000000  0.26060000  1.0 0.6728643973
C  C12  1  0.26060000  0.73940000  0.50000000  1.0 0.6728643973
C  C13  1  0.50000000  0.81760000  0.18240000  1.0 -0.0196146695
C  C14  1  0.81760000  0.50000000  0.50000000  1.0 -0.0196146695
C  C15  1  0.18240000  0.50000000  0.50000000  1.0 -0.0196146695
C  C16  1  0.50000000  0.18240000  0.81760000  1.0 -0.0196146695
C  C17  1  0.18240000  0.50000000  0.81760000  1.0 -0.0196146695
C  C18  1  0.50000000  0.81760000  0.50000000  1.0 -0.0196146695
C  C19  1  0.50000000  0.18240000  0.50000000  1.0 -0.0196146695
C  C20  1  0.81760000  0.50000000  0.18240000  1.0 -0.0196146695
C  C21  1  0.81760000  0.18240000  0.50000000  1.0 -0.0196146695
C  C22  1  0.50000000  0.50000000  0.81760000  1.0 -0.0196146695
C  C23  1  0.50000000  0.50000000  0.18240000  1.0 -0.0196146695
C  C24  1  0.18240000  0.81760000  0.50000000  1.0 -0.0196146695
C  C25  1  0.50000000  0.96080000  0.03920000  1.0 -0.0196146695
C  C26  1  0.96080000  0.50000000  0.50000000  1.0 -0.0196146695
C  C27  1  0.03920000  0.50000000  0.50000000  1.0 -0.0196146695
C  C28  1  0.50000000  0.03920000  0.96080000  1.0 -0.0196146695
C  C29  1  0.03920000  0.50000000  0.96080000  1.0 -0.0196146695
C  C30  1  0.50000000  0.96080000  0.50000000  1.0 -0.0196146695
C  C31  1  0.50000000  0.03920000  0.50000000  1.0 -0.0196146695
C  C32  1  0.96080000  0.50000000  0.03920000  1.0 -0.0196146695
C  C33  1  0.96080000  0.03920000  0.50000000  1.0 -0.0196146695
C  C34  1  0.50000000  0.50000000  0.96080000  1.0 -0.0196146695
C  C35  1  0.50000000  0.50000000  0.03920000  1.0 -0.0196146695
C  C36  1  0.03920000  0.96080000  0.50000000  1.0 -0.0196146695
C  C37  1  0.42580000  0.87020000  0.16320000  1.0 -0.0039457569
C  C38  1  0.87020000  0.42580000  0.54080000  1.0 -0.0039457569
C  C39  1  0.16320000  0.54080000  0.42580000  1.0 -0.0039457569
C  C40  1  0.54080000  0.16320000  0.87020000  1.0 -0.0039457569
C  C41  1  0.16320000  0.42580000  0.87020000  1.0 -0.0039457569
C  C42  1  0.54080000  0.87020000  0.42580000  1.0 -0.0039457569
C  C43  1  0.42580000  0.16320000  0.54080000  1.0 -0.0039457569
C  C44  1  0.87020000  0.54080000  0.16320000  1.0 -0.0039457569
C  C45  1  0.87020000  0.16320000  0.42580000  1.0 -0.0039457569
C  C46  1  0.42580000  0.54080000  0.87020000  1.0 -0.0039457569
C  C47  1  0.54080000  0.42580000  0.16320000  1.0 -0.0039457569
C  C48  1  0.16320000  0.87020000  0.54080000  1.0 -0.0039457569
C  C49  1  0.57420000  0.12980000  0.45920000  1.0 -0.0039457569
C  C50  1  0.12980000  0.57420000  0.83680000  1.0 -0.0039457569
C  C51  1  0.83680000  0.45920000  0.12980000  1.0 -0.0039457569
C  C52  1  0.45920000  0.83680000  0.57420000  1.0 -0.0039457569
C  C53  1  0.83680000  0.57420000  0.45920000  1.0 -0.0039457569
C  C54  1  0.45920000  0.12980000  0.83680000  1.0 -0.0039457569
C  C55  1  0.57420000  0.83680000  0.12980000  1.0 -0.0039457569
C  C56  1  0.12980000  0.45920000  0.57420000  1.0 -0.0039457569
C  C57  1  0.12980000  0.83680000  0.45920000  1.0 -0.0039457569
C  C58  1  0.57420000  0.45920000  0.83680000  1.0 -0.0039457569
C  C59  1  0.45920000  0.57420000  0.12980000  1.0 -0.0039457569
C  C60  1  0.83680000  0.12980000  0.57420000  1.0 -0.0039457569
C  C61  1  0.57420000  0.12980000  0.83680000  1.0 -0.0039457569
C  C62  1  0.12980000  0.57420000  0.45920000  1.0 -0.0039457569
C  C63  1  0.83680000  0.45920000  0.57420000  1.0 -0.0039457569
C  C64  1  0.45920000  0.83680000  0.12980000  1.0 -0.0039457569
C  C65  1  0.83680000  0.57420000  0.12980000  1.0 -0.0039457569
C  C66  1  0.45920000  0.12980000  0.57420000  1.0 -0.0039457569
C  C67  1  0.57420000  0.83680000  0.45920000  1.0 -0.0039457569
C  C68  1  0.12980000  0.45920000  0.83680000  1.0 -0.0039457569
C  C69  1  0.12980000  0.83680000  0.57420000  1.0 -0.0039457569
C  C70  1  0.57420000  0.45920000  0.12980000  1.0 -0.0039457569
C  C71  1  0.45920000  0.57420000  0.83680000  1.0 -0.0039457569
C  C72  1  0.83680000  0.12980000  0.45920000  1.0 -0.0039457569
C  C73  1  0.42580000  0.87020000  0.54080000  1.0 -0.0039457569
C  C74  1  0.87020000  0.42580000  0.16320000  1.0 -0.0039457569
C  C75  1  0.16320000  0.54080000  0.87020000  1.0 -0.0039457569
C  C76  1  0.54080000  0.16320000  0.42580000  1.0 -0.0039457569
C  C77  1  0.16320000  0.42580000  0.54080000  1.0 -0.0039457569
C  C78  1  0.54080000  0.87020000  0.16320000  1.0 -0.0039457569
C  C79  1  0.42580000  0.16320000  0.87020000  1.0 -0.0039457569
C  C80  1  0.87020000  0.54080000  0.42580000  1.0 -0.0039457569
C  C81  1  0.87020000  0.16320000  0.54080000  1.0 -0.0039457569
C  C82  1  0.42580000  0.54080000  0.16320000  1.0 -0.0039457569
C  C83  1  0.54080000  0.42580000  0.87020000  1.0 -0.0039457569
C  C84  1  0.16320000  0.87020000  0.42580000  1.0 -0.0039457569
C  C85  1  0.42640000  0.93980000  0.09040000  1.0 0.0071215654
C  C86  1  0.93980000  0.42640000  0.54340000  1.0 0.0071215654
C  C87  1  0.09040000  0.54340000  0.42640000  1.0 0.0071215654
C  C88  1  0.54340000  0.09040000  0.93980000  1.0 0.0071215654
C  C89  1  0.09040000  0.42640000  0.93980000  1.0 0.0071215654
C  C90  1  0.54340000  0.93980000  0.42640000  1.0 0.0071215654
C  C91  1  0.42640000  0.09040000  0.54340000  1.0 0.0071215654
C  C92  1  0.93980000  0.54340000  0.09040000  1.0 0.0071215654
C  C93  1  0.93980000  0.09040000  0.42640000  1.0 0.0071215654
C  C94  1  0.42640000  0.54340000  0.93980000  1.0 0.0071215654
C  C95  1  0.54340000  0.42640000  0.09040000  1.0 0.0071215654
C  C96  1  0.09040000  0.93980000  0.54340000  1.0 0.0071215654
C  C97  1  0.57360000  0.06020000  0.45660000  1.0 0.0071215654
C  C98  1  0.06020000  0.57360000  0.90960000  1.0 0.0071215654
C  C99  1  0.90960000  0.45660000  0.06020000  1.0 0.0071215654
C  C100  1  0.45660000  0.90960000  0.57360000  1.0 0.0071215654
C  C101  1  0.90960000  0.57360000  0.45660000  1.0 0.0071215654
C  C102  1  0.45660000  0.06020000  0.90960000  1.0 0.0071215654
C  C103  1  0.57360000  0.90960000  0.06020000  1.0 0.0071215654
C  C104  1  0.06020000  0.45660000  0.57360000  1.0 0.0071215654
C  C105  1  0.06020000  0.90960000  0.45660000  1.0 0.0071215654
C  C106  1  0.57360000  0.45660000  0.90960000  1.0 0.0071215654
C  C107  1  0.45660000  0.57360000  0.06020000  1.0 0.0071215654
C  C108  1  0.90960000  0.06020000  0.57360000  1.0 0.0071215654
C  C109  1  0.57360000  0.06020000  0.90960000  1.0 0.0071215654
C  C110  1  0.06020000  0.57360000  0.45660000  1.0 0.0071215654
C  C111  1  0.90960000  0.45660000  0.57360000  1.0 0.0071215654
C  C112  1  0.45660000  0.90960000  0.06020000  1.0 0.0071215654
C  C113  1  0.90960000  0.57360000  0.06020000  1.0 0.0071215654
C  C114  1  0.45660000  0.06020000  0.57360000  1.0 0.0071215654
C  C115  1  0.57360000  0.90960000  0.45660000  1.0 0.0071215654
C  C116  1  0.06020000  0.45660000  0.90960000  1.0 0.0071215654
C  C117  1  0.06020000  0.90960000  0.57360000  1.0 0.0071215654
C  C118  1  0.57360000  0.45660000  0.06020000  1.0 0.0071215654
C  C119  1  0.45660000  0.57360000  0.90960000  1.0 0.0071215654
C  C120  1  0.90960000  0.06020000  0.45660000  1.0 0.0071215654
C  C121  1  0.42640000  0.93980000  0.54340000  1.0 0.0071215654
C  C122  1  0.93980000  0.42640000  0.09040000  1.0 0.0071215654
C  C123  1  0.09040000  0.54340000  0.93980000  1.0 0.0071215654
C  C124  1  0.54340000  0.09040000  0.42640000  1.0 0.0071215654
C  C125  1  0.09040000  0.42640000  0.54340000  1.0 0.0071215654
C  C126  1  0.54340000  0.93980000  0.09040000  1.0 0.0071215654
C  C127  1  0.42640000  0.09040000  0.93980000  1.0 0.0071215654
C  C128  1  0.93980000  0.54340000  0.42640000  1.0 0.0071215654
C  C129  1  0.93980000  0.09040000  0.54340000  1.0 0.0071215654
C  C130  1  0.42640000  0.54340000  0.09040000  1.0 0.0071215654
C  C131  1  0.54340000  0.42640000  0.93980000  1.0 0.0071215654
C  C132  1  0.09040000  0.93980000  0.42640000  1.0 0.0071215654
O  O1  1  0.44090000  0.71150000  0.28850000  1.0 -0.5591838808
O  O2  1  0.71150000  0.44090000  0.55910000  1.0 -0.5591838808
O  O3  1  0.28850000  0.55910000  0.44090000  1.0 -0.5591838808
O  O4  1  0.55910000  0.28850000  0.71150000  1.0 -0.5591838808
O  O5  1  0.28850000  0.44090000  0.71150000  1.0 -0.5591838808
O  O6  1  0.55910000  0.71150000  0.44090000  1.0 -0.5591838808
O  O7  1  0.44090000  0.28850000  0.55910000  1.0 -0.5591838808
O  O8  1  0.71150000  0.55910000  0.28850000  1.0 -0.5591838808
O  O9  1  0.71150000  0.28850000  0.44090000  1.0 -0.5591838808
O  O10  1  0.44090000  0.55910000  0.71150000  1.0 -0.5591838808
O  O11  1  0.55910000  0.44090000  0.28850000  1.0 -0.5591838808
O  O12  1  0.28850000  0.71150000  0.55910000  1.0 -0.5591838808
O  O13  1  0.55910000  0.28850000  0.44090000  1.0 -0.5591838808
O  O14  1  0.28850000  0.55910000  0.71150000  1.0 -0.5591838808
O  O15  1  0.71150000  0.44090000  0.28850000  1.0 -0.5591838808
O  O16  1  0.44090000  0.71150000  0.55910000  1.0 -0.5591838808
O  O17  1  0.71150000  0.55910000  0.44090000  1.0 -0.5591838808
O  O18  1  0.44090000  0.28850000  0.71150000  1.0 -0.5591838808
O  O19  1  0.55910000  0.71150000  0.28850000  1.0 -0.5591838808
O  O20  1  0.28850000  0.44090000  0.55910000  1.0 -0.5591838808
O  O21  1  0.28850000  0.71150000  0.44090000  1.0 -0.5591838808
O  O22  1  0.55910000  0.44090000  0.71150000  1.0 -0.5591838808
O  O23  1  0.44090000  0.55910000  0.28850000  1.0 -0.5591838808
O  O24  1  0.71150000  0.28850000  0.55910000  1.0 -0.5591838808
O  O25  1  0.45180000  0.45180000  0.45180000  1.0 -1.120141392
O  O26  1  0.45180000  0.45180000  0.64460000  1.0 -1.120141392
O  O27  1  0.45180000  0.64460000  0.45180000  1.0 -1.120141392
O  O28  1  0.64460000  0.45180000  0.45180000  1.0 -1.120141392
O  O29  1  0.54820000  0.54820000  0.35540000  1.0 -1.120141392
O  O30  1  0.54820000  0.54820000  0.54820000  1.0 -1.120141392
O  O31  1  0.54820000  0.35540000  0.54820000  1.0 -1.120141392
O  O32  1  0.35540000  0.54820000  0.54820000  1.0 -1.120141392
