# DDEC6 charges by PACMAN v1.1 (https://github.com/mtap-research/PACMAN-charge/)
data_PEVCEC_ASR_pacman
_symmetry_space_group_name_H-M   'P 1'
_cell_length_a   11.11380000
_cell_length_b   12.73300000
_cell_length_c   13.51640000
_cell_angle_alpha   80.72400000
_cell_angle_beta   84.06300000
_cell_angle_gamma   68.54100000
_symmetry_Int_Tables_number   1
_chemical_formula_structural   CuH23C21N6ClO4
_chemical_formula_sum   'Cu2 H46 C42 N12 Cl2 O8'
_cell_volume   1754.80333723
_cell_formula_units_Z   2
loop_
 _symmetry_equiv_pos_site_id
 _symmetry_equiv_pos_as_xyz
  1  'x, y, z'
loop_
 _atom_site_type_symbol
 _atom_site_label
 _atom_site_symmetry_multiplicity
 _atom_site_fract_x
 _atom_site_fract_y
 _atom_site_fract_z
 _atom_site_occupancy
 _atom_site_charge
Cu  Cu1  1  0.50000000  0.00000000  0.50000000  1.0 0.5450306324
Cu  Cu2  1  0.00000000  0.00000000  0.50000000  1.0 0.3661067573
H  H1  1  0.74870000  0.01200000  0.48850000  1.0 0.280461484
H  H2  1  0.25130000  0.98800000  0.51150000  1.0 0.280461484
H  H3  1  0.93700000  0.07000000  0.32200000  1.0 0.280461484
H  H4  1  0.06300000  0.93000000  0.67800000  1.0 0.280461484
H  H5  1  0.23844000  0.18735000  0.54974000  1.0 0.1103323698
H  H6  1  0.76156000  0.81265000  0.45026000  1.0 0.1103323698
H  H7  1  0.08535000  0.47569000  0.33877000  1.0 0.1290672937
H  H8  1  0.91465000  0.52431000  0.66123000  1.0 0.1290672937
H  H9  1  0.50898000  0.23180000  0.35466000  1.0 0.1213822253
H  H10  1  0.49102000  0.76820000  0.64534000  1.0 0.1213822253
H  H11  1  0.47584000  0.93496000  0.73897000  1.0 0.1103323698
H  H12  1  0.52416000  0.06504000  0.26103000  1.0 0.1103323698
H  H13  1  0.53420000  0.39845000  0.65795000  1.0 0.1290672937
H  H14  1  0.46580000  0.60155000  0.34205000  1.0 0.1290672937
H  H15  1  0.58177000  0.17899000  0.58897000  1.0 0.1103323698
H  H16  1  0.41823000  0.82101000  0.41103000  1.0 0.1103323698
H  H17  1  0.33308000  0.41705000  0.35593000  1.0 0.1213822253
H  H18  1  0.66692000  0.58295000  0.64407000  1.0 0.1213822253
H  H19  1  0.76449000  0.21999000  0.43060000  1.0 0.102204786
H  H20  1  0.23551000  0.78001000  0.56940000  1.0 0.102204786
H  H21  1  0.77864000  0.34074000  0.68010000  1.0 0.1290672937
H  H22  1  0.22136000  0.65926000  0.31990000  1.0 0.1290672937
H  H23  1  0.76669000  0.65648000  0.33733000  1.0 0.1290672937
H  H24  1  0.23331000  0.34352000  0.66267000  1.0 0.1290672937
H  H25  1  0.88990000  0.60445000  0.26822000  1.0 0.1452528623
H  H26  1  0.11010000  0.39555000  0.73178000  1.0 0.140387835
H  H27  1  0.87023000  0.71512000  0.31461000  1.0 0.140387835
H  H28  1  0.12977000  0.28488000  0.68539000  1.0 0.140387835
H  H29  1  0.95418000  0.15674000  0.67526000  1.0 0.1213822253
H  H30  1  0.04582000  0.84326000  0.32474000  1.0 0.1213822253
H  H31  1  0.57985000  0.19269000  0.76652000  1.0 0.1290672937
H  H32  1  0.42015000  0.80731000  0.23348000  1.0 0.1290672937
H  H33  1  0.30663000  0.62347000  0.69007000  1.0 0.140387835
H  H34  1  0.69337000  0.37653000  0.30993000  1.0 0.140387835
H  H35  1  0.32020000  0.49518000  0.71504000  1.0 0.140387835
H  H36  1  0.67980000  0.50482000  0.28496000  1.0 0.140387835
H  H37  1  0.21836000  0.57779000  0.63927000  1.0 0.140387835
H  H38  1  0.78164000  0.42221000  0.36073000  1.0 0.140387835
H  H39  1  0.66461000  0.88064000  0.90816000  1.0 0.1290672937
H  H40  1  0.33539000  0.11936000  0.09184000  1.0 0.1290672937
H  H41  1  0.34795000  0.26285000  0.87899000  1.0 0.1290672937
H  H42  1  0.65205000  0.73715000  0.12101000  1.0 0.1290672937
H  H43  1  0.23672000  0.23149000  0.94261000  1.0 0.140387835
H  H44  1  0.76328000  0.76851000  0.05739000  1.0 0.140387835
H  H45  1  0.28596000  0.18610000  0.83921000  1.0 0.1290672937
H  H46  1  0.71404000  0.81390000  0.16079000  1.0 0.1290672937
C  C1  1  0.28380000  0.22080000  0.50120000  1.0 0.0659726647
C  C2  1  0.71620000  0.77920000  0.49880000  1.0 0.0659726647
C  C3  1  0.11740000  0.41680000  0.48460000  1.0 0.0804824857
C  C4  1  0.88260000  0.58320000  0.51540000  1.0 0.0804824857
C  C5  1  0.92900000  0.57150000  0.41690000  1.0 0.0804824857
C  C6  1  0.07100000  0.42850000  0.58310000  1.0 0.0804824857
C  C7  1  0.04980000  0.48610000  0.40340000  1.0 -0.2721234771
C  C8  1  0.95020000  0.51390000  0.59660000  1.0 -0.2721234771
C  C9  1  0.43210000  0.24610000  0.39370000  1.0 -0.047762076
C  C10  1  0.56790000  0.75390000  0.60630000  1.0 -0.047762076
C  C11  1  0.50410000  0.99630000  0.72330000  1.0 0.0917900366
C  C12  1  0.49590000  0.00370000  0.27670000  1.0 0.0917900366
C  C13  1  0.61380000  0.41030000  0.51860000  1.0 0.0804824857
C  C14  1  0.38620000  0.58970000  0.48140000  1.0 0.0804824857
C  C15  1  0.40240000  0.53060000  0.57840000  1.0 0.0804824857
C  C16  1  0.59760000  0.46940000  0.42160000  1.0 0.0804824857
C  C17  1  0.51940000  0.44000000  0.59440000  1.0 -0.276980436
C  C18  1  0.48060000  0.56000000  0.40560000  1.0 -0.276980436
C  C19  1  0.51160000  0.02630000  0.89890000  1.0 0.0633191069
C  C20  1  0.48840000  0.97370000  0.10110000  1.0 0.0633191069
C  C21  1  0.56130000  0.13060000  0.64160000  1.0 -0.0609827998
C  C22  1  0.43870000  0.86940000  0.35840000  1.0 -0.0609827998
C  C23  1  0.33550000  0.34880000  0.39420000  1.0 -0.107444829
C  C24  1  0.66450000  0.65120000  0.60580000  1.0 -0.107444829
C  C25  1  0.79010000  0.22680000  0.49190000  1.0 0.0188481513
C  C26  1  0.20990000  0.77320000  0.50810000  1.0 0.0188481513
C  C27  1  0.79700000  0.29460000  0.62970000  1.0 -0.1010470955
C  C28  1  0.20300000  0.70540000  0.37030000  1.0 -0.1010470955
C  C29  1  0.85740000  0.64350000  0.32600000  1.0 -0.4698891999
C  C30  1  0.14260000  0.35650000  0.67400000  1.0 -0.4698891999
C  C31  1  0.89370000  0.19260000  0.62650000  1.0 -0.0272715601
C  C32  1  0.10630000  0.80740000  0.37350000  1.0 -0.0272715601
C  C33  1  0.56070000  0.13840000  0.73930000  1.0 -0.1010470955
C  C34  1  0.43930000  0.86160000  0.26070000  1.0 -0.1010470955
C  C35  1  0.30290000  0.55930000  0.66330000  1.0 -0.4566244619
C  C36  1  0.69710000  0.44070000  0.33670000  1.0 -0.4566244619
C  C37  1  0.59880000  0.92840000  0.94610000  1.0 -0.2473259928
C  C38  1  0.40120000  0.07160000  0.05390000  1.0 -0.2473259928
C  C39  1  0.40960000  0.10050000  0.95000000  1.0 0.0804824857
C  C40  1  0.59040000  0.89950000  0.05000000  1.0 0.0804824857
C  C41  1  0.31120000  0.20460000  0.89800000  1.0 -0.4424418422
C  C42  1  0.68880000  0.79540000  0.10200000  1.0 -0.4424418422
N  N1  1  0.39810000  0.16600000  0.46068000  1.0 -0.3025361361
N  N2  1  0.60190000  0.83400000  0.53932000  1.0 -0.3025361361
N  N3  1  0.24130000  0.33190000  0.46290000  1.0 0.0047288047
N  N4  1  0.75870000  0.66810000  0.53710000  1.0 0.0047288047
N  N5  1  0.52720000  0.04000000  0.63132000  1.0 -0.2930082294
N  N6  1  0.47280000  0.96000000  0.36868000  1.0 -0.2930082294
N  N7  1  0.88920000  0.15040000  0.54110000  1.0 -0.3204313727
N  N8  1  0.11080000  0.84960000  0.45890000  1.0 -0.3204313727
N  N9  1  0.52640000  0.05160000  0.79116000  1.0 0.0188481513
N  N10  1  0.47360000  0.94840000  0.20884000  1.0 0.0188481513
N  N11  1  0.73160000  0.31630000  0.54390000  1.0 0.0116035094
N  N12  1  0.26840000  0.68370000  0.45610000  1.0 0.0116035094
Cl  Cl1  1  0.78076000  0.03450000  0.34654000  1.0 1.1034303097
Cl  Cl2  1  0.21924000  0.96550000  0.65346000  1.0 1.1034303097
O  O1  1  0.70040000  0.02856000  0.43906000  1.0 -0.4698891999
O  O2  1  0.29960000  0.97144000  0.56094000  1.0 -0.4698891999
O  O3  1  0.80540000  0.93540000  0.29509000  1.0 -0.5093305024
O  O4  1  0.19460000  0.06460000  0.70491000  1.0 -0.5093305024
O  O5  1  0.90680000  0.03670000  0.37300000  1.0 -0.4566244619
O  O6  1  0.09320000  0.96330000  0.62700000  1.0 -0.4566244619
O  O7  1  0.71720000  0.14080000  0.28130000  1.0 -0.5093305024
O  O8  1  0.28280000  0.85920000  0.71870000  1.0 -0.5093305024
