# DDEC6 charges by PACMAN v1.1 (https://github.com/mtap-research/PACMAN-charge/)
data_PEVJOQ_ASR_pacman
_symmetry_space_group_name_H-M   'P 1'
_cell_length_a   20.64860000
_cell_length_b   20.64860000
_cell_length_c   9.21330000
_cell_angle_alpha   82.32580000
_cell_angle_beta   97.67420000
_cell_angle_gamma   138.83400000
_symmetry_Int_Tables_number   1
_chemical_formula_structural   CdH24C30(NO)4
_chemical_formula_sum   'Cd4 H96 C120 N16 O16'
_cell_volume   2559.28431314
_cell_formula_units_Z   4
loop_
 _symmetry_equiv_pos_site_id
 _symmetry_equiv_pos_as_xyz
  1  'x, y, z'
loop_
 _atom_site_type_symbol
 _atom_site_label
 _atom_site_symmetry_multiplicity
 _atom_site_fract_x
 _atom_site_fract_y
 _atom_site_fract_z
 _atom_site_occupancy
 _atom_site_charge
Cd  Cd1  1  0.63016000  0.83762000  0.60119000  1.0 0.8057255002
Cd  Cd2  1  0.83762000  0.63016000  0.89881000  1.0 0.8057255002
Cd  Cd3  1  0.36984000  0.16238000  0.39881000  1.0 0.8057255002
Cd  Cd4  1  0.16238000  0.36984000  0.10119000  1.0 0.8057255002
H  H1  1  0.38910000  0.83230000  0.53560000  1.0 0.1184174781
H  H2  1  0.83230000  0.38910000  0.96440000  1.0 0.1184174781
H  H3  1  0.61090000  0.16770000  0.46440000  1.0 0.1184174781
H  H4  1  0.16770000  0.61090000  0.03560000  1.0 0.1184174781
H  H5  1  0.66710000  0.10230000  0.50810000  1.0 0.1184174781
H  H6  1  0.10230000  0.66710000  0.99190000  1.0 0.1184174781
H  H7  1  0.33290000  0.89770000  0.49190000  1.0 0.1184174781
H  H8  1  0.89770000  0.33290000  0.00810000  1.0 0.1184174781
H  H9  1  0.62720000  0.74260000  0.14350000  1.0 0.1120962407
H  H10  1  0.74260000  0.62720000  0.35650000  1.0 0.1120962407
H  H11  1  0.37280000  0.25740000  0.85650000  1.0 0.1120962407
H  H12  1  0.25740000  0.37280000  0.64350000  1.0 0.1120962407
H  H13  1  0.70000000  0.67180000  0.50190000  1.0 0.1184174781
H  H14  1  0.67180000  0.70000000  0.99810000  1.0 0.1184174781
H  H15  1  0.30000000  0.32820000  0.49810000  1.0 0.1184174781
H  H16  1  0.32820000  0.30000000  0.00190000  1.0 0.1184174781
H  H17  1  0.55270000  0.83970000  0.88780000  1.0 0.1120962407
H  H18  1  0.83970000  0.55270000  0.61220000  1.0 0.1120962407
H  H19  1  0.44730000  0.16030000  0.11220000  1.0 0.1120962407
H  H20  1  0.16030000  0.44730000  0.38780000  1.0 0.1120962407
H  H21  1  0.50160000  0.62160000  0.81600000  1.0 0.1300358604
H  H22  1  0.62160000  0.50160000  0.68400000  1.0 0.1300358604
H  H23  1  0.49840000  0.37840000  0.18400000  1.0 0.1300358604
H  H24  1  0.37840000  0.49840000  0.31600000  1.0 0.1300358604
H  H25  1  0.40080000  0.56800000  0.01500000  1.0 0.1300358604
H  H26  1  0.56800000  0.40080000  0.48500000  1.0 0.1300358604
H  H27  1  0.59920000  0.43200000  0.98500000  1.0 0.1300358604
H  H28  1  0.43200000  0.59920000  0.51500000  1.0 0.1300358604
H  H29  1  0.36190000  0.64250000  0.13630000  1.0 0.1300358604
H  H30  1  0.64250000  0.36190000  0.36370000  1.0 0.1300358604
H  H31  1  0.63810000  0.35750000  0.86370000  1.0 0.1300358604
H  H32  1  0.35750000  0.63810000  0.63630000  1.0 0.1300358604
H  H33  1  0.46930000  0.73770000  0.19280000  1.0 0.1300358604
H  H34  1  0.73770000  0.46930000  0.30720000  1.0 0.1300358604
H  H35  1  0.53070000  0.26230000  0.80720000  1.0 0.1300358604
H  H36  1  0.26230000  0.53070000  0.69280000  1.0 0.1300358604
H  H37  1  0.34310000  0.71690000  0.86290000  1.0 0.1184174781
H  H38  1  0.71690000  0.34310000  0.63710000  1.0 0.1184174781
H  H39  1  0.65690000  0.28310000  0.13710000  1.0 0.1184174781
H  H40  1  0.28310000  0.65690000  0.36290000  1.0 0.1184174781
H  H41  1  0.30310000  0.79590000  0.81110000  1.0 0.1120962407
H  H42  1  0.79590000  0.30310000  0.68890000  1.0 0.1120962407
H  H43  1  0.69690000  0.20410000  0.18890000  1.0 0.1120962407
H  H44  1  0.20410000  0.69690000  0.31110000  1.0 0.1120962407
H  H45  1  0.42750000  0.92090000  0.19760000  1.0 0.1120962407
H  H46  1  0.92090000  0.42750000  0.30240000  1.0 0.1120962407
H  H47  1  0.57250000  0.07910000  0.80240000  1.0 0.1120962407
H  H48  1  0.07910000  0.57250000  0.69760000  1.0 0.1120962407
H  H49  1  0.46590000  0.84090000  0.25040000  1.0 0.1184174781
H  H50  1  0.84090000  0.46590000  0.24960000  1.0 0.1184174781
H  H51  1  0.53410000  0.15910000  0.74960000  1.0 0.1184174781
H  H52  1  0.15910000  0.53410000  0.75040000  1.0 0.1184174781
H  H53  1  0.33590000  0.93110000  0.75290000  1.0 0.1120962407
H  H54  1  0.93110000  0.33590000  0.74710000  1.0 0.1120962407
H  H55  1  0.66410000  0.06890000  0.24710000  1.0 0.1120962407
H  H56  1  0.06890000  0.66410000  0.25290000  1.0 0.1120962407
H  H57  1  0.28070000  0.99590000  0.71120000  1.0 0.1300358604
H  H58  1  0.99590000  0.28070000  0.78880000  1.0 0.1300358604
H  H59  1  0.71930000  0.00410000  0.28880000  1.0 0.1300358604
H  H60  1  0.00410000  0.71930000  0.21120000  1.0 0.1300358604
H  H61  1  0.24930000  0.97110000  0.13850000  1.0 0.1184174781
H  H62  1  0.97110000  0.24930000  0.36150000  1.0 0.1184174781
H  H63  1  0.75070000  0.02890000  0.86150000  1.0 0.1184174781
H  H64  1  0.02890000  0.75070000  0.63850000  1.0 0.1184174781
H  H65  1  0.30340000  0.90560000  0.18170000  1.0 0.1120962407
H  H66  1  0.90560000  0.30340000  0.31830000  1.0 0.1120962407
H  H67  1  0.69660000  0.09440000  0.81830000  1.0 0.1120962407
H  H68  1  0.09440000  0.69660000  0.68170000  1.0 0.1120962407
H  H69  1  0.24690000  0.07350000  0.80630000  1.0 0.1300358604
H  H70  1  0.07350000  0.24690000  0.69370000  1.0 0.1300358604
H  H71  1  0.75310000  0.92650000  0.19370000  1.0 0.1300358604
H  H72  1  0.92650000  0.75310000  0.30630000  1.0 0.1300358604
H  H73  1  0.23160000  0.06120000  0.97450000  1.0 0.1120962407
H  H74  1  0.06120000  0.23160000  0.52550000  1.0 0.1120962407
H  H75  1  0.76840000  0.93880000  0.02550000  1.0 0.1120962407
H  H76  1  0.93880000  0.76840000  0.47450000  1.0 0.1120962407
H  H77  1  0.07120000  0.82460000  0.92420000  1.0 0.1300358604
H  H78  1  0.82460000  0.07120000  0.57580000  1.0 0.1300358604
H  H79  1  0.92880000  0.17540000  0.07580000  1.0 0.1300358604
H  H80  1  0.17540000  0.92880000  0.42420000  1.0 0.1300358604
H  H81  1  0.90680000  0.84360000  0.71580000  1.0 0.0810518789
H  H82  1  0.84360000  0.90680000  0.78420000  1.0 0.0810518789
H  H83  1  0.09320000  0.15640000  0.28420000  1.0 0.0810518789
H  H84  1  0.15640000  0.09320000  0.21580000  1.0 0.0810518789
H  H85  1  0.08300000  0.01100000  0.71250000  1.0 0.089724002
H  H86  1  0.01100000  0.08300000  0.78750000  1.0 0.089724002
H  H87  1  0.91700000  0.98900000  0.28750000  1.0 0.089724002
H  H88  1  0.98900000  0.91700000  0.21250000  1.0 0.089724002
H  H89  1  0.89870000  0.84270000  0.86670000  1.0 0.089724002
H  H90  1  0.84270000  0.89870000  0.63330000  1.0 0.089724002
H  H91  1  0.10130000  0.15730000  0.13330000  1.0 0.089724002
H  H92  1  0.15730000  0.10130000  0.36670000  1.0 0.089724002
H  H93  1  0.06860000  0.01280000  0.86110000  1.0 0.0727131667
H  H94  1  0.01280000  0.06860000  0.63890000  1.0 0.0727131667
H  H95  1  0.93140000  0.98720000  0.13890000  1.0 0.0727131667
H  H96  1  0.98720000  0.93140000  0.36110000  1.0 0.0727131667
C  C1  1  0.56752000  0.91628000  0.54670000  1.0 0.5280122461
C  C2  1  0.91628000  0.56752000  0.95330000  1.0 0.5280122461
C  C3  1  0.43248000  0.08372000  0.45330000  1.0 0.5280122461
C  C4  1  0.08372000  0.43248000  0.04670000  1.0 0.5280122461
C  C5  1  0.53273000  0.96047000  0.52350000  1.0 -0.0138910417
C  C6  1  0.96047000  0.53273000  0.97650000  1.0 -0.0138910417
C  C7  1  0.46727000  0.03953000  0.47650000  1.0 -0.0138910417
C  C8  1  0.03953000  0.46727000  0.02350000  1.0 -0.0138910417
C  C9  1  0.43400000  0.90000000  0.52070000  1.0 -0.120688535
C  C10  1  0.90000000  0.43400000  0.97930000  1.0 -0.120688535
C  C11  1  0.56600000  0.10000000  0.47930000  1.0 -0.120688535
C  C12  1  0.10000000  0.56600000  0.02070000  1.0 -0.120688535
C  C13  1  0.59987000  0.06093000  0.50440000  1.0 -0.1324054829
C  C14  1  0.06093000  0.59987000  0.99560000  1.0 -0.1324054829
C  C15  1  0.40013000  0.93907000  0.49560000  1.0 -0.1324054829
C  C16  1  0.93907000  0.40013000  0.00440000  1.0 -0.1324054829
C  C17  1  0.63673000  0.74607000  0.43220000  1.0 0.5218547287
C  C18  1  0.74607000  0.63673000  0.06780000  1.0 0.5218547287
C  C19  1  0.36327000  0.25393000  0.56780000  1.0 0.5218547287
C  C20  1  0.25393000  0.36327000  0.93220000  1.0 0.5218547287
C  C21  1  0.65911000  0.71229000  0.33710000  1.0 -0.019099374
C  C22  1  0.71229000  0.65911000  0.16290000  1.0 -0.019099374
C  C23  1  0.34089000  0.28771000  0.66290000  1.0 -0.019099374
C  C24  1  0.28771000  0.34089000  0.83710000  1.0 -0.019099374
C  C25  1  0.65091000  0.71989000  0.18680000  1.0 -0.120688535
C  C26  1  0.71989000  0.65091000  0.31320000  1.0 -0.120688535
C  C27  1  0.34909000  0.28011000  0.81320000  1.0 -0.120688535
C  C28  1  0.28011000  0.34909000  0.68680000  1.0 -0.120688535
C  C29  1  0.69408000  0.67732000  0.40030000  1.0 -0.1324054829
C  C30  1  0.67732000  0.69408000  0.09970000  1.0 -0.1324054829
C  C31  1  0.30592000  0.32268000  0.59970000  1.0 -0.1324054829
C  C32  1  0.32268000  0.30592000  0.90030000  1.0 -0.1324054829
C  C33  1  0.52814000  0.77886000  0.89540000  1.0 0.0810518789
C  C34  1  0.77886000  0.52814000  0.60460000  1.0 0.0810518789
C  C35  1  0.47186000  0.22114000  0.10460000  1.0 0.0810518789
C  C36  1  0.22114000  0.47186000  0.39540000  1.0 0.0810518789
C  C37  1  0.49973000  0.65927000  0.85570000  1.0 -0.0454369818
C  C38  1  0.65927000  0.49973000  0.64430000  1.0 -0.0454369818
C  C39  1  0.50027000  0.34073000  0.14430000  1.0 -0.0454369818
C  C40  1  0.34073000  0.50027000  0.35570000  1.0 -0.0454369818
C  C41  1  0.44425000  0.62955000  0.96590000  1.0 -0.1011870427
C  C42  1  0.62955000  0.44425000  0.53410000  1.0 -0.1011870427
C  C43  1  0.55575000  0.37045000  0.03410000  1.0 -0.1011870427
C  C44  1  0.37045000  0.55575000  0.46590000  1.0 -0.1011870427
C  C45  1  0.42354000  0.70926000  0.10770000  1.0 -0.1737601866
C  C46  1  0.70926000  0.42354000  0.39230000  1.0 -0.1737601866
C  C47  1  0.57646000  0.29074000  0.89230000  1.0 -0.1737601866
C  C48  1  0.29074000  0.57646000  0.60770000  1.0 -0.1737601866
C  C49  1  0.40587000  0.76733000  0.06380000  1.0 0.0956936853
C  C50  1  0.76733000  0.40587000  0.43620000  1.0 0.0956936853
C  C51  1  0.59413000  0.23267000  0.93620000  1.0 0.0956936853
C  C52  1  0.23267000  0.59413000  0.56380000  1.0 0.0956936853
C  C53  1  0.35892000  0.75668000  0.93180000  1.0 -0.1479180974
C  C54  1  0.75668000  0.35892000  0.56820000  1.0 -0.1479180974
C  C55  1  0.64108000  0.24332000  0.06820000  1.0 -0.1479180974
C  C56  1  0.24332000  0.64108000  0.43180000  1.0 -0.1479180974
C  C57  1  0.33494000  0.80426000  0.90070000  1.0 -0.1385050339
C  C58  1  0.80426000  0.33494000  0.59930000  1.0 -0.1385050339
C  C59  1  0.66506000  0.19574000  0.09930000  1.0 -0.1385050339
C  C60  1  0.19574000  0.66506000  0.40070000  1.0 -0.1385050339
C  C61  1  0.35779000  0.86501000  0.00170000  1.0 0.0502535042
C  C62  1  0.86501000  0.35779000  0.49830000  1.0 0.0502535042
C  C63  1  0.64221000  0.13499000  0.99830000  1.0 0.0502535042
C  C64  1  0.13499000  0.64221000  0.50170000  1.0 0.0502535042
C  C65  1  0.40866000  0.87854000  0.13060000  1.0 -0.1324054829
C  C66  1  0.87854000  0.40866000  0.36940000  1.0 -0.1324054829
C  C67  1  0.59134000  0.12146000  0.86940000  1.0 -0.1324054829
C  C68  1  0.12146000  0.59134000  0.63060000  1.0 -0.1324054829
C  C69  1  0.43207000  0.83073000  0.16220000  1.0 -0.1479180974
C  C70  1  0.83073000  0.43207000  0.33780000  1.0 -0.1479180974
C  C71  1  0.56793000  0.16927000  0.83780000  1.0 -0.1479180974
C  C72  1  0.16927000  0.56793000  0.66220000  1.0 -0.1479180974
C  C73  1  0.32552000  0.90948000  0.97300000  1.0 0.0581786076
C  C74  1  0.90948000  0.32552000  0.52700000  1.0 0.0581786076
C  C75  1  0.67448000  0.09052000  0.02700000  1.0 0.0581786076
C  C76  1  0.09052000  0.67448000  0.47300000  1.0 0.0581786076
C  C77  1  0.31819000  0.93841000  0.83170000  1.0 -0.1385050339
C  C78  1  0.93841000  0.31819000  0.66830000  1.0 -0.1385050339
C  C79  1  0.68181000  0.06159000  0.16830000  1.0 -0.1385050339
C  C80  1  0.06159000  0.68181000  0.33170000  1.0 -0.1385050339
C  C81  1  0.28534000  0.97766000  0.80650000  1.0 -0.1324054829
C  C82  1  0.97766000  0.28534000  0.69350000  1.0 -0.1324054829
C  C83  1  0.71466000  0.02234000  0.19350000  1.0 -0.1324054829
C  C84  1  0.02234000  0.71466000  0.30650000  1.0 -0.1324054829
C  C85  1  0.25924000  0.99016000  0.92070000  1.0 0.089724002
C  C86  1  0.99016000  0.25924000  0.57930000  1.0 0.089724002
C  C87  1  0.74076000  0.00984000  0.07930000  1.0 0.089724002
C  C88  1  0.00984000  0.74076000  0.42070000  1.0 0.089724002
C  C89  1  0.26650000  0.96290000  0.06020000  1.0 -0.1553862838
C  C90  1  0.96290000  0.26650000  0.43980000  1.0 -0.1553862838
C  C91  1  0.73350000  0.03710000  0.93980000  1.0 -0.1553862838
C  C92  1  0.03710000  0.73350000  0.56020000  1.0 -0.1553862838
C  C93  1  0.29898000  0.92342000  0.08590000  1.0 -0.1385050339
C  C94  1  0.92342000  0.29898000  0.41410000  1.0 -0.1385050339
C  C95  1  0.70102000  0.07658000  0.91410000  1.0 -0.1385050339
C  C96  1  0.07658000  0.70102000  0.58590000  1.0 -0.1385050339
C  C97  1  0.21682000  0.02718000  0.89070000  1.0 -0.2218919841
C  C98  1  0.02718000  0.21682000  0.60930000  1.0 -0.2218919841
C  C99  1  0.78318000  0.97282000  0.10930000  1.0 -0.2218919841
C  C100  1  0.97282000  0.78318000  0.39070000  1.0 -0.2218919841
C  C101  1  0.04977000  0.85043000  0.88660000  1.0 -0.0404107475
C  C102  1  0.85043000  0.04977000  0.61340000  1.0 -0.0404107475
C  C103  1  0.95023000  0.14957000  0.11340000  1.0 -0.0404107475
C  C104  1  0.14957000  0.95023000  0.38660000  1.0 -0.0404107475
C  C105  1  0.96250000  0.86110000  0.76240000  1.0 -0.019099374
C  C106  1  0.86110000  0.96250000  0.73760000  1.0 -0.019099374
C  C107  1  0.03750000  0.13890000  0.23760000  1.0 -0.019099374
C  C108  1  0.13890000  0.03750000  0.26240000  1.0 -0.019099374
C  C109  1  0.05640000  0.95280000  0.76740000  1.0 -0.0404107475
C  C110  1  0.95280000  0.05640000  0.73260000  1.0 -0.0404107475
C  C111  1  0.94360000  0.04720000  0.23260000  1.0 -0.0404107475
C  C112  1  0.04720000  0.94360000  0.26740000  1.0 -0.0404107475
C  C113  1  0.95760000  0.86240000  0.85940000  1.0 -0.0138910417
C  C114  1  0.86240000  0.95760000  0.64060000  1.0 -0.0138910417
C  C115  1  0.04240000  0.13760000  0.14060000  1.0 -0.0138910417
C  C116  1  0.13760000  0.04240000  0.35940000  1.0 -0.0138910417
C  C117  1  0.04870000  0.95310000  0.86400000  1.0 -0.0404107475
C  C118  1  0.95310000  0.04870000  0.63600000  1.0 -0.0404107475
C  C119  1  0.95130000  0.04690000  0.13600000  1.0 -0.0404107475
C  C120  1  0.04690000  0.95130000  0.36400000  1.0 -0.0404107475
N  N1  1  0.55291000  0.75369000  0.81170000  1.0 -0.2979069275
N  N2  1  0.75369000  0.55291000  0.68830000  1.0 -0.2979069275
N  N3  1  0.44709000  0.24631000  0.18830000  1.0 -0.2979069275
N  N4  1  0.24631000  0.44709000  0.31170000  1.0 -0.2979069275
N  N5  1  0.46309000  0.70591000  0.99260000  1.0 0.0502535042
N  N6  1  0.70591000  0.46309000  0.50740000  1.0 0.0502535042
N  N7  1  0.53691000  0.29409000  0.00740000  1.0 0.0502535042
N  N8  1  0.29409000  0.53691000  0.49260000  1.0 0.0502535042
N  N9  1  0.95796000  0.79484000  0.85500000  1.0 -0.2507455384
N  N10  1  0.79484000  0.95796000  0.64500000  1.0 -0.2507455384
N  N11  1  0.04204000  0.20516000  0.14500000  1.0 -0.2507455384
N  N12  1  0.20516000  0.04204000  0.35500000  1.0 -0.2507455384
N  N13  1  0.11102000  0.94518000  0.86280000  1.0 0.0422334152
N  N14  1  0.94518000  0.11102000  0.63720000  1.0 0.0422334152
N  N15  1  0.88898000  0.05482000  0.13720000  1.0 0.0422334152
N  N16  1  0.05482000  0.88898000  0.36280000  1.0 0.0422334152
O  O1  1  0.65660000  0.97160000  0.57720000  1.0 -0.5314466727
O  O2  1  0.97160000  0.65660000  0.92280000  1.0 -0.5314466727
O  O3  1  0.34340000  0.02840000  0.42280000  1.0 -0.5314466727
O  O4  1  0.02840000  0.34340000  0.07720000  1.0 -0.5314466727
O  O5  1  0.50623000  0.82577000  0.53390000  1.0 -0.5355208514
O  O6  1  0.82577000  0.50623000  0.96610000  1.0 -0.5355208514
O  O7  1  0.49377000  0.17423000  0.46610000  1.0 -0.5355208514
O  O8  1  0.17423000  0.49377000  0.03390000  1.0 -0.5355208514
O  O9  1  0.62606000  0.72254000  0.56540000  1.0 -0.5314466727
O  O10  1  0.72254000  0.62606000  0.93460000  1.0 -0.5314466727
O  O11  1  0.37394000  0.27746000  0.43460000  1.0 -0.5314466727
O  O12  1  0.27746000  0.37394000  0.06540000  1.0 -0.5314466727
O  O13  1  0.62852000  0.79908000  0.37400000  1.0 -0.5473311839
O  O14  1  0.79908000  0.62852000  0.12600000  1.0 -0.5473311839
O  O15  1  0.37148000  0.20092000  0.62600000  1.0 -0.5473311839
O  O16  1  0.20092000  0.37148000  0.87400000  1.0 -0.5473311839
