# DDEC6 charges by PACMAN v1.1 (https://github.com/mtap-research/PACMAN-charge/)
data_PEVXAQ_FSR_pacman
_symmetry_space_group_name_H-M   'P 1'
_cell_length_a   16.31810000
_cell_length_b   14.99760000
_cell_length_c   19.69170000
_cell_angle_alpha   90.00000000
_cell_angle_beta   98.36000000
_cell_angle_gamma   90.00000000
_symmetry_Int_Tables_number   1
_chemical_formula_structural   NiH15C18(N4O3)2
_chemical_formula_sum   'Ni8 H120 C144 N64 O48'
_cell_volume   4767.98734919
_cell_formula_units_Z   8
loop_
 _symmetry_equiv_pos_site_id
 _symmetry_equiv_pos_as_xyz
  1  'x, y, z'
loop_
 _atom_site_type_symbol
 _atom_site_label
 _atom_site_symmetry_multiplicity
 _atom_site_fract_x
 _atom_site_fract_y
 _atom_site_fract_z
 _atom_site_occupancy
 _atom_site_charge
Ni  Ni1  1  0.87905000  0.74339000  0.75686000  1.0 0.5864315917
Ni  Ni2  1  0.12095000  0.24339000  0.74314000  1.0 0.5864315917
Ni  Ni3  1  0.12095000  0.25661000  0.24314000  1.0 0.5864315917
Ni  Ni4  1  0.87905000  0.75661000  0.25686000  1.0 0.5782203127
Ni  Ni5  1  0.37515000  0.74432000  0.23925000  1.0 0.5782203127
Ni  Ni6  1  0.62485000  0.24432000  0.26075000  1.0 0.5782203127
Ni  Ni7  1  0.62485000  0.25568000  0.76075000  1.0 0.5782203127
Ni  Ni8  1  0.37515000  0.75568000  0.73925000  1.0 0.5782203127
H  H1  1  0.00690000  0.75770000  0.65760000  1.0 0.1024492864
H  H2  1  0.99310000  0.25770000  0.84240000  1.0 0.1024492864
H  H3  1  0.99310000  0.24230000  0.34240000  1.0 0.1024492864
H  H4  1  0.00690000  0.74230000  0.15760000  1.0 0.1024492864
H  H5  1  0.00900000  0.76590000  0.54070000  1.0 0.1373816718
H  H6  1  0.99100000  0.26590000  0.95930000  1.0 0.1373816718
H  H7  1  0.99100000  0.23410000  0.45930000  1.0 0.1373816718
H  H8  1  0.00900000  0.73410000  0.04070000  1.0 0.1373816718
H  H9  1  0.88330000  0.76850000  0.46570000  1.0 0.1304395518
H  H10  1  0.11670000  0.26850000  0.03430000  1.0 0.1304395518
H  H11  1  0.11670000  0.23150000  0.53430000  1.0 0.1304395518
H  H12  1  0.88330000  0.73150000  0.96570000  1.0 0.1304395518
H  H13  1  0.76270000  0.76770000  0.62960000  1.0 0.1210393623
H  H14  1  0.23730000  0.26770000  0.87040000  1.0 0.1210393623
H  H15  1  0.23730000  0.23230000  0.37040000  1.0 0.1210393623
H  H16  1  0.76270000  0.73230000  0.12960000  1.0 0.1210393623
H  H17  1  0.72720000  0.77990000  0.44850000  1.0 0.1024492864
H  H18  1  0.27280000  0.27990000  0.05150000  1.0 0.1024492864
H  H19  1  0.27280000  0.22010000  0.55150000  1.0 0.1024492864
H  H20  1  0.72720000  0.72010000  0.94850000  1.0 0.1024492864
H  H21  1  0.53020000  0.78440000  0.54530000  1.0 0.1055678908
H  H22  1  0.46980000  0.28440000  0.95470000  1.0 0.1024492864
H  H23  1  0.46980000  0.21560000  0.45470000  1.0 0.1055678908
H  H24  1  0.53020000  0.71560000  0.04530000  1.0 0.1055678908
H  H25  1  0.24880000  0.77750000  0.33690000  1.0 0.1055678908
H  H26  1  0.75120000  0.27750000  0.16310000  1.0 0.1055678908
H  H27  1  0.75120000  0.22250000  0.66310000  1.0 0.1055678908
H  H28  1  0.24880000  0.72250000  0.83690000  1.0 0.1055678908
H  H29  1  0.24790000  0.78210000  0.45360000  1.0 0.1373816718
H  H30  1  0.75210000  0.28210000  0.04640000  1.0 0.1373816718
H  H31  1  0.75210000  0.21790000  0.54640000  1.0 0.1373816718
H  H32  1  0.24790000  0.71790000  0.95360000  1.0 0.1373816718
H  H33  1  0.37310000  0.78340000  0.52800000  1.0 0.1304395518
H  H34  1  0.62690000  0.28340000  0.97200000  1.0 0.1304395518
H  H35  1  0.62690000  0.21660000  0.47200000  1.0 0.1304395518
H  H36  1  0.37310000  0.71660000  0.02800000  1.0 0.1304395518
H  H37  1  0.49320000  0.78740000  0.36310000  1.0 0.1210393623
H  H38  1  0.50680000  0.28740000  0.13690000  1.0 0.1210393623
H  H39  1  0.50680000  0.21260000  0.63690000  1.0 0.1210393623
H  H40  1  0.49320000  0.71260000  0.86310000  1.0 0.1210393623
H  H41  1  0.82220000  0.91860000  0.68630000  1.0 0.1024492864
H  H42  1  0.17780000  0.41860000  0.81370000  1.0 0.1024492864
H  H43  1  0.17780000  0.08140000  0.31370000  1.0 0.1024492864
H  H44  1  0.82220000  0.58140000  0.18630000  1.0 0.1024492864
H  H45  1  0.82190000  0.07020000  0.70960000  1.0 0.1304395518
H  H46  1  0.17810000  0.57020000  0.79040000  1.0 0.1304395518
H  H47  1  0.17810000  0.92980000  0.29040000  1.0 0.1304395518
H  H48  1  0.82190000  0.42980000  0.20960000  1.0 0.1304395518
H  H49  1  0.87490000  0.12330000  0.81790000  1.0 0.1210393623
H  H50  1  0.12510000  0.62330000  0.68210000  1.0 0.1210393623
H  H51  1  0.12510000  0.87670000  0.18210000  1.0 0.1210393623
H  H52  1  0.87490000  0.37670000  0.31790000  1.0 0.1210393623
H  H53  1  0.93560000  0.86920000  0.87270000  1.0 0.1055678908
H  H54  1  0.06440000  0.36920000  0.62730000  1.0 0.1055678908
H  H55  1  0.06440000  0.13080000  0.12730000  1.0 0.1055678908
H  H56  1  0.93560000  0.63080000  0.37270000  1.0 0.1055678908
H  H57  1  0.93880000  0.09090000  0.93910000  1.0 0.1024492864
H  H58  1  0.06120000  0.59090000  0.56090000  1.0 0.1024492864
H  H59  1  0.06120000  0.90910000  0.06090000  1.0 0.1024492864
H  H60  1  0.93880000  0.40910000  0.43910000  1.0 0.1024492864
H  H61  1  0.33280000  0.56660000  0.18010000  1.0 0.1055678908
H  H62  1  0.66720000  0.06660000  0.31990000  1.0 0.1055678908
H  H63  1  0.66720000  0.43340000  0.81990000  1.0 0.1055678908
H  H64  1  0.33280000  0.93340000  0.68010000  1.0 0.1055678908
H  H65  1  0.33600000  0.41430000  0.20500000  1.0 0.1304395518
H  H66  1  0.66400000  0.91430000  0.29500000  1.0 0.1304395518
H  H67  1  0.66400000  0.58570000  0.79500000  1.0 0.1304395518
H  H68  1  0.33600000  0.08570000  0.70500000  1.0 0.1304395518
H  H69  1  0.38200000  0.36650000  0.31560000  1.0 0.1304395518
H  H70  1  0.61800000  0.86650000  0.18440000  1.0 0.1304395518
H  H71  1  0.61800000  0.63350000  0.68440000  1.0 0.1304395518
H  H72  1  0.38200000  0.13350000  0.81560000  1.0 0.1304395518
H  H73  1  0.43610000  0.62440000  0.36760000  1.0 0.1024492864
H  H74  1  0.56390000  0.12440000  0.13240000  1.0 0.1024492864
H  H75  1  0.56390000  0.37560000  0.63240000  1.0 0.1024492864
H  H76  1  0.43610000  0.87560000  0.86760000  1.0 0.1024492864
H  H77  1  0.44480000  0.40610000  0.43930000  1.0 0.1055678908
H  H78  1  0.55520000  0.90610000  0.06070000  1.0 0.1055678908
H  H79  1  0.55520000  0.59390000  0.56070000  1.0 0.1055678908
H  H80  1  0.44480000  0.09390000  0.93930000  1.0 0.1055678908
H  H81  1  0.92660000  0.57560000  0.83920000  1.0 0.1055678908
H  H82  1  0.07340000  0.07560000  0.66080000  1.0 0.1055678908
H  H83  1  0.07340000  0.42440000  0.16080000  1.0 0.1055678908
H  H84  1  0.92660000  0.92440000  0.33920000  1.0 0.1055678908
H  H85  1  0.92880000  0.42340000  0.82760000  1.0 0.1304395518
H  H86  1  0.07120000  0.92340000  0.67240000  1.0 0.1304395518
H  H87  1  0.07120000  0.57660000  0.17240000  1.0 0.1304395518
H  H88  1  0.92880000  0.07660000  0.32760000  1.0 0.1304395518
H  H89  1  0.87850000  0.35610000  0.72340000  1.0 0.1210393623
H  H90  1  0.12150000  0.85610000  0.77660000  1.0 0.1210393623
H  H91  1  0.12150000  0.64390000  0.27660000  1.0 0.1210393623
H  H92  1  0.87850000  0.14390000  0.22340000  1.0 0.1210393623
H  H93  1  0.82040000  0.60280000  0.64820000  1.0 0.1024492864
H  H94  1  0.17960000  0.10280000  0.85180000  1.0 0.1024492864
H  H95  1  0.17960000  0.39720000  0.35180000  1.0 0.1024492864
H  H96  1  0.82040000  0.89720000  0.14820000  1.0 0.1024492864
H  H97  1  0.81850000  0.37830000  0.59510000  1.0 0.1024492864
H  H98  1  0.18150000  0.87830000  0.90490000  1.0 0.1024492864
H  H99  1  0.18150000  0.62170000  0.40490000  1.0 0.1024492864
H  H100  1  0.81850000  0.12170000  0.09510000  1.0 0.1024492864
H  H101  1  0.69920000  0.56320000  0.47360000  1.0 0.1024492864
H  H102  1  0.30080000  0.06320000  0.02640000  1.0 0.1024492864
H  H103  1  0.30080000  0.43680000  0.52640000  1.0 0.1024492864
H  H104  1  0.69920000  0.93680000  0.97360000  1.0 0.1024492864
H  H105  1  0.58210000  0.43130000  0.20970000  1.0 0.1024492864
H  H106  1  0.41790000  0.93130000  0.29030000  1.0 0.1024492864
H  H107  1  0.41790000  0.56870000  0.79030000  1.0 0.1024492864
H  H108  1  0.58210000  0.06870000  0.70970000  1.0 0.1024492864
H  H109  1  0.59120000  0.57830000  0.24490000  1.0 0.1304395518
H  H110  1  0.40880000  0.07830000  0.25510000  1.0 0.1304395518
H  H111  1  0.40880000  0.42170000  0.75510000  1.0 0.1304395518
H  H112  1  0.59120000  0.92170000  0.74490000  1.0 0.1304395518
H  H113  1  0.64220000  0.61130000  0.35760000  1.0 0.1210393623
H  H114  1  0.35780000  0.11130000  0.14240000  1.0 0.1210393623
H  H115  1  0.35780000  0.38870000  0.64240000  1.0 0.1210393623
H  H116  1  0.64220000  0.88870000  0.85760000  1.0 0.1210393623
H  H117  1  0.68120000  0.34810000  0.39200000  1.0 0.1055678908
H  H118  1  0.31880000  0.84810000  0.10800000  1.0 0.1055678908
H  H119  1  0.31880000  0.65190000  0.60800000  1.0 0.1055678908
H  H120  1  0.68120000  0.15190000  0.89200000  1.0 0.1055678908
C  C1  1  0.95590000  0.76090000  0.62740000  1.0 0.0608050627
C  C2  1  0.04410000  0.26090000  0.87260000  1.0 0.0608050627
C  C3  1  0.04410000  0.23910000  0.37260000  1.0 0.0608050627
C  C4  1  0.95590000  0.73910000  0.12740000  1.0 0.0608050627
C  C5  1  0.95770000  0.76470000  0.55810000  1.0 -0.121635646
C  C6  1  0.04230000  0.26470000  0.94190000  1.0 -0.121635646
C  C7  1  0.04230000  0.23530000  0.44190000  1.0 -0.121635646
C  C8  1  0.95770000  0.73530000  0.05810000  1.0 -0.121635646
C  C9  1  0.88360000  0.76690000  0.51390000  1.0 -0.0737533878
C  C10  1  0.11640000  0.26690000  0.98610000  1.0 -0.0737533878
C  C11  1  0.11640000  0.23310000  0.48610000  1.0 -0.0737533878
C  C12  1  0.88360000  0.73310000  0.01390000  1.0 -0.0737533878
C  C13  1  0.81000000  0.76670000  0.54090000  1.0 0.0418891647
C  C14  1  0.19000000  0.26670000  0.95910000  1.0 0.0418891647
C  C15  1  0.19000000  0.23330000  0.45910000  1.0 0.0418891647
C  C16  1  0.81000000  0.73330000  0.04090000  1.0 0.0418891647
C  C17  1  0.81320000  0.76550000  0.61090000  1.0 0.0157340214
C  C18  1  0.18680000  0.26550000  0.88910000  1.0 0.0157340214
C  C19  1  0.18680000  0.23450000  0.38910000  1.0 0.0157340214
C  C20  1  0.81320000  0.73450000  0.11090000  1.0 0.0157340214
C  C21  1  0.72940000  0.76930000  0.49630000  1.0 0.0418891647
C  C22  1  0.27060000  0.26930000  0.00370000  1.0 0.0418891647
C  C23  1  0.27060000  0.23070000  0.50370000  1.0 0.0418891647
C  C24  1  0.72940000  0.73070000  0.99630000  1.0 0.0418891647
C  C25  1  0.52730000  0.77680000  0.49710000  1.0 0.0418891647
C  C26  1  0.47270000  0.27680000  0.00290000  1.0 0.0418891647
C  C27  1  0.47270000  0.22320000  0.50290000  1.0 0.0418891647
C  C28  1  0.52730000  0.72320000  0.99710000  1.0 0.0418891647
C  C29  1  0.30010000  0.77930000  0.36670000  1.0 0.0608050627
C  C30  1  0.69990000  0.27930000  0.13330000  1.0 0.0608050627
C  C31  1  0.69990000  0.22070000  0.63330000  1.0 0.0608050627
C  C32  1  0.30010000  0.72070000  0.86670000  1.0 0.0608050627
C  C33  1  0.29900000  0.78140000  0.43600000  1.0 -0.121635646
C  C34  1  0.70100000  0.28140000  0.06400000  1.0 -0.121635646
C  C35  1  0.70100000  0.21860000  0.56400000  1.0 -0.121635646
C  C36  1  0.29900000  0.71860000  0.93600000  1.0 -0.121635646
C  C37  1  0.37260000  0.78230000  0.47970000  1.0 -0.0769139315
C  C38  1  0.62740000  0.28230000  0.02030000  1.0 -0.0769139315
C  C39  1  0.62740000  0.21770000  0.52030000  1.0 -0.0769139315
C  C40  1  0.37260000  0.71770000  0.97970000  1.0 -0.0769139315
C  C41  1  0.44650000  0.78170000  0.45210000  1.0 0.0418891647
C  C42  1  0.55350000  0.28170000  0.04790000  1.0 0.0418891647
C  C43  1  0.55350000  0.21830000  0.54790000  1.0 0.0418891647
C  C44  1  0.44650000  0.71830000  0.95210000  1.0 0.0418891647
C  C45  1  0.44300000  0.78350000  0.38200000  1.0 0.0124575076
C  C46  1  0.55700000  0.28350000  0.11800000  1.0 0.0124575076
C  C47  1  0.55700000  0.21650000  0.61800000  1.0 0.0124575076
C  C48  1  0.44300000  0.71650000  0.88200000  1.0 0.0124575076
C  C49  1  0.84630000  0.93950000  0.73030000  1.0 0.0608050627
C  C50  1  0.15370000  0.43950000  0.76970000  1.0 0.0608050627
C  C51  1  0.15370000  0.06050000  0.26970000  1.0 0.0608050627
C  C52  1  0.84630000  0.56050000  0.23030000  1.0 0.0608050627
C  C53  1  0.84500000  0.02980000  0.74440000  1.0 -0.121635646
C  C54  1  0.15500000  0.52980000  0.75560000  1.0 -0.121635646
C  C55  1  0.15500000  0.97020000  0.25560000  1.0 -0.121635646
C  C56  1  0.84500000  0.47020000  0.24440000  1.0 -0.121635646
C  C57  1  0.87660000  0.06150000  0.80770000  1.0 -0.0891241563
C  C58  1  0.12340000  0.56150000  0.69230000  1.0 -0.0891241563
C  C59  1  0.12340000  0.93850000  0.19230000  1.0 -0.0891241563
C  C60  1  0.87660000  0.43850000  0.30770000  1.0 -0.0891241563
C  C61  1  0.91140000  0.00100000  0.85670000  1.0 0.0418891647
C  C62  1  0.08860000  0.50100000  0.64330000  1.0 0.0418891647
C  C63  1  0.08860000  0.99900000  0.14330000  1.0 0.0418891647
C  C64  1  0.91140000  0.49900000  0.35670000  1.0 0.0418891647
C  C65  1  0.91190000  0.91080000  0.83910000  1.0 0.0495524041
C  C66  1  0.08810000  0.41080000  0.66090000  1.0 0.0495524041
C  C67  1  0.08810000  0.08920000  0.16090000  1.0 0.0495524041
C  C68  1  0.91190000  0.58920000  0.33910000  1.0 0.0495524041
C  C69  1  0.94660000  0.03090000  0.92600000  1.0 0.0495524041
C  C70  1  0.05340000  0.53090000  0.57400000  1.0 0.0495524041
C  C71  1  0.05340000  0.96910000  0.07400000  1.0 0.0495524041
C  C72  1  0.94660000  0.46910000  0.42600000  1.0 0.0418891647
C  C73  1  0.35450000  0.54740000  0.22510000  1.0 0.0719636072
C  C74  1  0.64550000  0.04740000  0.27490000  1.0 0.0719636072
C  C75  1  0.64550000  0.45260000  0.77490000  1.0 0.0719636072
C  C76  1  0.35450000  0.95260000  0.72510000  1.0 0.0719636072
C  C77  1  0.35520000  0.45620000  0.23990000  1.0 -0.121635646
C  C78  1  0.64480000  0.95620000  0.26010000  1.0 -0.121635646
C  C79  1  0.64480000  0.54380000  0.76010000  1.0 -0.121635646
C  C80  1  0.35520000  0.04380000  0.73990000  1.0 -0.121635646
C  C81  1  0.38350000  0.42800000  0.30440000  1.0 -0.0891241563
C  C82  1  0.61650000  0.92800000  0.19560000  1.0 -0.0891241563
C  C83  1  0.61650000  0.57200000  0.69560000  1.0 -0.0891241563
C  C84  1  0.38350000  0.07200000  0.80440000  1.0 -0.0891241563
C  C85  1  0.41500000  0.49060000  0.35440000  1.0 0.0495524041
C  C86  1  0.58500000  0.99060000  0.14560000  1.0 0.0495524041
C  C87  1  0.58500000  0.50940000  0.64560000  1.0 0.0495524041
C  C88  1  0.41500000  0.00940000  0.85440000  1.0 0.0495524041
C  C89  1  0.41400000  0.58110000  0.33480000  1.0 0.0418891647
C  C90  1  0.58600000  0.08110000  0.16520000  1.0 0.0418891647
C  C91  1  0.58600000  0.41890000  0.66520000  1.0 0.0418891647
C  C92  1  0.41400000  0.91890000  0.83480000  1.0 0.0418891647
C  C93  1  0.45010000  0.46620000  0.42530000  1.0 0.0418891647
C  C94  1  0.54990000  0.96620000  0.07470000  1.0 0.0418891647
C  C95  1  0.54990000  0.53380000  0.57470000  1.0 0.0418891647
C  C96  1  0.45010000  0.03380000  0.92530000  1.0 0.0418891647
C  C97  1  0.90490000  0.54990000  0.79620000  1.0 0.0608050627
C  C98  1  0.09510000  0.04990000  0.70380000  1.0 0.0608050627
C  C99  1  0.09510000  0.45010000  0.20380000  1.0 0.0608050627
C  C100  1  0.90490000  0.95010000  0.29620000  1.0 0.0608050627
C  C101  1  0.90650000  0.45900000  0.78950000  1.0 -0.121635646
C  C102  1  0.09350000  0.95900000  0.71050000  1.0 -0.121635646
C  C103  1  0.09350000  0.54100000  0.21050000  1.0 -0.121635646
C  C104  1  0.90650000  0.04100000  0.28950000  1.0 -0.121635646
C  C105  1  0.87660000  0.41900000  0.72870000  1.0 -0.0891241563
C  C106  1  0.12340000  0.91900000  0.77130000  1.0 -0.0891241563
C  C107  1  0.12340000  0.58100000  0.27130000  1.0 -0.0891241563
C  C108  1  0.87660000  0.08100000  0.22870000  1.0 -0.0891241563
C  C109  1  0.84320000  0.47360000  0.67470000  1.0 0.0418891647
C  C110  1  0.15680000  0.97360000  0.82530000  1.0 0.0418891647
C  C111  1  0.15680000  0.52640000  0.32530000  1.0 0.0418891647
C  C112  1  0.84320000  0.02640000  0.17470000  1.0 0.0418891647
C  C113  1  0.84330000  0.56550000  0.68520000  1.0 0.0418891647
C  C114  1  0.15670000  0.06550000  0.81480000  1.0 0.0418891647
C  C115  1  0.15670000  0.43450000  0.31480000  1.0 0.0418891647
C  C116  1  0.84330000  0.93450000  0.18520000  1.0 0.0418891647
C  C117  1  0.80910000  0.43860000  0.60660000  1.0 0.0495524041
C  C118  1  0.19090000  0.93860000  0.89340000  1.0 0.0495524041
C  C119  1  0.19090000  0.56140000  0.39340000  1.0 0.0495524041
C  C120  1  0.80910000  0.06140000  0.10660000  1.0 0.0495524041
C  C121  1  0.70360000  0.50360000  0.45810000  1.0 0.0418891647
C  C122  1  0.29640000  0.00360000  0.04190000  1.0 0.0418891647
C  C123  1  0.29640000  0.49640000  0.54190000  1.0 0.0418891647
C  C124  1  0.70360000  0.99640000  0.95810000  1.0 0.0418891647
C  C125  1  0.60500000  0.44430000  0.25580000  1.0 0.0495524041
C  C126  1  0.39500000  0.94430000  0.24420000  1.0 0.0495524041
C  C127  1  0.39500000  0.55570000  0.74420000  1.0 0.0495524041
C  C128  1  0.60500000  0.05570000  0.75580000  1.0 0.0495524041
C  C129  1  0.60930000  0.53200000  0.27640000  1.0 -0.121635646
C  C130  1  0.39070000  0.03200000  0.22360000  1.0 -0.121635646
C  C131  1  0.39070000  0.46800000  0.72360000  1.0 -0.121635646
C  C132  1  0.60930000  0.96800000  0.77640000  1.0 -0.121635646
C  C133  1  0.63980000  0.55120000  0.34220000  1.0 -0.0891241563
C  C134  1  0.36020000  0.05120000  0.15780000  1.0 -0.0891241563
C  C135  1  0.36020000  0.44880000  0.65780000  1.0 -0.0891241563
C  C136  1  0.63980000  0.94880000  0.84220000  1.0 -0.0891241563
C  C137  1  0.66770000  0.48270000  0.38760000  1.0 0.0418891647
C  C138  1  0.33230000  0.98270000  0.11240000  1.0 0.0418891647
C  C139  1  0.33230000  0.51730000  0.61240000  1.0 0.0418891647
C  C140  1  0.66770000  0.01730000  0.88760000  1.0 0.0418891647
C  C141  1  0.66210000  0.39570000  0.36200000  1.0 0.0418891647
C  C142  1  0.33790000  0.89570000  0.13800000  1.0 0.0418891647
C  C143  1  0.33790000  0.60430000  0.63800000  1.0 0.0418891647
C  C144  1  0.66210000  0.10430000  0.86200000  1.0 0.0418891647
N  N1  1  0.88500000  0.76130000  0.65420000  1.0 -0.2134933849
N  N2  1  0.11500000  0.26130000  0.84580000  1.0 -0.2134933849
N  N3  1  0.11500000  0.23870000  0.34580000  1.0 -0.2134933849
N  N4  1  0.88500000  0.73870000  0.15420000  1.0 -0.2134933849
N  N5  1  0.66260000  0.75740000  0.52140000  1.0 -0.182063195
N  N6  1  0.33740000  0.25740000  0.97860000  1.0 -0.182063195
N  N7  1  0.33740000  0.24260000  0.47860000  1.0 -0.182063195
N  N8  1  0.66260000  0.74260000  0.02140000  1.0 -0.182063195
N  N9  1  0.59260000  0.76220000  0.47110000  1.0 -0.172726066
N  N10  1  0.40740000  0.26220000  0.02890000  1.0 -0.172726066
N  N11  1  0.40740000  0.23780000  0.52890000  1.0 -0.172726066
N  N12  1  0.59260000  0.73780000  0.97110000  1.0 -0.172726066
N  N13  1  0.37070000  0.77980000  0.33910000  1.0 -0.2134933849
N  N14  1  0.62930000  0.27980000  0.16090000  1.0 -0.2179612474
N  N15  1  0.62930000  0.22020000  0.66090000  1.0 -0.2179612474
N  N16  1  0.37070000  0.72020000  0.83910000  1.0 -0.2179612474
N  N17  1  0.88080000  0.88090000  0.77730000  1.0 -0.2134933849
N  N18  1  0.11920000  0.38090000  0.72270000  1.0 -0.2134933849
N  N19  1  0.11920000  0.11910000  0.22270000  1.0 -0.2134933849
N  N20  1  0.88080000  0.61910000  0.27730000  1.0 -0.2134933849
N  N21  1  0.98660000  0.97880000  0.96790000  1.0 -0.182063195
N  N22  1  0.01340000  0.47880000  0.53210000  1.0 -0.182063195
N  N23  1  0.01340000  0.02120000  0.03210000  1.0 -0.182063195
N  N24  1  0.98660000  0.52120000  0.46790000  1.0 -0.182063195
N  N25  1  0.38290000  0.60790000  0.27130000  1.0 -0.2179612474
N  N26  1  0.61710000  0.10790000  0.22870000  1.0 -0.2179612474
N  N27  1  0.61710000  0.39210000  0.72870000  1.0 -0.2179612474
N  N28  1  0.38290000  0.89210000  0.77130000  1.0 -0.2179612474
N  N29  1  0.48660000  0.52000000  0.46820000  1.0 -0.182063195
N  N30  1  0.51340000  0.02000000  0.03180000  1.0 -0.182063195
N  N31  1  0.51340000  0.48000000  0.53180000  1.0 -0.182063195
N  N32  1  0.48660000  0.98000000  0.96820000  1.0 -0.182063195
N  N33  1  0.87400000  0.60370000  0.74480000  1.0 -0.2134933849
N  N34  1  0.12600000  0.10370000  0.75520000  1.0 -0.2134933849
N  N35  1  0.12600000  0.39630000  0.25520000  1.0 -0.2134933849
N  N36  1  0.87400000  0.89630000  0.24480000  1.0 -0.2134933849
N  N37  1  0.76740000  0.48900000  0.56380000  1.0 -0.182063195
N  N38  1  0.23260000  0.98900000  0.93620000  1.0 -0.182063195
N  N39  1  0.23260000  0.51100000  0.43620000  1.0 -0.182063195
N  N40  1  0.76740000  0.01100000  0.06380000  1.0 -0.182063195
N  N41  1  0.73980000  0.44820000  0.49960000  1.0 -0.1883880321
N  N42  1  0.26020000  0.94820000  0.00040000  1.0 -0.1883880321
N  N43  1  0.26020000  0.55180000  0.50040000  1.0 -0.1883880321
N  N44  1  0.73980000  0.05180000  0.99960000  1.0 -0.1883880321
N  N45  1  0.63130000  0.37650000  0.29750000  1.0 -0.2179612474
N  N46  1  0.36870000  0.87650000  0.20250000  1.0 -0.2179612474
N  N47  1  0.36870000  0.62350000  0.70250000  1.0 -0.2179612474
N  N48  1  0.63130000  0.12350000  0.79750000  1.0 -0.2179612474
N  N49  1  0.74720000  0.73760000  0.80790000  1.0 0.6796204735
N  N50  1  0.25280000  0.23760000  0.69210000  1.0 0.6796204735
N  N51  1  0.25280000  0.26240000  0.19210000  1.0 0.6796204735
N  N52  1  0.74720000  0.76240000  0.30790000  1.0 0.6796204735
N  N53  1  0.03820000  0.72270000  0.84490000  1.0 0.6796204735
N  N54  1  0.96180000  0.22270000  0.65510000  1.0 0.6796204735
N  N55  1  0.96180000  0.27730000  0.15510000  1.0 0.6796204735
N  N56  1  0.03820000  0.77730000  0.34490000  1.0 0.6796204735
N  N57  1  0.50450000  0.72050000  0.18710000  1.0 0.6735937883
N  N58  1  0.49550000  0.22050000  0.31290000  1.0 0.6735937883
N  N59  1  0.49550000  0.27950000  0.81290000  1.0 0.6735937883
N  N60  1  0.50450000  0.77950000  0.68710000  1.0 0.6735937883
N  N61  1  0.21780000  0.71710000  0.15170000  1.0 0.6796204735
N  N62  1  0.78220000  0.21710000  0.34830000  1.0 0.6796204735
N  N63  1  0.78220000  0.28290000  0.84830000  1.0 0.6796204735
N  N64  1  0.21780000  0.78290000  0.65170000  1.0 0.6796204735
O  O1  1  0.81790000  0.72740000  0.84524000  1.0 -0.4202027294
O  O2  1  0.18210000  0.22740000  0.65476000  1.0 -0.4202027294
O  O3  1  0.18210000  0.27260000  0.15476000  1.0 -0.4202027294
O  O4  1  0.81790000  0.77260000  0.34524000  1.0 -0.4202027294
O  O5  1  0.74980000  0.74920000  0.74412000  1.0 -0.3990797379
O  O6  1  0.25020000  0.24920000  0.75588000  1.0 -0.3990797379
O  O7  1  0.25020000  0.25080000  0.25588000  1.0 -0.3990797379
O  O8  1  0.74980000  0.75080000  0.24412000  1.0 -0.3990797379
O  O9  1  0.68240000  0.73700000  0.83150000  1.0 -0.359428675
O  O10  1  0.31760000  0.23700000  0.66850000  1.0 -0.359428675
O  O11  1  0.31760000  0.26300000  0.16850000  1.0 -0.359428675
O  O12  1  0.68240000  0.76300000  0.33150000  1.0 -0.359428675
O  O13  1  0.00440000  0.73630000  0.78257000  1.0 -0.4353744994
O  O14  1  0.99560000  0.23630000  0.71743000  1.0 -0.4343456636
O  O15  1  0.99560000  0.26370000  0.21743000  1.0 -0.4343456636
O  O16  1  0.00440000  0.76370000  0.28257000  1.0 -0.4343456636
O  O17  1  0.99440000  0.71270000  0.88980000  1.0 -0.3990797379
O  O18  1  0.00560000  0.21270000  0.61020000  1.0 -0.3990797379
O  O19  1  0.00560000  0.28730000  0.11020000  1.0 -0.3990797379
O  O20  1  0.99440000  0.78730000  0.38980000  1.0 -0.3990797379
O  O21  1  0.11430000  0.71900000  0.85690000  1.0 -0.3990797379
O  O22  1  0.88570000  0.21900000  0.64310000  1.0 -0.3990797379
O  O23  1  0.88570000  0.28100000  0.14310000  1.0 -0.3990797379
O  O24  1  0.11430000  0.78100000  0.35690000  1.0 -0.3990797379
O  O25  1  0.50460000  0.74840000  0.24800000  1.0 -0.3990797379
O  O26  1  0.49540000  0.24840000  0.25200000  1.0 -0.3990797379
O  O27  1  0.49540000  0.25160000  0.75200000  1.0 -0.3990797379
O  O28  1  0.50460000  0.75160000  0.74800000  1.0 -0.3990797379
O  O29  1  0.43370000  0.70680000  0.15274000  1.0 -0.3990797379
O  O30  1  0.56630000  0.20680000  0.34726000  1.0 -0.3990797379
O  O31  1  0.56630000  0.29320000  0.84726000  1.0 -0.3990797379
O  O32  1  0.43370000  0.79320000  0.65274000  1.0 -0.3990797379
O  O33  1  0.56900000  0.70750000  0.16320000  1.0 -0.3726352464
O  O34  1  0.43100000  0.20750000  0.33680000  1.0 -0.3726352464
O  O35  1  0.43100000  0.29250000  0.83680000  1.0 -0.3726352464
O  O36  1  0.56900000  0.79250000  0.66320000  1.0 -0.3726352464
O  O37  1  0.24950000  0.73610000  0.21320000  1.0 -0.4202027294
O  O38  1  0.75050000  0.23610000  0.28680000  1.0 -0.4202027294
O  O39  1  0.75050000  0.26390000  0.78680000  1.0 -0.4202027294
O  O40  1  0.24950000  0.76390000  0.71320000  1.0 -0.4202027294
O  O41  1  0.26220000  0.69050000  0.11050000  1.0 -0.3990797379
O  O42  1  0.73780000  0.19050000  0.38950000  1.0 -0.3990797379
O  O43  1  0.73780000  0.30950000  0.88950000  1.0 -0.3990797379
O  O44  1  0.26220000  0.80950000  0.61050000  1.0 -0.3990797379
O  O45  1  0.14250000  0.72700000  0.13600000  1.0 -0.3990797379
O  O46  1  0.85750000  0.22700000  0.36400000  1.0 -0.3990797379
O  O47  1  0.85750000  0.27300000  0.86400000  1.0 -0.3990797379
O  O48  1  0.14250000  0.77300000  0.63600000  1.0 -0.3990797379
