# DDEC6 charges by PACMAN v1.1 (https://github.com/mtap-research/PACMAN-charge/)
data_PEWDAY_ASR_pacman
_symmetry_space_group_name_H-M   'P 1'
_cell_length_a   9.70000000
_cell_length_b   13.45500000
_cell_length_c   13.56400000
_cell_angle_alpha   90.00000000
_cell_angle_beta   90.00000000
_cell_angle_gamma   90.00000000
_symmetry_Int_Tables_number   1
_chemical_formula_structural   ZnH30C18NO4
_chemical_formula_sum   'Zn4 H120 C72 N4 O16'
_cell_volume   1770.28511400
_cell_formula_units_Z   4
loop_
 _symmetry_equiv_pos_site_id
 _symmetry_equiv_pos_as_xyz
  1  'x, y, z'
loop_
 _atom_site_type_symbol
 _atom_site_label
 _atom_site_symmetry_multiplicity
 _atom_site_fract_x
 _atom_site_fract_y
 _atom_site_fract_z
 _atom_site_occupancy
 _atom_site_charge
Zn  Zn1  1  0.84593000  0.50000000  0.00000000  1.0 0.7879937716
Zn  Zn2  1  0.15407000  0.00000000  0.50000000  1.0 0.7879937716
Zn  Zn3  1  0.14538000  0.50000000  0.00000000  1.0 0.7879937716
Zn  Zn4  1  0.85462000  0.00000000  0.50000000  1.0 0.7879937716
H  H1  1  0.11911000  0.33527000  0.55408000  1.0 0.0898370609
H  H2  1  0.11911000  0.66473000  0.44592000  1.0 0.0898370609
H  H3  1  0.88089000  0.83527000  0.94592000  1.0 0.0898370609
H  H4  1  0.88089000  0.16473000  0.05408000  1.0 0.0898370609
H  H5  1  0.14197000  0.41385000  0.47026000  1.0 0.0898370609
H  H6  1  0.14197000  0.58615000  0.52974000  1.0 0.0898370609
H  H7  1  0.85803000  0.91385000  0.02974000  1.0 0.0898370609
H  H8  1  0.85803000  0.08615000  0.97026000  1.0 0.0898370609
H  H9  1  0.79875000  0.30860000  0.42289000  1.0 0.0792047078
H  H10  1  0.79875000  0.69140000  0.57711000  1.0 0.0792047078
H  H11  1  0.20125000  0.80860000  0.07711000  1.0 0.0792047078
H  H12  1  0.20125000  0.19140000  0.92289000  1.0 0.0792047078
H  H13  1  0.87413000  0.38136000  0.49712000  1.0 0.0622495942
H  H14  1  0.87413000  0.61864000  0.50288000  1.0 0.0622495942
H  H15  1  0.12587000  0.88136000  0.00288000  1.0 0.0622495942
H  H16  1  0.12587000  0.11864000  0.99712000  1.0 0.0622495942
H  H17  1  0.86202000  0.26230000  0.25464000  1.0 0.0316115745
H  H18  1  0.86202000  0.73770000  0.74536000  1.0 0.0316115745
H  H19  1  0.13798000  0.76230000  0.24536000  1.0 0.0316115745
H  H20  1  0.13798000  0.23770000  0.75464000  1.0 0.0316115745
H  H21  1  0.97922000  0.24879000  0.17612000  1.0 0.1126976801
H  H22  1  0.97922000  0.75121000  0.82388000  1.0 0.1126976801
H  H23  1  0.02078000  0.74879000  0.32388000  1.0 0.1126976801
H  H24  1  0.02078000  0.25121000  0.67612000  1.0 0.1126976801
H  H25  1  0.79429000  0.42953000  0.31147000  1.0 0.1004228391
H  H26  1  0.79429000  0.57047000  0.68853000  1.0 0.1004228391
H  H27  1  0.20571000  0.92953000  0.18853000  1.0 0.1004228391
H  H28  1  0.20571000  0.07047000  0.81147000  1.0 0.1004228391
H  H29  1  0.26135000  0.33030000  0.31080000  1.0 0.0622495942
H  H30  1  0.26135000  0.66970000  0.68920000  1.0 0.0622495942
H  H31  1  0.73865000  0.83030000  0.18920000  1.0 0.0622495942
H  H32  1  0.73865000  0.16970000  0.81080000  1.0 0.0622495942
H  H33  1  0.21909000  0.22049000  0.28648000  1.0 0.0898370609
H  H34  1  0.21909000  0.77951000  0.71352000  1.0 0.0898370609
H  H35  1  0.78091000  0.72049000  0.21352000  1.0 0.0898370609
H  H36  1  0.78091000  0.27951000  0.78648000  1.0 0.0898370609
H  H37  1  0.20813000  0.30288000  0.20506000  1.0 0.1004228391
H  H38  1  0.20813000  0.69712000  0.79494000  1.0 0.1004228391
H  H39  1  0.79187000  0.80288000  0.29494000  1.0 0.1004228391
H  H40  1  0.79187000  0.19712000  0.70506000  1.0 0.1004228391
H  H41  1  0.06647000  0.46343000  0.32577000  1.0 0.0679032073
H  H42  1  0.06647000  0.53657000  0.67423000  1.0 0.0679032073
H  H43  1  0.93353000  0.96343000  0.17423000  1.0 0.0679032073
H  H44  1  0.93353000  0.03657000  0.82577000  1.0 0.0679032073
H  H45  1  0.87511000  0.48687000  0.41457000  1.0 0.1004228391
H  H46  1  0.87511000  0.51313000  0.58543000  1.0 0.1004228391
H  H47  1  0.12489000  0.98687000  0.08543000  1.0 0.1004228391
H  H48  1  0.12489000  0.01313000  0.91457000  1.0 0.1004228391
H  H49  1  0.04195000  0.17625000  0.26272000  1.0 0.0679032073
H  H50  1  0.04195000  0.82375000  0.73728000  1.0 0.0792047078
H  H51  1  0.95805000  0.67625000  0.23728000  1.0 0.0792047078
H  H52  1  0.95805000  0.32375000  0.76272000  1.0 0.0679032073
H  H53  1  0.20560000  0.31097000  0.42996000  1.0 0.0898370609
H  H54  1  0.20560000  0.68903000  0.57004000  1.0 0.0898370609
H  H55  1  0.79440000  0.81097000  0.07004000  1.0 0.0898370609
H  H56  1  0.79440000  0.18903000  0.92996000  1.0 0.0898370609
H  H57  1  0.36582000  0.50439000  0.14996000  1.0 0.1327245064
H  H58  1  0.36582000  0.49561000  0.85004000  1.0 0.1327245064
H  H59  1  0.63418000  0.00439000  0.35004000  1.0 0.1327245064
H  H60  1  0.63418000  0.99561000  0.64996000  1.0 0.1327245064
H  H61  1  0.60805000  0.49561000  0.85004000  1.0 0.1177999765
H  H62  1  0.60805000  0.50439000  0.14996000  1.0 0.1177999765
H  H63  1  0.39195000  0.99561000  0.64996000  1.0 0.1177999765
H  H64  1  0.39195000  0.00439000  0.35004000  1.0 0.1177999765
H  H65  1  0.93353000  0.32622000  0.46294000  1.0 0.0679032073
H  H66  1  0.93353000  0.67378000  0.53706000  1.0 0.0679032073
H  H67  1  0.06647000  0.82622000  0.03706000  1.0 0.0679032073
H  H68  1  0.06647000  0.17378000  0.96294000  1.0 0.0679032073
H  H69  1  0.21924000  0.31153000  0.46640000  1.0 0.0898370609
H  H70  1  0.21924000  0.68847000  0.53360000  1.0 0.0898370609
H  H71  1  0.78076000  0.81153000  0.03360000  1.0 0.0898370609
H  H72  1  0.78076000  0.18847000  0.96640000  1.0 0.0898370609
H  H73  1  0.87729000  0.50022000  0.38348000  1.0 0.0792047078
H  H74  1  0.87729000  0.49978000  0.61652000  1.0 0.0792047078
H  H75  1  0.12271000  0.00022000  0.11652000  1.0 0.0792047078
H  H76  1  0.12271000  0.99978000  0.88348000  1.0 0.0792047078
H  H77  1  0.77964000  0.45263000  0.32765000  1.0 0.1126976801
H  H78  1  0.77964000  0.54737000  0.67235000  1.0 0.1126976801
H  H79  1  0.22036000  0.95263000  0.17235000  1.0 0.1126976801
H  H80  1  0.22036000  0.04737000  0.82765000  1.0 0.1126976801
H  H81  1  0.12261000  0.38413000  0.49950000  1.0 0.0679032073
H  H82  1  0.12261000  0.61587000  0.50050000  1.0 0.0679032073
H  H83  1  0.87739000  0.88413000  0.00050000  1.0 0.0679032073
H  H84  1  0.87739000  0.11587000  0.99950000  1.0 0.0679032073
H  H85  1  0.96831000  0.17513000  0.26540000  1.0 0.0792047078
H  H86  1  0.96831000  0.82487000  0.73460000  1.0 0.0792047078
H  H87  1  0.03169000  0.67513000  0.23460000  1.0 0.0792047078
H  H88  1  0.03169000  0.32487000  0.76540000  1.0 0.0792047078
H  H89  1  0.13626000  0.26969000  0.24756000  1.0 0.0244062726
H  H90  1  0.13626000  0.73031000  0.75244000  1.0 0.0244062726
H  H91  1  0.86374000  0.76969000  0.25244000  1.0 0.0244062726
H  H92  1  0.86374000  0.23031000  0.74756000  1.0 0.0244062726
H  H93  1  0.01221000  0.25025000  0.17595000  1.0 0.1177999765
H  H94  1  0.01221000  0.74975000  0.82405000  1.0 0.1177999765
H  H95  1  0.98779000  0.75025000  0.32405000  1.0 0.1177999765
H  H96  1  0.98779000  0.24975000  0.67595000  1.0 0.1177999765
H  H97  1  0.20135000  0.42241000  0.30912000  1.0 0.0792047078
H  H98  1  0.20135000  0.57759000  0.69088000  1.0 0.0792047078
H  H99  1  0.79865000  0.92241000  0.19088000  1.0 0.0792047078
H  H100  1  0.79865000  0.07759000  0.80912000  1.0 0.0792047078
H  H101  1  0.12599000  0.49783000  0.38070000  1.0 0.0622495942
H  H102  1  0.12599000  0.50217000  0.61930000  1.0 0.0622495942
H  H103  1  0.87401000  0.99783000  0.11930000  1.0 0.0622495942
H  H104  1  0.87401000  0.00217000  0.88070000  1.0 0.0622495942
H  H105  1  0.79101000  0.20489000  0.30429000  1.0 0.1004228391
H  H106  1  0.79101000  0.79511000  0.69571000  1.0 0.1004228391
H  H107  1  0.20899000  0.70489000  0.19571000  1.0 0.1004228391
H  H108  1  0.20899000  0.29511000  0.80429000  1.0 0.1004228391
H  H109  1  0.73853000  0.31236000  0.32872000  1.0 0.0489888374
H  H110  1  0.73853000  0.68764000  0.67128000  1.0 0.0489888374
H  H111  1  0.26147000  0.81236000  0.17128000  1.0 0.0489888374
H  H112  1  0.26147000  0.18764000  0.82872000  1.0 0.0489888374
H  H113  1  0.78187000  0.28510000  0.22065000  1.0 0.1004228391
H  H114  1  0.78187000  0.71490000  0.77935000  1.0 0.1004228391
H  H115  1  0.21813000  0.78510000  0.27935000  1.0 0.1004228391
H  H116  1  0.21813000  0.21490000  0.72065000  1.0 0.1004228391
H  H117  1  0.86485000  0.55126000  0.31846000  1.0 0.0792047078
H  H118  1  0.86485000  0.44874000  0.68154000  1.0 0.0792047078
H  H119  1  0.13515000  0.05126000  0.18154000  1.0 0.0792047078
H  H120  1  0.13515000  0.94874000  0.81846000  1.0 0.0792047078
C  C1  1  0.00430000  0.18510000  0.45080000  1.0 0.3870704525
C  C2  1  0.00430000  0.81490000  0.54920000  1.0 0.3870704525
C  C3  1  0.99570000  0.68510000  0.04920000  1.0 0.3870704525
C  C4  1  0.99570000  0.31490000  0.95080000  1.0 0.3870704525
C  C5  1  0.00380000  0.29510000  0.42120000  1.0 0.0395891793
C  C6  1  0.00380000  0.70490000  0.57880000  1.0 0.0395891793
C  C7  1  0.99620000  0.79510000  0.07880000  1.0 0.0395891793
C  C8  1  0.99620000  0.20490000  0.92120000  1.0 0.0395891793
C  C9  1  0.13510000  0.34420000  0.48480000  1.0 -0.2308048578
C  C10  1  0.13510000  0.65580000  0.51520000  1.0 -0.2308048578
C  C11  1  0.86490000  0.84420000  0.01520000  1.0 -0.2308048578
C  C12  1  0.86490000  0.15580000  0.98480000  1.0 -0.2308048578
C  C13  1  0.05210000  0.31130000  0.30630000  1.0 0.0679032073
C  C14  1  0.05210000  0.68870000  0.69370000  1.0 0.0679032073
C  C15  1  0.94790000  0.81130000  0.19370000  1.0 0.0679032073
C  C16  1  0.94790000  0.18870000  0.80630000  1.0 0.0679032073
C  C17  1  0.87770000  0.35190000  0.43190000  1.0 -0.2538647972
C  C18  1  0.87770000  0.64810000  0.56810000  1.0 -0.2538647972
C  C19  1  0.12230000  0.85190000  0.06810000  1.0 -0.2538647972
C  C20  1  0.12230000  0.14810000  0.93190000  1.0 -0.2538647972
C  C21  1  0.95620000  0.24280000  0.24470000  1.0 -0.1468122698
C  C22  1  0.95620000  0.75720000  0.75530000  1.0 -0.1468122698
C  C23  1  0.04380000  0.74280000  0.25530000  1.0 -0.1468122698
C  C24  1  0.04380000  0.25720000  0.74470000  1.0 -0.1468122698
C  C25  1  0.87590000  0.43530000  0.35240000  1.0 -0.1235538818
C  C26  1  0.87590000  0.56470000  0.64760000  1.0 -0.1235538818
C  C27  1  0.12410000  0.93530000  0.14760000  1.0 -0.1235538818
C  C28  1  0.12410000  0.06470000  0.85240000  1.0 -0.1235538818
C  C29  1  0.19870000  0.28920000  0.27420000  1.0 -0.2117782127
C  C30  1  0.19870000  0.71080000  0.72580000  1.0 -0.2117782127
C  C31  1  0.80130000  0.78920000  0.22580000  1.0 -0.2117782127
C  C32  1  0.80130000  0.21080000  0.77420000  1.0 -0.2117782127
C  C33  1  0.99570000  0.45080000  0.18510000  1.0 0.3870704525
C  C34  1  0.99570000  0.54920000  0.81490000  1.0 0.3870704525
C  C35  1  0.00430000  0.95080000  0.31490000  1.0 0.3870704525
C  C36  1  0.00430000  0.04920000  0.68510000  1.0 0.3870704525
C  C37  1  0.99620000  0.42120000  0.29510000  1.0 0.0395891793
C  C38  1  0.99620000  0.57880000  0.70490000  1.0 0.0395891793
C  C39  1  0.00380000  0.92120000  0.20490000  1.0 0.0395891793
C  C40  1  0.00380000  0.07880000  0.79510000  1.0 0.0395891793
C  C41  1  0.41943000  0.50245000  0.08359000  1.0 0.0028291767
C  C42  1  0.41943000  0.49755000  0.91641000  1.0 0.0028291767
C  C43  1  0.58057000  0.00245000  0.41641000  1.0 0.0028291767
C  C44  1  0.58057000  0.99755000  0.58359000  1.0 0.0028291767
C  C45  1  0.55446000  0.50245000  0.08359000  1.0 -0.0118387869
C  C46  1  0.55446000  0.49755000  0.91641000  1.0 -0.0118387869
C  C47  1  0.44554000  0.00245000  0.41641000  1.0 -0.0118387869
C  C48  1  0.44554000  0.99755000  0.58359000  1.0 -0.0118387869
C  C49  1  0.86490000  0.48480000  0.34420000  1.0 -0.2394141726
C  C50  1  0.86490000  0.51520000  0.65580000  1.0 -0.2394141726
C  C51  1  0.13510000  0.98480000  0.15580000  1.0 -0.2394141726
C  C52  1  0.13510000  0.01520000  0.84420000  1.0 -0.2394141726
C  C53  1  0.94790000  0.30630000  0.31130000  1.0 0.0622495942
C  C54  1  0.94790000  0.69370000  0.68870000  1.0 0.0622495942
C  C55  1  0.05210000  0.80630000  0.18870000  1.0 0.0622495942
C  C56  1  0.05210000  0.19370000  0.81130000  1.0 0.0622495942
C  C57  1  0.04380000  0.24470000  0.24280000  1.0 -0.1433516129
C  C58  1  0.04380000  0.75530000  0.75720000  1.0 -0.1433516129
C  C59  1  0.95620000  0.74470000  0.25720000  1.0 -0.1433516129
C  C60  1  0.95620000  0.25530000  0.74280000  1.0 -0.1433516129
C  C61  1  0.12410000  0.35240000  0.43530000  1.0 -0.1046874247
C  C62  1  0.12410000  0.64760000  0.56470000  1.0 -0.1046874247
C  C63  1  0.87590000  0.85240000  0.06470000  1.0 -0.1046874247
C  C64  1  0.87590000  0.14760000  0.93530000  1.0 -0.1046874247
C  C65  1  0.80130000  0.27420000  0.28920000  1.0 -0.2117782127
C  C66  1  0.80130000  0.72580000  0.71080000  1.0 -0.2117782127
C  C67  1  0.19870000  0.77420000  0.21080000  1.0 -0.2117782127
C  C68  1  0.19870000  0.22580000  0.78920000  1.0 -0.2117782127
C  C69  1  0.12230000  0.43190000  0.35190000  1.0 -0.2538647972
C  C70  1  0.12230000  0.56810000  0.64810000  1.0 -0.2538647972
C  C71  1  0.87770000  0.93190000  0.14810000  1.0 -0.2538647972
C  C72  1  0.87770000  0.06810000  0.85190000  1.0 -0.2538647972
N  N1  1  0.62197000  0.50000000  0.00000000  1.0 -0.2308048578
N  N2  1  0.37803000  0.00000000  0.50000000  1.0 -0.2308048578
N  N3  1  0.35191000  0.50000000  0.00000000  1.0 -0.1925827436
N  N4  1  0.64809000  0.00000000  0.50000000  1.0 -0.1925827436
O  O1  1  0.11880000  0.13940000  0.44750000  1.0 -0.5245667271
O  O2  1  0.11880000  0.86060000  0.55250000  1.0 -0.5245667271
O  O3  1  0.88120000  0.63940000  0.05250000  1.0 -0.5254160933
O  O4  1  0.88120000  0.36060000  0.94750000  1.0 -0.5245667271
O  O5  1  0.89040000  0.14770000  0.47690000  1.0 -0.5387116743
O  O6  1  0.89040000  0.85230000  0.52310000  1.0 -0.5387116743
O  O7  1  0.10960000  0.64770000  0.02310000  1.0 -0.5387116743
O  O8  1  0.10960000  0.35230000  0.97690000  1.0 -0.5387116743
O  O9  1  0.88120000  0.44750000  0.13940000  1.0 -0.5387116743
O  O10  1  0.88120000  0.55250000  0.86060000  1.0 -0.5387116743
O  O11  1  0.11880000  0.94750000  0.36060000  1.0 -0.5387116743
O  O12  1  0.11880000  0.05250000  0.63940000  1.0 -0.5387116743
O  O13  1  0.10960000  0.47690000  0.14770000  1.0 -0.5387116743
O  O14  1  0.10960000  0.52310000  0.85230000  1.0 -0.5387116743
O  O15  1  0.89040000  0.97690000  0.35230000  1.0 -0.5387116743
O  O16  1  0.89040000  0.02310000  0.64770000  1.0 -0.5387116743
