# DDEC6 charges by PACMAN v1.1 (https://github.com/mtap-research/PACMAN-charge/)
data_PEWXAT_ASR_pacman
_symmetry_space_group_name_H-M   'P 1'
_cell_length_a   11.86570000
_cell_length_b   15.92830000
_cell_length_c   14.13370000
_cell_angle_alpha   90.00000000
_cell_angle_beta   114.49100000
_cell_angle_gamma   90.00000000
_symmetry_Int_Tables_number   1
_chemical_formula_structural   BaCdH12C15NClO7
_chemical_formula_sum   'Ba4 Cd4 H48 C60 N4 Cl4 O28'
_cell_volume   2430.93110501
_cell_formula_units_Z   4
loop_
 _symmetry_equiv_pos_site_id
 _symmetry_equiv_pos_as_xyz
  1  'x, y, z'
loop_
 _atom_site_type_symbol
 _atom_site_label
 _atom_site_symmetry_multiplicity
 _atom_site_fract_x
 _atom_site_fract_y
 _atom_site_fract_z
 _atom_site_occupancy
 _atom_site_charge
Ba  Ba1  1  0.68989000  0.68774000  0.95893000  1.0 1.4935550552
Ba  Ba2  1  0.31011000  0.18774000  0.54107000  1.0 1.4935550552
Ba  Ba3  1  0.31011000  0.31226000  0.04107000  1.0 1.4935550552
Ba  Ba4  1  0.68989000  0.81226000  0.45893000  1.0 1.4935550552
Cd  Cd1  1  0.63671000  0.67704000  0.21645000  1.0 0.9619290393
Cd  Cd2  1  0.36329000  0.17704000  0.28355000  1.0 0.9619290393
Cd  Cd3  1  0.36329000  0.32296000  0.78355000  1.0 0.9619290393
Cd  Cd4  1  0.63671000  0.82296000  0.71645000  1.0 0.9619290393
H  H1  1  0.98700000  0.49040000  0.37960000  1.0 0.1215961345
H  H2  1  0.13170000  0.38680000  0.40400000  1.0 0.1215961345
H  H3  1  0.05690000  0.39420000  0.09970000  1.0 0.1119915678
H  H4  1  0.90580000  0.49210000  0.07420000  1.0 0.1215961345
H  H5  1  0.64150000  0.60850000  0.56210000  1.0 0.1119915678
H  H6  1  0.59020000  0.53080000  0.67620000  1.0 0.1215961345
H  H7  1  0.34190000  0.93430000  0.30140000  1.0 0.1482172005
H  H8  1  0.23090000  0.87100000  0.25830000  1.0 0.1305902165
H  H9  1  0.36540000  0.83800000  0.32390000  1.0 0.1423274439
H  H10  1  0.16990000  0.88670000  0.06290000  1.0 0.1423274439
H  H11  1  0.24310000  0.97060000  0.10420000  1.0 0.1482172005
H  H12  1  0.27890000  0.91090000  0.03290000  1.0 0.1423274439
H  H13  1  0.01300000  0.99040000  0.12040000  1.0 0.1215961345
H  H14  1  0.86830000  0.88680000  0.09600000  1.0 0.1215961345
H  H15  1  0.94310000  0.89420000  0.40030000  1.0 0.1119915678
H  H16  1  0.09420000  0.99210000  0.42580000  1.0 0.1215961345
H  H17  1  0.35850000  0.10850000  0.93790000  1.0 0.1119915678
H  H18  1  0.40980000  0.03080000  0.82380000  1.0 0.1215961345
H  H19  1  0.65810000  0.43430000  0.19860000  1.0 0.1482172005
H  H20  1  0.76910000  0.37100000  0.24170000  1.0 0.1305902165
H  H21  1  0.63460000  0.33800000  0.17610000  1.0 0.1423274439
H  H22  1  0.83010000  0.38670000  0.43710000  1.0 0.1423274439
H  H23  1  0.75690000  0.47060000  0.39580000  1.0 0.1482172005
H  H24  1  0.72110000  0.41090000  0.46710000  1.0 0.1423274439
H  H25  1  0.01300000  0.50960000  0.62040000  1.0 0.1215961345
H  H26  1  0.86830000  0.61320000  0.59600000  1.0 0.1215961345
H  H27  1  0.94310000  0.60580000  0.90030000  1.0 0.1119915678
H  H28  1  0.09420000  0.50790000  0.92580000  1.0 0.1215961345
H  H29  1  0.35850000  0.39150000  0.43790000  1.0 0.1119915678
H  H30  1  0.40980000  0.46920000  0.32380000  1.0 0.1215961345
H  H31  1  0.65810000  0.06570000  0.69860000  1.0 0.1482172005
H  H32  1  0.76910000  0.12900000  0.74170000  1.0 0.1305902165
H  H33  1  0.63460000  0.16200000  0.67610000  1.0 0.1423274439
H  H34  1  0.83010000  0.11330000  0.93710000  1.0 0.1423274439
H  H35  1  0.75690000  0.02940000  0.89580000  1.0 0.1482172005
H  H36  1  0.72110000  0.08910000  0.96710000  1.0 0.1423274439
H  H37  1  0.98700000  0.00960000  0.87960000  1.0 0.1215961345
H  H38  1  0.13170000  0.11320000  0.90400000  1.0 0.1215961345
H  H39  1  0.05690000  0.10580000  0.59970000  1.0 0.1119915678
H  H40  1  0.90580000  0.00790000  0.57420000  1.0 0.1215961345
H  H41  1  0.64150000  0.89150000  0.06210000  1.0 0.1119915678
H  H42  1  0.59020000  0.96920000  0.17620000  1.0 0.1215961345
H  H43  1  0.34190000  0.56570000  0.80140000  1.0 0.1482172005
H  H44  1  0.23090000  0.62900000  0.75830000  1.0 0.1305902165
H  H45  1  0.36540000  0.66200000  0.82390000  1.0 0.1423274439
H  H46  1  0.16990000  0.61330000  0.56290000  1.0 0.1423274439
H  H47  1  0.24310000  0.52940000  0.60420000  1.0 0.1482172005
H  H48  1  0.27890000  0.58910000  0.53290000  1.0 0.1423274439
C  C1  1  0.82290000  0.56110000  0.20350000  1.0 0.5757255119
C  C2  1  0.92810000  0.50030000  0.22400000  1.0 -0.0169860169
C  C3  1  0.99890000  0.46950000  0.32300000  1.0 -0.1114666202
C  C4  1  0.08650000  0.40820000  0.33770000  1.0 -0.1155044946
C  C5  1  0.10780000  0.37820000  0.25370000  1.0 -0.0279496492
C  C6  1  0.04090000  0.41190000  0.15560000  1.0 -0.1114666202
C  C7  1  0.95150000  0.47110000  0.14060000  1.0 -0.1031847212
C  C8  1  0.19920000  0.30910000  0.26810000  1.0 0.5969502341
C  C9  1  0.57180000  0.59410000  0.35950000  1.0 0.5700867933
C  C10  1  0.53180000  0.54630000  0.43110000  1.0 -0.0279496492
C  C11  1  0.58490000  0.56480000  0.53720000  1.0 -0.1114666202
C  C12  1  0.55370000  0.51850000  0.60550000  1.0 -0.1114666202
C  C13  1  0.42630000  0.82240000  0.17560000  1.0 0.2774821382
C  C14  1  0.31700000  0.87900000  0.27370000  1.0 -0.2931351501
C  C15  1  0.24970000  0.91310000  0.08680000  1.0 -0.3138529498
C  C16  1  0.17710000  0.06110000  0.29650000  1.0 0.5757255119
C  C17  1  0.07190000  0.00030000  0.27600000  1.0 -0.0169860169
C  C18  1  0.00110000  0.96950000  0.17700000  1.0 -0.1114666202
C  C19  1  0.91350000  0.90820000  0.16230000  1.0 -0.1114666202
C  C20  1  0.89220000  0.87820000  0.24630000  1.0 -0.0279496492
C  C21  1  0.95910000  0.91190000  0.34440000  1.0 -0.1114666202
C  C22  1  0.04850000  0.97110000  0.35940000  1.0 -0.1031847212
C  C23  1  0.80080000  0.80910000  0.23190000  1.0 0.5969502341
C  C24  1  0.42820000  0.09410000  0.14050000  1.0 0.5700867933
C  C25  1  0.46820000  0.04630000  0.06890000  1.0 -0.0279496492
C  C26  1  0.41510000  0.06480000  0.96280000  1.0 -0.1114666202
C  C27  1  0.44630000  0.01850000  0.89450000  1.0 -0.1114666202
C  C28  1  0.57370000  0.32240000  0.32440000  1.0 0.2774821382
C  C29  1  0.68300000  0.37900000  0.22630000  1.0 -0.2931351501
C  C30  1  0.75030000  0.41310000  0.41320000  1.0 -0.3138529498
C  C31  1  0.17710000  0.43890000  0.79650000  1.0 0.5757255119
C  C32  1  0.07190000  0.49970000  0.77600000  1.0 -0.0169860169
C  C33  1  0.00110000  0.53050000  0.67700000  1.0 -0.1114666202
C  C34  1  0.91350000  0.59180000  0.66230000  1.0 -0.1114666202
C  C35  1  0.89220000  0.62180000  0.74630000  1.0 -0.0279496492
C  C36  1  0.95910000  0.58810000  0.84440000  1.0 -0.1114666202
C  C37  1  0.04850000  0.52890000  0.85940000  1.0 -0.1031847212
C  C38  1  0.80080000  0.69090000  0.73190000  1.0 0.5969502341
C  C39  1  0.42820000  0.40590000  0.64050000  1.0 0.5700867933
C  C40  1  0.46820000  0.45370000  0.56890000  1.0 -0.0279496492
C  C41  1  0.41510000  0.43520000  0.46280000  1.0 -0.1114666202
C  C42  1  0.44630000  0.48150000  0.39450000  1.0 -0.1114666202
C  C43  1  0.57370000  0.17760000  0.82440000  1.0 0.2774821382
C  C44  1  0.68300000  0.12100000  0.72630000  1.0 -0.2931351501
C  C45  1  0.75030000  0.08690000  0.91320000  1.0 -0.3138529498
C  C46  1  0.82290000  0.93890000  0.70350000  1.0 0.5757255119
C  C47  1  0.92810000  0.99970000  0.72400000  1.0 -0.0169860169
C  C48  1  0.99890000  0.03050000  0.82300000  1.0 -0.1114666202
C  C49  1  0.08650000  0.09180000  0.83770000  1.0 -0.1155044946
C  C50  1  0.10780000  0.12180000  0.75370000  1.0 -0.0279496492
C  C51  1  0.04090000  0.08810000  0.65560000  1.0 -0.1114666202
C  C52  1  0.95150000  0.02890000  0.64060000  1.0 -0.1031847212
C  C53  1  0.19920000  0.19090000  0.76810000  1.0 0.5969502341
C  C54  1  0.57180000  0.90590000  0.85950000  1.0 0.5700867933
C  C55  1  0.53180000  0.95370000  0.93110000  1.0 -0.0279496492
C  C56  1  0.58490000  0.93520000  0.03720000  1.0 -0.1114666202
C  C57  1  0.55370000  0.98150000  0.10550000  1.0 -0.1114666202
C  C58  1  0.42630000  0.67760000  0.67560000  1.0 0.2713908714
C  C59  1  0.31700000  0.62100000  0.77370000  1.0 -0.2931351501
C  C60  1  0.24970000  0.58690000  0.58680000  1.0 -0.3138529498
N  N1  1  0.33630000  0.86920000  0.17830000  1.0 0.0004557799
N  N2  1  0.66370000  0.36920000  0.32170000  1.0 -0.0005241092
N  N3  1  0.66370000  0.13080000  0.82170000  1.0 -0.0005241092
N  N4  1  0.33630000  0.63080000  0.67830000  1.0 -0.0005241092
Cl  Cl1  1  0.47269000  0.67435000  0.03235000  1.0 -0.6291487056
Cl  Cl2  1  0.52731000  0.17435000  0.46765000  1.0 -0.6291487056
Cl  Cl3  1  0.52731000  0.32565000  0.96765000  1.0 -0.6291487056
Cl  Cl4  1  0.47269000  0.82565000  0.53235000  1.0 -0.6291487056
O  O1  1  0.80980000  0.59290000  0.28050000  1.0 -0.531790911
O  O2  1  0.75110000  0.57500000  0.11100000  1.0 -0.6418925512
O  O3  1  0.23000000  0.29200000  0.19500000  1.0 -0.6116626152
O  O4  1  0.24260000  0.26790000  0.35200000  1.0 -0.6116626152
O  O5  1  0.64930000  0.65250000  0.39590000  1.0 -0.6116626152
O  O6  1  0.52810000  0.57470000  0.26410000  1.0 -0.5220870811
O  O7  1  0.50520000  0.78490000  0.25180000  1.0 -0.5359841723
O  O8  1  0.19020000  0.09290000  0.21950000  1.0 -0.531790911
O  O9  1  0.24890000  0.07500000  0.38900000  1.0 -0.6418925512
O  O10  1  0.77000000  0.79200000  0.30500000  1.0 -0.6116626152
O  O11  1  0.75740000  0.76790000  0.14800000  1.0 -0.6116626152
O  O12  1  0.35070000  0.15250000  0.10410000  1.0 -0.6116626152
O  O13  1  0.47190000  0.07470000  0.23590000  1.0 -0.5220870811
O  O14  1  0.49480000  0.28490000  0.24820000  1.0 -0.5359841723
O  O15  1  0.19020000  0.40710000  0.71950000  1.0 -0.531790911
O  O16  1  0.24890000  0.42500000  0.88900000  1.0 -0.6418925512
O  O17  1  0.77000000  0.70800000  0.80500000  1.0 -0.6116626152
O  O18  1  0.75740000  0.73210000  0.64800000  1.0 -0.6116626152
O  O19  1  0.35070000  0.34750000  0.60410000  1.0 -0.6116626152
O  O20  1  0.47190000  0.42530000  0.73590000  1.0 -0.5220870811
O  O21  1  0.49480000  0.21510000  0.74820000  1.0 -0.5359841723
O  O22  1  0.80980000  0.90710000  0.78050000  1.0 -0.531790911
O  O23  1  0.75110000  0.92500000  0.61100000  1.0 -0.6418925512
O  O24  1  0.23000000  0.20800000  0.69500000  1.0 -0.6116626152
O  O25  1  0.24260000  0.23210000  0.85200000  1.0 -0.6116626152
O  O26  1  0.64930000  0.84750000  0.89590000  1.0 -0.6116626152
O  O27  1  0.52810000  0.92530000  0.76410000  1.0 -0.5220870811
O  O28  1  0.50520000  0.71510000  0.75180000  1.0 -0.5359841723
