# DDEC6 charges by PACMAN v1.1 (https://github.com/mtap-research/PACMAN-charge/)
data_PEXBIF_FSR_pacman
_symmetry_space_group_name_H-M   'P 1'
_cell_length_a   12.26240000
_cell_length_b   12.26240000
_cell_length_c   16.87100000
_cell_angle_alpha   66.21700000
_cell_angle_beta   113.78300000
_cell_angle_gamma   105.58600000
_symmetry_Int_Tables_number   1
_chemical_formula_structural   CdH17C17(NO)5
_chemical_formula_sum   'Cd4 H68 C68 N20 O20'
_cell_volume   2107.16167690
_cell_formula_units_Z   4
loop_
 _symmetry_equiv_pos_site_id
 _symmetry_equiv_pos_as_xyz
  1  'x, y, z'
loop_
 _atom_site_type_symbol
 _atom_site_label
 _atom_site_symmetry_multiplicity
 _atom_site_fract_x
 _atom_site_fract_y
 _atom_site_fract_z
 _atom_site_occupancy
 _atom_site_charge
Cd  Cd1  1  0.54309000  0.80049000  0.36856000  1.0 0.756227559
Cd  Cd2  1  0.80049000  0.54309000  0.13144000  1.0 0.756227559
Cd  Cd3  1  0.45691000  0.19951000  0.63144000  1.0 0.756227559
Cd  Cd4  1  0.19951000  0.45691000  0.86856000  1.0 0.756227559
H  H1  1  0.31190000  0.43830000  0.41640000  1.0 0.0985382619
H  H2  1  0.43830000  0.31190000  0.08360000  1.0 0.0985382619
H  H3  1  0.68810000  0.56170000  0.58360000  1.0 0.0985382619
H  H4  1  0.56170000  0.68810000  0.91640000  1.0 0.0985382619
H  H5  1  0.15420000  0.27680000  0.42610000  1.0 0.1209230068
H  H6  1  0.27680000  0.15420000  0.07390000  1.0 0.1209230068
H  H7  1  0.84580000  0.72320000  0.57390000  1.0 0.1209230068
H  H8  1  0.72320000  0.84580000  0.92610000  1.0 0.1209230068
H  H9  1  0.95970000  0.31770000  0.32050000  1.0 0.1109676894
H  H10  1  0.31770000  0.95970000  0.17950000  1.0 0.1109676894
H  H11  1  0.04030000  0.68230000  0.67950000  1.0 0.1109676894
H  H12  1  0.68230000  0.04030000  0.82050000  1.0 0.1109676894
H  H13  1  0.71340000  0.93720000  0.50990000  1.0 0.1209230068
H  H14  1  0.93720000  0.71340000  0.99010000  1.0 0.1209230068
H  H15  1  0.28660000  0.06280000  0.49010000  1.0 0.1209230068
H  H16  1  0.06280000  0.28660000  0.00990000  1.0 0.1209230068
H  H17  1  0.41450000  0.72730000  0.51720000  1.0 0.1209230068
H  H18  1  0.72730000  0.41450000  0.98280000  1.0 0.1209230068
H  H19  1  0.58550000  0.27270000  0.48280000  1.0 0.1209230068
H  H20  1  0.27270000  0.58550000  0.01720000  1.0 0.1209230068
H  H21  1  0.48430000  0.80030000  0.64140000  1.0 0.1418077113
H  H22  1  0.80030000  0.48430000  0.85860000  1.0 0.1418077113
H  H23  1  0.51570000  0.19970000  0.35860000  1.0 0.1418077113
H  H24  1  0.19970000  0.51570000  0.14140000  1.0 0.1418077113
H  H25  1  0.76450000  0.01410000  0.62720000  1.0 0.1209230068
H  H26  1  0.01410000  0.76450000  0.87280000  1.0 0.1209230068
H  H27  1  0.23550000  0.98590000  0.37280000  1.0 0.1209230068
H  H28  1  0.98590000  0.23550000  0.12720000  1.0 0.1209230068
H  H29  1  0.66580000  0.99660000  0.66980000  1.0 0.1109676894
H  H30  1  0.99660000  0.66580000  0.83020000  1.0 0.1109676894
H  H31  1  0.33420000  0.00340000  0.33020000  1.0 0.1109676894
H  H32  1  0.00340000  0.33420000  0.16980000  1.0 0.1109676894
H  H33  1  0.72820000  0.80740000  0.78100000  1.0 0.0985382619
H  H34  1  0.80740000  0.72820000  0.71900000  1.0 0.0985382619
H  H35  1  0.27180000  0.19260000  0.21900000  1.0 0.0948978873
H  H36  1  0.19260000  0.27180000  0.28100000  1.0 0.0948978873
H  H37  1  0.83740000  0.90760000  0.79090000  1.0 0.1209230068
H  H38  1  0.90760000  0.83740000  0.70910000  1.0 0.1209230068
H  H39  1  0.16260000  0.09240000  0.20910000  1.0 0.1209230068
H  H40  1  0.09240000  0.16260000  0.29090000  1.0 0.1209230068
H  H41  1  0.05600000  0.50100000  0.44630000  1.0 0.1109676894
H  H42  1  0.50100000  0.05600000  0.05370000  1.0 0.1109676894
H  H43  1  0.94400000  0.49900000  0.55370000  1.0 0.1109676894
H  H44  1  0.49900000  0.94400000  0.94630000  1.0 0.1109676894
H  H45  1  0.94440000  0.41180000  0.46480000  1.0 0.1109676894
H  H46  1  0.41180000  0.94440000  0.03520000  1.0 0.1109676894
H  H47  1  0.05560000  0.58820000  0.53520000  1.0 0.1109676894
H  H48  1  0.58820000  0.05560000  0.96480000  1.0 0.1109676894
H  H49  1  0.87840000  0.55560000  0.31750000  1.0 0.0985382619
H  H50  1  0.55560000  0.87840000  0.18250000  1.0 0.0985382619
H  H51  1  0.12160000  0.44440000  0.68250000  1.0 0.0985382619
H  H52  1  0.44440000  0.12160000  0.81750000  1.0 0.0985382619
H  H53  1  0.93960000  0.66160000  0.35580000  1.0 0.1109676894
H  H54  1  0.66160000  0.93960000  0.14420000  1.0 0.1109676894
H  H55  1  0.06040000  0.33840000  0.64420000  1.0 0.1109676894
H  H56  1  0.33840000  0.06040000  0.85580000  1.0 0.1109676894
H  H57  1  0.80390000  0.75690000  0.37590000  1.0 0.1209230068
H  H58  1  0.75690000  0.80390000  0.12410000  1.0 0.1209230068
H  H59  1  0.19610000  0.24310000  0.62410000  1.0 0.1209230068
H  H60  1  0.24310000  0.19610000  0.87590000  1.0 0.1209230068
H  H61  1  0.52540000  0.51360000  0.37480000  1.0 0.1109676894
H  H62  1  0.51360000  0.52540000  0.12520000  1.0 0.1109676894
H  H63  1  0.47460000  0.48640000  0.62520000  1.0 0.1109676894
H  H64  1  0.48640000  0.47460000  0.87480000  1.0 0.1109676894
H  H65  1  0.67960000  0.42920000  0.37050000  1.0 0.128523639
H  H66  1  0.42920000  0.67960000  0.12950000  1.0 0.128523639
H  H67  1  0.32040000  0.57080000  0.62950000  1.0 0.128523639
H  H68  1  0.57080000  0.32040000  0.87050000  1.0 0.128523639
C  C1  1  0.31040000  0.66640000  0.30680000  1.0 0.4408876361
C  C2  1  0.66640000  0.31040000  0.19320000  1.0 0.4408876361
C  C3  1  0.68960000  0.33360000  0.69320000  1.0 0.4408876361
C  C4  1  0.33360000  0.68960000  0.80680000  1.0 0.4408876361
C  C5  1  0.20280000  0.56680000  0.31060000  1.0 -0.133221054
C  C6  1  0.56680000  0.20280000  0.18940000  1.0 -0.133221054
C  C7  1  0.79720000  0.43320000  0.68940000  1.0 -0.133221054
C  C8  1  0.43320000  0.79720000  0.81060000  1.0 -0.133221054
C  C9  1  0.23310000  0.44910000  0.37810000  1.0 -0.139173442
C  C10  1  0.44910000  0.23310000  0.12190000  1.0 -0.139173442
C  C11  1  0.76690000  0.55090000  0.62190000  1.0 -0.139173442
C  C12  1  0.55090000  0.76690000  0.87810000  1.0 -0.139173442
C  C13  1  0.14060000  0.35320000  0.38370000  1.0 -0.1750268577
C  C14  1  0.35320000  0.14060000  0.11630000  1.0 -0.1740009575
C  C15  1  0.85940000  0.64680000  0.61630000  1.0 -0.1740009575
C  C16  1  0.64680000  0.85940000  0.88370000  1.0 -0.1750268577
C  C17  1  0.02180000  0.38080000  0.31900000  1.0 0.058403051
C  C18  1  0.38080000  0.02180000  0.18100000  1.0 0.058403051
C  C19  1  0.97820000  0.61920000  0.68100000  1.0 0.058403051
C  C20  1  0.61920000  0.97820000  0.81900000  1.0 0.058403051
C  C21  1  0.07820000  0.59300000  0.24790000  1.0 0.0985382619
C  C22  1  0.59300000  0.07820000  0.25210000  1.0 0.0985382619
C  C23  1  0.92180000  0.40700000  0.75210000  1.0 0.0985382619
C  C24  1  0.40700000  0.92180000  0.74790000  1.0 0.0985382619
C  C25  1  0.03320000  0.71380000  0.18240000  1.0 0.5151129128
C  C26  1  0.71380000  0.03320000  0.31760000  1.0 0.5151129128
C  C27  1  0.96680000  0.28620000  0.81760000  1.0 0.5151129128
C  C28  1  0.28620000  0.96680000  0.68240000  1.0 0.5151129128
C  C29  1  0.64780000  0.89420000  0.52850000  1.0 0.0985382619
C  C30  1  0.89420000  0.64780000  0.97150000  1.0 0.0985382619
C  C31  1  0.35220000  0.10580000  0.47150000  1.0 0.0985382619
C  C32  1  0.10580000  0.35220000  0.02850000  1.0 0.0985382619
C  C33  1  0.48450000  0.77890000  0.53230000  1.0 -0.051846595
C  C34  1  0.77890000  0.48450000  0.96770000  1.0 -0.051846595
C  C35  1  0.51550000  0.22110000  0.46770000  1.0 -0.051846595
C  C36  1  0.22110000  0.51550000  0.03230000  1.0 -0.051846595
C  C37  1  0.52130000  0.81850000  0.59830000  1.0 -0.0869513764
C  C38  1  0.81850000  0.52130000  0.90170000  1.0 -0.0869513764
C  C39  1  0.47870000  0.18150000  0.40170000  1.0 -0.0869513764
C  C40  1  0.18150000  0.47870000  0.09830000  1.0 -0.0869513764
C  C41  1  0.70940000  0.95480000  0.65630000  1.0 -0.139173442
C  C42  1  0.95480000  0.70940000  0.84370000  1.0 -0.139173442
C  C43  1  0.29060000  0.04520000  0.34370000  1.0 -0.139173442
C  C44  1  0.04520000  0.29060000  0.15630000  1.0 -0.139173442
C  C45  1  0.78500000  0.86160000  0.75130000  1.0 -0.1972608505
C  C46  1  0.86160000  0.78500000  0.74870000  1.0 -0.1972608505
C  C47  1  0.21500000  0.13840000  0.24870000  1.0 -0.1972608505
C  C48  1  0.13840000  0.21500000  0.25130000  1.0 -0.1972608505
C  C49  1  0.98320000  0.49360000  0.45880000  1.0 -0.1878569587
C  C50  1  0.49360000  0.98320000  0.04120000  1.0 -0.1878569587
C  C51  1  0.01680000  0.50640000  0.54120000  1.0 -0.1878569587
C  C52  1  0.50640000  0.01680000  0.95880000  1.0 -0.1878569587
C  C53  1  0.89550000  0.58170000  0.36900000  1.0 -0.1144375591
C  C54  1  0.58170000  0.89550000  0.13100000  1.0 -0.1144375591
C  C55  1  0.10450000  0.41830000  0.63100000  1.0 -0.1144375591
C  C56  1  0.41830000  0.10450000  0.86900000  1.0 -0.1144375591
C  C57  1  0.75300000  0.68560000  0.37520000  1.0 0.0985382619
C  C58  1  0.68560000  0.75300000  0.12480000  1.0 0.0985382619
C  C59  1  0.24700000  0.31440000  0.62480000  1.0 0.0985382619
C  C60  1  0.31440000  0.24700000  0.87520000  1.0 0.0985382619
C  C61  1  0.60170000  0.55290000  0.37480000  1.0 -0.0434512025
C  C62  1  0.55290000  0.60170000  0.12520000  1.0 -0.0434512025
C  C63  1  0.39830000  0.44710000  0.62520000  1.0 -0.0434512025
C  C64  1  0.44710000  0.39830000  0.87480000  1.0 -0.0434512025
C  C65  1  0.68570000  0.50550000  0.37210000  1.0 -0.0984875573
C  C66  1  0.50550000  0.68570000  0.12790000  1.0 -0.0984875573
C  C67  1  0.31430000  0.49450000  0.62790000  1.0 -0.0984875573
C  C68  1  0.49450000  0.31430000  0.87210000  1.0 -0.0984875573
N  N1  1  0.56100000  0.82280000  0.48950000  1.0 -0.2624946474
N  N2  1  0.82280000  0.56100000  0.01050000  1.0 -0.2624946474
N  N3  1  0.43900000  0.17720000  0.51050000  1.0 -0.2624946474
N  N4  1  0.17720000  0.43900000  0.98950000  1.0 -0.2624946474
N  N5  1  0.62630000  0.89370000  0.59450000  1.0 0.058403051
N  N6  1  0.89370000  0.62630000  0.90550000  1.0 0.058403051
N  N7  1  0.37370000  0.10630000  0.40550000  1.0 0.058403051
N  N8  1  0.10630000  0.37370000  0.09450000  1.0 0.058403051
N  N9  1  0.78060000  0.59080000  0.37210000  1.0 0.052192451
N  N10  1  0.59080000  0.78060000  0.12790000  1.0 0.052192451
N  N11  1  0.21940000  0.40920000  0.62790000  1.0 0.052192451
N  N12  1  0.40920000  0.21940000  0.87210000  1.0 0.052192451
N  N13  1  0.64230000  0.66410000  0.37750000  1.0 -0.3016579388
N  N14  1  0.66410000  0.64230000  0.12250000  1.0 -0.3016579388
N  N15  1  0.35770000  0.33590000  0.62250000  1.0 -0.3016579388
N  N16  1  0.33590000  0.35770000  0.87750000  1.0 -0.3016579388
N  N17  1  0.99130000  0.49570000  0.25320000  1.0 -0.4326996519
N  N18  1  0.49570000  0.99130000  0.24680000  1.0 -0.4326996519
N  N19  1  0.00870000  0.50430000  0.74680000  1.0 -0.4326996519
N  N20  1  0.50430000  0.00870000  0.75320000  1.0 -0.4326996519
O  O1  1  0.36230000  0.69770000  0.36940000  1.0 -0.0151768992
O  O2  1  0.69770000  0.36230000  0.13060000  1.0 -0.0151768992
O  O3  1  0.63770000  0.30230000  0.63060000  1.0 -0.0151768992
O  O4  1  0.30230000  0.63770000  0.86940000  1.0 -0.0151768992
O  O5  1  0.33970000  0.70530000  0.24160000  1.0 -0.453023517
O  O6  1  0.70530000  0.33970000  0.25840000  1.0 -0.453023517
O  O7  1  0.66030000  0.29470000  0.75840000  1.0 -0.453023517
O  O8  1  0.29470000  0.66030000  0.74160000  1.0 -0.453023517
O  O9  1  0.92670000  0.72810000  0.11840000  1.0 -0.6108364103
O  O10  1  0.72810000  0.92670000  0.38160000  1.0 -0.6108364103
O  O11  1  0.07330000  0.27190000  0.88160000  1.0 -0.6108364103
O  O12  1  0.27190000  0.07330000  0.61840000  1.0 -0.6108364103
O  O13  1  0.10470000  0.80690000  0.19010000  1.0 -0.5508751212
O  O14  1  0.80690000  0.10470000  0.30990000  1.0 -0.5508751212
O  O15  1  0.89530000  0.19310000  0.80990000  1.0 -0.5508751212
O  O16  1  0.19310000  0.89530000  0.69010000  1.0 -0.5508751212
O  O17  1  0.40100000  0.64700000  0.40000000  1.0 -0.139173442
O  O18  1  0.64700000  0.40100000  0.10000000  1.0 -0.139173442
O  O19  1  0.59900000  0.35300000  0.60000000  1.0 -0.139173442
O  O20  1  0.35300000  0.59900000  0.90000000  1.0 -0.139173442
