# DDEC6 charges by PACMAN v1.1 (https://github.com/mtap-research/PACMAN-charge/)
data_PEXGUX_ASR_pacman
_symmetry_space_group_name_H-M   'P 1'
_cell_length_a   15.02830000
_cell_length_b   29.08470000
_cell_length_c   16.29290000
_cell_angle_alpha   90.00000000
_cell_angle_beta   92.80000000
_cell_angle_gamma   90.00000000
_symmetry_Int_Tables_number   1
_chemical_formula_structural   Ca6H50C96N12O25
_chemical_formula_sum   'Ca12 H100 C192 N24 O50'
_cell_volume   7113.02014722
_cell_formula_units_Z   2
loop_
 _symmetry_equiv_pos_site_id
 _symmetry_equiv_pos_as_xyz
  1  'x, y, z'
loop_
 _atom_site_type_symbol
 _atom_site_label
 _atom_site_symmetry_multiplicity
 _atom_site_fract_x
 _atom_site_fract_y
 _atom_site_fract_z
 _atom_site_occupancy
 _atom_site_charge
Ca  Ca1  1  0.30761000  0.06683000  0.67364000  1.0 1.4043555767
Ca  Ca2  1  0.14163000  0.05342000  0.47952000  1.0 1.3693076283
Ca  Ca3  1  0.18964000  0.12095000  0.29854000  1.0 1.321024707
Ca  Ca4  1  0.32238000  0.05330000  0.13447000  1.0 1.4129045219
Ca  Ca5  1  0.07976000  0.05539000  0.99453000  1.0 1.4129045219
Ca  Ca6  1  0.21774000  0.12762000  0.83889000  1.0 1.3288809568
Ca  Ca7  1  0.69239000  0.56683000  0.32636000  1.0 1.4043555767
Ca  Ca8  1  0.85837000  0.55342000  0.52048000  1.0 1.3693076283
Ca  Ca9  1  0.81036000  0.62095000  0.70146000  1.0 1.321024707
Ca  Ca10  1  0.67762000  0.55330000  0.86553000  1.0 1.4129045219
Ca  Ca11  1  0.92024000  0.55539000  0.00547000  1.0 1.4129045219
Ca  Ca12  1  0.78226000  0.62762000  0.16111000  1.0 1.3288809568
H  H1  1  0.37200000  0.96860000  0.82270000  1.0 0.119821964
H  H2  1  0.33810000  0.91290000  0.47710000  1.0 0.119821964
H  H3  1  0.08050000  0.95710000  0.35590000  1.0 0.119821964
H  H4  1  0.40510000  0.20010000  0.93620000  1.0 0.1306470352
H  H5  1  0.37910000  0.89140000  0.82280000  1.0 0.119821964
H  H6  1  0.36140000  0.83530000  0.49770000  1.0 0.119821964
H  H7  1  0.10220000  0.87980000  0.37750000  1.0 0.119821964
H  H8  1  0.53550000  0.24140000  0.90190000  1.0 0.119821964
H  H9  1  0.12860000  0.88270000  0.89600000  1.0 0.119821964
H  H10  1  0.20670000  0.84300000  0.69360000  1.0 0.119821964
H  H11  1  0.33610000  0.88360000  0.27130000  1.0 0.1130528157
H  H12  1  0.67240000  0.12360000  0.91400000  1.0 0.119821964
H  H13  1  0.11620000  0.96000000  0.88770000  1.0 0.1130528157
H  H14  1  0.19950000  0.91990000  0.67760000  1.0 0.119821964
H  H15  1  0.30810000  0.96370000  0.24050000  1.0 0.1130528157
H  H16  1  0.54890000  0.08410000  0.95640000  1.0 0.119821964
H  H17  1  0.47730000  0.78930000  0.78080000  1.0 0.119821964
H  H18  1  0.48360000  0.72650000  0.48590000  1.0 0.119821964
H  H19  1  0.06160000  0.78890000  0.49340000  1.0 0.119821964
H  H20  1  0.82120000  0.12560000  0.74260000  1.0 0.119821964
H  H21  1  0.59820000  0.75030000  0.72990000  1.0 0.119821964
H  H22  1  0.60900000  0.68390000  0.44780000  1.0 0.1130528157
H  H23  1  0.96780000  0.75090000  0.57840000  1.0 0.119821964
H  H24  1  0.93160000  0.08060000  0.69830000  1.0 0.119821964
H  H25  1  0.52810000  0.63950000  0.86220000  1.0 0.1130528157
H  H26  1  0.57410000  0.60040000  0.64160000  1.0 0.119821964
H  H27  1  0.06640000  0.62960000  0.50540000  1.0 0.119821964
H  H28  1  0.09770000  0.18900000  0.71500000  1.0 0.1306470352
H  H29  1  0.39670000  0.67690000  0.89770000  1.0 0.1130528157
H  H30  1  0.44730000  0.63810000  0.67030000  1.0 0.1130528157
H  H31  1  0.17770000  0.67090000  0.43620000  1.0 0.1130528157
H  H32  1  0.98350000  0.23540000  0.76380000  1.0 0.119821964
H  H33  1  0.05490000  0.79250000  0.96790000  1.0 0.1130528157
H  H34  1  0.25010000  0.63320000  0.74140000  1.0 0.119821964
H  H35  1  0.36490000  0.67410000  0.32740000  1.0 0.119821964
H  H36  1  0.66420000  0.33400000  0.92260000  1.0 0.119821964
H  H37  1  0.93820000  0.75350000  0.02520000  1.0 0.119821964
H  H38  1  0.14410000  0.59380000  0.81480000  1.0 0.119821964
H  H39  1  0.49250000  0.63900000  0.29210000  1.0 0.119821964
H  H40  1  0.67210000  0.41220000  0.93980000  1.0 0.119821964
H  H41  1  0.08160000  0.63760000  0.02990000  1.0 0.119821964
H  H42  1  0.97740000  0.70090000  0.77940000  1.0 0.1306470352
H  H43  1  0.60580000  0.76400000  0.26200000  1.0 0.119821964
H  H44  1  0.92840000  0.40630000  0.88300000  1.0 0.119821964
H  H45  1  0.19600000  0.67430000  0.96560000  1.0 0.119821964
H  H46  1  0.09210000  0.74320000  0.72210000  1.0 0.119821964
H  H47  1  0.47620000  0.79780000  0.30360000  1.0 0.119821964
H  H48  1  0.91090000  0.33060000  0.84850000  1.0 0.119821964
H  H49  1  0.22340000  0.11520000  0.03300000  1.0 0.3105367482
H  H50  1  0.18280000  0.11530000  0.09700000  1.0 0.3105367482
H  H51  1  0.62800000  0.46860000  0.17730000  1.0 0.119821964
H  H52  1  0.66190000  0.41290000  0.52290000  1.0 0.119821964
H  H53  1  0.91950000  0.45710000  0.64410000  1.0 0.119821964
H  H54  1  0.59490000  0.70010000  0.06380000  1.0 0.1306470352
H  H55  1  0.62090000  0.39140000  0.17720000  1.0 0.119821964
H  H56  1  0.63860000  0.33530000  0.50230000  1.0 0.1130528157
H  H57  1  0.89780000  0.37980000  0.62250000  1.0 0.119821964
H  H58  1  0.46450000  0.74140000  0.09810000  1.0 0.119821964
H  H59  1  0.87140000  0.38270000  0.10400000  1.0 0.119821964
H  H60  1  0.79330000  0.34300000  0.30640000  1.0 0.119821964
H  H61  1  0.66390000  0.38360000  0.72870000  1.0 0.1130528157
H  H62  1  0.32760000  0.62360000  0.08600000  1.0 0.119821964
H  H63  1  0.88380000  0.46000000  0.11230000  1.0 0.1130528157
H  H64  1  0.80050000  0.41990000  0.32240000  1.0 0.119821964
H  H65  1  0.69190000  0.46370000  0.75950000  1.0 0.1130528157
H  H66  1  0.45110000  0.58410000  0.04360000  1.0 0.119821964
H  H67  1  0.52270000  0.28930000  0.21920000  1.0 0.119821964
H  H68  1  0.51640000  0.22650000  0.51410000  1.0 0.119821964
H  H69  1  0.93840000  0.28890000  0.50660000  1.0 0.119821964
H  H70  1  0.17880000  0.62560000  0.25740000  1.0 0.119821964
H  H71  1  0.40180000  0.25030000  0.27010000  1.0 0.119821964
H  H72  1  0.39100000  0.18390000  0.55220000  1.0 0.1130528157
H  H73  1  0.03220000  0.25090000  0.42160000  1.0 0.119821964
H  H74  1  0.06840000  0.58060000  0.30170000  1.0 0.119821964
H  H75  1  0.47190000  0.13950000  0.13780000  1.0 0.1130528157
H  H76  1  0.42590000  0.10040000  0.35840000  1.0 0.119821964
H  H77  1  0.93360000  0.12960000  0.49460000  1.0 0.119821964
H  H78  1  0.90230000  0.68900000  0.28500000  1.0 0.1306470352
H  H79  1  0.60330000  0.17690000  0.10230000  1.0 0.1130528157
H  H80  1  0.55270000  0.13810000  0.32970000  1.0 0.1130528157
H  H81  1  0.82230000  0.17090000  0.56380000  1.0 0.1130528157
H  H82  1  0.01650000  0.73540000  0.23620000  1.0 0.119821964
H  H83  1  0.94510000  0.29250000  0.03210000  1.0 0.1130528157
H  H84  1  0.74990000  0.13320000  0.25860000  1.0 0.119821964
H  H85  1  0.63510000  0.17410000  0.67260000  1.0 0.119821964
H  H86  1  0.33580000  0.83400000  0.07740000  1.0 0.119821964
H  H87  1  0.06180000  0.25350000  0.97480000  1.0 0.119821964
H  H88  1  0.85590000  0.09380000  0.18520000  1.0 0.119821964
H  H89  1  0.50750000  0.13900000  0.70790000  1.0 0.119821964
H  H90  1  0.32790000  0.91220000  0.06020000  1.0 0.119821964
H  H91  1  0.91840000  0.13760000  0.97010000  1.0 0.119821964
H  H92  1  0.02260000  0.20090000  0.22060000  1.0 0.1306470352
H  H93  1  0.39420000  0.26400000  0.73800000  1.0 0.119821964
H  H94  1  0.07160000  0.90630000  0.11700000  1.0 0.1306470352
H  H95  1  0.80400000  0.17430000  0.03440000  1.0 0.119821964
H  H96  1  0.90790000  0.24320000  0.27790000  1.0 0.119821964
H  H97  1  0.52380000  0.29780000  0.69640000  1.0 0.119821964
H  H98  1  0.08910000  0.83060000  0.15150000  1.0 0.119821964
H  H99  1  0.77660000  0.61520000  0.96700000  1.0 0.3105367482
H  H100  1  0.81720000  0.61530000  0.90300000  1.0 0.3105367482
C  C1  1  0.23620000  0.02350000  0.85040000  1.0 0.5797001705
C  C2  1  0.25250000  0.97710000  0.56080000  1.0 0.5878277928
C  C3  1  0.18580000  0.01950000  0.29060000  1.0 0.6305777044
C  C4  1  0.38470000  0.11470000  0.97900000  1.0 0.617571509
C  C5  1  0.24330000  0.97600000  0.85330000  1.0 -0.1182597422
C  C6  1  0.26350000  0.92550000  0.57230000  1.0 -0.0219255469
C  C7  1  0.19840000  0.96760000  0.29900000  1.0 -0.0219255469
C  C8  1  0.46590000  0.13960000  0.95070000  1.0 -0.0274053637
C  C9  1  0.32190000  0.95190000  0.83600000  1.0 -0.0715483292
C  C10  1  0.31280000  0.89880000  0.52150000  1.0 -0.1093311997
C  C11  1  0.13170000  0.94260000  0.33890000  1.0 -0.1013353193
C  C12  1  0.45950000  0.18500000  0.93340000  1.0 -0.1093311997
C  C13  1  0.32690000  0.90550000  0.83820000  1.0 -0.1182597422
C  C14  1  0.32660000  0.85190000  0.53290000  1.0 -0.1182597422
C  C15  1  0.14500000  0.89670000  0.35130000  1.0 -0.1093311997
C  C16  1  0.53730000  0.20980000  0.91070000  1.0 -0.1013353193
C  C17  1  0.25680000  0.87790000  0.86270000  1.0 0.0171758319
C  C18  1  0.28600000  0.83000000  0.60010000  1.0 0.02642116
C  C19  1  0.22060000  0.87480000  0.32610000  1.0 0.0171758319
C  C20  1  0.61530000  0.18510000  0.90250000  1.0 0.0171758319
C  C21  1  0.17710000  0.90000000  0.88070000  1.0 -0.1182597422
C  C22  1  0.23580000  0.85670000  0.65100000  1.0 -0.1182597422
C  C23  1  0.28450000  0.89810000  0.28710000  1.0 -0.09170664
C  C24  1  0.61900000  0.13920000  0.91940000  1.0 -0.1182597422
C  C25  1  0.17010000  0.94640000  0.87600000  1.0 -0.0810516864
C  C26  1  0.22890000  0.90270000  0.63920000  1.0 -0.1013353193
C  C27  1  0.26830000  0.94710000  0.27090000  1.0 -0.1093311997
C  C28  1  0.54550000  0.11530000  0.94430000  1.0 -0.1013353193
C  C29  1  0.26370000  0.82850000  0.87170000  1.0 0.3614799291
C  C30  1  0.29690000  0.77900000  0.61590000  1.0 0.3614799291
C  C31  1  0.23470000  0.82570000  0.34430000  1.0 0.3807186097
C  C32  1  0.69480000  0.20980000  0.87150000  1.0 0.3699920891
C  C33  1  0.34350000  0.76160000  0.86320000  1.0 0.3807186097
C  C34  1  0.37410000  0.71360000  0.60700000  1.0 0.3699920891
C  C35  1  0.19260000  0.75980000  0.40660000  1.0 0.3876140625
C  C36  1  0.82300000  0.20860000  0.80710000  1.0 0.3699920891
C  C37  1  0.42550000  0.73650000  0.84040000  1.0 0.0125272856
C  C38  1  0.45440000  0.68760000  0.58080000  1.0 0.0171758319
C  C39  1  0.12840000  0.73320000  0.45410000  1.0 0.0010946648
C  C40  1  0.89260000  0.18260000  0.76550000  1.0 0.0171758319
C  C41  1  0.48620000  0.75850000  0.79400000  1.0 -0.1093311997
C  C42  1  0.50140000  0.70070000  0.51610000  1.0 -0.1093311997
C  C43  1  0.06420000  0.75700000  0.49730000  1.0 -0.1013353193
C  C44  1  0.87800000  0.13790000  0.73940000  1.0 -0.1093311997
C  C45  1  0.56070000  0.73620000  0.76610000  1.0 -0.1013353193
C  C46  1  0.57810000  0.67550000  0.49350000  1.0 -0.09170664
C  C47  1  0.00530000  0.73460000  0.54510000  1.0 -0.1093311997
C  C48  1  0.94170000  0.11160000  0.70980000  1.0 -0.1013353193
C  C49  1  0.57750000  0.68940000  0.79620000  1.0 -0.0219255469
C  C50  1  0.60580000  0.63770000  0.54210000  1.0 -0.050516523
C  C51  1  0.00310000  0.68650000  0.54220000  1.0 -0.0032407949
C  C52  1  0.02640000  0.13260000  0.69630000  1.0 -0.0274053637
C  C53  1  0.51730000  0.66930000  0.84360000  1.0 -0.1093311997
C  C54  1  0.55550000  0.62520000  0.60900000  1.0 -0.09170664
C  C55  1  0.06610000  0.66160000  0.50370000  1.0 -0.1013353193
C  C56  1  0.04120000  0.17660000  0.72000000  1.0 -0.1182597422
C  C57  1  0.43820000  0.69170000  0.86650000  1.0 -0.1093311997
C  C58  1  0.48110000  0.64810000  0.62740000  1.0 -0.1093311997
C  C59  1  0.13200000  0.68680000  0.46030000  1.0 -0.1013353193
C  C60  1  0.97420000  0.20440000  0.75210000  1.0 -0.1013353193
C  C61  1  0.65920000  0.66460000  0.77030000  1.0 0.5797001705
C  C62  1  0.68740000  0.61290000  0.52610000  1.0 0.617571509
C  C63  1  0.93160000  0.66120000  0.58810000  1.0 0.5797001705
C  C64  1  0.09990000  0.10350000  0.66270000  1.0 0.636576286
C  C65  1  0.20880000  0.76060000  0.91800000  1.0 0.3699920891
C  C66  1  0.24920000  0.71530000  0.67680000  1.0 0.3699920891
C  C67  1  0.32420000  0.76240000  0.34280000  1.0 0.3699920891
C  C68  1  0.77340000  0.27530000  0.86110000  1.0 0.3807186097
C  C69  1  0.13520000  0.73710000  0.95850000  1.0 0.0171758319
C  C70  1  0.18060000  0.69050000  0.72430000  1.0 0.0171758319
C  C71  1  0.40610000  0.73970000  0.31920000  1.0 0.0010946648
C  C72  1  0.78610000  0.32520000  0.88150000  1.0 0.0171758319
C  C73  1  0.05930000  0.76110000  0.97830000  1.0 -0.1182597422
C  C74  1  0.19600000  0.64720000  0.75120000  1.0 -0.1093311997
C  C75  1  0.41360000  0.69210000  0.31510000  1.0 -0.1093311997
C  C76  1  0.71640000  0.34940000  0.91120000  1.0 -0.1093311997
C  C77  1  0.99000000  0.73780000  0.01360000  1.0 -0.1013353193
C  C78  1  0.13220000  0.62300000  0.79360000  1.0 -0.1013353193
C  C79  1  0.49000000  0.67090000  0.29380000  1.0 -0.1013353193
C  C80  1  0.72200000  0.39590000  0.92450000  1.0 -0.1093311997
C  C81  1  0.99760000  0.69230000  0.03150000  1.0 -0.0219255469
C  C82  1  0.04880000  0.64450000  0.80300000  1.0 -0.0274053637
C  C83  1  0.56490000  0.69680000  0.27440000  1.0 -0.0421606466
C  C84  1  0.80080000  0.41840000  0.91550000  1.0 -0.0219255469
C  C85  1  0.07590000  0.66840000  0.01530000  1.0 -0.1093311997
C  C86  1  0.03320000  0.68770000  0.77440000  1.0 -0.1013353193
C  C87  1  0.55810000  0.74580000  0.27640000  1.0 -0.1093311997
C  C88  1  0.87340000  0.39220000  0.88820000  1.0 -0.1013353193
C  C89  1  0.14460000  0.69030000  0.97780000  1.0 -0.1093311997
C  C90  1  0.10080000  0.71270000  0.73740000  1.0 -0.1093311997
C  C91  1  0.47960000  0.76590000  0.30020000  1.0 -0.1182597422
C  C92  1  0.86380000  0.34680000  0.86950000  1.0 -0.1093311997
C  C93  1  0.92440000  0.66790000  0.07370000  1.0 0.5797001705
C  C94  1  0.97610000  0.61910000  0.84380000  1.0 0.6017796607
C  C95  1  0.64580000  0.67390000  0.24760000  1.0 0.5653340728
C  C96  1  0.80500000  0.47000000  0.93290000  1.0 0.6017796607
C  C97  1  0.76380000  0.52350000  0.14960000  1.0 0.5797001705
C  C98  1  0.74750000  0.47710000  0.43920000  1.0 0.5878277928
C  C99  1  0.81420000  0.51950000  0.70940000  1.0 0.6305777044
C  C100  1  0.61530000  0.61470000  0.02100000  1.0 0.617571509
C  C101  1  0.75670000  0.47600000  0.14670000  1.0 -0.1182597422
C  C102  1  0.73650000  0.42550000  0.42770000  1.0 -0.0219255469
C  C103  1  0.80160000  0.46760000  0.70100000  1.0 -0.0219255469
C  C104  1  0.53410000  0.63960000  0.04930000  1.0 -0.0274053637
C  C105  1  0.67810000  0.45190000  0.16400000  1.0 -0.0715483292
C  C106  1  0.68720000  0.39880000  0.47850000  1.0 -0.1093311997
C  C107  1  0.86830000  0.44260000  0.66110000  1.0 -0.1013353193
C  C108  1  0.54050000  0.68500000  0.06660000  1.0 -0.1093311997
C  C109  1  0.67310000  0.40550000  0.16180000  1.0 -0.1182597422
C  C110  1  0.67340000  0.35190000  0.46710000  1.0 -0.1182597422
C  C111  1  0.85500000  0.39670000  0.64870000  1.0 -0.1093311997
C  C112  1  0.46270000  0.70980000  0.08930000  1.0 -0.1013353193
C  C113  1  0.74320000  0.37790000  0.13730000  1.0 0.0171758319
C  C114  1  0.71400000  0.33000000  0.39990000  1.0 0.02642116
C  C115  1  0.77940000  0.37480000  0.67390000  1.0 0.0171758319
C  C116  1  0.38470000  0.68510000  0.09750000  1.0 0.0171758319
C  C117  1  0.82290000  0.40000000  0.11930000  1.0 -0.1182597422
C  C118  1  0.76420000  0.35670000  0.34900000  1.0 -0.1182597422
C  C119  1  0.71550000  0.39810000  0.71290000  1.0 -0.09170664
C  C120  1  0.38100000  0.63920000  0.08060000  1.0 -0.1182597422
C  C121  1  0.82990000  0.44640000  0.12400000  1.0 -0.0810516864
C  C122  1  0.77110000  0.40270000  0.36080000  1.0 -0.1013353193
C  C123  1  0.73170000  0.44710000  0.72910000  1.0 -0.1093311997
C  C124  1  0.45450000  0.61530000  0.05570000  1.0 -0.1013353193
C  C125  1  0.73630000  0.32850000  0.12830000  1.0 0.3614799291
C  C126  1  0.70310000  0.27900000  0.38410000  1.0 0.3614799291
C  C127  1  0.76530000  0.32570000  0.65570000  1.0 0.3699920891
C  C128  1  0.30520000  0.70980000  0.12850000  1.0 0.3699920891
C  C129  1  0.65650000  0.26160000  0.13680000  1.0 0.3807186097
C  C130  1  0.62590000  0.21360000  0.39300000  1.0 0.3699920891
C  C131  1  0.80740000  0.25980000  0.59340000  1.0 0.3876140625
C  C132  1  0.17700000  0.70860000  0.19290000  1.0 0.3699920891
C  C133  1  0.57450000  0.23650000  0.15960000  1.0 0.0125272856
C  C134  1  0.54560000  0.18760000  0.41920000  1.0 0.0171758319
C  C135  1  0.87160000  0.23320000  0.54590000  1.0 0.0010946648
C  C136  1  0.10740000  0.68260000  0.23450000  1.0 0.0171758319
C  C137  1  0.51380000  0.25850000  0.20600000  1.0 -0.1013353193
C  C138  1  0.49860000  0.20070000  0.48390000  1.0 -0.1093311997
C  C139  1  0.93580000  0.25700000  0.50270000  1.0 -0.1013353193
C  C140  1  0.12200000  0.63790000  0.26060000  1.0 -0.1093311997
C  C141  1  0.43930000  0.23620000  0.23390000  1.0 -0.1013353193
C  C142  1  0.42190000  0.17550000  0.50650000  1.0 -0.09170664
C  C143  1  0.99470000  0.23460000  0.45490000  1.0 -0.1093311997
C  C144  1  0.05830000  0.61160000  0.29020000  1.0 -0.1013353193
C  C145  1  0.42250000  0.18940000  0.20380000  1.0 -0.0219255469
C  C146  1  0.39420000  0.13770000  0.45790000  1.0 -0.050516523
C  C147  1  0.99690000  0.18650000  0.45780000  1.0 -0.0032407949
C  C148  1  0.97360000  0.63260000  0.30370000  1.0 -0.0274053637
C  C149  1  0.48270000  0.16930000  0.15640000  1.0 -0.1093311997
C  C150  1  0.44450000  0.12520000  0.39100000  1.0 -0.09170664
C  C151  1  0.93390000  0.16160000  0.49630000  1.0 -0.1013353193
C  C152  1  0.95880000  0.67660000  0.28000000  1.0 -0.1093311997
C  C153  1  0.56180000  0.19170000  0.13350000  1.0 -0.1093311997
C  C154  1  0.51890000  0.14810000  0.37260000  1.0 -0.1093311997
C  C155  1  0.86800000  0.18680000  0.53970000  1.0 -0.1013353193
C  C156  1  0.02580000  0.70440000  0.24790000  1.0 -0.1013353193
C  C157  1  0.34080000  0.16460000  0.22970000  1.0 0.5797001705
C  C158  1  0.31260000  0.11290000  0.47390000  1.0 0.617571509
C  C159  1  0.06840000  0.16120000  0.41190000  1.0 0.5797001705
C  C160  1  0.90010000  0.60350000  0.33730000  1.0 0.636576286
C  C161  1  0.79120000  0.26060000  0.08200000  1.0 0.3699920891
C  C162  1  0.75080000  0.21530000  0.32320000  1.0 0.3699920891
C  C163  1  0.67580000  0.26240000  0.65720000  1.0 0.3699920891
C  C164  1  0.22660000  0.77530000  0.13890000  1.0 0.3807186097
C  C165  1  0.86480000  0.23710000  0.04150000  1.0 0.0171758319
C  C166  1  0.81940000  0.19050000  0.27570000  1.0 0.0171758319
C  C167  1  0.59390000  0.23970000  0.68080000  1.0 0.0010946648
C  C168  1  0.21390000  0.82520000  0.11850000  1.0 0.0171758319
C  C169  1  0.94070000  0.26110000  0.02170000  1.0 -0.1182597422
C  C170  1  0.80400000  0.14720000  0.24880000  1.0 -0.1093311997
C  C171  1  0.58640000  0.19210000  0.68490000  1.0 -0.1093311997
C  C172  1  0.28360000  0.84940000  0.08880000  1.0 -0.1093311997
C  C173  1  0.01000000  0.23780000  0.98640000  1.0 -0.1013353193
C  C174  1  0.86780000  0.12300000  0.20640000  1.0 -0.1013353193
C  C175  1  0.51000000  0.17090000  0.70620000  1.0 -0.1013353193
C  C176  1  0.27800000  0.89590000  0.07550000  1.0 -0.1093311997
C  C177  1  0.00240000  0.19230000  0.96850000  1.0 -0.0219255469
C  C178  1  0.95120000  0.14450000  0.19700000  1.0 -0.0274053637
C  C179  1  0.43510000  0.19680000  0.72560000  1.0 -0.0421606466
C  C180  1  0.19920000  0.91840000  0.08450000  1.0 -0.0219255469
C  C181  1  0.92410000  0.16840000  0.98470000  1.0 -0.1013353193
C  C182  1  0.96680000  0.18770000  0.22560000  1.0 -0.1013353193
C  C183  1  0.44190000  0.24580000  0.72360000  1.0 -0.1093311997
C  C184  1  0.12660000  0.89220000  0.11180000  1.0 -0.1013353193
C  C185  1  0.85540000  0.19030000  0.02220000  1.0 -0.1182597422
C  C186  1  0.89920000  0.21270000  0.26260000  1.0 -0.1093311997
C  C187  1  0.52040000  0.26590000  0.69980000  1.0 -0.1182597422
C  C188  1  0.13620000  0.84680000  0.13050000  1.0 -0.1093311997
C  C189  1  0.07560000  0.16790000  0.92630000  1.0 0.5797001705
C  C190  1  0.02390000  0.11910000  0.15620000  1.0 0.6017796607
C  C191  1  0.35420000  0.17390000  0.75240000  1.0 0.5653340728
C  C192  1  0.19500000  0.97000000  0.06710000  1.0 0.6017796607
N  N1  1  0.19590000  0.80640000  0.90540000  1.0 -0.4184807883
N  N2  1  0.23690000  0.76130000  0.66120000  1.0 -0.4025721887
N  N3  1  0.17420000  0.80340000  0.39150000  1.0 -0.41135365
N  N4  1  0.75410000  0.18510000  0.83430000  1.0 -0.41135365
N  N5  1  0.28250000  0.73710000  0.89930000  1.0 -0.4184807883
N  N6  1  0.31810000  0.69070000  0.65120000  1.0 -0.4025721887
N  N7  1  0.26460000  0.73690000  0.38190000  1.0 -0.41135365
N  N8  1  0.83880000  0.25450000  0.82100000  1.0 -0.4270808488
N  N9  1  0.34120000  0.80690000  0.84940000  1.0 -0.4184807883
N  N10  1  0.36620000  0.75770000  0.58480000  1.0 -0.4025721887
N  N11  1  0.31330000  0.80660000  0.32440000  1.0 -0.41135365
N  N12  1  0.70030000  0.25520000  0.88830000  1.0 -0.4184807883
N  N13  1  0.80410000  0.30640000  0.09460000  1.0 -0.41135365
N  N14  1  0.76310000  0.26130000  0.33880000  1.0 -0.4025721887
N  N15  1  0.82580000  0.30340000  0.60850000  1.0 -0.41135365
N  N16  1  0.24590000  0.68510000  0.16570000  1.0 -0.41135365
N  N17  1  0.71750000  0.23710000  0.10070000  1.0 -0.4184807883
N  N18  1  0.68190000  0.19070000  0.34880000  1.0 -0.4025721887
N  N19  1  0.73540000  0.23690000  0.61810000  1.0 -0.41135365
N  N20  1  0.16120000  0.75450000  0.17900000  1.0 -0.4270808488
N  N21  1  0.65880000  0.30690000  0.15060000  1.0 -0.4184807883
N  N22  1  0.63380000  0.25770000  0.41520000  1.0 -0.4025721887
N  N23  1  0.68670000  0.30660000  0.67560000  1.0 -0.41135365
N  N24  1  0.29970000  0.75520000  0.11170000  1.0 -0.4184807883
O  O1  1  0.29210000  0.04783000  0.81180000  1.0 -0.6590833157
O  O2  1  0.24230000  0.99130000  0.48900000  1.0 -0.6084100246
O  O3  1  0.23360000  0.04197000  0.24190000  1.0 -0.6803944399
O  O4  1  0.30830000  0.13001000  0.95810000  1.0 -0.6084100246
O  O5  1  0.20230000  0.09380000  0.06480000  1.0 -0.7909493237
O  O6  1  0.17400000  0.04487000  0.88700000  1.0 -0.6803944399
O  O7  1  0.24480000  0.00110000  0.62450000  1.0 -0.6690567075
O  O8  1  0.13150000  0.04046000  0.33370000  1.0 -0.628221938
O  O9  1  0.39880000  0.08058000  0.02520000  1.0 -0.628221938
O  O10  1  0.71140000  0.68420000  0.72450000  1.0 -0.5573946624
O  O11  1  0.73310000  0.59610000  0.58250000  1.0 -0.6084100246
O  O12  1  0.88310000  0.68310000  0.63240000  1.0 -0.5536125391
O  O13  1  0.17300000  0.10434000  0.70420000  1.0 -0.6690567075
O  O14  1  0.67070000  0.62380000  0.79510000  1.0 -0.6803944399
O  O15  1  0.70440000  0.60528000  0.44810000  1.0 -0.7018932789
O  O16  1  0.92940000  0.61724000  0.58260000  1.0 -0.6690567075
O  O17  1  0.08510000  0.08100000  0.59820000  1.0 -0.6222732603
O  O18  1  0.92590000  0.62389000  0.08150000  1.0 -0.6914409488
O  O19  1  0.99610000  0.58950000  0.89560000  1.0 -0.591644892
O  O20  1  0.70960000  0.69738000  0.22080000  1.0 -0.5781102865
O  O21  1  0.88380000  0.48670000  0.94090000  1.0 -0.6540274709
O  O22  1  0.86270000  0.69110000  0.10130000  1.0 -0.5573946624
O  O23  1  0.89650000  0.63083000  0.82310000  1.0 -0.6222732603
O  O24  1  0.64640000  0.63045000  0.24740000  1.0 -0.6690567075
O  O25  1  0.73400000  0.49060000  0.92920000  1.0 -0.6084100246
O  O26  1  0.70790000  0.54783000  0.18820000  1.0 -0.6590833157
O  O27  1  0.75770000  0.49130000  0.51100000  1.0 -0.6084100246
O  O28  1  0.76640000  0.54197000  0.75810000  1.0 -0.6803944399
O  O29  1  0.69170000  0.63001000  0.04190000  1.0 -0.6084100246
O  O30  1  0.79770000  0.59380000  0.93520000  1.0 -0.7909493237
O  O31  1  0.82600000  0.54487000  0.11300000  1.0 -0.6803944399
O  O32  1  0.75520000  0.50110000  0.37550000  1.0 -0.6690567075
O  O33  1  0.86850000  0.54046000  0.66630000  1.0 -0.628221938
O  O34  1  0.60120000  0.58058000  0.97480000  1.0 -0.628221938
O  O35  1  0.28860000  0.18420000  0.27550000  1.0 -0.5573946624
O  O36  1  0.26690000  0.09610000  0.41750000  1.0 -0.6084100246
O  O37  1  0.11690000  0.18310000  0.36760000  1.0 -0.5536125391
O  O38  1  0.82700000  0.60434000  0.29580000  1.0 -0.6690567075
O  O39  1  0.32930000  0.12380000  0.20490000  1.0 -0.6803944399
O  O40  1  0.29560000  0.10528000  0.55190000  1.0 -0.7018932789
O  O41  1  0.07060000  0.11724000  0.41740000  1.0 -0.6690567075
O  O42  1  0.91490000  0.58100000  0.40180000  1.0 -0.6222732603
O  O43  1  0.07410000  0.12389000  0.91850000  1.0 -0.6914409488
O  O44  1  0.00390000  0.08950000  0.10440000  1.0 -0.591644892
O  O45  1  0.29040000  0.19738000  0.77920000  1.0 -0.5781102865
O  O46  1  0.11620000  0.98670000  0.05910000  1.0 -0.6590833157
O  O47  1  0.13730000  0.19110000  0.89870000  1.0 -0.5573946624
O  O48  1  0.10350000  0.13083000  0.17690000  1.0 -0.6222732603
O  O49  1  0.35360000  0.13045000  0.75260000  1.0 -0.6690567075
O  O50  1  0.26600000  0.99060000  0.07080000  1.0 -0.6084100246
