# DDEC6 charges by PACMAN v1.1 (https://github.com/mtap-research/PACMAN-charge/)
data_PEXWAT_ASR_pacman
_symmetry_space_group_name_H-M   'P 1'
_cell_length_a   11.48810000
_cell_length_b   11.48810000
_cell_length_c   8.18770000
_cell_angle_alpha   71.10490000
_cell_angle_beta   108.89500000
_cell_angle_gamma   118.27400000
_symmetry_Int_Tables_number   1
_chemical_formula_structural   CdH8C14(NO2)2
_chemical_formula_sum   'Cd2 H16 C28 N4 O8'
_cell_volume   881.34223699
_cell_formula_units_Z   2
loop_
 _symmetry_equiv_pos_site_id
 _symmetry_equiv_pos_as_xyz
  1  'x, y, z'
loop_
 _atom_site_type_symbol
 _atom_site_label
 _atom_site_symmetry_multiplicity
 _atom_site_fract_x
 _atom_site_fract_y
 _atom_site_fract_z
 _atom_site_occupancy
 _atom_site_charge
Cd  Cd1  1  0.50000000  0.00000000  0.00000000  1.0 0.8463287898
Cd  Cd2  1  0.00000000  0.50000000  0.50000000  1.0 0.8463287898
H  H1  1  0.81290000  0.18470000  0.11700000  1.0 0.111063438
H  H2  1  0.00820000  0.19280000  0.31360000  1.0 0.1297443756
H  H3  1  0.81670000  0.80370000  0.50700000  1.0 0.1356732794
H  H4  1  0.62690000  0.80790000  0.30600000  1.0 0.111063438
H  H5  1  0.18710000  0.81530000  0.88300000  1.0 0.111063438
H  H6  1  0.99180000  0.80720000  0.68640000  1.0 0.1297443756
H  H7  1  0.18330000  0.19630000  0.49300000  1.0 0.1356732794
H  H8  1  0.37310000  0.19210000  0.69400000  1.0 0.111063438
H  H9  1  0.18470000  0.81290000  0.38300000  1.0 0.111063438
H  H10  1  0.19280000  0.00820000  0.18640000  1.0 0.1297443756
H  H11  1  0.80370000  0.81670000  0.99300000  1.0 0.1356732794
H  H12  1  0.80790000  0.62690000  0.19400000  1.0 0.111063438
H  H13  1  0.81530000  0.18710000  0.61700000  1.0 0.111063438
H  H14  1  0.80720000  0.99180000  0.81360000  1.0 0.1297443756
H  H15  1  0.19630000  0.18330000  0.00700000  1.0 0.1356732794
H  H16  1  0.19210000  0.37310000  0.80600000  1.0 0.111063438
C  C1  1  0.53960000  0.03440000  0.61630000  1.0 0.1297443756
C  C2  1  0.54500000  0.09780000  0.43130000  1.0 0.1297443756
C  C3  1  0.81290000  0.10610000  0.19770000  1.0 0.0941661023
C  C4  1  0.93160000  0.11180000  0.31590000  1.0 -0.1884057722
C  C5  1  0.93680000  0.99980000  0.43530000  1.0 0.1017617606
C  C6  1  0.81920000  0.88400000  0.42900000  1.0 -0.2000954985
C  C7  1  0.70520000  0.88740000  0.30720000  1.0 0.070927652
C  C8  1  0.46040000  0.96560000  0.38370000  1.0 0.1297443756
C  C9  1  0.45500000  0.90220000  0.56870000  1.0 0.1297443756
C  C10  1  0.18710000  0.89390000  0.80230000  1.0 0.0941661023
C  C11  1  0.06840000  0.88820000  0.68410000  1.0 -0.1884057722
C  C12  1  0.06320000  0.00020000  0.56470000  1.0 0.1017617606
C  C13  1  0.18080000  0.11600000  0.57100000  1.0 -0.2000954985
C  C14  1  0.29480000  0.11260000  0.69280000  1.0 0.070927652
C  C15  1  0.03440000  0.53960000  0.88370000  1.0 0.1297443756
C  C16  1  0.09780000  0.54500000  0.06870000  1.0 0.1297443756
C  C17  1  0.10610000  0.81290000  0.30230000  1.0 0.0941661023
C  C18  1  0.11180000  0.93160000  0.18410000  1.0 -0.1884057722
C  C19  1  0.99980000  0.93680000  0.06470000  1.0 0.1017617606
C  C20  1  0.88400000  0.81920000  0.07100000  1.0 -0.2000954985
C  C21  1  0.88740000  0.70520000  0.19280000  1.0 0.070927652
C  C22  1  0.96560000  0.46040000  0.11630000  1.0 0.1297443756
C  C23  1  0.90220000  0.45500000  0.93130000  1.0 0.1297443756
C  C24  1  0.89390000  0.18710000  0.69770000  1.0 0.0941661023
C  C25  1  0.88820000  0.06840000  0.81590000  1.0 -0.1884057722
C  C26  1  0.00020000  0.06320000  0.93530000  1.0 0.1017617606
C  C27  1  0.11600000  0.18080000  0.92900000  1.0 -0.2000954985
C  C28  1  0.11260000  0.29480000  0.80720000  1.0 0.070927652
N  N1  1  0.70019000  0.99641000  0.19240000  1.0 -0.2233885839
N  N2  1  0.29981000  0.00359000  0.80760000  1.0 -0.2233885839
N  N3  1  0.99641000  0.70019000  0.30760000  1.0 -0.2233885839
N  N4  1  0.00359000  0.29981000  0.69240000  1.0 -0.2233885839
O  O1  1  0.58975000  0.07845000  0.75570000  1.0 -0.4297980718
O  O2  1  0.59890000  0.21510000  0.34870000  1.0 -0.3923071674
O  O3  1  0.41025000  0.92155000  0.24430000  1.0 -0.4297980718
O  O4  1  0.40110000  0.78490000  0.65130000  1.0 -0.3963846317
O  O5  1  0.07845000  0.58975000  0.74430000  1.0 -0.4297980718
O  O6  1  0.21510000  0.59890000  0.15130000  1.0 -0.3963846317
O  O7  1  0.92155000  0.41025000  0.25570000  1.0 -0.4297980718
O  O8  1  0.78490000  0.40110000  0.84870000  1.0 -0.3963846317
