# DDEC6 charges by PACMAN v1.1 (https://github.com/mtap-research/PACMAN-charge/)
data_PIBFEO_ASR_pacman
_symmetry_space_group_name_H-M   'P 1'
_cell_length_a   12.72460000
_cell_length_b   12.72460000
_cell_length_c   22.99400000
_cell_angle_alpha   81.88860000
_cell_angle_beta   98.11140000
_cell_angle_gamma   90.01180000
_symmetry_Int_Tables_number   1
_chemical_formula_structural   CoBH24W14C24(N3O10)4
_chemical_formula_sum   'Co2 B2 H48 W28 C48 N24 O80'
_cell_volume   3648.22456701
_cell_formula_units_Z   2
loop_
 _symmetry_equiv_pos_site_id
 _symmetry_equiv_pos_as_xyz
  1  'x, y, z'
loop_
 _atom_site_type_symbol
 _atom_site_label
 _atom_site_symmetry_multiplicity
 _atom_site_fract_x
 _atom_site_fract_y
 _atom_site_fract_z
 _atom_site_occupancy
 _atom_site_charge
Co  Co1  1  0.00000000  0.50000000  0.00000000  1.0 0.7164841978
Co  Co2  1  0.50000000  0.00000000  0.50000000  1.0 0.7164841978
B  B1  1  0.06000000  0.06000000  0.25000000  1.0 0.6731621412
B  B2  1  0.94000000  0.94000000  0.75000000  1.0 0.6731621412
H  H1  1  0.85935000  0.72399000  0.98649000  1.0 0.0887433043
H  H2  1  0.88469000  0.48429000  0.11792000  1.0 0.0887433043
H  H3  1  0.13550000  0.72372000  0.99306000  1.0 0.099206409
H  H4  1  0.18129000  0.47451000  0.11844000  1.0 0.0843373624
H  H5  1  0.58136000  0.82716000  0.98124000  1.0 0.099206409
H  H6  1  0.40096000  0.82292000  0.98435000  1.0 0.099206409
H  H7  1  0.45592000  0.76866000  0.16165000  1.0 0.099206409
H  H8  1  0.63644000  0.77270000  0.15851000  1.0 0.099206409
H  H9  1  0.77905000  0.83377000  0.10093000  1.0 0.099206409
H  H10  1  0.75582000  0.85350000  0.03167000  1.0 0.1055403868
H  H11  1  0.26251000  0.85235000  0.04276000  1.0 0.1055403868
H  H12  1  0.28253000  0.82271000  0.11178000  1.0 0.099206409
H  H13  1  0.72399000  0.85935000  0.51351000  1.0 0.0887433043
H  H14  1  0.48429000  0.88469000  0.38208000  1.0 0.0887433043
H  H15  1  0.72372000  0.13550000  0.50694000  1.0 0.099206409
H  H16  1  0.47451000  0.18129000  0.38156000  1.0 0.0843373624
H  H17  1  0.82716000  0.58136000  0.51876000  1.0 0.099206409
H  H18  1  0.82292000  0.40096000  0.51565000  1.0 0.099206409
H  H19  1  0.76866000  0.45592000  0.33835000  1.0 0.099206409
H  H20  1  0.77270000  0.63644000  0.34149000  1.0 0.099206409
H  H21  1  0.83377000  0.77905000  0.39907000  1.0 0.099206409
H  H22  1  0.85350000  0.75582000  0.46833000  1.0 0.1055403868
H  H23  1  0.85235000  0.26251000  0.45724000  1.0 0.1055403868
H  H24  1  0.82271000  0.28253000  0.38822000  1.0 0.099206409
H  H25  1  0.14065000  0.27601000  0.01351000  1.0 0.0887433043
H  H26  1  0.11531000  0.51571000  0.88208000  1.0 0.0887433043
H  H27  1  0.86450000  0.27628000  0.00694000  1.0 0.099206409
H  H28  1  0.81871000  0.52549000  0.88156000  1.0 0.0843373624
H  H29  1  0.41864000  0.17284000  0.01876000  1.0 0.099206409
H  H30  1  0.59904000  0.17708000  0.01565000  1.0 0.099206409
H  H31  1  0.54408000  0.23134000  0.83835000  1.0 0.099206409
H  H32  1  0.36356000  0.22730000  0.84149000  1.0 0.099206409
H  H33  1  0.22095000  0.16623000  0.89907000  1.0 0.099206409
H  H34  1  0.24418000  0.14650000  0.96833000  1.0 0.1055403868
H  H35  1  0.73749000  0.14765000  0.95724000  1.0 0.1055403868
H  H36  1  0.71747000  0.17729000  0.88822000  1.0 0.099206409
H  H37  1  0.27601000  0.14065000  0.48649000  1.0 0.0887433043
H  H38  1  0.51571000  0.11531000  0.61792000  1.0 0.0887433043
H  H39  1  0.27628000  0.86450000  0.49306000  1.0 0.099206409
H  H40  1  0.52549000  0.81871000  0.61844000  1.0 0.0843373624
H  H41  1  0.17284000  0.41864000  0.48124000  1.0 0.099206409
H  H42  1  0.17708000  0.59904000  0.48435000  1.0 0.099206409
H  H43  1  0.23134000  0.54408000  0.66165000  1.0 0.099206409
H  H44  1  0.22730000  0.36356000  0.65851000  1.0 0.099206409
H  H45  1  0.16623000  0.22095000  0.60093000  1.0 0.099206409
H  H46  1  0.14650000  0.24418000  0.53167000  1.0 0.1055403868
H  H47  1  0.14765000  0.73749000  0.54276000  1.0 0.1055403868
H  H48  1  0.17729000  0.71747000  0.61178000  1.0 0.099206409
W  W1  1  0.84271000  0.08199000  0.13338000  1.0 2.1271834759
W  W2  1  0.04032000  0.88652000  0.14534000  1.0 1.9986988692
W  W3  1  0.23392000  0.07728000  0.14611000  1.0 2.0268491892
W  W4  1  0.86232000  0.25518000  0.23792000  1.0 2.1851606754
W  W5  1  0.06244000  0.27022000  0.13566000  1.0 0.8383657722
W  W6  1  0.01011000  0.27259000  0.13431000  1.0 0.985664287
W  W7  1  0.08199000  0.84271000  0.36662000  1.0 2.1271834759
W  W8  1  0.88652000  0.04032000  0.35466000  1.0 2.0181051878
W  W9  1  0.07728000  0.23392000  0.35389000  1.0 2.0181051878
W  W10  1  0.25518000  0.86232000  0.26208000  1.0 2.1790753988
W  W11  1  0.27022000  0.06244000  0.36434000  1.0 0.8383657722
W  W12  1  0.27259000  0.01011000  0.36569000  1.0 0.9845042614
W  W13  1  0.15729000  0.91801000  0.86662000  1.0 2.1111624626
W  W14  1  0.95968000  0.11348000  0.85466000  1.0 2.0181051878
W  W15  1  0.76608000  0.92272000  0.85389000  1.0 2.0181051878
W  W16  1  0.13768000  0.74482000  0.76208000  1.0 2.1694831042
W  W17  1  0.93756000  0.72978000  0.86434000  1.0 0.8254166929
W  W18  1  0.98989000  0.72741000  0.86569000  1.0 0.9718428044
W  W19  1  0.91801000  0.15729000  0.63338000  1.0 2.1182833103
W  W20  1  0.11348000  0.95968000  0.64534000  1.0 1.9986988692
W  W21  1  0.92272000  0.76608000  0.64611000  1.0 2.0268491892
W  W22  1  0.74482000  0.13768000  0.73792000  1.0 2.1851606754
W  W23  1  0.72978000  0.93756000  0.63566000  1.0 0.8254166929
W  W24  1  0.72741000  0.98989000  0.63431000  1.0 0.9718428044
W  W25  1  0.86837000  0.86837000  0.25000000  1.0 2.1790753988
W  W26  1  0.25131000  0.25131000  0.25000000  1.0 1.5947344689
W  W27  1  0.13163000  0.13163000  0.75000000  1.0 2.1694831042
W  W28  1  0.74869000  0.74869000  0.75000000  1.0 1.6100913672
C  C1  1  0.85200000  0.68200000  0.02220000  1.0 0.0274926772
C  C2  1  0.86600000  0.54940000  0.09490000  1.0 0.1160479182
C  C3  1  0.16210000  0.67910000  0.02760000  1.0 0.0274926772
C  C4  1  0.18730000  0.54130000  0.09690000  1.0 0.1160479182
C  C5  1  0.62650000  0.80030000  0.06950000  1.0 0.0642600966
C  C6  1  0.55610000  0.81530000  0.01760000  1.0 -0.1795999656
C  C7  1  0.44840000  0.81280000  0.01940000  1.0 -0.1795999656
C  C8  1  0.41090000  0.79550000  0.07330000  1.0 0.0671124769
C  C9  1  0.48120000  0.78040000  0.12530000  1.0 -0.1601270387
C  C10  1  0.58900000  0.78280000  0.12340000  1.0 -0.1665887745
C  C11  1  0.74490000  0.80450000  0.06650000  1.0 -0.2161946954
C  C12  1  0.29430000  0.79910000  0.07480000  1.0 -0.2311003531
C  C13  1  0.68200000  0.85200000  0.47780000  1.0 0.0274926772
C  C14  1  0.54940000  0.86600000  0.40510000  1.0 0.1160479182
C  C15  1  0.67910000  0.16210000  0.47240000  1.0 0.0274926772
C  C16  1  0.54130000  0.18730000  0.40310000  1.0 0.1160479182
C  C17  1  0.80030000  0.62650000  0.43050000  1.0 0.0642600966
C  C18  1  0.81530000  0.55610000  0.48240000  1.0 -0.1795999656
C  C19  1  0.81280000  0.44840000  0.48060000  1.0 -0.1795999656
C  C20  1  0.79550000  0.41090000  0.42670000  1.0 0.0671124769
C  C21  1  0.78040000  0.48120000  0.37470000  1.0 -0.1601270387
C  C22  1  0.78280000  0.58900000  0.37660000  1.0 -0.1665887745
C  C23  1  0.80450000  0.74490000  0.43350000  1.0 -0.2161946954
C  C24  1  0.79910000  0.29430000  0.42520000  1.0 -0.2311003531
C  C25  1  0.14800000  0.31800000  0.97780000  1.0 0.0274926772
C  C26  1  0.13400000  0.45060000  0.90510000  1.0 0.1160479182
C  C27  1  0.83790000  0.32090000  0.97240000  1.0 0.0274926772
C  C28  1  0.81270000  0.45870000  0.90310000  1.0 0.1160479182
C  C29  1  0.37350000  0.19970000  0.93050000  1.0 0.0642600966
C  C30  1  0.44390000  0.18470000  0.98240000  1.0 -0.1795999656
C  C31  1  0.55160000  0.18720000  0.98060000  1.0 -0.1795999656
C  C32  1  0.58910000  0.20450000  0.92670000  1.0 0.0671124769
C  C33  1  0.51880000  0.21960000  0.87470000  1.0 -0.1601270387
C  C34  1  0.41100000  0.21720000  0.87660000  1.0 -0.1665887745
C  C35  1  0.25510000  0.19550000  0.93350000  1.0 -0.2161946954
C  C36  1  0.70570000  0.20090000  0.92520000  1.0 -0.2311003531
C  C37  1  0.31800000  0.14800000  0.52220000  1.0 0.0274926772
C  C38  1  0.45060000  0.13400000  0.59490000  1.0 0.1160479182
C  C39  1  0.32090000  0.83790000  0.52760000  1.0 0.0274926772
C  C40  1  0.45870000  0.81270000  0.59690000  1.0 0.1160479182
C  C41  1  0.19970000  0.37350000  0.56950000  1.0 0.0642600966
C  C42  1  0.18470000  0.44390000  0.51760000  1.0 -0.1795999656
C  C43  1  0.18720000  0.55160000  0.51940000  1.0 -0.1795999656
C  C44  1  0.20450000  0.58910000  0.57330000  1.0 0.0671124769
C  C45  1  0.21960000  0.51880000  0.62530000  1.0 -0.1601270387
C  C46  1  0.21720000  0.41100000  0.62340000  1.0 -0.1665887745
C  C47  1  0.19550000  0.25510000  0.56650000  1.0 -0.2161946954
C  C48  1  0.20090000  0.70570000  0.57480000  1.0 -0.2311003531
N  N1  1  0.89480000  0.58380000  0.04110000  1.0 -0.3516104656
N  N2  1  0.79660000  0.70840000  0.06420000  1.0 0.1516385278
N  N3  1  0.80530000  0.62650000  0.10920000  1.0 -0.2748030933
N  N4  1  0.12970000  0.57950000  0.04420000  1.0 -0.3418496263
N  N5  1  0.23990000  0.70230000  0.07000000  1.0 0.1516385278
N  N6  1  0.25550000  0.61730000  0.11290000  1.0 -0.2527516658
N  N7  1  0.58380000  0.89480000  0.45890000  1.0 -0.3516104656
N  N8  1  0.70840000  0.79660000  0.43580000  1.0 0.1516385278
N  N9  1  0.62650000  0.80530000  0.39080000  1.0 -0.2748030933
N  N10  1  0.57950000  0.12970000  0.45580000  1.0 -0.3418496263
N  N11  1  0.70230000  0.23990000  0.43000000  1.0 0.1516385278
N  N12  1  0.61730000  0.25550000  0.38710000  1.0 -0.2527516658
N  N13  1  0.10520000  0.41620000  0.95890000  1.0 -0.3516104656
N  N14  1  0.20340000  0.29160000  0.93580000  1.0 0.1516385278
N  N15  1  0.19470000  0.37350000  0.89080000  1.0 -0.2748030933
N  N16  1  0.87030000  0.42050000  0.95580000  1.0 -0.3418496263
N  N17  1  0.76010000  0.29770000  0.93000000  1.0 0.1516385278
N  N18  1  0.74450000  0.38270000  0.88710000  1.0 -0.2527516658
N  N19  1  0.41620000  0.10520000  0.54110000  1.0 -0.3516104656
N  N20  1  0.29160000  0.20340000  0.56420000  1.0 0.1516385278
N  N21  1  0.37350000  0.19470000  0.60920000  1.0 -0.2748030933
N  N22  1  0.42050000  0.87030000  0.54420000  1.0 -0.3418496263
N  N23  1  0.29770000  0.76010000  0.57000000  1.0 0.1516385278
N  N24  1  0.38270000  0.74450000  0.61290000  1.0 -0.2527516658
O  O1  1  0.98380000  0.00140000  0.21060000  1.0 -0.3837555262
O  O2  1  0.13020000  0.12720000  0.20960000  1.0 -0.4601488249
O  O3  1  0.00530000  0.12490000  0.28370000  1.0 -0.3516104656
O  O4  1  0.13580000  0.97580000  0.29170000  1.0 -0.4382498773
O  O5  1  0.02210000  0.37690000  0.07720000  1.0 -0.6591899159
O  O6  1  0.93880000  0.32220000  0.17940000  1.0 -0.7057699027
O  O7  1  0.29400000  0.17100000  0.19760000  1.0 -0.7786076875
O  O8  1  0.79800000  0.17580000  0.18120000  1.0 -0.8922999861
O  O9  1  0.82102000  0.15438000  0.29700000  1.0 -0.9207122984
O  O10  1  0.92660000  0.98560000  0.10780000  1.0 -0.8922999861
O  O11  1  0.79690000  0.97090000  0.18600000  1.0 -0.9361528965
O  O12  1  0.96500000  0.30040000  0.29610000  1.0 -0.8976905259
O  O13  1  0.13710000  0.98370000  0.11550000  1.0 -0.8429657431
O  O14  1  0.92410000  0.19090000  0.10020000  1.0 -0.7241037251
O  O15  1  0.94970000  0.82430000  0.19770000  1.0 -0.8791333648
O  O16  1  0.11750000  0.16050000  0.11260000  1.0 -0.3418496263
O  O17  1  0.17800000  0.32600000  0.18050000  1.0 -0.3418496263
O  O18  1  0.36660000  0.31860000  0.25930000  1.0 -0.1403302314
O  O19  1  0.15400000  0.20400000  0.10100000  1.0 -0.3662411781
O  O20  1  0.11500000  0.30900000  0.19420000  1.0 -0.3063076051
O  O21  1  0.00140000  0.98380000  0.28940000  1.0 -0.3850798818
O  O22  1  0.12720000  0.13020000  0.29040000  1.0 -0.4601488249
O  O23  1  0.12490000  0.00530000  0.21630000  1.0 -0.3516104656
O  O24  1  0.97580000  0.13580000  0.20830000  1.0 -0.4382498773
O  O25  1  0.37690000  0.02210000  0.42280000  1.0 -0.6591899159
O  O26  1  0.32220000  0.93880000  0.32060000  1.0 -0.7057699027
O  O27  1  0.17100000  0.29400000  0.30240000  1.0 -0.7786076875
O  O28  1  0.17580000  0.79800000  0.31880000  1.0 -0.8922999861
O  O29  1  0.15438000  0.82102000  0.20300000  1.0 -0.9207122984
O  O30  1  0.98560000  0.92660000  0.39220000  1.0 -0.8922999861
O  O31  1  0.97090000  0.79690000  0.31400000  1.0 -0.9361528965
O  O32  1  0.30040000  0.96500000  0.20390000  1.0 -0.8976905259
O  O33  1  0.98370000  0.13710000  0.38450000  1.0 -0.8429657431
O  O34  1  0.19090000  0.92410000  0.39980000  1.0 -0.7241037251
O  O35  1  0.82430000  0.94970000  0.30230000  1.0 -0.8791333648
O  O36  1  0.16050000  0.11750000  0.38740000  1.0 -0.3418496263
O  O37  1  0.32600000  0.17800000  0.31950000  1.0 -0.3418496263
O  O38  1  0.31860000  0.36660000  0.24070000  1.0 -0.1403302314
O  O39  1  0.20400000  0.15400000  0.39900000  1.0 -0.3662411781
O  O40  1  0.30900000  0.11500000  0.30580000  1.0 -0.3063076051
O  O41  1  0.01620000  0.99860000  0.78940000  1.0 -0.3850798818
O  O42  1  0.86980000  0.87280000  0.79040000  1.0 -0.4601488249
O  O43  1  0.99470000  0.87510000  0.71630000  1.0 -0.3516104656
O  O44  1  0.86420000  0.02420000  0.70830000  1.0 -0.4382498773
O  O45  1  0.97790000  0.62310000  0.92280000  1.0 -0.6591899159
O  O46  1  0.06120000  0.67780000  0.82060000  1.0 -0.7057699027
O  O47  1  0.70600000  0.82900000  0.80240000  1.0 -0.7786076875
O  O48  1  0.20200000  0.82420000  0.81880000  1.0 -0.8922999861
O  O49  1  0.17898000  0.84562000  0.70300000  1.0 -0.9207122984
O  O50  1  0.07340000  0.01440000  0.89220000  1.0 -0.8922999861
O  O51  1  0.20310000  0.02910000  0.81400000  1.0 -0.9361528965
O  O52  1  0.03500000  0.69960000  0.70390000  1.0 -0.8976905259
O  O53  1  0.86290000  0.01630000  0.88450000  1.0 -0.8429657431
O  O54  1  0.07590000  0.80910000  0.89980000  1.0 -0.7241037251
O  O55  1  0.05030000  0.17570000  0.80230000  1.0 -0.8791333648
O  O56  1  0.88250000  0.83950000  0.88740000  1.0 -0.3418496263
O  O57  1  0.82200000  0.67400000  0.81950000  1.0 -0.3418496263
O  O58  1  0.63340000  0.68140000  0.74070000  1.0 -0.1403302314
O  O59  1  0.84600000  0.79600000  0.89900000  1.0 -0.3662411781
O  O60  1  0.88500000  0.69100000  0.80580000  1.0 -0.3063076051
O  O61  1  0.99860000  0.01620000  0.71060000  1.0 -0.3837555262
O  O62  1  0.87280000  0.86980000  0.70960000  1.0 -0.4601488249
O  O63  1  0.87510000  0.99470000  0.78370000  1.0 -0.3516104656
O  O64  1  0.02420000  0.86420000  0.79170000  1.0 -0.4382498773
O  O65  1  0.62310000  0.97790000  0.57720000  1.0 -0.6591899159
O  O66  1  0.67780000  0.06120000  0.67940000  1.0 -0.7057699027
O  O67  1  0.82900000  0.70600000  0.69760000  1.0 -0.7786076875
O  O68  1  0.82420000  0.20200000  0.68120000  1.0 -0.8922999861
O  O69  1  0.84562000  0.17898000  0.79700000  1.0 -0.9207122984
O  O70  1  0.01440000  0.07340000  0.60780000  1.0 -0.8922999861
O  O71  1  0.02910000  0.20310000  0.68600000  1.0 -0.9361528965
O  O72  1  0.69960000  0.03500000  0.79610000  1.0 -0.8976905259
O  O73  1  0.01630000  0.86290000  0.61550000  1.0 -0.8429657431
O  O74  1  0.80910000  0.07590000  0.60020000  1.0 -0.7241037251
O  O75  1  0.17570000  0.05030000  0.69770000  1.0 -0.8791333648
O  O76  1  0.83950000  0.88250000  0.61260000  1.0 -0.3418496263
O  O77  1  0.67400000  0.82200000  0.68050000  1.0 -0.3418496263
O  O78  1  0.68140000  0.63340000  0.75930000  1.0 -0.1403302314
O  O79  1  0.79600000  0.84600000  0.60100000  1.0 -0.3662411781
O  O80  1  0.69100000  0.88500000  0.69420000  1.0 -0.3063076051
