# DDEC6 charges by PACMAN v1.1 (https://github.com/mtap-research/PACMAN-charge/)
data_PIBNUK_ASR_pacman
_symmetry_space_group_name_H-M   'P 1'
_cell_length_a   25.64150000
_cell_length_b   25.64150000
_cell_length_c   25.64150000
_cell_angle_alpha   90.00000000
_cell_angle_beta   90.00000000
_cell_angle_gamma   90.00000000
_symmetry_Int_Tables_number   1
_chemical_formula_structural   ZnH8C16(NO2)2
_chemical_formula_sum   'Zn12 H96 C192 N24 O48'
_cell_volume   16858.94066027
_cell_formula_units_Z   12
loop_
 _symmetry_equiv_pos_site_id
 _symmetry_equiv_pos_as_xyz
  1  'x, y, z'
loop_
 _atom_site_type_symbol
 _atom_site_label
 _atom_site_symmetry_multiplicity
 _atom_site_fract_x
 _atom_site_fract_y
 _atom_site_fract_z
 _atom_site_occupancy
 _atom_site_charge
Zn  Zn1  1  0.37500000  0.62500000  0.12500000  1.0 1.0564407532
Zn  Zn2  1  0.12500000  0.37500000  0.62500000  1.0 1.0564407532
Zn  Zn3  1  0.62500000  0.12500000  0.37500000  1.0 1.0564407532
Zn  Zn4  1  0.87500000  0.87500000  0.87500000  1.0 1.0564407532
Zn  Zn5  1  0.45502000  0.54498000  0.04498000  1.0 0.9494827811
Zn  Zn6  1  0.04498000  0.45502000  0.54498000  1.0 0.9494827811
Zn  Zn7  1  0.54498000  0.04498000  0.45502000  1.0 0.9494827811
Zn  Zn8  1  0.95502000  0.95502000  0.95502000  1.0 0.9494827811
Zn  Zn9  1  0.29498000  0.70502000  0.20502000  1.0 0.9494827811
Zn  Zn10  1  0.20502000  0.29498000  0.70502000  1.0 0.9494827811
Zn  Zn11  1  0.79498000  0.79498000  0.79498000  1.0 0.9494827811
Zn  Zn12  1  0.70502000  0.20502000  0.29498000  1.0 0.9494827811
H  H1  1  0.26650000  0.57230000  0.86600000  1.0 0.1191372325
H  H2  1  0.23350000  0.42770000  0.36600000  1.0 0.1191372325
H  H3  1  0.73350000  0.07230000  0.63400000  1.0 0.1191372325
H  H4  1  0.76650000  0.92770000  0.13400000  1.0 0.1191372325
H  H5  1  0.86600000  0.26650000  0.57230000  1.0 0.1191372325
H  H6  1  0.36600000  0.23350000  0.42770000  1.0 0.1191372325
H  H7  1  0.63400000  0.73350000  0.07230000  1.0 0.1191372325
H  H8  1  0.13400000  0.76650000  0.92770000  1.0 0.1191372325
H  H9  1  0.57230000  0.86600000  0.26650000  1.0 0.1191372325
H  H10  1  0.42770000  0.36600000  0.23350000  1.0 0.1191372325
H  H11  1  0.07230000  0.63400000  0.73350000  1.0 0.1191372325
H  H12  1  0.92770000  0.13400000  0.76650000  1.0 0.1191372325
H  H13  1  0.32230000  0.51650000  0.38400000  1.0 0.1191372325
H  H14  1  0.17770000  0.48350000  0.88400000  1.0 0.1191372325
H  H15  1  0.82230000  0.98350000  0.61600000  1.0 0.1191372325
H  H16  1  0.67770000  0.01650000  0.11600000  1.0 0.1191372325
H  H17  1  0.01650000  0.11600000  0.67770000  1.0 0.1191372325
H  H18  1  0.98350000  0.61600000  0.82230000  1.0 0.1191372325
H  H19  1  0.48350000  0.88400000  0.17770000  1.0 0.1191372325
H  H20  1  0.51650000  0.38400000  0.32230000  1.0 0.1191372325
H  H21  1  0.61600000  0.82230000  0.98350000  1.0 0.1191372325
H  H22  1  0.11600000  0.67770000  0.01650000  1.0 0.1191372325
H  H23  1  0.38400000  0.32230000  0.51650000  1.0 0.1191372325
H  H24  1  0.88400000  0.17770000  0.48350000  1.0 0.1191372325
H  H25  1  0.33300000  0.54930000  0.92360000  1.0 0.1290829113
H  H26  1  0.16700000  0.45070000  0.42360000  1.0 0.1290829113
H  H27  1  0.66700000  0.04930000  0.57640000  1.0 0.1290829113
H  H28  1  0.83300000  0.95070000  0.07640000  1.0 0.1290829113
H  H29  1  0.92360000  0.33300000  0.54930000  1.0 0.1290829113
H  H30  1  0.42360000  0.16700000  0.45070000  1.0 0.1290829113
H  H31  1  0.57640000  0.66700000  0.04930000  1.0 0.1290829113
H  H32  1  0.07640000  0.83300000  0.95070000  1.0 0.1290829113
H  H33  1  0.54930000  0.92360000  0.33300000  1.0 0.1290829113
H  H34  1  0.45070000  0.42360000  0.16700000  1.0 0.1290829113
H  H35  1  0.04930000  0.57640000  0.66700000  1.0 0.1290829113
H  H36  1  0.95070000  0.07640000  0.83300000  1.0 0.1290829113
H  H37  1  0.29930000  0.58300000  0.32640000  1.0 0.1290829113
H  H38  1  0.20070000  0.41700000  0.82640000  1.0 0.1290829113
H  H39  1  0.79930000  0.91700000  0.67360000  1.0 0.1290829113
H  H40  1  0.70070000  0.08300000  0.17360000  1.0 0.1290829113
H  H41  1  0.08300000  0.17360000  0.70070000  1.0 0.1290829113
H  H42  1  0.91700000  0.67360000  0.79930000  1.0 0.1290829113
H  H43  1  0.41700000  0.82640000  0.20070000  1.0 0.1290829113
H  H44  1  0.58300000  0.32640000  0.29930000  1.0 0.1290829113
H  H45  1  0.67360000  0.79930000  0.91700000  1.0 0.1290829113
H  H46  1  0.17360000  0.70070000  0.08300000  1.0 0.1290829113
H  H47  1  0.32640000  0.29930000  0.58300000  1.0 0.1290829113
H  H48  1  0.82640000  0.20070000  0.41700000  1.0 0.1290829113
H  H49  1  0.31230000  0.68350000  0.99950000  1.0 0.1290829113
H  H50  1  0.18770000  0.31650000  0.49950000  1.0 0.1290829113
H  H51  1  0.68770000  0.18350000  0.50050000  1.0 0.1290829113
H  H52  1  0.81230000  0.81650000  0.00050000  1.0 0.1290829113
H  H53  1  0.99950000  0.31230000  0.68350000  1.0 0.1290829113
H  H54  1  0.49950000  0.18770000  0.31650000  1.0 0.1290829113
H  H55  1  0.50050000  0.68770000  0.18350000  1.0 0.1290829113
H  H56  1  0.00050000  0.81230000  0.81650000  1.0 0.1290829113
H  H57  1  0.68350000  0.99950000  0.31230000  1.0 0.1290829113
H  H58  1  0.31650000  0.49950000  0.18770000  1.0 0.1290829113
H  H59  1  0.18350000  0.50050000  0.68770000  1.0 0.1290829113
H  H60  1  0.81650000  0.00050000  0.81230000  1.0 0.1290829113
H  H61  1  0.43350000  0.56230000  0.25050000  1.0 0.1290829113
H  H62  1  0.06650000  0.43770000  0.75050000  1.0 0.1290829113
H  H63  1  0.93350000  0.93770000  0.74950000  1.0 0.1290829113
H  H64  1  0.56650000  0.06230000  0.24950000  1.0 0.1290829113
H  H65  1  0.06230000  0.24950000  0.56650000  1.0 0.1290829113
H  H66  1  0.93770000  0.74950000  0.93350000  1.0 0.1290829113
H  H67  1  0.43770000  0.75050000  0.06650000  1.0 0.1290829113
H  H68  1  0.56230000  0.25050000  0.43350000  1.0 0.1290829113
H  H69  1  0.74950000  0.93350000  0.93770000  1.0 0.1290829113
H  H70  1  0.24950000  0.56650000  0.06230000  1.0 0.1290829113
H  H71  1  0.25050000  0.43350000  0.56230000  1.0 0.1290829113
H  H72  1  0.75050000  0.06650000  0.43770000  1.0 0.1290829113
H  H73  1  0.24480000  0.70590000  0.94390000  1.0 0.1191372325
H  H74  1  0.25520000  0.29410000  0.44390000  1.0 0.1191372325
H  H75  1  0.75520000  0.20590000  0.55610000  1.0 0.1191372325
H  H76  1  0.74480000  0.79410000  0.05610000  1.0 0.1191372325
H  H77  1  0.94390000  0.24480000  0.70590000  1.0 0.1191372325
H  H78  1  0.44390000  0.25520000  0.29410000  1.0 0.1191372325
H  H79  1  0.55610000  0.75520000  0.20590000  1.0 0.1191372325
H  H80  1  0.05610000  0.74480000  0.79410000  1.0 0.1191372325
H  H81  1  0.70590000  0.94390000  0.24480000  1.0 0.1191372325
H  H82  1  0.29410000  0.44390000  0.25520000  1.0 0.1191372325
H  H83  1  0.20590000  0.55610000  0.75520000  1.0 0.1191372325
H  H84  1  0.79410000  0.05610000  0.74480000  1.0 0.1191372325
H  H85  1  0.45590000  0.49480000  0.30610000  1.0 0.1191372325
H  H86  1  0.04410000  0.50520000  0.80610000  1.0 0.1191372325
H  H87  1  0.95590000  0.00520000  0.69390000  1.0 0.1191372325
H  H88  1  0.54410000  0.99480000  0.19390000  1.0 0.1191372325
H  H89  1  0.99480000  0.19390000  0.54410000  1.0 0.1191372325
H  H90  1  0.00520000  0.69390000  0.95590000  1.0 0.1191372325
H  H91  1  0.50520000  0.80610000  0.04410000  1.0 0.1191372325
H  H92  1  0.49480000  0.30610000  0.45590000  1.0 0.1191372325
H  H93  1  0.69390000  0.95590000  0.00520000  1.0 0.1191372325
H  H94  1  0.19390000  0.54410000  0.99480000  1.0 0.1191372325
H  H95  1  0.30610000  0.45590000  0.49480000  1.0 0.1191372325
H  H96  1  0.80610000  0.04410000  0.50520000  1.0 0.1191372325
C  C1  1  0.24704000  0.63995000  0.90097000  1.0 0.0101202533
C  C2  1  0.25296000  0.36005000  0.40097000  1.0 0.0101202533
C  C3  1  0.75296000  0.13995000  0.59903000  1.0 0.0101202533
C  C4  1  0.74704000  0.86005000  0.09903000  1.0 0.0101202533
C  C5  1  0.90097000  0.24704000  0.63995000  1.0 0.0101202533
C  C6  1  0.40097000  0.25296000  0.36005000  1.0 0.0101202533
C  C7  1  0.59903000  0.75296000  0.13995000  1.0 0.0101202533
C  C8  1  0.09903000  0.74704000  0.86005000  1.0 0.0101202533
C  C9  1  0.63995000  0.90097000  0.24704000  1.0 0.0101202533
C  C10  1  0.36005000  0.40097000  0.25296000  1.0 0.0101202533
C  C11  1  0.13995000  0.59903000  0.75296000  1.0 0.0101202533
C  C12  1  0.86005000  0.09903000  0.74704000  1.0 0.0101202533
C  C13  1  0.38995000  0.49704000  0.34903000  1.0 0.0101202533
C  C14  1  0.11005000  0.50296000  0.84903000  1.0 0.0101202533
C  C15  1  0.88995000  0.00296000  0.65097000  1.0 0.0101202533
C  C16  1  0.61005000  0.99704000  0.15097000  1.0 0.0101202533
C  C17  1  0.99704000  0.15097000  0.61005000  1.0 0.0101202533
C  C18  1  0.00296000  0.65097000  0.88995000  1.0 0.0101202533
C  C19  1  0.50296000  0.84903000  0.11005000  1.0 0.0101202533
C  C20  1  0.49704000  0.34903000  0.38995000  1.0 0.0101202533
C  C21  1  0.65097000  0.88995000  0.00296000  1.0 0.0101202533
C  C22  1  0.15097000  0.61005000  0.99704000  1.0 0.0101202533
C  C23  1  0.34903000  0.38995000  0.49704000  1.0 0.0101202533
C  C24  1  0.84903000  0.11005000  0.50296000  1.0 0.0101202533
C  C25  1  0.27484000  0.59447000  0.89399000  1.0 -0.1107391009
C  C26  1  0.22516000  0.40553000  0.39399000  1.0 -0.1107391009
C  C27  1  0.72516000  0.09447000  0.60601000  1.0 -0.1107391009
C  C28  1  0.77484000  0.90553000  0.10601000  1.0 -0.1107391009
C  C29  1  0.89399000  0.27484000  0.59447000  1.0 -0.1107391009
C  C30  1  0.39399000  0.22516000  0.40553000  1.0 -0.1107391009
C  C31  1  0.60601000  0.72516000  0.09447000  1.0 -0.1107391009
C  C32  1  0.10601000  0.77484000  0.90553000  1.0 -0.1107391009
C  C33  1  0.59447000  0.89399000  0.27484000  1.0 -0.1107391009
C  C34  1  0.40553000  0.39399000  0.22516000  1.0 -0.1107391009
C  C35  1  0.09447000  0.60601000  0.72516000  1.0 -0.1107391009
C  C36  1  0.90553000  0.10601000  0.77484000  1.0 -0.1107391009
C  C37  1  0.34447000  0.52484000  0.35601000  1.0 -0.1107391009
C  C38  1  0.15553000  0.47516000  0.85601000  1.0 -0.1107391009
C  C39  1  0.84447000  0.97516000  0.64399000  1.0 -0.1107391009
C  C40  1  0.65553000  0.02484000  0.14399000  1.0 -0.1107391009
C  C41  1  0.02484000  0.14399000  0.65553000  1.0 -0.1107391009
C  C42  1  0.97516000  0.64399000  0.84447000  1.0 -0.1107391009
C  C43  1  0.47516000  0.85601000  0.15553000  1.0 -0.1107391009
C  C44  1  0.52484000  0.35601000  0.34447000  1.0 -0.1107391009
C  C45  1  0.64399000  0.84447000  0.97516000  1.0 -0.1107391009
C  C46  1  0.14399000  0.65553000  0.02484000  1.0 -0.1107391009
C  C47  1  0.35601000  0.34447000  0.52484000  1.0 -0.1107391009
C  C48  1  0.85601000  0.15553000  0.47516000  1.0 -0.1107391009
C  C49  1  0.31504000  0.58100000  0.92778000  1.0 -0.1107391009
C  C50  1  0.18496000  0.41900000  0.42778000  1.0 -0.1107391009
C  C51  1  0.68496000  0.08100000  0.57222000  1.0 -0.1107391009
C  C52  1  0.81504000  0.91900000  0.07222000  1.0 -0.1107391009
C  C53  1  0.92778000  0.31504000  0.58100000  1.0 -0.1107391009
C  C54  1  0.42778000  0.18496000  0.41900000  1.0 -0.1107391009
C  C55  1  0.57222000  0.68496000  0.08100000  1.0 -0.1107391009
C  C56  1  0.07222000  0.81504000  0.91900000  1.0 -0.1107391009
C  C57  1  0.58100000  0.92778000  0.31504000  1.0 -0.1107391009
C  C58  1  0.41900000  0.42778000  0.18496000  1.0 -0.1107391009
C  C59  1  0.08100000  0.57222000  0.68496000  1.0 -0.1107391009
C  C60  1  0.91900000  0.07222000  0.81504000  1.0 -0.1107391009
C  C61  1  0.33100000  0.56504000  0.32222000  1.0 -0.1107391009
C  C62  1  0.16900000  0.43496000  0.82222000  1.0 -0.1107391009
C  C63  1  0.83100000  0.93496000  0.67778000  1.0 -0.1107391009
C  C64  1  0.66900000  0.06504000  0.17778000  1.0 -0.1107391009
C  C65  1  0.06504000  0.17778000  0.66900000  1.0 -0.1107391009
C  C66  1  0.93496000  0.67778000  0.83100000  1.0 -0.1107391009
C  C67  1  0.43496000  0.82222000  0.16900000  1.0 -0.1107391009
C  C68  1  0.56504000  0.32222000  0.33100000  1.0 -0.1107391009
C  C69  1  0.67778000  0.83100000  0.93496000  1.0 -0.1107391009
C  C70  1  0.17778000  0.66900000  0.06504000  1.0 -0.1107391009
C  C71  1  0.32222000  0.33100000  0.56504000  1.0 -0.1107391009
C  C72  1  0.82222000  0.16900000  0.43496000  1.0 -0.1107391009
C  C73  1  0.32813000  0.61471000  0.96758000  1.0 -0.020517453
C  C74  1  0.17187000  0.38529000  0.46758000  1.0 -0.020517453
C  C75  1  0.67187000  0.11471000  0.53242000  1.0 -0.020517453
C  C76  1  0.82813000  0.88529000  0.03242000  1.0 -0.020517453
C  C77  1  0.96758000  0.32813000  0.61471000  1.0 -0.020517453
C  C78  1  0.46758000  0.17187000  0.38529000  1.0 -0.020517453
C  C79  1  0.53242000  0.67187000  0.11471000  1.0 -0.020517453
C  C80  1  0.03242000  0.82813000  0.88529000  1.0 -0.020517453
C  C81  1  0.61471000  0.96758000  0.32813000  1.0 -0.020517453
C  C82  1  0.38529000  0.46758000  0.17187000  1.0 -0.020517453
C  C83  1  0.11471000  0.53242000  0.67187000  1.0 -0.020517453
C  C84  1  0.88529000  0.03242000  0.82813000  1.0 -0.020517453
C  C85  1  0.36471000  0.57813000  0.28242000  1.0 -0.020517453
C  C86  1  0.13529000  0.42187000  0.78242000  1.0 -0.020517453
C  C87  1  0.86471000  0.92187000  0.71758000  1.0 -0.020517453
C  C88  1  0.63529000  0.07813000  0.21758000  1.0 -0.020517453
C  C89  1  0.07813000  0.21758000  0.63529000  1.0 -0.020517453
C  C90  1  0.92187000  0.71758000  0.86471000  1.0 -0.020517453
C  C91  1  0.42187000  0.78242000  0.13529000  1.0 -0.020517453
C  C92  1  0.57813000  0.28242000  0.36471000  1.0 -0.020517453
C  C93  1  0.71758000  0.86471000  0.92187000  1.0 -0.020517453
C  C94  1  0.21758000  0.63529000  0.07813000  1.0 -0.020517453
C  C95  1  0.28242000  0.36471000  0.57813000  1.0 -0.020517453
C  C96  1  0.78242000  0.13529000  0.42187000  1.0 -0.020517453
C  C97  1  0.30244000  0.66032000  0.97280000  1.0 -0.0993822722
C  C98  1  0.19756000  0.33968000  0.47280000  1.0 -0.0993822722
C  C99  1  0.69756000  0.16032000  0.52720000  1.0 -0.0993822722
C  C100  1  0.80244000  0.83968000  0.02720000  1.0 -0.0993822722
C  C101  1  0.97280000  0.30244000  0.66032000  1.0 -0.0993822722
C  C102  1  0.47280000  0.19756000  0.33968000  1.0 -0.0993822722
C  C103  1  0.52720000  0.69756000  0.16032000  1.0 -0.0993822722
C  C104  1  0.02720000  0.80244000  0.83968000  1.0 -0.0993822722
C  C105  1  0.66032000  0.97280000  0.30244000  1.0 -0.0993822722
C  C106  1  0.33968000  0.47280000  0.19756000  1.0 -0.0993822722
C  C107  1  0.16032000  0.52720000  0.69756000  1.0 -0.0993822722
C  C108  1  0.83968000  0.02720000  0.80244000  1.0 -0.0993822722
C  C109  1  0.41032000  0.55244000  0.27720000  1.0 -0.0993822722
C  C110  1  0.08968000  0.44756000  0.77720000  1.0 -0.0993822722
C  C111  1  0.91032000  0.94756000  0.72280000  1.0 -0.0993822722
C  C112  1  0.58968000  0.05244000  0.22280000  1.0 -0.0993822722
C  C113  1  0.05244000  0.22280000  0.58968000  1.0 -0.0993822722
C  C114  1  0.94756000  0.72280000  0.91032000  1.0 -0.0993822722
C  C115  1  0.44756000  0.77720000  0.08968000  1.0 -0.0993822722
C  C116  1  0.55244000  0.27720000  0.41032000  1.0 -0.0993822722
C  C117  1  0.72280000  0.91032000  0.94756000  1.0 -0.0993822722
C  C118  1  0.22280000  0.58968000  0.05244000  1.0 -0.0993822722
C  C119  1  0.27720000  0.41032000  0.55244000  1.0 -0.0993822722
C  C120  1  0.77720000  0.08968000  0.44756000  1.0 -0.0993822722
C  C121  1  0.26201000  0.67379000  0.93983000  1.0 -0.0993822722
C  C122  1  0.23799000  0.32621000  0.43983000  1.0 -0.0993822722
C  C123  1  0.73799000  0.17379000  0.56017000  1.0 -0.0993822722
C  C124  1  0.76201000  0.82621000  0.06017000  1.0 -0.0993822722
C  C125  1  0.93983000  0.26201000  0.67379000  1.0 -0.0993822722
C  C126  1  0.43983000  0.23799000  0.32621000  1.0 -0.0993822722
C  C127  1  0.56017000  0.73799000  0.17379000  1.0 -0.0993822722
C  C128  1  0.06017000  0.76201000  0.82621000  1.0 -0.0993822722
C  C129  1  0.67379000  0.93983000  0.26201000  1.0 -0.0993822722
C  C130  1  0.32621000  0.43983000  0.23799000  1.0 -0.0993822722
C  C131  1  0.17379000  0.56017000  0.73799000  1.0 -0.0993822722
C  C132  1  0.82621000  0.06017000  0.76201000  1.0 -0.0993822722
C  C133  1  0.42379000  0.51201000  0.31017000  1.0 -0.0993822722
C  C134  1  0.07621000  0.48799000  0.81017000  1.0 -0.0993822722
C  C135  1  0.92379000  0.98799000  0.68983000  1.0 -0.0993822722
C  C136  1  0.57621000  0.01201000  0.18983000  1.0 -0.0993822722
C  C137  1  0.01201000  0.18983000  0.57621000  1.0 -0.0993822722
C  C138  1  0.98799000  0.68983000  0.92379000  1.0 -0.0993822722
C  C139  1  0.48799000  0.81017000  0.07621000  1.0 -0.0993822722
C  C140  1  0.51201000  0.31017000  0.42379000  1.0 -0.0993822722
C  C141  1  0.68983000  0.92379000  0.98799000  1.0 -0.0993822722
C  C142  1  0.18983000  0.57621000  0.01201000  1.0 -0.0993822722
C  C143  1  0.31017000  0.42379000  0.51201000  1.0 -0.0993822722
C  C144  1  0.81017000  0.07621000  0.48799000  1.0 -0.0993822722
C  C145  1  0.20377000  0.65246000  0.86613000  1.0 0.3564922772
C  C146  1  0.29623000  0.34754000  0.36613000  1.0 0.3564922772
C  C147  1  0.79623000  0.15246000  0.63387000  1.0 0.3564922772
C  C148  1  0.70377000  0.84754000  0.13387000  1.0 0.3564922772
C  C149  1  0.86613000  0.20377000  0.65246000  1.0 0.3564922772
C  C150  1  0.36613000  0.29623000  0.34754000  1.0 0.3564922772
C  C151  1  0.63387000  0.79623000  0.15246000  1.0 0.3564922772
C  C152  1  0.13387000  0.70377000  0.84754000  1.0 0.3564922772
C  C153  1  0.65246000  0.86613000  0.20377000  1.0 0.3564922772
C  C154  1  0.34754000  0.36613000  0.29623000  1.0 0.3564922772
C  C155  1  0.15246000  0.63387000  0.79623000  1.0 0.3564922772
C  C156  1  0.84754000  0.13387000  0.70377000  1.0 0.3564922772
C  C157  1  0.40246000  0.45377000  0.38387000  1.0 0.3564922772
C  C158  1  0.09754000  0.54623000  0.88387000  1.0 0.3564922772
C  C159  1  0.90246000  0.04623000  0.61613000  1.0 0.3564922772
C  C160  1  0.59754000  0.95377000  0.11613000  1.0 0.3564922772
C  C161  1  0.95377000  0.11613000  0.59754000  1.0 0.3564922772
C  C162  1  0.04623000  0.61613000  0.90246000  1.0 0.3564922772
C  C163  1  0.54623000  0.88387000  0.09754000  1.0 0.3564922772
C  C164  1  0.45377000  0.38387000  0.40246000  1.0 0.3564922772
C  C165  1  0.61613000  0.90246000  0.04623000  1.0 0.3564922772
C  C166  1  0.11613000  0.59754000  0.95377000  1.0 0.3564922772
C  C167  1  0.38387000  0.40246000  0.45377000  1.0 0.3564922772
C  C168  1  0.88387000  0.09754000  0.54623000  1.0 0.3564922772
C  C169  1  0.37094000  0.60021000  0.00542000  1.0 0.6069068138
C  C170  1  0.12906000  0.39979000  0.50542000  1.0 0.6069068138
C  C171  1  0.62906000  0.10021000  0.49458000  1.0 0.6069068138
C  C172  1  0.87094000  0.89979000  0.99458000  1.0 0.6069068138
C  C173  1  0.00542000  0.37094000  0.60021000  1.0 0.6069068138
C  C174  1  0.50542000  0.12906000  0.39979000  1.0 0.6069068138
C  C175  1  0.49458000  0.62906000  0.10021000  1.0 0.6069068138
C  C176  1  0.99458000  0.87094000  0.89979000  1.0 0.6069068138
C  C177  1  0.60021000  0.00542000  0.37094000  1.0 0.6069068138
C  C178  1  0.39979000  0.50542000  0.12906000  1.0 0.6069068138
C  C179  1  0.10021000  0.49458000  0.62906000  1.0 0.6069068138
C  C180  1  0.89979000  0.99458000  0.87094000  1.0 0.6069068138
C  C181  1  0.35021000  0.62094000  0.24458000  1.0 0.6069068138
C  C182  1  0.14979000  0.37906000  0.74458000  1.0 0.6069068138
C  C183  1  0.85021000  0.87906000  0.75542000  1.0 0.6069068138
C  C184  1  0.64979000  0.12094000  0.25542000  1.0 0.6069068138
C  C185  1  0.12094000  0.25542000  0.64979000  1.0 0.6069068138
C  C186  1  0.87906000  0.75542000  0.85021000  1.0 0.6069068138
C  C187  1  0.37906000  0.74458000  0.14979000  1.0 0.6069068138
C  C188  1  0.62094000  0.24458000  0.35021000  1.0 0.6069068138
C  C189  1  0.75542000  0.85021000  0.87906000  1.0 0.6069068138
C  C190  1  0.25542000  0.64979000  0.12094000  1.0 0.6069068138
C  C191  1  0.24458000  0.35021000  0.62094000  1.0 0.6069068138
C  C192  1  0.74458000  0.14979000  0.37906000  1.0 0.6069068138
N  N1  1  0.17475000  0.69468000  0.87834000  1.0 -0.4095167891
N  N2  1  0.32525000  0.30532000  0.37834000  1.0 -0.4095167891
N  N3  1  0.82525000  0.19468000  0.62166000  1.0 -0.4095167891
N  N4  1  0.67475000  0.80532000  0.12166000  1.0 -0.4095167891
N  N5  1  0.87834000  0.17475000  0.69468000  1.0 -0.4095167891
N  N6  1  0.37834000  0.32525000  0.30532000  1.0 -0.4095167891
N  N7  1  0.62166000  0.82525000  0.19468000  1.0 -0.4095167891
N  N8  1  0.12166000  0.67475000  0.80532000  1.0 -0.4095167891
N  N9  1  0.69468000  0.87834000  0.17475000  1.0 -0.4095167891
N  N10  1  0.30532000  0.37834000  0.32525000  1.0 -0.4095167891
N  N11  1  0.19468000  0.62166000  0.82525000  1.0 -0.4095167891
N  N12  1  0.80532000  0.12166000  0.67475000  1.0 -0.4095167891
N  N13  1  0.44468000  0.42475000  0.37166000  1.0 -0.4095167891
N  N14  1  0.05532000  0.57525000  0.87166000  1.0 -0.4095167891
N  N15  1  0.94468000  0.07525000  0.62834000  1.0 -0.4095167891
N  N16  1  0.55532000  0.92475000  0.12834000  1.0 -0.4095167891
N  N17  1  0.92475000  0.12834000  0.55532000  1.0 -0.4095167891
N  N18  1  0.07525000  0.62834000  0.94468000  1.0 -0.4095167891
N  N19  1  0.57525000  0.87166000  0.05532000  1.0 -0.4095167891
N  N20  1  0.42475000  0.37166000  0.44468000  1.0 -0.4095167891
N  N21  1  0.62834000  0.94468000  0.07525000  1.0 -0.4095167891
N  N22  1  0.12834000  0.55532000  0.92475000  1.0 -0.4095167891
N  N23  1  0.37166000  0.44468000  0.42475000  1.0 -0.4095167891
N  N24  1  0.87166000  0.05532000  0.57525000  1.0 -0.4095167891
O  O1  1  0.37743000  0.62920000  0.04396000  1.0 -0.5722015674
O  O2  1  0.12257000  0.37080000  0.54396000  1.0 -0.5722015674
O  O3  1  0.62257000  0.12920000  0.45604000  1.0 -0.5722015674
O  O4  1  0.87743000  0.87080000  0.95604000  1.0 -0.5722015674
O  O5  1  0.04396000  0.37743000  0.62920000  1.0 -0.5722015674
O  O6  1  0.54396000  0.12257000  0.37080000  1.0 -0.5722015674
O  O7  1  0.45604000  0.62257000  0.12920000  1.0 -0.5722015674
O  O8  1  0.95604000  0.87743000  0.87080000  1.0 -0.5722015674
O  O9  1  0.62920000  0.04396000  0.37743000  1.0 -0.5722015674
O  O10  1  0.37080000  0.54396000  0.12257000  1.0 -0.5722015674
O  O11  1  0.12920000  0.45604000  0.62257000  1.0 -0.5722015674
O  O12  1  0.87080000  0.95604000  0.87743000  1.0 -0.5722015674
O  O13  1  0.37920000  0.62743000  0.20604000  1.0 -0.5722015674
O  O14  1  0.12080000  0.37257000  0.70604000  1.0 -0.5722015674
O  O15  1  0.87920000  0.87257000  0.79396000  1.0 -0.5722015674
O  O16  1  0.62080000  0.12743000  0.29396000  1.0 -0.5722015674
O  O17  1  0.12743000  0.29396000  0.62080000  1.0 -0.5722015674
O  O18  1  0.87257000  0.79396000  0.87920000  1.0 -0.5722015674
O  O19  1  0.37257000  0.70604000  0.12080000  1.0 -0.5722015674
O  O20  1  0.62743000  0.20604000  0.37920000  1.0 -0.5722015674
O  O21  1  0.79396000  0.87920000  0.87257000  1.0 -0.5722015674
O  O22  1  0.29396000  0.62080000  0.12743000  1.0 -0.5722015674
O  O23  1  0.20604000  0.37920000  0.62743000  1.0 -0.5722015674
O  O24  1  0.70604000  0.12080000  0.37257000  1.0 -0.5722015674
O  O25  1  0.39850000  0.56113000  0.99672000  1.0 -0.5400487955
O  O26  1  0.10150000  0.43887000  0.49672000  1.0 -0.5400487955
O  O27  1  0.60150000  0.06113000  0.50328000  1.0 -0.5400487955
O  O28  1  0.89850000  0.93887000  0.00328000  1.0 -0.5400487955
O  O29  1  0.99672000  0.39850000  0.56113000  1.0 -0.5400487955
O  O30  1  0.49672000  0.10150000  0.43887000  1.0 -0.5400487955
O  O31  1  0.50328000  0.60150000  0.06113000  1.0 -0.5400487955
O  O32  1  0.00328000  0.89850000  0.93887000  1.0 -0.5400487955
O  O33  1  0.56113000  0.99672000  0.39850000  1.0 -0.5400487955
O  O34  1  0.43887000  0.49672000  0.10150000  1.0 -0.5400487955
O  O35  1  0.06113000  0.50328000  0.60150000  1.0 -0.5400487955
O  O36  1  0.93887000  0.00328000  0.89850000  1.0 -0.5400487955
O  O37  1  0.31113000  0.64850000  0.25328000  1.0 -0.5400487955
O  O38  1  0.18887000  0.35150000  0.75328000  1.0 -0.5400487955
O  O39  1  0.81113000  0.85150000  0.74672000  1.0 -0.5400487955
O  O40  1  0.68887000  0.14850000  0.24672000  1.0 -0.5400487955
O  O41  1  0.14850000  0.24672000  0.68887000  1.0 -0.5400487955
O  O42  1  0.85150000  0.74672000  0.81113000  1.0 -0.5400487955
O  O43  1  0.35150000  0.75328000  0.18887000  1.0 -0.5400487955
O  O44  1  0.64850000  0.25328000  0.31113000  1.0 -0.5400487955
O  O45  1  0.74672000  0.81113000  0.85150000  1.0 -0.5400487955
O  O46  1  0.24672000  0.68887000  0.14850000  1.0 -0.5400487955
O  O47  1  0.25328000  0.31113000  0.64850000  1.0 -0.5400487955
O  O48  1  0.75328000  0.18887000  0.35150000  1.0 -0.5400487955
