# DDEC6 charges by PACMAN v1.1 (https://github.com/mtap-research/PACMAN-charge/)
data_PIBZOS_ASR_pacman
_symmetry_space_group_name_H-M   'P 1'
_cell_length_a   15.77040000
_cell_length_b   15.77040000
_cell_length_c   15.77040000
_cell_angle_alpha   96.60980000
_cell_angle_beta   96.60980000
_cell_angle_gamma   140.33500000
_symmetry_Int_Tables_number   1
_chemical_formula_structural   Al(CO)6
_chemical_formula_sum   'Al8 C48 O48'
_cell_volume   2355.02929485
_cell_formula_units_Z   8
loop_
 _symmetry_equiv_pos_site_id
 _symmetry_equiv_pos_as_xyz
  1  'x, y, z'
loop_
 _atom_site_type_symbol
 _atom_site_label
 _atom_site_symmetry_multiplicity
 _atom_site_fract_x
 _atom_site_fract_y
 _atom_site_fract_z
 _atom_site_occupancy
 _atom_site_charge
Al  Al1  1  0.50840000  0.56890000  0.56830000  1.0 1.5938157303
Al  Al2  1  0.00060000  0.94010000  0.43170000  1.0 1.5938157303
Al  Al3  1  0.19010000  0.25840000  0.43950000  1.0 1.5938157303
Al  Al4  1  0.81890000  0.75060000  0.56050000  1.0 1.5938157303
Al  Al5  1  0.50840000  0.94010000  0.93950000  1.0 1.5938157303
Al  Al6  1  0.00060000  0.56890000  0.06050000  1.0 1.5938157303
Al  Al7  1  0.19010000  0.75060000  0.93170000  1.0 1.5938157303
Al  Al8  1  0.81890000  0.25840000  0.06830000  1.0 1.5938157303
C  C1  1  0.25270000  0.41050000  0.61560000  1.0 0.6183819337
C  C2  1  0.17680000  0.40270000  0.67390000  1.0 0.0881678447
C  C3  1  0.03930000  0.29660000  0.67570000  1.0 -0.0465237346
C  C4  1  0.32980000  0.51390000  0.41930000  1.0 0.5999715788
C  C5  1  0.30590000  0.57880000  0.37470000  1.0 0.0955648137
C  C6  1  0.39910000  0.71860000  0.38790000  1.0 -0.0342353384
C  C7  1  0.79490000  0.63710000  0.38440000  1.0 0.6183819337
C  C8  1  0.72880000  0.50290000  0.32610000  1.0 0.0881678447
C  C9  1  0.62090000  0.36360000  0.32430000  1.0 -0.0465237346
C  C10  1  0.09460000  0.91050000  0.58070000  1.0 0.5999715788
C  C11  1  0.20410000  0.93120000  0.62530000  1.0 0.0955648137
C  C12  1  0.33070000  0.01120000  0.61210000  1.0 -0.0342353384
C  C13  1  0.88710000  0.00270000  0.34220000  1.0 0.6183819337
C  C14  1  0.75290000  0.92680000  0.27410000  1.0 0.0881678447
C  C15  1  0.61360000  0.78930000  0.24270000  1.0 -0.0465237346
C  C16  1  0.16050000  0.07980000  0.31590000  1.0 0.5999715788
C  C17  1  0.18120000  0.05590000  0.22710000  1.0 0.0955648137
C  C18  1  0.26120000  0.14910000  0.18050000  1.0 -0.0342353384
C  C19  1  0.66050000  0.54490000  0.65780000  1.0 0.6183819337
C  C20  1  0.65270000  0.47880000  0.72590000  1.0 0.0881678447
C  C21  1  0.54660000  0.37090000  0.75730000  1.0 -0.0465237346
C  C22  1  0.76390000  0.84460000  0.68410000  1.0 0.5999715788
C  C23  1  0.82880000  0.95410000  0.77290000  1.0 0.0955648137
C  C24  1  0.96860000  0.08070000  0.81950000  1.0 -0.0342353384
C  C25  1  0.25270000  0.63710000  0.84220000  1.0 0.6183819337
C  C26  1  0.17680000  0.50290000  0.77410000  1.0 0.0881678447
C  C27  1  0.03930000  0.36360000  0.74270000  1.0 -0.0465237346
C  C28  1  0.32980000  0.91050000  0.81590000  1.0 0.5999715788
C  C29  1  0.30590000  0.93120000  0.72710000  1.0 0.0955648137
C  C30  1  0.39910000  0.01120000  0.68050000  1.0 -0.0342353384
C  C31  1  0.79490000  0.41050000  0.15780000  1.0 0.6183819337
C  C32  1  0.72880000  0.40270000  0.22590000  1.0 0.0881678447
C  C33  1  0.62090000  0.29660000  0.25730000  1.0 -0.0465237346
C  C34  1  0.09460000  0.51390000  0.18410000  1.0 0.5999715788
C  C35  1  0.20410000  0.57880000  0.27290000  1.0 0.0955648137
C  C36  1  0.33070000  0.71860000  0.31950000  1.0 -0.0342353384
C  C37  1  0.88710000  0.54490000  0.88440000  1.0 0.6183819337
C  C38  1  0.75290000  0.47880000  0.82610000  1.0 0.0881678447
C  C39  1  0.61360000  0.37090000  0.82430000  1.0 -0.0465237346
C  C40  1  0.16050000  0.84460000  0.08070000  1.0 0.5999715788
C  C41  1  0.18120000  0.95410000  0.12530000  1.0 0.0955648137
C  C42  1  0.26120000  0.08070000  0.11210000  1.0 -0.0342353384
C  C43  1  0.66050000  0.00270000  0.11560000  1.0 0.6183819337
C  C44  1  0.65270000  0.92680000  0.17390000  1.0 0.0881678447
C  C45  1  0.54660000  0.78930000  0.17570000  1.0 -0.0465237346
C  C46  1  0.76390000  0.07980000  0.91930000  1.0 0.5999715788
C  C47  1  0.82880000  0.05590000  0.87470000  1.0 0.0955648137
C  C48  1  0.96860000  0.14910000  0.88790000  1.0 -0.0342353384
O  O1  1  0.63370000  0.63650000  0.50800000  1.0 -0.7220839845
O  O2  1  0.17270000  0.32540000  0.53650000  1.0 -0.5256756978
O  O3  1  0.38450000  0.51040000  0.63610000  1.0 -0.4815516402
O  O4  1  0.43900000  0.60030000  0.48590000  1.0 -0.5126970025
O  O5  1  0.23330000  0.38370000  0.38040000  1.0 -0.4815516402
O  O6  1  0.12850000  0.12570000  0.49200000  1.0 -0.7220839845
O  O7  1  0.78890000  0.63620000  0.46350000  1.0 -0.5256756978
O  O8  1  0.87430000  0.74840000  0.36390000  1.0 -0.4815516402
O  O9  1  0.11440000  0.95310000  0.51410000  1.0 -0.5126970025
O  O10  1  0.00330000  0.85290000  0.61960000  1.0 -0.4815516402
O  O11  1  0.37570000  0.38370000  0.49720000  1.0 -0.7220839845
O  O12  1  0.88620000  0.92270000  0.34730000  1.0 -0.5256756978
O  O13  1  0.99840000  0.13450000  0.37410000  1.0 -0.4815516402
O  O14  1  0.20310000  0.18900000  0.33870000  1.0 -0.5126970025
O  O15  1  0.10290000  0.98330000  0.34960000  1.0 -0.485860411
O  O16  1  0.88650000  0.87850000  0.50280000  1.0 -0.7220839845
O  O17  1  0.57540000  0.53890000  0.65270000  1.0 -0.5256756978
O  O18  1  0.76040000  0.62430000  0.62590000  1.0 -0.4815516402
O  O19  1  0.85030000  0.86440000  0.66130000  1.0 -0.5126970025
O  O20  1  0.63370000  0.75330000  0.65040000  1.0 -0.4815516402
O  O21  1  0.63370000  0.12570000  0.99720000  1.0 -0.7220839845
O  O22  1  0.17270000  0.63620000  0.84730000  1.0 -0.5256756978
O  O23  1  0.38450000  0.74840000  0.87410000  1.0 -0.4815516402
O  O24  1  0.43900000  0.95310000  0.83870000  1.0 -0.5126970025
O  O25  1  0.23330000  0.85290000  0.84960000  1.0 -0.4815516402
O  O26  1  0.12850000  0.63650000  0.00280000  1.0 -0.7220839845
O  O27  1  0.78890000  0.32540000  0.15270000  1.0 -0.5247214275
O  O28  1  0.87430000  0.51040000  0.12590000  1.0 -0.4815516402
O  O29  1  0.11440000  0.60030000  0.16130000  1.0 -0.5126970025
O  O30  1  0.00330000  0.38370000  0.15040000  1.0 -0.485860411
O  O31  1  0.37570000  0.87850000  0.99200000  1.0 -0.7220839845
O  O32  1  0.88620000  0.53890000  0.96350000  1.0 -0.5256756978
O  O33  1  0.99840000  0.62430000  0.86390000  1.0 -0.4815516402
O  O34  1  0.20310000  0.86440000  0.01410000  1.0 -0.5126970025
O  O35  1  0.10290000  0.75330000  0.11960000  1.0 -0.4815516402
O  O36  1  0.88650000  0.38370000  0.00800000  1.0 -0.7220839845
O  O37  1  0.57540000  0.92270000  0.03650000  1.0 -0.5256756978
O  O38  1  0.76040000  0.13450000  0.13610000  1.0 -0.4815516402
O  O39  1  0.85030000  0.18900000  0.98590000  1.0 -0.5126970025
O  O40  1  0.63370000  0.98330000  0.88040000  1.0 -0.485860411
O  O41  1  0.27070000  0.53190000  0.73880000  1.0 -0.1900863579
O  O42  1  0.79310000  0.53190000  0.26120000  1.0 -0.1900863579
O  O43  1  0.78190000  0.02070000  0.23880000  1.0 -0.1900863579
O  O44  1  0.78190000  0.54310000  0.76120000  1.0 -0.1900863579
O  O45  1  0.18970000  0.48670000  0.29700000  1.0 -0.1900863579
O  O46  1  0.18970000  0.89270000  0.70300000  1.0 -0.1900863579
O  O47  1  0.14270000  0.93970000  0.20300000  1.0 -0.1900863579
O  O48  1  0.73670000  0.93970000  0.79700000  1.0 -0.1900863579
