# DDEC6 charges by PACMAN v1.1 (https://github.com/mtap-research/PACMAN-charge/)
data_PICBAH_FSR_pacman
_symmetry_space_group_name_H-M   'P 1'
_cell_length_a   15.86980000
_cell_length_b   15.86980000
_cell_length_c   15.86980000
_cell_angle_alpha   96.49670000
_cell_angle_beta   96.49670000
_cell_angle_gamma   140.68800000
_symmetry_Int_Tables_number   1
_chemical_formula_structural   Al(CO)6
_chemical_formula_sum   'Al8 C48 O48'
_cell_volume   2384.60547948
_cell_formula_units_Z   8
loop_
 _symmetry_equiv_pos_site_id
 _symmetry_equiv_pos_as_xyz
  1  'x, y, z'
loop_
 _atom_site_type_symbol
 _atom_site_label
 _atom_site_symmetry_multiplicity
 _atom_site_fract_x
 _atom_site_fract_y
 _atom_site_fract_z
 _atom_site_occupancy
 _atom_site_charge
Al  Al1  1  0.44000000  0.87500000  0.06500000  1.0 1.5573439716
Al  Al2  1  0.81000000  0.37500000  0.93500000  1.0 1.5573439716
Al  Al3  1  0.62500000  0.19000000  0.06500000  1.0 1.5573439716
Al  Al4  1  0.12500000  0.56000000  0.93500000  1.0 1.5573439716
Al  Al5  1  0.81000000  0.87500000  0.43500000  1.0 1.5573439716
Al  Al6  1  0.44000000  0.37500000  0.56500000  1.0 1.5573439716
Al  Al7  1  0.62500000  0.56000000  0.43500000  1.0 1.5573439716
Al  Al8  1  0.12500000  0.19000000  0.56500000  1.0 1.5573439716
C  C1  1  0.70970000  0.10960000  0.16790000  1.0 0.5692098258
C  C2  1  0.83810000  0.20140000  0.25010000  1.0 0.1530387994
C  C3  1  0.95560000  0.33600000  0.31340000  1.0 -0.0361610101
C  C4  1  0.94170000  0.54180000  0.83210000  1.0 0.5692098258
C  C5  1  0.95130000  0.58800000  0.74990000  1.0 0.1530387994
C  C6  1  0.02260000  0.64220000  0.68660000  1.0 -0.0361610101
C  C7  1  0.79180000  0.45970000  0.10010000  1.0 0.5692098258
C  C8  1  0.83800000  0.58810000  0.13670000  1.0 0.1530387994
C  C9  1  0.89220000  0.70560000  0.11960000  1.0 -0.0361610101
C  C10  1  0.35960000  0.69170000  0.89990000  1.0 0.5692098258
C  C11  1  0.45140000  0.70130000  0.86330000  1.0 0.1530387994
C  C12  1  0.58600000  0.77260000  0.88040000  1.0 -0.0361610101
C  C13  1  0.54030000  0.20820000  0.89990000  1.0 0.5692098258
C  C14  1  0.41190000  0.16200000  0.86330000  1.0 0.1530387994
C  C15  1  0.29440000  0.10780000  0.88040000  1.0 -0.0361610101
C  C16  1  0.30830000  0.64040000  0.10010000  1.0 0.5692098258
C  C17  1  0.29870000  0.54860000  0.13670000  1.0 0.1530387994
C  C18  1  0.22740000  0.41400000  0.11960000  1.0 -0.0361610101
C  C19  1  0.45820000  0.05830000  0.16790000  1.0 0.5692098258
C  C20  1  0.41200000  0.04870000  0.25010000  1.0 0.1530387994
C  C21  1  0.35780000  0.97740000  0.31340000  1.0 -0.0361610101
C  C22  1  0.89040000  0.29030000  0.83210000  1.0 0.5692098258
C  C23  1  0.79860000  0.16190000  0.74990000  1.0 0.1530387994
C  C24  1  0.66400000  0.04440000  0.68660000  1.0 -0.0361610101
C  C25  1  0.54030000  0.64040000  0.33210000  1.0 0.5692098258
C  C26  1  0.41190000  0.54860000  0.24990000  1.0 0.1530387994
C  C27  1  0.29440000  0.41400000  0.18660000  1.0 -0.0361610101
C  C28  1  0.30830000  0.20820000  0.66790000  1.0 0.5692098258
C  C29  1  0.29870000  0.16200000  0.75010000  1.0 0.1530387994
C  C30  1  0.22740000  0.10780000  0.81340000  1.0 -0.0361610101
C  C31  1  0.45820000  0.29030000  0.39990000  1.0 0.5692098258
C  C32  1  0.41200000  0.16190000  0.36330000  1.0 0.1530387994
C  C33  1  0.35780000  0.04440000  0.38040000  1.0 -0.0361610101
C  C34  1  0.89040000  0.05830000  0.60010000  1.0 0.5692098258
C  C35  1  0.79860000  0.04870000  0.63670000  1.0 0.1530387994
C  C36  1  0.66400000  0.97740000  0.61960000  1.0 -0.0361610101
C  C37  1  0.70970000  0.54180000  0.60010000  1.0 0.5692098258
C  C38  1  0.83810000  0.58800000  0.63670000  1.0 0.1530387994
C  C39  1  0.95560000  0.64220000  0.61960000  1.0 -0.0361610101
C  C40  1  0.94170000  0.10960000  0.39990000  1.0 0.5692098258
C  C41  1  0.95130000  0.20140000  0.36330000  1.0 0.1530387994
C  C42  1  0.02260000  0.33600000  0.38040000  1.0 -0.0361610101
C  C43  1  0.79180000  0.69170000  0.33210000  1.0 0.5692098258
C  C44  1  0.83800000  0.70130000  0.24990000  1.0 0.1530387994
C  C45  1  0.89220000  0.77260000  0.18660000  1.0 -0.0361610101
C  C46  1  0.35960000  0.45970000  0.66790000  1.0 0.5692098258
C  C47  1  0.45140000  0.58810000  0.75010000  1.0 0.1530387994
C  C48  1  0.58600000  0.70560000  0.81340000  1.0 -0.0361610101
O  O1  1  0.61610000  0.98170000  0.12800000  1.0 -0.5292034293
O  O2  1  0.72840000  0.20090000  0.15490000  1.0 -0.5205824779
O  O3  1  0.85370000  0.48810000  0.87200000  1.0 -0.5292034293
O  O4  1  0.04600000  0.57350000  0.84510000  1.0 -0.5205824779
O  O5  1  0.73810000  0.36610000  0.13440000  1.0 -0.5292034293
O  O6  1  0.82350000  0.47840000  0.02750000  1.0 -0.5205824779
O  O7  1  0.23170000  0.60370000  0.86560000  1.0 -0.5292034293
O  O8  1  0.45090000  0.79600000  0.97250000  1.0 -0.5205824779
O  O9  1  0.63390000  0.26190000  0.86560000  1.0 -0.5292034293
O  O10  1  0.52160000  0.17650000  0.97250000  1.0 -0.5205824779
O  O11  1  0.39630000  0.76830000  0.13440000  1.0 -0.5292034293
O  O12  1  0.20400000  0.54910000  0.02750000  1.0 -0.5205824779
O  O13  1  0.51190000  0.14630000  0.12800000  1.0 -0.5292034293
O  O14  1  0.42650000  0.95400000  0.15490000  1.0 -0.5205824779
O  O15  1  0.01830000  0.38390000  0.87200000  1.0 -0.5292034293
O  O16  1  0.79910000  0.27160000  0.84510000  1.0 -0.5205824779
O  O17  1  0.63390000  0.76830000  0.37200000  1.0 -0.5292034293
O  O18  1  0.52160000  0.54910000  0.34510000  1.0 -0.5205824779
O  O19  1  0.39630000  0.26190000  0.62800000  1.0 -0.5292034293
O  O20  1  0.20400000  0.17650000  0.65490000  1.0 -0.5205824779
O  O21  1  0.51190000  0.38390000  0.36560000  1.0 -0.5292034293
O  O22  1  0.42650000  0.27160000  0.47250000  1.0 -0.5205824779
O  O23  1  0.01830000  0.14630000  0.63440000  1.0 -0.5292034293
O  O24  1  0.79910000  0.95400000  0.52750000  1.0 -0.5205824779
O  O25  1  0.61610000  0.48810000  0.63440000  1.0 -0.5292034293
O  O26  1  0.72840000  0.57350000  0.52750000  1.0 -0.5205824779
O  O27  1  0.85370000  0.98170000  0.36560000  1.0 -0.5292034293
O  O28  1  0.04600000  0.20090000  0.47250000  1.0 -0.5205824779
O  O29  1  0.73810000  0.60370000  0.37200000  1.0 -0.5292034293
O  O30  1  0.82350000  0.79600000  0.34510000  1.0 -0.5205824779
O  O31  1  0.23170000  0.36610000  0.62800000  1.0 -0.5292034293
O  O32  1  0.45090000  0.47840000  0.65490000  1.0 -0.5205824779
O  O33  1  0.50510000  0.00510000  0.01020000  1.0 -0.7487135487
O  O34  1  0.99490000  0.49490000  0.98980000  1.0 -0.7487135487
O  O35  1  0.74490000  0.25510000  0.00000000  1.0 -0.7487135487
O  O36  1  0.25510000  0.74490000  0.00000000  1.0 -0.7487135487
O  O37  1  0.74490000  0.74490000  0.48980000  1.0 -0.7487135487
O  O38  1  0.25510000  0.25510000  0.51020000  1.0 -0.7487135487
O  O39  1  0.50510000  0.49490000  0.50000000  1.0 -0.7487135487
O  O40  1  0.99490000  0.00510000  0.50000000  1.0 -0.7487135487
O  O41  1  0.84190000  0.13320000  0.29130000  1.0 -0.0812338389
O  O42  1  0.84190000  0.55060000  0.70870000  1.0 -0.0812338389
O  O43  1  0.80060000  0.59190000  0.20870000  1.0 -0.0812338389
O  O44  1  0.38320000  0.59190000  0.79130000  1.0 -0.0812338389
O  O45  1  0.40810000  0.19940000  0.79130000  1.0 -0.0812338389
O  O46  1  0.40810000  0.61680000  0.20870000  1.0 -0.0812338389
O  O47  1  0.44940000  0.15810000  0.29130000  1.0 -0.0812338389
O  O48  1  0.86680000  0.15810000  0.70870000  1.0 -0.0812338389
