# DDEC6 charges by PACMAN v1.1 (https://github.com/mtap-research/PACMAN-charge/)
data_PICDAJ_ASR_pacman
_symmetry_space_group_name_H-M   'P 1'
_cell_length_a   12.21270000
_cell_length_b   21.81400000
_cell_length_c   23.69340000
_cell_angle_alpha   90.00000000
_cell_angle_beta   90.00000000
_cell_angle_gamma   90.00000000
_symmetry_Int_Tables_number   1
_chemical_formula_structural   Zn2PH11C21O8
_chemical_formula_sum   'Zn16 P8 H88 C168 O64'
_cell_volume   6312.10746413
_cell_formula_units_Z   8
loop_
 _symmetry_equiv_pos_site_id
 _symmetry_equiv_pos_as_xyz
  1  'x, y, z'
loop_
 _atom_site_type_symbol
 _atom_site_label
 _atom_site_symmetry_multiplicity
 _atom_site_fract_x
 _atom_site_fract_y
 _atom_site_fract_z
 _atom_site_occupancy
 _atom_site_charge
Zn  Zn1  1  0.37391000  0.57945000  0.15729000  1.0 0.9489138827
Zn  Zn2  1  0.69772000  0.58647000  0.34257000  1.0 0.9489138827
Zn  Zn3  1  0.63277000  0.54711000  0.20483000  1.0 1.0236816809
Zn  Zn4  1  0.45816000  0.55703000  0.29292000  1.0 1.0013224587
Zn  Zn5  1  0.37391000  0.42055000  0.84271000  1.0 0.9445731149
Zn  Zn6  1  0.69772000  0.41353000  0.65743000  1.0 0.9489138827
Zn  Zn7  1  0.63277000  0.45289000  0.79517000  1.0 1.0236816809
Zn  Zn8  1  0.45816000  0.44297000  0.70708000  1.0 1.0013224587
Zn  Zn9  1  0.62609000  0.92055000  0.65729000  1.0 0.9489138827
Zn  Zn10  1  0.30228000  0.91353000  0.84257000  1.0 0.9489138827
Zn  Zn11  1  0.36723000  0.95289000  0.70483000  1.0 1.0236816809
Zn  Zn12  1  0.54184000  0.94297000  0.79292000  1.0 1.0013224587
Zn  Zn13  1  0.62609000  0.07945000  0.34271000  1.0 0.9489138827
Zn  Zn14  1  0.30228000  0.08647000  0.15743000  1.0 0.9489138827
Zn  Zn15  1  0.36723000  0.04711000  0.29517000  1.0 1.0236816809
Zn  Zn16  1  0.54184000  0.05703000  0.20708000  1.0 1.0013224587
P  P1  1  0.33884000  0.57323000  0.65763000  1.0 0.7324363893
P  P2  1  0.73848000  0.58506000  0.84415000  1.0 0.8486885384
P  P3  1  0.33884000  0.42677000  0.34237000  1.0 0.7324363893
P  P4  1  0.73848000  0.41494000  0.15585000  1.0 0.8486885384
P  P5  1  0.66116000  0.92677000  0.15763000  1.0 0.7350730405
P  P6  1  0.26152000  0.91494000  0.34415000  1.0 0.8486885384
P  P7  1  0.66116000  0.07323000  0.84237000  1.0 0.7324363893
P  P8  1  0.26152000  0.08506000  0.65585000  1.0 0.8486885384
H  H1  1  0.45690000  0.49700000  0.20300000  1.0 0.3844539255
H  H2  1  0.62910000  0.49800000  0.29790000  1.0 0.3933611617
H  H3  1  0.31310000  0.58490000  0.45440000  1.0 0.129182813
H  H4  1  0.23710000  0.58470000  0.54470000  1.0 0.1123173431
H  H5  1  0.54630000  0.57130000  0.60670000  1.0 0.129182813
H  H6  1  0.13080000  0.63620000  0.67220000  1.0 0.1013663292
H  H7  1  0.94460000  0.60700000  0.66300000  1.0 0.1214541361
H  H8  1  0.04240000  0.43540000  0.63780000  1.0 0.1483690843
H  H9  1  0.76460000  0.60000000  0.04600000  1.0 0.1214541361
H  H10  1  0.83460000  0.60310000  0.95450000  1.0 0.1123173431
H  H11  1  0.52800000  0.57100000  0.89500000  1.0 0.129182813
H  H12  1  0.46180000  0.56950000  0.98660000  1.0 0.129182813
H  H13  1  0.94470000  0.63690000  0.80290000  1.0 0.1214541361
H  H14  1  0.61250000  0.57570000  0.51630000  1.0 0.129182813
H  H15  1  0.12160000  0.60860000  0.80860000  1.0 0.1214541361
H  H16  1  0.86070000  0.49130000  0.89720000  1.0 0.1123173431
H  H17  1  0.77520000  0.70830000  0.88390000  1.0 0.1123173431
H  H18  1  0.74370000  0.80620000  0.84590000  1.0 0.129182813
H  H19  1  0.68050000  0.63040000  0.73890000  1.0 0.129182813
H  H20  1  0.64790000  0.72850000  0.70060000  1.0 0.1214541361
H  H21  1  0.04220000  0.45850000  0.89410000  1.0 0.129182813
H  H22  1  0.26750000  0.56510000  0.65440000  1.0 0.1123173431
H  H23  1  0.45690000  0.50300000  0.79700000  1.0 0.3844539255
H  H24  1  0.62910000  0.50200000  0.70210000  1.0 0.3933611617
H  H25  1  0.31310000  0.41510000  0.54560000  1.0 0.129182813
H  H26  1  0.23710000  0.41530000  0.45530000  1.0 0.1123173431
H  H27  1  0.54630000  0.42870000  0.39330000  1.0 0.129182813
H  H28  1  0.13080000  0.36380000  0.32780000  1.0 0.1013663292
H  H29  1  0.94460000  0.39300000  0.33700000  1.0 0.1214541361
H  H30  1  0.04240000  0.56460000  0.36220000  1.0 0.1483690843
H  H31  1  0.76460000  0.40000000  0.95400000  1.0 0.1214541361
H  H32  1  0.83460000  0.39690000  0.04550000  1.0 0.1123173431
H  H33  1  0.52800000  0.42900000  0.10500000  1.0 0.129182813
H  H34  1  0.46180000  0.43050000  0.01340000  1.0 0.129182813
H  H35  1  0.94470000  0.36310000  0.19710000  1.0 0.1214541361
H  H36  1  0.61250000  0.42430000  0.48370000  1.0 0.129182813
H  H37  1  0.12160000  0.39140000  0.19140000  1.0 0.1214541361
H  H38  1  0.86070000  0.50870000  0.10280000  1.0 0.1123173431
H  H39  1  0.77520000  0.29170000  0.11610000  1.0 0.1123173431
H  H40  1  0.74370000  0.19380000  0.15410000  1.0 0.129182813
H  H41  1  0.68050000  0.36960000  0.26110000  1.0 0.129182813
H  H42  1  0.64790000  0.27150000  0.29940000  1.0 0.1214541361
H  H43  1  0.04220000  0.54150000  0.10590000  1.0 0.129182813
H  H44  1  0.26750000  0.43490000  0.34560000  1.0 0.1123173431
H  H45  1  0.54310000  0.00300000  0.70300000  1.0 0.3844539255
H  H46  1  0.37090000  0.00200000  0.79790000  1.0 0.3933611617
H  H47  1  0.68690000  0.91510000  0.95440000  1.0 0.129182813
H  H48  1  0.76290000  0.91530000  0.04470000  1.0 0.1123173431
H  H49  1  0.45370000  0.92870000  0.10670000  1.0 0.129182813
H  H50  1  0.86920000  0.86380000  0.17220000  1.0 0.1013663292
H  H51  1  0.05540000  0.89300000  0.16300000  1.0 0.1214541361
H  H52  1  0.95760000  0.06460000  0.13780000  1.0 0.1483690843
H  H53  1  0.23540000  0.90000000  0.54600000  1.0 0.1214541361
H  H54  1  0.16540000  0.89690000  0.45450000  1.0 0.1123173431
H  H55  1  0.47200000  0.92900000  0.39500000  1.0 0.129182813
H  H56  1  0.53820000  0.93050000  0.48660000  1.0 0.129182813
H  H57  1  0.05530000  0.86310000  0.30290000  1.0 0.1214541361
H  H58  1  0.38750000  0.92430000  0.01630000  1.0 0.129182813
H  H59  1  0.87840000  0.89140000  0.30860000  1.0 0.1214541361
H  H60  1  0.13930000  0.00870000  0.39720000  1.0 0.1123173431
H  H61  1  0.22480000  0.79170000  0.38390000  1.0 0.1123173431
H  H62  1  0.25630000  0.69380000  0.34590000  1.0 0.129182813
H  H63  1  0.31950000  0.86960000  0.23890000  1.0 0.129182813
H  H64  1  0.35210000  0.77150000  0.20060000  1.0 0.1214541361
H  H65  1  0.95780000  0.04150000  0.39410000  1.0 0.129182813
H  H66  1  0.73250000  0.93490000  0.15440000  1.0 0.1123173431
H  H67  1  0.54310000  0.99700000  0.29700000  1.0 0.3844539255
H  H68  1  0.37090000  0.99800000  0.20210000  1.0 0.3933611617
H  H69  1  0.68690000  0.08490000  0.04560000  1.0 0.129182813
H  H70  1  0.76290000  0.08470000  0.95530000  1.0 0.1123173431
H  H71  1  0.45370000  0.07130000  0.89330000  1.0 0.129182813
H  H72  1  0.86920000  0.13620000  0.82780000  1.0 0.1013663292
H  H73  1  0.05540000  0.10700000  0.83700000  1.0 0.1214541361
H  H74  1  0.95760000  0.93540000  0.86220000  1.0 0.1483690843
H  H75  1  0.23540000  0.10000000  0.45400000  1.0 0.1214541361
H  H76  1  0.16540000  0.10310000  0.54550000  1.0 0.1123173431
H  H77  1  0.47200000  0.07100000  0.60500000  1.0 0.129182813
H  H78  1  0.53820000  0.06950000  0.51340000  1.0 0.129182813
H  H79  1  0.05530000  0.13690000  0.69710000  1.0 0.1214541361
H  H80  1  0.38750000  0.07570000  0.98370000  1.0 0.129182813
H  H81  1  0.87840000  0.10860000  0.69140000  1.0 0.1214541361
H  H82  1  0.13930000  0.99130000  0.60280000  1.0 0.1123173431
H  H83  1  0.22480000  0.20830000  0.61610000  1.0 0.1123173431
H  H84  1  0.25630000  0.30620000  0.65410000  1.0 0.129182813
H  H85  1  0.31950000  0.13040000  0.76110000  1.0 0.129182813
H  H86  1  0.35210000  0.22850000  0.79940000  1.0 0.1214541361
H  H87  1  0.95780000  0.95850000  0.60590000  1.0 0.129182813
H  H88  1  0.73250000  0.06510000  0.84560000  1.0 0.1123173431
C  C1  1  0.51730000  0.58480000  0.41820000  1.0 0.6003305421
C  C2  1  0.46890000  0.58260000  0.47720000  1.0 -0.0188121292
C  C3  1  0.35910000  0.58340000  0.48570000  1.0 -0.0917578839
C  C4  1  0.31240000  0.58200000  0.53920000  1.0 -0.1063799422
C  C5  1  0.38870000  0.57600000  0.58630000  1.0 -0.1306323736
C  C6  1  0.49790000  0.57440000  0.57660000  1.0 -0.0827472114
C  C7  1  0.35150000  0.64780000  0.68820000  1.0 -0.1861414991
C  C8  1  0.19460000  0.55290000  0.65370000  1.0 -0.2004670023
C  C9  1  0.11260000  0.59600000  0.66320000  1.0 -0.0989250808
C  C10  1  0.00040000  0.57830000  0.65910000  1.0 -0.1063799422
C  C11  1  0.97680000  0.51680000  0.64890000  1.0 -0.0037459816
C  C12  1  0.05970000  0.47660000  0.64280000  1.0 -0.1359207972
C  C13  1  0.55950000  0.58540000  0.08350000  1.0 0.5900127471
C  C14  1  0.60640000  0.58760000  0.02510000  1.0 -0.0188121292
C  C15  1  0.71760000  0.59540000  0.01550000  1.0 -0.0917578839
C  C16  1  0.76040000  0.59630000  0.96070000  1.0 -0.1063799422
C  C17  1  0.69000000  0.58710000  0.91610000  1.0 -0.158166913
C  C18  1  0.57500000  0.57710000  0.92540000  1.0 -0.0710123738
C  C19  1  0.53570000  0.57690000  0.97990000  1.0 -0.0917578839
C  C20  1  0.88280000  0.56830000  0.84720000  1.0 -0.158166913
C  C21  1  0.96290000  0.60140000  0.82240000  1.0 -0.0827472114
C  C22  1  0.72710000  0.66070000  0.81580000  1.0 -0.1547620043
C  C23  1  0.38010000  0.82270000  0.76830000  1.0 0.608417894
C  C24  1  0.36940000  0.76110000  0.74130000  1.0 -0.0413627874
C  C25  1  0.38800000  0.75730000  0.68500000  1.0 0.0199334162
C  C26  1  0.86050000  0.49710000  0.64700000  1.0 0.5593753562
C  C27  1  0.53730000  0.57730000  0.52230000  1.0 -0.0917578839
C  C28  1  0.16910000  0.49310000  0.64350000  1.0 -0.0253183141
C  C29  1  0.33340000  0.65330000  0.74630000  1.0 0.0199334162
C  C30  1  0.37890000  0.69960000  0.65580000  1.0 0.0199334162
C  C31  1  0.34220000  0.71090000  0.77100000  1.0 0.0199334162
C  C32  1  0.06850000  0.58410000  0.82550000  1.0 -0.0917578839
C  C33  1  0.10070000  0.53140000  0.85280000  1.0 0.0012234705
C  C34  1  0.91310000  0.51380000  0.87770000  1.0 -0.0917578839
C  C35  1  0.74870000  0.71230000  0.84720000  1.0 -0.0917578839
C  C36  1  0.73090000  0.77140000  0.82420000  1.0 -0.0989250808
C  C37  1  0.69200000  0.66540000  0.76050000  1.0 -0.0710123738
C  C38  1  0.67380000  0.72460000  0.73730000  1.0 -0.0989250808
C  C39  1  0.02240000  0.49540000  0.87750000  1.0 -0.0989250808
C  C40  1  0.69470000  0.77680000  0.76960000  1.0 -0.0107891197
C  C41  1  0.67420000  0.84050000  0.74510000  1.0 0.5900127471
C  C42  1  0.22070000  0.51210000  0.85220000  1.0 0.5545562014
C  C43  1  0.51730000  0.41520000  0.58180000  1.0 0.6003305421
C  C44  1  0.46890000  0.41740000  0.52280000  1.0 -0.0188121292
C  C45  1  0.35910000  0.41660000  0.51430000  1.0 -0.0917578839
C  C46  1  0.31240000  0.41800000  0.46080000  1.0 -0.1063799422
C  C47  1  0.38870000  0.42400000  0.41370000  1.0 -0.1306323736
C  C48  1  0.49790000  0.42560000  0.42340000  1.0 -0.0827472114
C  C49  1  0.35150000  0.35220000  0.31180000  1.0 -0.1861414991
C  C50  1  0.19460000  0.44710000  0.34630000  1.0 -0.2004670023
C  C51  1  0.11260000  0.40400000  0.33680000  1.0 -0.0989250808
C  C52  1  0.00040000  0.42170000  0.34090000  1.0 -0.0989250808
C  C53  1  0.97680000  0.48320000  0.35110000  1.0 -0.0037459816
C  C54  1  0.05970000  0.52340000  0.35720000  1.0 -0.1359207972
C  C55  1  0.55950000  0.41460000  0.91650000  1.0 0.5900127471
C  C56  1  0.60640000  0.41240000  0.97490000  1.0 -0.0188121292
C  C57  1  0.71760000  0.40460000  0.98450000  1.0 -0.0989250808
C  C58  1  0.76040000  0.40370000  0.03930000  1.0 -0.1063799422
C  C59  1  0.69000000  0.41290000  0.08390000  1.0 -0.158166913
C  C60  1  0.57500000  0.42290000  0.07460000  1.0 -0.0710123738
C  C61  1  0.53570000  0.42310000  0.02010000  1.0 -0.0917578839
C  C62  1  0.88280000  0.43170000  0.15280000  1.0 -0.158166913
C  C63  1  0.96290000  0.39860000  0.17760000  1.0 -0.0827472114
C  C64  1  0.72710000  0.33930000  0.18420000  1.0 -0.158166913
C  C65  1  0.38010000  0.17730000  0.23170000  1.0 0.608417894
C  C66  1  0.36940000  0.23890000  0.25870000  1.0 -0.0413627874
C  C67  1  0.38800000  0.24270000  0.31500000  1.0 0.0199334162
C  C68  1  0.86050000  0.50290000  0.35300000  1.0 0.5593753562
C  C69  1  0.53730000  0.42270000  0.47770000  1.0 -0.0917578839
C  C70  1  0.16910000  0.50690000  0.35650000  1.0 -0.0188121292
C  C71  1  0.33340000  0.34670000  0.25370000  1.0 0.0199334162
C  C72  1  0.37890000  0.30040000  0.34420000  1.0 0.0199334162
C  C73  1  0.34220000  0.28910000  0.22900000  1.0 0.0199334162
C  C74  1  0.06850000  0.41590000  0.17450000  1.0 -0.0917578839
C  C75  1  0.10070000  0.46860000  0.14720000  1.0 0.0012234705
C  C76  1  0.91310000  0.48620000  0.12230000  1.0 -0.0917578839
C  C77  1  0.74870000  0.28770000  0.15280000  1.0 -0.0917578839
C  C78  1  0.73090000  0.22860000  0.17580000  1.0 -0.0989250808
C  C79  1  0.69200000  0.33460000  0.23950000  1.0 -0.0710123738
C  C80  1  0.67380000  0.27540000  0.26270000  1.0 -0.0989250808
C  C81  1  0.02240000  0.50460000  0.12250000  1.0 -0.0989250808
C  C82  1  0.69470000  0.22320000  0.23040000  1.0 -0.0107891197
C  C83  1  0.67420000  0.15950000  0.25490000  1.0 0.5900127471
C  C84  1  0.22070000  0.48790000  0.14780000  1.0 0.5545562014
C  C85  1  0.48270000  0.91520000  0.91820000  1.0 0.6003305421
C  C86  1  0.53110000  0.91740000  0.97720000  1.0 -0.0188121292
C  C87  1  0.64090000  0.91660000  0.98570000  1.0 -0.0917578839
C  C88  1  0.68760000  0.91800000  0.03920000  1.0 -0.1063799422
C  C89  1  0.61130000  0.92400000  0.08630000  1.0 -0.1306323736
C  C90  1  0.50210000  0.92560000  0.07660000  1.0 -0.0827472114
C  C91  1  0.64850000  0.85220000  0.18820000  1.0 -0.1861414991
C  C92  1  0.80540000  0.94710000  0.15370000  1.0 -0.2004670023
C  C93  1  0.88740000  0.90400000  0.16320000  1.0 -0.0989250808
C  C94  1  0.99960000  0.92170000  0.15910000  1.0 -0.0989250808
C  C95  1  0.02320000  0.98320000  0.14890000  1.0 -0.0037459816
C  C96  1  0.94030000  0.02340000  0.14280000  1.0 -0.1359207972
C  C97  1  0.44050000  0.91460000  0.58350000  1.0 0.5900127471
C  C98  1  0.39360000  0.91240000  0.52510000  1.0 -0.0188121292
C  C99  1  0.28240000  0.90460000  0.51550000  1.0 -0.0917578839
C  C100  1  0.23960000  0.90370000  0.46070000  1.0 -0.1063799422
C  C101  1  0.31000000  0.91290000  0.41610000  1.0 -0.158166913
C  C102  1  0.42500000  0.92290000  0.42540000  1.0 -0.0710123738
C  C103  1  0.46430000  0.92310000  0.47990000  1.0 -0.0917578839
C  C104  1  0.11720000  0.93170000  0.34720000  1.0 -0.158166913
C  C105  1  0.03710000  0.89860000  0.32240000  1.0 -0.0827472114
C  C106  1  0.27290000  0.83930000  0.31580000  1.0 -0.1547620043
C  C107  1  0.61990000  0.67730000  0.26830000  1.0 0.608417894
C  C108  1  0.63060000  0.73890000  0.24130000  1.0 -0.0413627874
C  C109  1  0.61200000  0.74270000  0.18500000  1.0 0.0199334162
C  C110  1  0.13950000  0.00290000  0.14700000  1.0 0.5593753562
C  C111  1  0.46270000  0.92270000  0.02230000  1.0 -0.0917578839
C  C112  1  0.83090000  0.00690000  0.14350000  1.0 -0.0188121292
C  C113  1  0.66666667  0.84670000  0.24630000  1.0 0.0199334162
C  C114  1  0.62110000  0.80040000  0.15580000  1.0 0.0199334162
C  C115  1  0.65780000  0.78910000  0.27100000  1.0 0.0199334162
C  C116  1  0.93150000  0.91590000  0.32550000  1.0 -0.0917578839
C  C117  1  0.89930000  0.96860000  0.35280000  1.0 0.0012234705
C  C118  1  0.08690000  0.98620000  0.37770000  1.0 -0.0917578839
C  C119  1  0.25130000  0.78770000  0.34720000  1.0 -0.0917578839
C  C120  1  0.26910000  0.72860000  0.32420000  1.0 -0.0989250808
C  C121  1  0.30800000  0.83460000  0.26050000  1.0 -0.0710123738
C  C122  1  0.32620000  0.77540000  0.23730000  1.0 -0.0989250808
C  C123  1  0.97760000  0.00460000  0.37750000  1.0 -0.0989250808
C  C124  1  0.30530000  0.72320000  0.26960000  1.0 -0.0107891197
C  C125  1  0.32580000  0.65950000  0.24510000  1.0 0.5900127471
C  C126  1  0.77930000  0.98790000  0.35220000  1.0 0.5545562014
C  C127  1  0.48270000  0.08480000  0.08180000  1.0 0.6003305421
C  C128  1  0.53110000  0.08260000  0.02280000  1.0 -0.0188121292
C  C129  1  0.64090000  0.08340000  0.01430000  1.0 -0.0917578839
C  C130  1  0.68760000  0.08200000  0.96080000  1.0 -0.1063799422
C  C131  1  0.61130000  0.07600000  0.91370000  1.0 -0.1306323736
C  C132  1  0.50210000  0.07440000  0.92340000  1.0 -0.0827472114
C  C133  1  0.64850000  0.14780000  0.81180000  1.0 -0.1861414991
C  C134  1  0.80540000  0.05290000  0.84630000  1.0 -0.2004670023
C  C135  1  0.88740000  0.09600000  0.83680000  1.0 -0.0917578839
C  C136  1  0.99960000  0.07830000  0.84090000  1.0 -0.0989250808
C  C137  1  0.02320000  0.01680000  0.85110000  1.0 -0.0107891197
C  C138  1  0.94030000  0.97660000  0.85720000  1.0 -0.1306323736
C  C139  1  0.44050000  0.08540000  0.41650000  1.0 0.5900127471
C  C140  1  0.39360000  0.08760000  0.47490000  1.0 -0.0188121292
C  C141  1  0.28240000  0.09540000  0.48450000  1.0 -0.0917578839
C  C142  1  0.23960000  0.09630000  0.53930000  1.0 -0.1063799422
C  C143  1  0.31000000  0.08710000  0.58390000  1.0 -0.158166913
C  C144  1  0.42500000  0.07710000  0.57460000  1.0 -0.0710123738
C  C145  1  0.46430000  0.07690000  0.52010000  1.0 -0.0917578839
C  C146  1  0.11720000  0.06830000  0.65280000  1.0 -0.158166913
C  C147  1  0.03710000  0.10140000  0.67760000  1.0 -0.0827472114
C  C148  1  0.27290000  0.16070000  0.68420000  1.0 -0.1547620043
C  C149  1  0.61990000  0.32270000  0.73170000  1.0 0.608417894
C  C150  1  0.63060000  0.26110000  0.75870000  1.0 -0.0413627874
C  C151  1  0.61200000  0.25730000  0.81500000  1.0 0.0199334162
C  C152  1  0.13950000  0.99710000  0.85300000  1.0 0.5593753562
C  C153  1  0.46270000  0.07730000  0.97770000  1.0 -0.0917578839
C  C154  1  0.83090000  0.99310000  0.85650000  1.0 -0.0253183141
C  C155  1  0.66666667  0.15330000  0.75370000  1.0 0.0199334162
C  C156  1  0.62110000  0.19960000  0.84420000  1.0 0.0199334162
C  C157  1  0.65780000  0.21090000  0.72900000  1.0 0.0199334162
C  C158  1  0.93150000  0.08410000  0.67450000  1.0 -0.0917578839
C  C159  1  0.89930000  0.03140000  0.64720000  1.0 0.0012234705
C  C160  1  0.08690000  0.01380000  0.62230000  1.0 -0.0917578839
C  C161  1  0.25130000  0.21230000  0.65280000  1.0 -0.0989250808
C  C162  1  0.26910000  0.27140000  0.67580000  1.0 -0.0917578839
C  C163  1  0.30800000  0.16540000  0.73950000  1.0 -0.0710123738
C  C164  1  0.32620000  0.22460000  0.76270000  1.0 -0.0989250808
C  C165  1  0.97760000  0.99540000  0.62250000  1.0 -0.0989250808
C  C166  1  0.30530000  0.27680000  0.73040000  1.0 -0.0107891197
C  C167  1  0.32580000  0.34050000  0.75490000  1.0 0.5900127471
C  C168  1  0.77930000  0.01210000  0.64780000  1.0 0.5545562014
O  O1  1  0.46870000  0.53080000  0.20650000  1.0 -0.8031720712
O  O2  1  0.62090000  0.53210000  0.29040000  1.0 -0.8296872272
O  O3  1  0.44910000  0.58260000  0.37650000  1.0 -0.5817371502
O  O4  1  0.61880000  0.58510000  0.41370000  1.0 -0.5404049004
O  O5  1  0.45910000  0.59160000  0.08850000  1.0 -0.522668232
O  O6  1  0.62710000  0.57890000  0.12260000  1.0 -0.572558996
O  O7  1  0.84700000  0.43670000  0.64610000  1.0 -0.572558996
O  O8  1  0.78660000  0.53520000  0.64950000  1.0 -0.5279895644
O  O9  1  0.43490000  0.86160000  0.74680000  1.0 -0.5404049004
O  O10  1  0.32010000  0.82950000  0.81360000  1.0 -0.5477876111
O  O11  1  0.66490000  0.84130000  0.69170000  1.0 -0.5404049004
O  O12  1  0.66830000  0.88390000  0.77760000  1.0 -0.5279895644
O  O13  1  0.40040000  0.52830000  0.69190000  1.0 -0.5860901371
O  O14  1  0.23200000  0.45470000  0.86410000  1.0 -0.5477876111
O  O15  1  0.29210000  0.54710000  0.84190000  1.0 -0.504401882
O  O16  1  0.67240000  0.54120000  0.80970000  1.0 -0.6717129096
O  O17  1  0.46870000  0.46920000  0.79350000  1.0 -0.8031720712
O  O18  1  0.62090000  0.46790000  0.70960000  1.0 -0.8296872272
O  O19  1  0.44910000  0.41740000  0.62350000  1.0 -0.5817371502
O  O20  1  0.61880000  0.41490000  0.58630000  1.0 -0.5404049004
O  O21  1  0.45910000  0.40840000  0.91150000  1.0 -0.522668232
O  O22  1  0.62710000  0.42110000  0.87740000  1.0 -0.572558996
O  O23  1  0.84700000  0.56330000  0.35390000  1.0 -0.572558996
O  O24  1  0.78660000  0.46480000  0.35050000  1.0 -0.5279895644
O  O25  1  0.43490000  0.13840000  0.25320000  1.0 -0.5404049004
O  O26  1  0.32010000  0.17050000  0.18640000  1.0 -0.5477876111
O  O27  1  0.66490000  0.15870000  0.30830000  1.0 -0.5404049004
O  O28  1  0.66830000  0.11610000  0.22240000  1.0 -0.5279895644
O  O29  1  0.40040000  0.47170000  0.30810000  1.0 -0.5860901371
O  O30  1  0.23200000  0.54530000  0.13590000  1.0 -0.5477876111
O  O31  1  0.29210000  0.45290000  0.15810000  1.0 -0.504401882
O  O32  1  0.67240000  0.45880000  0.19030000  1.0 -0.6717129096
O  O33  1  0.53130000  0.96920000  0.70650000  1.0 -0.8031720712
O  O34  1  0.37910000  0.96790000  0.79040000  1.0 -0.8296872272
O  O35  1  0.55090000  0.91740000  0.87650000  1.0 -0.5817371502
O  O36  1  0.38120000  0.91490000  0.91370000  1.0 -0.5404049004
O  O37  1  0.54090000  0.90840000  0.58850000  1.0 -0.522668232
O  O38  1  0.37290000  0.92110000  0.62260000  1.0 -0.572558996
O  O39  1  0.15300000  0.06330000  0.14610000  1.0 -0.572558996
O  O40  1  0.21340000  0.96480000  0.14950000  1.0 -0.522668232
O  O41  1  0.56510000  0.63840000  0.24680000  1.0 -0.5404049004
O  O42  1  0.67990000  0.67050000  0.31360000  1.0 -0.5477876111
O  O43  1  0.33510000  0.65870000  0.19170000  1.0 -0.5404049004
O  O44  1  0.33170000  0.61610000  0.27760000  1.0 -0.5279895644
O  O45  1  0.59960000  0.97170000  0.19190000  1.0 -0.5860901371
O  O46  1  0.76800000  0.04530000  0.36410000  1.0 -0.5477876111
O  O47  1  0.70790000  0.95290000  0.34190000  1.0 -0.5060606196
O  O48  1  0.32760000  0.95880000  0.30970000  1.0 -0.6717129096
O  O49  1  0.53130000  0.03080000  0.29350000  1.0 -0.8031720712
O  O50  1  0.37910000  0.03210000  0.20960000  1.0 -0.8296872272
O  O51  1  0.55090000  0.08260000  0.12350000  1.0 -0.5817371502
O  O52  1  0.38120000  0.08510000  0.08630000  1.0 -0.5404049004
O  O53  1  0.54090000  0.09160000  0.41150000  1.0 -0.522668232
O  O54  1  0.37290000  0.07890000  0.37740000  1.0 -0.572558996
O  O55  1  0.15300000  0.93670000  0.85390000  1.0 -0.572558996
O  O56  1  0.21340000  0.03520000  0.85050000  1.0 -0.5279895644
O  O57  1  0.56510000  0.36160000  0.75320000  1.0 -0.5404049004
O  O58  1  0.67990000  0.32950000  0.68640000  1.0 -0.5477876111
O  O59  1  0.33510000  0.34130000  0.80830000  1.0 -0.5404049004
O  O60  1  0.33170000  0.38390000  0.72240000  1.0 -0.5279895644
O  O61  1  0.59960000  0.02830000  0.80810000  1.0 -0.5860901371
O  O62  1  0.76800000  0.95470000  0.63590000  1.0 -0.5477876111
O  O63  1  0.70790000  0.04710000  0.65810000  1.0 -0.5060606196
O  O64  1  0.32760000  0.04120000  0.69030000  1.0 -0.6717129096
