# DDEC6 charges by PACMAN v1.1 (https://github.com/mtap-research/PACMAN-charge/)
data_PIDNIB_FSR_pacman
_symmetry_space_group_name_H-M   'P 1'
_cell_length_a   21.28000000
_cell_length_b   20.57380000
_cell_length_c   20.57370000
_cell_angle_alpha   62.28430000
_cell_angle_beta   58.85830000
_cell_angle_gamma   58.85740000
_symmetry_Int_Tables_number   1
_chemical_formula_structural   ZnC30N4O9
_chemical_formula_sum   'Zn8 C240 N32 O72'
_cell_volume   6353.63219887
_cell_formula_units_Z   8
loop_
 _symmetry_equiv_pos_site_id
 _symmetry_equiv_pos_as_xyz
  1  'x, y, z'
loop_
 _atom_site_type_symbol
 _atom_site_label
 _atom_site_symmetry_multiplicity
 _atom_site_fract_x
 _atom_site_fract_y
 _atom_site_fract_z
 _atom_site_occupancy
 _atom_site_charge
Zn  Zn1  1  0.30270000  0.30270000  0.69730000  1.0 0.790390928
Zn  Zn2  1  0.69730000  0.69730000  0.30270000  1.0 0.790390928
Zn  Zn3  1  0.19800000  0.19800000  0.80200000  1.0 0.5192838803
Zn  Zn4  1  0.80200000  0.80200000  0.19800000  1.0 0.5192838803
Zn  Zn5  1  0.05223000  0.05223000  0.44777000  1.0 0.8903764381
Zn  Zn6  1  0.44777000  0.44777000  0.05223000  1.0 0.8903764381
Zn  Zn7  1  0.94777000  0.94777000  0.55223000  1.0 0.8903764381
Zn  Zn8  1  0.55223000  0.55223000  0.94777000  1.0 0.8903764381
C  C1  1  0.18190000  0.31530000  0.65010000  1.0 0.2554092228
C  C2  1  0.31530000  0.18190000  0.85270000  1.0 0.2554092228
C  C3  1  0.65010000  0.85270000  0.18190000  1.0 0.2554092228
C  C4  1  0.85270000  0.65010000  0.31530000  1.0 0.2554092228
C  C5  1  0.81810000  0.68470000  0.34990000  1.0 0.2554092228
C  C6  1  0.68470000  0.81810000  0.14730000  1.0 0.2554092228
C  C7  1  0.34990000  0.14730000  0.81810000  1.0 0.2554092228
C  C8  1  0.14730000  0.34990000  0.68470000  1.0 0.2554092228
C  C9  1  0.14300000  0.35900000  0.59460000  1.0 0.0185811322
C  C10  1  0.35900000  0.14300000  0.90340000  1.0 0.0185811322
C  C11  1  0.59460000  0.90340000  0.14300000  1.0 0.0185811322
C  C12  1  0.90340000  0.59460000  0.35900000  1.0 0.0185811322
C  C13  1  0.85700000  0.64100000  0.40540000  1.0 0.0185811322
C  C14  1  0.64100000  0.85700000  0.09660000  1.0 0.0185811322
C  C15  1  0.40540000  0.09660000  0.85700000  1.0 0.0185811322
C  C16  1  0.09660000  0.40540000  0.64100000  1.0 0.0185811322
C  C17  1  0.32010000  0.18470000  0.64850000  1.0 0.2554092228
C  C18  1  0.18470000  0.32010000  0.84670000  1.0 0.2554092228
C  C19  1  0.64850000  0.84670000  0.32010000  1.0 0.2554092228
C  C20  1  0.84670000  0.64850000  0.18470000  1.0 0.2554092228
C  C21  1  0.67990000  0.81530000  0.35150000  1.0 0.2554092228
C  C22  1  0.81530000  0.67990000  0.15330000  1.0 0.2554092228
C  C23  1  0.35150000  0.15330000  0.67990000  1.0 0.2554092228
C  C24  1  0.15330000  0.35150000  0.81530000  1.0 0.2554092228
C  C25  1  0.36540000  0.13680000  0.59300000  1.0 -0.0332361261
C  C26  1  0.13680000  0.36540000  0.90480000  1.0 -0.0332361261
C  C27  1  0.59300000  0.90480000  0.36540000  1.0 -0.0332361261
C  C28  1  0.90480000  0.59300000  0.13680000  1.0 -0.0332361261
C  C29  1  0.63460000  0.86320000  0.40700000  1.0 -0.0332361261
C  C30  1  0.86320000  0.63460000  0.09520000  1.0 -0.0332361261
C  C31  1  0.40700000  0.09520000  0.63460000  1.0 -0.0332361261
C  C32  1  0.09520000  0.40700000  0.86320000  1.0 -0.0332361261
C  C33  1  0.12870000  0.44350000  0.55650000  1.0 0.0284191388
C  C34  1  0.44350000  0.12870000  0.87130000  1.0 0.0284191388
C  C35  1  0.55650000  0.87130000  0.12870000  1.0 0.0284191388
C  C36  1  0.87130000  0.55650000  0.44350000  1.0 0.0284191388
C  C37  1  0.05540000  0.44700000  0.48580000  1.0 0.0185811322
C  C38  1  0.44700000  0.05540000  0.01180000  1.0 0.0185811322
C  C39  1  0.48580000  0.01180000  0.05540000  1.0 0.0185811322
C  C40  1  0.01180000  0.48580000  0.44700000  1.0 0.0185811322
C  C41  1  0.94460000  0.55300000  0.51420000  1.0 0.0185811322
C  C42  1  0.55300000  0.94460000  0.98820000  1.0 0.0185811322
C  C43  1  0.51420000  0.98820000  0.94460000  1.0 0.0185811322
C  C44  1  0.98820000  0.51420000  0.55300000  1.0 0.0185811322
C  C45  1  0.08570000  0.49090000  0.50910000  1.0 0.0480585308
C  C46  1  0.49090000  0.08570000  0.91430000  1.0 0.0480585308
C  C47  1  0.50910000  0.91430000  0.08570000  1.0 0.0480585308
C  C48  1  0.91430000  0.50910000  0.49090000  1.0 0.0480585308
C  C49  1  0.07130000  0.36290000  0.53170000  1.0 0.0906726399
C  C50  1  0.36290000  0.07130000  0.03410000  1.0 0.0906726399
C  C51  1  0.53170000  0.03410000  0.07130000  1.0 0.0906726399
C  C52  1  0.03410000  0.53170000  0.36290000  1.0 0.0906726399
C  C53  1  0.92870000  0.63710000  0.46830000  1.0 0.0906726399
C  C54  1  0.63710000  0.92870000  0.96590000  1.0 0.0906726399
C  C55  1  0.46830000  0.96590000  0.92870000  1.0 0.0906726399
C  C56  1  0.96590000  0.46830000  0.63710000  1.0 0.0906726399
C  C57  1  0.47330000  0.47330000  0.52670000  1.0 0.1519620016
C  C58  1  0.52670000  0.52670000  0.47330000  1.0 0.1519620016
C  C59  1  0.40850000  0.48930000  0.59150000  1.0 -0.0949445024
C  C60  1  0.48930000  0.40850000  0.51070000  1.0 -0.0949445024
C  C61  1  0.59150000  0.51070000  0.40850000  1.0 -0.0949445024
C  C62  1  0.51070000  0.59150000  0.48930000  1.0 -0.0956092432
C  C63  1  0.44620000  0.12880000  0.55380000  1.0 0.0185811322
C  C64  1  0.12880000  0.44620000  0.87120000  1.0 0.0185811322
C  C65  1  0.55380000  0.87120000  0.44620000  1.0 0.0185811322
C  C66  1  0.87120000  0.55380000  0.12880000  1.0 0.0185811322
C  C67  1  0.32340000  0.10540000  0.58860000  1.0 -0.1981456958
C  C68  1  0.10540000  0.32340000  0.98260000  1.0 -0.1981456958
C  C69  1  0.58860000  0.98260000  0.32340000  1.0 -0.1981456958
C  C70  1  0.98260000  0.58860000  0.10540000  1.0 -0.1981456958
C  C71  1  0.67660000  0.89460000  0.41140000  1.0 -0.1981456958
C  C72  1  0.89460000  0.67660000  0.01740000  1.0 -0.1981456958
C  C73  1  0.41140000  0.01740000  0.67660000  1.0 -0.1981456958
C  C74  1  0.01740000  0.41140000  0.89460000  1.0 -0.1981456958
C  C75  1  0.49070000  0.07990000  0.50930000  1.0 -0.0095095528
C  C76  1  0.07990000  0.49070000  0.92010000  1.0 -0.0095095528
C  C77  1  0.50930000  0.92010000  0.49070000  1.0 -0.0095095528
C  C78  1  0.92010000  0.50930000  0.07990000  1.0 -0.0095095528
C  C79  1  0.36170000  0.43550000  0.63830000  1.0 0.2471718088
C  C80  1  0.43550000  0.36170000  0.56450000  1.0 0.2471718088
C  C81  1  0.63830000  0.56450000  0.36170000  1.0 0.2471718088
C  C82  1  0.56450000  0.63830000  0.43550000  1.0 0.2471718088
C  C83  1  0.36490000  0.06630000  0.53770000  1.0 0.1055474065
C  C84  1  0.06630000  0.36490000  0.03110000  1.0 0.1055474065
C  C85  1  0.53770000  0.03110000  0.36490000  1.0 0.1055474065
C  C86  1  0.03110000  0.53770000  0.06630000  1.0 0.1055474065
C  C87  1  0.63510000  0.93370000  0.46230000  1.0 0.1055474065
C  C88  1  0.93370000  0.63510000  0.96890000  1.0 0.1055474065
C  C89  1  0.46230000  0.96890000  0.63510000  1.0 0.1055474065
C  C90  1  0.96890000  0.46230000  0.93370000  1.0 0.1055474065
C  C91  1  0.44260000  0.06140000  0.49600000  1.0 0.0091707601
C  C92  1  0.06140000  0.44260000  0.00000000  1.0 0.0091707601
C  C93  1  0.49600000  0.00000000  0.44260000  1.0 0.0091707601
C  C94  1  0.00000000  0.49600000  0.06140000  1.0 0.0091707601
C  C95  1  0.55740000  0.93860000  0.50400000  1.0 0.0091707601
C  C96  1  0.93860000  0.55740000  0.00000000  1.0 0.0091707601
C  C97  1  0.50400000  0.00000000  0.55740000  1.0 0.0091707601
C  C98  1  0.00000000  0.50400000  0.93860000  1.0 0.0091707601
C  C99  1  0.11220000  0.31740000  0.58340000  1.0 -0.2066749029
C  C100  1  0.31740000  0.11220000  0.98700000  1.0 -0.2066749029
C  C101  1  0.58340000  0.98700000  0.11220000  1.0 -0.2066749029
C  C102  1  0.98700000  0.58340000  0.31740000  1.0 -0.2066749029
C  C103  1  0.88780000  0.68260000  0.41660000  1.0 -0.2066749029
C  C104  1  0.68260000  0.88780000  0.01300000  1.0 -0.2066749029
C  C105  1  0.41660000  0.01300000  0.88780000  1.0 -0.2066749029
C  C106  1  0.01300000  0.41660000  0.68260000  1.0 -0.2066749029
C  C107  1  0.06600000  0.13700000  0.86300000  1.0 0.2122915804
C  C108  1  0.13700000  0.06600000  0.93400000  1.0 0.2122915804
C  C109  1  0.86300000  0.93400000  0.06600000  1.0 0.2122915804
C  C110  1  0.93400000  0.86300000  0.13700000  1.0 0.2122915804
C  C111  1  0.02680000  0.02680000  0.97320000  1.0 0.1831377342
C  C112  1  0.97320000  0.97320000  0.02680000  1.0 0.1831377342
C  C113  1  0.01660000  0.09140000  0.90860000  1.0 -0.1413502873
C  C114  1  0.09140000  0.01660000  0.98340000  1.0 -0.1413502873
C  C115  1  0.90860000  0.98340000  0.01660000  1.0 -0.1413502873
C  C116  1  0.98340000  0.90860000  0.09140000  1.0 -0.1413502873
C  C117  1  0.92980000  0.07020000  0.59580000  1.0 0.6342562631
C  C118  1  0.07020000  0.92980000  0.40420000  1.0 0.6342562631
C  C119  1  0.59580000  0.40420000  0.92980000  1.0 0.6342562631
C  C120  1  0.40420000  0.59580000  0.07020000  1.0 0.6342562631
C  C121  1  0.15490000  0.84510000  0.61190000  1.0 0.0185811322
C  C122  1  0.84510000  0.15490000  0.38810000  1.0 0.0185811322
C  C123  1  0.61190000  0.38810000  0.15490000  1.0 0.0185811322
C  C124  1  0.38810000  0.61190000  0.84510000  1.0 0.0185811322
C  C125  1  0.88460000  0.11540000  0.65440000  1.0 -0.003208222
C  C126  1  0.11540000  0.88460000  0.34560000  1.0 -0.003208222
C  C127  1  0.65440000  0.34560000  0.88460000  1.0 -0.003208222
C  C128  1  0.34560000  0.65440000  0.11540000  1.0 -0.003208222
C  C129  1  0.09760000  0.90240000  0.56920000  1.0 0.6240378514
C  C130  1  0.90240000  0.09760000  0.43080000  1.0 0.6240378514
C  C131  1  0.56920000  0.43080000  0.09760000  1.0 0.6240378514
C  C132  1  0.43080000  0.56920000  0.90240000  1.0 0.6240378514
C  C133  1  0.25980000  0.74020000  0.69200000  1.0 0.0091707601
C  C134  1  0.74020000  0.25980000  0.30800000  1.0 0.0091707601
C  C135  1  0.69200000  0.30800000  0.25980000  1.0 0.0091707601
C  C136  1  0.30800000  0.69200000  0.74020000  1.0 0.0091707601
C  C137  1  0.22230000  0.22230000  0.27770000  1.0 0.0670242404
C  C138  1  0.27770000  0.27770000  0.22230000  1.0 0.0670242404
C  C139  1  0.77770000  0.77770000  0.72230000  1.0 0.0670242404
C  C140  1  0.72230000  0.72230000  0.77770000  1.0 0.0670242404
C  C141  1  0.80410000  0.19590000  0.75390000  1.0 0.0480585308
C  C142  1  0.19590000  0.80410000  0.24610000  1.0 0.0480585308
C  C143  1  0.75390000  0.24610000  0.80410000  1.0 0.0480585308
C  C144  1  0.24610000  0.75390000  0.19590000  1.0 0.0480585308
C  C145  1  0.15930000  0.77010000  0.64790000  1.0 -0.003208222
C  C146  1  0.77010000  0.15930000  0.42270000  1.0 -0.003208222
C  C147  1  0.64790000  0.42270000  0.15930000  1.0 -0.003208222
C  C148  1  0.42270000  0.64790000  0.77010000  1.0 -0.003208222
C  C149  1  0.84070000  0.22990000  0.35210000  1.0 -0.003208222
C  C150  1  0.22990000  0.84070000  0.57730000  1.0 -0.003208222
C  C151  1  0.35210000  0.57730000  0.84070000  1.0 -0.003208222
C  C152  1  0.57730000  0.35210000  0.22990000  1.0 -0.003208222
C  C153  1  0.21470000  0.71590000  0.68290000  1.0 0.0670242404
C  C154  1  0.71590000  0.21470000  0.38650000  1.0 0.0670242404
C  C155  1  0.68290000  0.38650000  0.21470000  1.0 0.0670242404
C  C156  1  0.38650000  0.68290000  0.71590000  1.0 0.0670242404
C  C157  1  0.78530000  0.28410000  0.31710000  1.0 0.0670242404
C  C158  1  0.28410000  0.78530000  0.61350000  1.0 0.0670242404
C  C159  1  0.31710000  0.61350000  0.78530000  1.0 0.0670242404
C  C160  1  0.61350000  0.31710000  0.28410000  1.0 0.0670242404
C  C161  1  0.17730000  0.12170000  0.31110000  1.0 0.0906726399
C  C162  1  0.12170000  0.17730000  0.38990000  1.0 0.0906726399
C  C163  1  0.31110000  0.38990000  0.17730000  1.0 0.0906726399
C  C164  1  0.38990000  0.31110000  0.12170000  1.0 0.0906726399
C  C165  1  0.82270000  0.87830000  0.68890000  1.0 0.0906726399
C  C166  1  0.87830000  0.82270000  0.61010000  1.0 0.0906726399
C  C167  1  0.68890000  0.61010000  0.82270000  1.0 0.0906726399
C  C168  1  0.61010000  0.68890000  0.87830000  1.0 0.0906726399
C  C169  1  0.23710000  0.15970000  0.25810000  1.0 -0.0778826114
C  C170  1  0.15970000  0.23710000  0.34510000  1.0 -0.0778826114
C  C171  1  0.25810000  0.34510000  0.23710000  1.0 -0.0778826114
C  C172  1  0.34510000  0.25810000  0.15970000  1.0 -0.0778826114
C  C173  1  0.76290000  0.84030000  0.74190000  1.0 -0.0778826114
C  C174  1  0.84030000  0.76290000  0.65490000  1.0 -0.0778826114
C  C175  1  0.74190000  0.65490000  0.76290000  1.0 -0.0778826114
C  C176  1  0.65490000  0.74190000  0.84030000  1.0 -0.0778826114
C  C177  1  0.92770000  0.14310000  0.66170000  1.0 -0.0548936382
C  C178  1  0.14310000  0.92770000  0.26750000  1.0 -0.0548936382
C  C179  1  0.66170000  0.26750000  0.92770000  1.0 -0.0548936382
C  C180  1  0.26750000  0.66170000  0.14310000  1.0 -0.0548936382
C  C181  1  0.07230000  0.85690000  0.33830000  1.0 -0.0548936382
C  C182  1  0.85690000  0.07230000  0.73250000  1.0 -0.0548936382
C  C183  1  0.33830000  0.73250000  0.07230000  1.0 -0.0548936382
C  C184  1  0.73250000  0.33830000  0.85690000  1.0 -0.0548936382
C  C185  1  0.88320000  0.18880000  0.71020000  1.0 -0.0095095528
C  C186  1  0.18880000  0.88320000  0.21780000  1.0 -0.0095095528
C  C187  1  0.71020000  0.21780000  0.88320000  1.0 -0.0095095528
C  C188  1  0.21780000  0.71020000  0.18880000  1.0 -0.0095095528
C  C189  1  0.11680000  0.81120000  0.28980000  1.0 -0.0095095528
C  C190  1  0.81120000  0.11680000  0.78220000  1.0 -0.0095095528
C  C191  1  0.28980000  0.78220000  0.11680000  1.0 -0.0095095528
C  C192  1  0.78220000  0.28980000  0.81120000  1.0 -0.0095095528
C  C193  1  0.12150000  0.79850000  0.69070000  1.0 0.0480585308
C  C194  1  0.79850000  0.12150000  0.38930000  1.0 0.0480585308
C  C195  1  0.69070000  0.38930000  0.12150000  1.0 0.0480585308
C  C196  1  0.38930000  0.69070000  0.79850000  1.0 0.0480585308
C  C197  1  0.87850000  0.20150000  0.30930000  1.0 0.0480585308
C  C198  1  0.20150000  0.87850000  0.61070000  1.0 0.0480585308
C  C199  1  0.30930000  0.61070000  0.87850000  1.0 0.0480585308
C  C200  1  0.61070000  0.30930000  0.20150000  1.0 0.0480585308
C  C201  1  0.17950000  0.74450000  0.73090000  1.0 0.0091707601
C  C202  1  0.74450000  0.17950000  0.34510000  1.0 0.0091707601
C  C203  1  0.73090000  0.34510000  0.17950000  1.0 0.0091707601
C  C204  1  0.34510000  0.73090000  0.74450000  1.0 0.0091707601
C  C205  1  0.82050000  0.25550000  0.26910000  1.0 0.0091707601
C  C206  1  0.25550000  0.82050000  0.65490000  1.0 0.0091707601
C  C207  1  0.26910000  0.65490000  0.82050000  1.0 0.0091707601
C  C208  1  0.65490000  0.26910000  0.25550000  1.0 0.0091707601
C  C209  1  0.17370000  0.12070000  0.39330000  1.0 0.0416945338
C  C210  1  0.12070000  0.17370000  0.31230000  1.0 0.0416945338
C  C211  1  0.39330000  0.31230000  0.17370000  1.0 0.0416945338
C  C212  1  0.31230000  0.39330000  0.12070000  1.0 0.0416945338
C  C213  1  0.82630000  0.87930000  0.60670000  1.0 0.0416945338
C  C214  1  0.87930000  0.82630000  0.68770000  1.0 0.0416945338
C  C215  1  0.60670000  0.68770000  0.82630000  1.0 0.0416945338
C  C216  1  0.68770000  0.60670000  0.87930000  1.0 0.0416945338
C  C217  1  0.17910000  0.21650000  0.24670000  1.0 -0.0095095528
C  C218  1  0.21650000  0.17910000  0.35770000  1.0 -0.0095095528
C  C219  1  0.24670000  0.35770000  0.17910000  1.0 -0.0095095528
C  C220  1  0.35770000  0.24670000  0.21650000  1.0 -0.0095095528
C  C221  1  0.82090000  0.78350000  0.75330000  1.0 -0.0095095528
C  C222  1  0.78350000  0.82090000  0.64230000  1.0 -0.0095095528
C  C223  1  0.75330000  0.64230000  0.82090000  1.0 -0.0095095528
C  C224  1  0.64230000  0.75330000  0.78350000  1.0 -0.0095095528
C  C225  1  0.88620000  0.19200000  0.62520000  1.0 0.0284191388
C  C226  1  0.19200000  0.88620000  0.29660000  1.0 0.0284191388
C  C227  1  0.62520000  0.29660000  0.88620000  1.0 0.0284191388
C  C228  1  0.29660000  0.62520000  0.19200000  1.0 0.0284191388
C  C229  1  0.11380000  0.80800000  0.37480000  1.0 0.0284191388
C  C230  1  0.80800000  0.11380000  0.70340000  1.0 0.0284191388
C  C231  1  0.37480000  0.70340000  0.11380000  1.0 0.0284191388
C  C232  1  0.70340000  0.37480000  0.80800000  1.0 0.0284191388
C  C233  1  0.82990000  0.22950000  0.68550000  1.0 -0.0095095528
C  C234  1  0.22950000  0.82990000  0.25510000  1.0 -0.0095095528
C  C235  1  0.68550000  0.25510000  0.82990000  1.0 -0.0095095528
C  C236  1  0.25510000  0.68550000  0.22950000  1.0 -0.0095095528
C  C237  1  0.17010000  0.77050000  0.31450000  1.0 -0.0095095528
C  C238  1  0.77050000  0.17010000  0.74490000  1.0 -0.0095095528
C  C239  1  0.31450000  0.74490000  0.17010000  1.0 -0.0095095528
C  C240  1  0.74490000  0.31450000  0.77050000  1.0 -0.0095095528
N  N1  1  0.37530000  0.37530000  0.62470000  1.0 -0.2453685209
N  N2  1  0.62470000  0.62470000  0.37530000  1.0 -0.2441374764
N  N3  1  0.04790000  0.31070000  0.52150000  1.0 0.4810309604
N  N4  1  0.31070000  0.04790000  0.11990000  1.0 0.4810309604
N  N5  1  0.52150000  0.11990000  0.04790000  1.0 0.4810309604
N  N6  1  0.11990000  0.52150000  0.31070000  1.0 0.4810309604
N  N7  1  0.95210000  0.68930000  0.47850000  1.0 0.4810309604
N  N8  1  0.68930000  0.95210000  0.88010000  1.0 0.4810309604
N  N9  1  0.47850000  0.88010000  0.95210000  1.0 0.4810309604
N  N10  1  0.88010000  0.47850000  0.68930000  1.0 0.4810309604
N  N11  1  0.27600000  0.05600000  0.55800000  1.0 -0.111182105
N  N12  1  0.05600000  0.27600000  0.11000000  1.0 -0.111182105
N  N13  1  0.55800000  0.11000000  0.27600000  1.0 -0.111182105
N  N14  1  0.11000000  0.55800000  0.05600000  1.0 -0.111182105
N  N15  1  0.72400000  0.94400000  0.44200000  1.0 -0.111182105
N  N16  1  0.94400000  0.72400000  0.89000000  1.0 -0.111182105
N  N17  1  0.44200000  0.89000000  0.72400000  1.0 -0.111182105
N  N18  1  0.89000000  0.44200000  0.94400000  1.0 -0.111182105
N  N19  1  0.12550000  0.12550000  0.87450000  1.0 -0.3130145923
N  N20  1  0.87450000  0.87450000  0.12550000  1.0 -0.3130145923
N  N21  1  0.12530000  0.12530000  0.37470000  1.0 -0.1981456958
N  N22  1  0.37470000  0.37470000  0.12530000  1.0 -0.1981456958
N  N23  1  0.87470000  0.87470000  0.62530000  1.0 -0.1981456958
N  N24  1  0.62530000  0.62530000  0.87470000  1.0 -0.1981456958
N  N25  1  0.21860000  0.63160000  0.71240000  1.0 0.143865288
N  N26  1  0.63160000  0.21860000  0.43740000  1.0 0.143865288
N  N27  1  0.71240000  0.43740000  0.21860000  1.0 0.143865288
N  N28  1  0.43740000  0.71240000  0.63160000  1.0 0.143865288
N  N29  1  0.78140000  0.36840000  0.28760000  1.0 0.143865288
N  N30  1  0.36840000  0.78140000  0.56260000  1.0 0.143865288
N  N31  1  0.28760000  0.56260000  0.78140000  1.0 0.143865288
N  N32  1  0.56260000  0.28760000  0.36840000  1.0 0.143865288
O  O1  1  0.16760000  0.25220000  0.70380000  1.0 -0.0701940425
O  O2  1  0.25220000  0.16760000  0.87640000  1.0 -0.0701940425
O  O3  1  0.70380000  0.87640000  0.16760000  1.0 -0.0701940425
O  O4  1  0.87640000  0.70380000  0.25220000  1.0 -0.0701940425
O  O5  1  0.83240000  0.74780000  0.29620000  1.0 -0.0701940425
O  O6  1  0.74780000  0.83240000  0.12360000  1.0 -0.0701940425
O  O7  1  0.29620000  0.12360000  0.83240000  1.0 -0.0701940425
O  O8  1  0.12360000  0.29620000  0.74780000  1.0 -0.0701940425
O  O9  1  0.25390000  0.17350000  0.69970000  1.0 -0.0095095528
O  O10  1  0.17350000  0.25390000  0.87290000  1.0 -0.0095095528
O  O11  1  0.69970000  0.87290000  0.25390000  1.0 -0.0095095528
O  O12  1  0.87290000  0.69970000  0.17350000  1.0 -0.0095095528
O  O13  1  0.74610000  0.82650000  0.30030000  1.0 -0.0095095528
O  O14  1  0.82650000  0.74610000  0.12710000  1.0 -0.0095095528
O  O15  1  0.30030000  0.12710000  0.74610000  1.0 -0.0095095528
O  O16  1  0.12710000  0.30030000  0.82650000  1.0 -0.0095095528
O  O17  1  0.22350000  0.16150000  0.77650000  1.0 0.0416945338
O  O18  1  0.16150000  0.22350000  0.83850000  1.0 0.0416945338
O  O19  1  0.77650000  0.83850000  0.22350000  1.0 0.0416945338
O  O20  1  0.83850000  0.77650000  0.16150000  1.0 0.0416945338
O  O21  1  0.22053000  0.35273000  0.64727000  1.0 -0.3715022907
O  O22  1  0.35273000  0.22053000  0.77947000  1.0 -0.3715022907
O  O23  1  0.64727000  0.77947000  0.22053000  1.0 -0.3715022907
O  O24  1  0.77947000  0.64727000  0.35273000  1.0 -0.3715022907
O  O25  1  0.35735000  0.22475000  0.64265000  1.0 -0.3715022907
O  O26  1  0.22475000  0.35735000  0.77525000  1.0 -0.3715022907
O  O27  1  0.64265000  0.77525000  0.35735000  1.0 -0.3715022907
O  O28  1  0.77525000  0.64265000  0.22475000  1.0 -0.3715022907
O  O29  1  0.03080000  0.34000000  0.45800000  1.0 -0.3715022907
O  O30  1  0.34000000  0.03080000  0.17120000  1.0 -0.3715022907
O  O31  1  0.45800000  0.17120000  0.03080000  1.0 -0.3715022907
O  O32  1  0.17120000  0.45800000  0.34000000  1.0 -0.3715022907
O  O33  1  0.96920000  0.66000000  0.54200000  1.0 -0.3715022907
O  O34  1  0.66000000  0.96920000  0.82880000  1.0 -0.3715022907
O  O35  1  0.54200000  0.82880000  0.96920000  1.0 -0.3715022907
O  O36  1  0.82880000  0.54200000  0.66000000  1.0 -0.3715022907
O  O37  1  0.02130000  0.28450000  0.58850000  1.0 -0.1943631127
O  O38  1  0.28450000  0.02130000  0.10570000  1.0 -0.1943631127
O  O39  1  0.58850000  0.10570000  0.02130000  1.0 -0.1943631127
O  O40  1  0.10570000  0.58850000  0.28450000  1.0 -0.1943631127
O  O41  1  0.97870000  0.71550000  0.41150000  1.0 -0.1981456958
O  O42  1  0.71550000  0.97870000  0.89430000  1.0 -0.1943631127
O  O43  1  0.41150000  0.89430000  0.97870000  1.0 -0.1943631127
O  O44  1  0.89430000  0.41150000  0.71550000  1.0 -0.1943631127
O  O45  1  0.11563000  0.95981000  0.51439000  1.0 -0.4858790741
O  O46  1  0.95981000  0.11563000  0.41017000  1.0 -0.484639814
O  O47  1  0.51439000  0.41017000  0.11563000  1.0 -0.484639814
O  O48  1  0.41017000  0.51439000  0.95981000  1.0 -0.484639814
O  O49  1  0.88437000  0.04019000  0.48561000  1.0 -0.484639814
O  O50  1  0.04019000  0.88437000  0.58983000  1.0 -0.4858790741
O  O51  1  0.48561000  0.58983000  0.88437000  1.0 -0.484639814
O  O52  1  0.58983000  0.48561000  0.04019000  1.0 -0.484639814
O  O53  1  0.98857000  0.09077000  0.53903000  1.0 -0.5325387225
O  O54  1  0.09077000  0.98857000  0.38163000  1.0 -0.5325387225
O  O55  1  0.53903000  0.38163000  0.98857000  1.0 -0.5325387225
O  O56  1  0.38163000  0.53903000  0.09077000  1.0 -0.5325387225
O  O57  1  0.01143000  0.90923000  0.46097000  1.0 -0.5325387225
O  O58  1  0.90923000  0.01143000  0.61837000  1.0 -0.5325387225
O  O59  1  0.46097000  0.61837000  0.01143000  1.0 -0.5325387225
O  O60  1  0.61837000  0.46097000  0.90923000  1.0 -0.5325387225
O  O61  1  0.28380000  0.58300000  0.71620000  1.0 -0.1253494204
O  O62  1  0.58300000  0.28380000  0.41700000  1.0 -0.1253494204
O  O63  1  0.71620000  0.41700000  0.28380000  1.0 -0.1253494204
O  O64  1  0.41700000  0.71620000  0.58300000  1.0 -0.1253494204
O  O65  1  0.15760000  0.61200000  0.73940000  1.0 -0.3437989608
O  O66  1  0.61200000  0.15760000  0.49100000  1.0 -0.3437989608
O  O67  1  0.73940000  0.49100000  0.15760000  1.0 -0.3437989608
O  O68  1  0.49100000  0.73940000  0.61200000  1.0 -0.3437989608
O  O69  1  0.84240000  0.38800000  0.26060000  1.0 -0.3437989608
O  O70  1  0.38800000  0.84240000  0.50900000  1.0 -0.3437989608
O  O71  1  0.26060000  0.50900000  0.84240000  1.0 -0.3437989608
O  O72  1  0.50900000  0.26060000  0.38800000  1.0 -0.3437989608
