# DDEC6 charges by PACMAN v1.1 (https://github.com/mtap-research/PACMAN-charge/)
data_PIDNEX_ASR_pacman
_symmetry_space_group_name_H-M   'P 1'
_cell_length_a   15.14610000
_cell_length_b   15.14610000
_cell_length_c   27.94400000
_cell_angle_alpha   90.00000000
_cell_angle_beta   90.00000000
_cell_angle_gamma   90.21350000
_symmetry_Int_Tables_number   1
_chemical_formula_structural   ZnH4C27NO4
_chemical_formula_sum   'Zn4 H16 C108 N4 O16'
_cell_volume   6410.43051740
_cell_formula_units_Z   4
loop_
 _symmetry_equiv_pos_site_id
 _symmetry_equiv_pos_as_xyz
  1  'x, y, z'
loop_
 _atom_site_type_symbol
 _atom_site_label
 _atom_site_symmetry_multiplicity
 _atom_site_fract_x
 _atom_site_fract_y
 _atom_site_fract_z
 _atom_site_occupancy
 _atom_site_charge
Zn  Zn1  1  0.00000000  0.00000000  0.19825000  1.0 0.815082393
Zn  Zn2  1  0.00000000  0.00000000  0.30175000  1.0 0.815082393
Zn  Zn3  1  0.00000000  0.00000000  0.80175000  1.0 0.815082393
Zn  Zn4  1  0.00000000  0.00000000  0.69825000  1.0 0.815082393
H  H1  1  0.71620000  0.05200000  0.31500000  1.0 0.1712899425
H  H2  1  0.28380000  0.94800000  0.31500000  1.0 0.1712899425
H  H3  1  0.94800000  0.28380000  0.18500000  1.0 0.1712899425
H  H4  1  0.05200000  0.71620000  0.18500000  1.0 0.1712899425
H  H5  1  0.28380000  0.94800000  0.68500000  1.0 0.1712899425
H  H6  1  0.71620000  0.05200000  0.68500000  1.0 0.1712899425
H  H7  1  0.05200000  0.71620000  0.81500000  1.0 0.1712899425
H  H8  1  0.94800000  0.28380000  0.81500000  1.0 0.1712899425
H  H9  1  0.71790000  0.95050000  0.18480000  1.0 0.1712899425
H  H10  1  0.28210000  0.04950000  0.18480000  1.0 0.1712899425
H  H11  1  0.04950000  0.28210000  0.31520000  1.0 0.1712899425
H  H12  1  0.95050000  0.71790000  0.31520000  1.0 0.1712899425
H  H13  1  0.28210000  0.04950000  0.81520000  1.0 0.1712899425
H  H14  1  0.71790000  0.95050000  0.81520000  1.0 0.1712899425
H  H15  1  0.95050000  0.71790000  0.68480000  1.0 0.1712899425
H  H16  1  0.04950000  0.28210000  0.68480000  1.0 0.1712899425
C  C1  1  0.54955000  0.99959000  0.25067000  1.0 0.0771838421
C  C2  1  0.45045000  0.00041000  0.25067000  1.0 0.0771838421
C  C3  1  0.00041000  0.45045000  0.24933000  1.0 0.0700585622
C  C4  1  0.99959000  0.54955000  0.24933000  1.0 0.0700585622
C  C5  1  0.45045000  0.00041000  0.74933000  1.0 0.0771838421
C  C6  1  0.54955000  0.99959000  0.74933000  1.0 0.0771838421
C  C7  1  0.99959000  0.54955000  0.75067000  1.0 0.0700585622
C  C8  1  0.00041000  0.45045000  0.75067000  1.0 0.0700585622
C  C9  1  0.68596000  0.03026000  0.28851000  1.0 -0.1342045269
C  C10  1  0.31404000  0.96974000  0.28851000  1.0 -0.1342045269
C  C11  1  0.96974000  0.31404000  0.21149000  1.0 -0.1368661888
C  C12  1  0.03026000  0.68596000  0.21149000  1.0 -0.1368661888
C  C13  1  0.31404000  0.96974000  0.71149000  1.0 -0.1342045269
C  C14  1  0.68596000  0.03026000  0.71149000  1.0 -0.1342045269
C  C15  1  0.03026000  0.68596000  0.78851000  1.0 -0.1342045269
C  C16  1  0.96974000  0.31404000  0.78851000  1.0 -0.1368661888
C  C17  1  0.59744000  0.03056000  0.28946000  1.0 -0.0809912259
C  C18  1  0.40256000  0.96944000  0.28946000  1.0 -0.0809912259
C  C19  1  0.96944000  0.40256000  0.21054000  1.0 -0.0809912259
C  C20  1  0.03056000  0.59744000  0.21054000  1.0 -0.0809912259
C  C21  1  0.40256000  0.96944000  0.71054000  1.0 -0.0809912259
C  C22  1  0.59744000  0.03056000  0.71054000  1.0 -0.0809912259
C  C23  1  0.03056000  0.59744000  0.78946000  1.0 -0.0809912259
C  C24  1  0.96944000  0.40256000  0.78946000  1.0 -0.0809912259
C  C25  1  0.92390000  0.99750000  0.10110000  1.0 -0.0094951965
C  C26  1  0.07610000  0.00250000  0.10110000  1.0 -0.0094951965
C  C27  1  0.00250000  0.07610000  0.39890000  1.0 -0.0094951965
C  C28  1  0.99750000  0.92390000  0.39890000  1.0 -0.0094951965
C  C29  1  0.07610000  0.00250000  0.89890000  1.0 -0.0094951965
C  C30  1  0.92390000  0.99750000  0.89890000  1.0 -0.0094951965
C  C31  1  0.99750000  0.92390000  0.60110000  1.0 -0.0094951965
C  C32  1  0.00250000  0.07610000  0.60110000  1.0 -0.0094951965
C  C33  1  0.00000000  0.00000000  0.02646000  1.0 0.0700585622
C  C34  1  0.00000000  0.00000000  0.47354000  1.0 0.0700585622
C  C35  1  0.00000000  0.00000000  0.97354000  1.0 0.0700585622
C  C36  1  0.00000000  0.00000000  0.52646000  1.0 0.0700585622
C  C37  1  0.91980000  0.99880000  0.05200000  1.0 -0.0094951965
C  C38  1  0.08020000  0.00120000  0.05200000  1.0 -0.0094951965
C  C39  1  0.00120000  0.08020000  0.44800000  1.0 -0.0094951965
C  C40  1  0.99880000  0.91980000  0.44800000  1.0 -0.0094951965
C  C41  1  0.08020000  0.00120000  0.94800000  1.0 -0.0094951965
C  C42  1  0.91980000  0.99880000  0.94800000  1.0 -0.0094951965
C  C43  1  0.99880000  0.91980000  0.55200000  1.0 -0.0094951965
C  C44  1  0.00120000  0.08020000  0.55200000  1.0 -0.0094951965
C  C45  1  0.83199000  0.99983000  0.25049000  1.0 0.5821052411
C  C46  1  0.16801000  0.00017000  0.25049000  1.0 0.5821052411
C  C47  1  0.00017000  0.16801000  0.24951000  1.0 0.5821052411
C  C48  1  0.99983000  0.83199000  0.24951000  1.0 0.5821052411
C  C49  1  0.16801000  0.00017000  0.74951000  1.0 0.5821052411
C  C50  1  0.83199000  0.99983000  0.74951000  1.0 0.5821052411
C  C51  1  0.99983000  0.83199000  0.75049000  1.0 0.5821052411
C  C52  1  0.00017000  0.16801000  0.75049000  1.0 0.5821052411
C  C53  1  0.73350000  0.00000000  0.25105000  1.0 0.0451105031
C  C54  1  0.26650000  0.00000000  0.25105000  1.0 0.0451105031
C  C55  1  0.00000000  0.26650000  0.24895000  1.0 0.0451105031
C  C56  1  0.00000000  0.73350000  0.24895000  1.0 0.0451105031
C  C57  1  0.26650000  0.00000000  0.74895000  1.0 0.0451105031
C  C58  1  0.73350000  0.00000000  0.74895000  1.0 0.0451105031
C  C59  1  0.00000000  0.73350000  0.75105000  1.0 0.0451105031
C  C60  1  0.00000000  0.26650000  0.75105000  1.0 0.0451105031
C  C61  1  0.68707000  0.97033000  0.21149000  1.0 -0.1368661888
C  C62  1  0.31293000  0.02967000  0.21149000  1.0 -0.1368661888
C  C63  1  0.02967000  0.31293000  0.28851000  1.0 -0.1368661888
C  C64  1  0.97033000  0.68707000  0.28851000  1.0 -0.1368661888
C  C65  1  0.31293000  0.02967000  0.78851000  1.0 -0.1368661888
C  C66  1  0.68707000  0.97033000  0.78851000  1.0 -0.1368661888
C  C67  1  0.97033000  0.68707000  0.71149000  1.0 -0.1368661888
C  C68  1  0.02967000  0.31293000  0.71149000  1.0 -0.1368661888
C  C69  1  0.59775000  0.96965000  0.21077000  1.0 -0.0656090385
C  C70  1  0.40225000  0.03035000  0.21077000  1.0 -0.0608476084
C  C71  1  0.03035000  0.40225000  0.28923000  1.0 -0.0608476084
C  C72  1  0.96965000  0.59775000  0.28923000  1.0 -0.0608476084
C  C73  1  0.40225000  0.03035000  0.78923000  1.0 -0.0608476084
C  C74  1  0.59775000  0.96965000  0.78923000  1.0 -0.0656090385
C  C75  1  0.96965000  0.59775000  0.71077000  1.0 -0.0608476084
C  C76  1  0.03035000  0.40225000  0.71077000  1.0 -0.0608476084
C  C77  1  0.03840000  0.06600000  0.10160000  1.0 -0.0094951965
C  C78  1  0.96160000  0.93400000  0.10160000  1.0 -0.0094951965
C  C79  1  0.93400000  0.96160000  0.39840000  1.0 -0.0094951965
C  C80  1  0.06600000  0.03840000  0.39840000  1.0 -0.0094951965
C  C81  1  0.96160000  0.93400000  0.89840000  1.0 -0.0094951965
C  C82  1  0.03840000  0.06600000  0.89840000  1.0 -0.0094951965
C  C83  1  0.06600000  0.03840000  0.60160000  1.0 -0.0094951965
C  C84  1  0.93400000  0.96160000  0.60160000  1.0 -0.0094951965
C  C85  1  0.95920000  0.06560000  0.10070000  1.0 -0.0266313648
C  C86  1  0.04080000  0.93440000  0.10070000  1.0 -0.0266313648
C  C87  1  0.93440000  0.04080000  0.39930000  1.0 -0.0266313648
C  C88  1  0.06560000  0.95920000  0.39930000  1.0 -0.0266313648
C  C89  1  0.04080000  0.93440000  0.89930000  1.0 -0.0266313648
C  C90  1  0.95920000  0.06560000  0.89930000  1.0 -0.0266313648
C  C91  1  0.06560000  0.95920000  0.60070000  1.0 -0.0266313648
C  C92  1  0.93440000  0.04080000  0.60070000  1.0 -0.0266313648
C  C93  1  0.96110000  0.06870000  0.05210000  1.0 -0.019370097
C  C94  1  0.03890000  0.93130000  0.05210000  1.0 -0.019370097
C  C95  1  0.93130000  0.03890000  0.44790000  1.0 -0.019370097
C  C96  1  0.06870000  0.96110000  0.44790000  1.0 -0.019370097
C  C97  1  0.03890000  0.93130000  0.94790000  1.0 -0.0094951965
C  C98  1  0.96110000  0.06870000  0.94790000  1.0 -0.019370097
C  C99  1  0.06870000  0.96110000  0.55210000  1.0 -0.019370097
C  C100  1  0.93130000  0.03890000  0.55210000  1.0 -0.019370097
C  C101  1  0.96010000  0.93230000  0.05200000  1.0 -0.0094951965
C  C102  1  0.03990000  0.06770000  0.05200000  1.0 -0.0094951965
C  C103  1  0.06770000  0.03990000  0.44800000  1.0 -0.0042072355
C  C104  1  0.93230000  0.96010000  0.44800000  1.0 -0.0094951965
C  C105  1  0.03990000  0.06770000  0.94800000  1.0 -0.0094951965
C  C106  1  0.96010000  0.93230000  0.94800000  1.0 -0.0094951965
C  C107  1  0.93230000  0.96010000  0.55200000  1.0 -0.0094951965
C  C108  1  0.06770000  0.03990000  0.55200000  1.0 -0.0042072355
N  N1  1  0.00000000  0.00000000  0.12550000  1.0 -0.0656090385
N  N2  1  0.00000000  0.00000000  0.37450000  1.0 -0.0656090385
N  N3  1  0.00000000  0.00000000  0.87450000  1.0 -0.0656090385
N  N4  1  0.00000000  0.00000000  0.62550000  1.0 -0.0656090385
O  O1  1  0.86946000  0.98396000  0.21112000  1.0 -0.4949901483
O  O2  1  0.13054000  0.01604000  0.21112000  1.0 -0.4949901483
O  O3  1  0.01604000  0.13054000  0.28888000  1.0 -0.4958228848
O  O4  1  0.98396000  0.86946000  0.28888000  1.0 -0.4949901483
O  O5  1  0.13054000  0.01604000  0.78888000  1.0 -0.4949901483
O  O6  1  0.86946000  0.98396000  0.78888000  1.0 -0.4958228848
O  O7  1  0.98396000  0.86946000  0.71112000  1.0 -0.4949901483
O  O8  1  0.01604000  0.13054000  0.71112000  1.0 -0.4958228848
O  O9  1  0.86931000  0.01615000  0.28860000  1.0 -0.4613564393
O  O10  1  0.13069000  0.98385000  0.28860000  1.0 -0.4613564393
O  O11  1  0.98385000  0.13069000  0.21140000  1.0 -0.4613564393
O  O12  1  0.01615000  0.86931000  0.21140000  1.0 -0.4613564393
O  O13  1  0.13069000  0.98385000  0.71140000  1.0 -0.4613564393
O  O14  1  0.86931000  0.01615000  0.71140000  1.0 -0.4613564393
O  O15  1  0.01615000  0.86931000  0.78860000  1.0 -0.4613564393
O  O16  1  0.98385000  0.13069000  0.78860000  1.0 -0.4613564393
