# DDEC6 charges by PACMAN v1.1 (https://github.com/mtap-research/PACMAN-charge/)
data_PIDNOH_ASR_pacman
_symmetry_space_group_name_H-M   'P 1'
_cell_length_a   13.75800000
_cell_length_b   25.21560000
_cell_length_c   14.92050000
_cell_angle_alpha   90.00000000
_cell_angle_beta   111.39900000
_cell_angle_gamma   90.00000000
_symmetry_Int_Tables_number   1
_chemical_formula_structural   ZnH10C20N4O9
_chemical_formula_sum   'Zn8 H80 C160 N32 O72'
_cell_volume   4819.33012308
_cell_formula_units_Z   8
loop_
 _symmetry_equiv_pos_site_id
 _symmetry_equiv_pos_as_xyz
  1  'x, y, z'
loop_
 _atom_site_type_symbol
 _atom_site_label
 _atom_site_symmetry_multiplicity
 _atom_site_fract_x
 _atom_site_fract_y
 _atom_site_fract_z
 _atom_site_occupancy
 _atom_site_charge
Zn  Zn1  1  0.31270000  0.01667000  0.03304000  1.0 0.8120679594
Zn  Zn2  1  0.68730000  0.98333000  0.96696000  1.0 0.8120679594
Zn  Zn3  1  0.68730000  0.01667000  0.46696000  1.0 0.8120679594
Zn  Zn4  1  0.31270000  0.98333000  0.53304000  1.0 0.8120679594
Zn  Zn5  1  0.81270000  0.51667000  0.03304000  1.0 0.8120679594
Zn  Zn6  1  0.18730000  0.48333000  0.96696000  1.0 0.8120679594
Zn  Zn7  1  0.18730000  0.51667000  0.46696000  1.0 0.8120679594
Zn  Zn8  1  0.81270000  0.48333000  0.53304000  1.0 0.8120679594
H  H1  1  0.42860000  0.14253000  0.87430000  1.0 0.131678883
H  H2  1  0.57140000  0.85747000  0.12570000  1.0 0.131678883
H  H3  1  0.57140000  0.14253000  0.62570000  1.0 0.131678883
H  H4  1  0.42860000  0.85747000  0.37430000  1.0 0.131678883
H  H5  1  0.92860000  0.64253000  0.87430000  1.0 0.131678883
H  H6  1  0.07140000  0.35747000  0.12570000  1.0 0.131678883
H  H7  1  0.07140000  0.64253000  0.62570000  1.0 0.131678883
H  H8  1  0.92860000  0.35747000  0.37430000  1.0 0.131678883
H  H9  1  0.14772000  0.17427000  0.93275000  1.0 0.131678883
H  H10  1  0.85228000  0.82573000  0.06725000  1.0 0.131678883
H  H11  1  0.85228000  0.17427000  0.56725000  1.0 0.131678883
H  H12  1  0.14772000  0.82573000  0.43275000  1.0 0.131678883
H  H13  1  0.64772000  0.67427000  0.93275000  1.0 0.131678883
H  H14  1  0.35228000  0.32573000  0.06725000  1.0 0.131678883
H  H15  1  0.35228000  0.67427000  0.56725000  1.0 0.131678883
H  H16  1  0.64772000  0.32573000  0.43275000  1.0 0.131678883
H  H17  1  0.39899000  0.86194000  0.94510000  1.0 0.1454959996
H  H18  1  0.60101000  0.13806000  0.05490000  1.0 0.1454959996
H  H19  1  0.60101000  0.86194000  0.55490000  1.0 0.1454959996
H  H20  1  0.39899000  0.13806000  0.44510000  1.0 0.1454959996
H  H21  1  0.89899000  0.36194000  0.94510000  1.0 0.1454959996
H  H22  1  0.10101000  0.63806000  0.05490000  1.0 0.1454959996
H  H23  1  0.10101000  0.36194000  0.55490000  1.0 0.1454959996
H  H24  1  0.89899000  0.63806000  0.44510000  1.0 0.1454959996
H  H25  1  0.10715000  0.92115000  0.73849000  1.0 0.1440762021
H  H26  1  0.89285000  0.07885000  0.26151000  1.0 0.1440762021
H  H27  1  0.89285000  0.92115000  0.76151000  1.0 0.1440762021
H  H28  1  0.10715000  0.07885000  0.23849000  1.0 0.1440762021
H  H29  1  0.60715000  0.42115000  0.73849000  1.0 0.1440762021
H  H30  1  0.39285000  0.57885000  0.26151000  1.0 0.1440762021
H  H31  1  0.39285000  0.42115000  0.76151000  1.0 0.1440762021
H  H32  1  0.60715000  0.57885000  0.23849000  1.0 0.1440762021
H  H33  1  0.32134000  0.99964000  0.24616000  1.0 0.091668535
H  H34  1  0.67866000  0.00036000  0.75384000  1.0 0.091668535
H  H35  1  0.67866000  0.99964000  0.25384000  1.0 0.091668535
H  H36  1  0.32134000  0.00036000  0.74616000  1.0 0.091668535
H  H37  1  0.82134000  0.49964000  0.24616000  1.0 0.091668535
H  H38  1  0.17866000  0.50036000  0.75384000  1.0 0.091668535
H  H39  1  0.17866000  0.49964000  0.25384000  1.0 0.091668535
H  H40  1  0.82134000  0.50036000  0.74616000  1.0 0.091668535
H  H41  1  0.38341000  0.94282000  0.21896000  1.0 0.091668535
H  H42  1  0.61659000  0.05718000  0.78104000  1.0 0.091668535
H  H43  1  0.61659000  0.94282000  0.28104000  1.0 0.091668535
H  H44  1  0.38341000  0.05718000  0.71896000  1.0 0.091668535
H  H45  1  0.88341000  0.44282000  0.21896000  1.0 0.091668535
H  H46  1  0.11659000  0.55718000  0.78104000  1.0 0.091668535
H  H47  1  0.11659000  0.44282000  0.28104000  1.0 0.091668535
H  H48  1  0.88341000  0.55718000  0.71896000  1.0 0.091668535
H  H49  1  0.53805000  0.01604000  0.10870000  1.0 0.0993914172
H  H50  1  0.46195000  0.98396000  0.89130000  1.0 0.0993914172
H  H51  1  0.46195000  0.01604000  0.39130000  1.0 0.0993914172
H  H52  1  0.53805000  0.98396000  0.60870000  1.0 0.0993914172
H  H53  1  0.03805000  0.51604000  0.10870000  1.0 0.0993914172
H  H54  1  0.96195000  0.48396000  0.89130000  1.0 0.0993914172
H  H55  1  0.96195000  0.51604000  0.39130000  1.0 0.0993914172
H  H56  1  0.03805000  0.48396000  0.60870000  1.0 0.0993914172
H  H57  1  0.49189000  0.95182000  0.12177000  1.0 0.0993914172
H  H58  1  0.50811000  0.04818000  0.87823000  1.0 0.0993914172
H  H59  1  0.50811000  0.95182000  0.37823000  1.0 0.0993914172
H  H60  1  0.49189000  0.04818000  0.62177000  1.0 0.0993914172
H  H61  1  0.99189000  0.45182000  0.12177000  1.0 0.0993914172
H  H62  1  0.00811000  0.54818000  0.87823000  1.0 0.0993914172
H  H63  1  0.00811000  0.45182000  0.37823000  1.0 0.0993914172
H  H64  1  0.99189000  0.54818000  0.62177000  1.0 0.0993914172
H  H65  1  0.38278000  0.08722000  0.22085000  1.0 0.091668535
H  H66  1  0.61722000  0.91278000  0.77915000  1.0 0.091668535
H  H67  1  0.61722000  0.08722000  0.27915000  1.0 0.091668535
H  H68  1  0.38278000  0.91278000  0.72085000  1.0 0.091668535
H  H69  1  0.88278000  0.58722000  0.22085000  1.0 0.091668535
H  H70  1  0.11722000  0.41278000  0.77915000  1.0 0.091668535
H  H71  1  0.11722000  0.58722000  0.27915000  1.0 0.091668535
H  H72  1  0.88278000  0.41278000  0.72085000  1.0 0.091668535
H  H73  1  0.45793000  0.09469000  0.14681000  1.0 0.0993914172
H  H74  1  0.54207000  0.90531000  0.85319000  1.0 0.0993914172
H  H75  1  0.54207000  0.09469000  0.35319000  1.0 0.0993914172
H  H76  1  0.45793000  0.90531000  0.64681000  1.0 0.0993914172
H  H77  1  0.95793000  0.59469000  0.14681000  1.0 0.0993914172
H  H78  1  0.04207000  0.40531000  0.85319000  1.0 0.0993914172
H  H79  1  0.04207000  0.59469000  0.35319000  1.0 0.0993914172
H  H80  1  0.95793000  0.40531000  0.64681000  1.0 0.0993914172
C  C1  1  0.31426000  0.81446000  0.81687000  1.0 -0.010253035
C  C2  1  0.68574000  0.18554000  0.18313000  1.0 -0.010253035
C  C3  1  0.68574000  0.81446000  0.68313000  1.0 -0.010253035
C  C4  1  0.31426000  0.18554000  0.31687000  1.0 -0.010253035
C  C5  1  0.81426000  0.31446000  0.81687000  1.0 -0.010253035
C  C6  1  0.18574000  0.68554000  0.18313000  1.0 -0.010253035
C  C7  1  0.18574000  0.31446000  0.68313000  1.0 -0.010253035
C  C8  1  0.81426000  0.68554000  0.31687000  1.0 -0.010253035
C  C9  1  0.36419000  0.16948000  0.86922000  1.0 -0.0885119022
C  C10  1  0.63581000  0.83052000  0.13078000  1.0 -0.0885119022
C  C11  1  0.63581000  0.16948000  0.63078000  1.0 -0.0885119022
C  C12  1  0.36419000  0.83052000  0.36922000  1.0 -0.0885119022
C  C13  1  0.86419000  0.66948000  0.86922000  1.0 -0.0885119022
C  C14  1  0.13581000  0.33052000  0.13078000  1.0 -0.0885119022
C  C15  1  0.13581000  0.66948000  0.63078000  1.0 -0.0885119022
C  C16  1  0.86419000  0.33052000  0.36922000  1.0 -0.0885119022
C  C17  1  0.34907000  0.21809000  0.82549000  1.0 -0.0032078716
C  C18  1  0.65093000  0.78191000  0.17451000  1.0 -0.0032078716
C  C19  1  0.65093000  0.21809000  0.67451000  1.0 -0.0032078716
C  C20  1  0.34907000  0.78191000  0.32549000  1.0 -0.0032078716
C  C21  1  0.84907000  0.71809000  0.82549000  1.0 -0.0032078716
C  C22  1  0.15093000  0.28191000  0.17451000  1.0 -0.0032078716
C  C23  1  0.15093000  0.71809000  0.67451000  1.0 -0.0032078716
C  C24  1  0.84907000  0.28191000  0.32549000  1.0 -0.0032078716
C  C25  1  0.30502000  0.10303000  0.96161000  1.0 0.5511297621
C  C26  1  0.69498000  0.89697000  0.03839000  1.0 0.5511297621
C  C27  1  0.69498000  0.10303000  0.53839000  1.0 0.5511297621
C  C28  1  0.30502000  0.89697000  0.46161000  1.0 0.5511297621
C  C29  1  0.80502000  0.60303000  0.96161000  1.0 0.5511297621
C  C30  1  0.19498000  0.39697000  0.03839000  1.0 0.5511297621
C  C31  1  0.19498000  0.60303000  0.53839000  1.0 0.5511297621
C  C32  1  0.80502000  0.39697000  0.46161000  1.0 0.5511297621
C  C33  1  0.26548000  0.30589000  0.76846000  1.0 0.020771241
C  C34  1  0.73452000  0.69411000  0.23154000  1.0 0.020771241
C  C35  1  0.73452000  0.30589000  0.73154000  1.0 0.020771241
C  C36  1  0.26548000  0.69411000  0.26846000  1.0 0.020771241
C  C37  1  0.76548000  0.80589000  0.76846000  1.0 0.020771241
C  C38  1  0.23452000  0.19411000  0.23154000  1.0 0.020771241
C  C39  1  0.23452000  0.80589000  0.73154000  1.0 0.020771241
C  C40  1  0.76548000  0.19411000  0.26846000  1.0 0.020771241
C  C41  1  0.20564000  0.18661000  0.90313000  1.0 -0.131609086
C  C42  1  0.79436000  0.81339000  0.09687000  1.0 -0.131609086
C  C43  1  0.79436000  0.18661000  0.59687000  1.0 -0.131609086
C  C44  1  0.20564000  0.81339000  0.40313000  1.0 -0.131609086
C  C45  1  0.70564000  0.68661000  0.90313000  1.0 -0.131609086
C  C46  1  0.29436000  0.31339000  0.09687000  1.0 -0.131609086
C  C47  1  0.29436000  0.68661000  0.59687000  1.0 -0.131609086
C  C48  1  0.70564000  0.31339000  0.40313000  1.0 -0.131609086
C  C49  1  0.33162000  0.85728000  0.87747000  1.0 -0.0967090447
C  C50  1  0.66838000  0.14272000  0.12253000  1.0 -0.0967090447
C  C51  1  0.66838000  0.85728000  0.62253000  1.0 -0.0967090447
C  C52  1  0.33162000  0.14272000  0.37747000  1.0 -0.0967090447
C  C53  1  0.83162000  0.35728000  0.87747000  1.0 -0.0967090447
C  C54  1  0.16838000  0.64272000  0.12253000  1.0 -0.0967090447
C  C55  1  0.16838000  0.35728000  0.62253000  1.0 -0.0967090447
C  C56  1  0.83162000  0.64272000  0.37747000  1.0 -0.0967090447
C  C57  1  0.28963000  0.15420000  0.91023000  1.0 -0.010253035
C  C58  1  0.71037000  0.84580000  0.08977000  1.0 -0.010253035
C  C59  1  0.71037000  0.15420000  0.58977000  1.0 -0.010253035
C  C60  1  0.28963000  0.84580000  0.41023000  1.0 -0.010253035
C  C61  1  0.78963000  0.65420000  0.91023000  1.0 -0.010253035
C  C62  1  0.21037000  0.34580000  0.08977000  1.0 -0.010253035
C  C63  1  0.21037000  0.65420000  0.58977000  1.0 -0.010253035
C  C64  1  0.78963000  0.34580000  0.41023000  1.0 -0.010253035
C  C65  1  0.19680000  0.23640000  0.85895000  1.0 0.0298132952
C  C66  1  0.80320000  0.76360000  0.14105000  1.0 0.0298132952
C  C67  1  0.80320000  0.23640000  0.64105000  1.0 0.0298132952
C  C68  1  0.19680000  0.76360000  0.35895000  1.0 0.0298132952
C  C69  1  0.69680000  0.73640000  0.85895000  1.0 0.0298132952
C  C70  1  0.30320000  0.26360000  0.14105000  1.0 0.0298132952
C  C71  1  0.30320000  0.73640000  0.64105000  1.0 0.0298132952
C  C72  1  0.69680000  0.26360000  0.35895000  1.0 0.0298132952
C  C73  1  0.27111000  0.25339000  0.82109000  1.0 0.0413893725
C  C74  1  0.72889000  0.74661000  0.17891000  1.0 0.0413893725
C  C75  1  0.72889000  0.25339000  0.67891000  1.0 0.0413893725
C  C76  1  0.27111000  0.74661000  0.32109000  1.0 0.0413893725
C  C77  1  0.77111000  0.75339000  0.82109000  1.0 0.0413893725
C  C78  1  0.22889000  0.24661000  0.17891000  1.0 0.0413893725
C  C79  1  0.22889000  0.75339000  0.67891000  1.0 0.0413893725
C  C80  1  0.77111000  0.24661000  0.32109000  1.0 0.0413893725
C  C81  1  0.25268000  0.89663000  0.84567000  1.0 0.020771241
C  C82  1  0.74732000  0.10337000  0.15433000  1.0 0.020771241
C  C83  1  0.74732000  0.89663000  0.65433000  1.0 0.020771241
C  C84  1  0.25268000  0.10337000  0.34567000  1.0 0.020771241
C  C85  1  0.75268000  0.39663000  0.84567000  1.0 0.020771241
C  C86  1  0.24732000  0.60337000  0.15433000  1.0 0.020771241
C  C87  1  0.24732000  0.39663000  0.65433000  1.0 0.020771241
C  C88  1  0.75268000  0.60337000  0.34567000  1.0 0.020771241
C  C89  1  0.15765000  0.84577000  0.70387000  1.0 0.0413893725
C  C90  1  0.84235000  0.15423000  0.29613000  1.0 0.0413893725
C  C91  1  0.84235000  0.84577000  0.79613000  1.0 0.0413893725
C  C92  1  0.15765000  0.15423000  0.20387000  1.0 0.0413893725
C  C93  1  0.65765000  0.34577000  0.70387000  1.0 0.0413893725
C  C94  1  0.34235000  0.65423000  0.29613000  1.0 0.0413893725
C  C95  1  0.34235000  0.34577000  0.79613000  1.0 0.0413893725
C  C96  1  0.65765000  0.65423000  0.20387000  1.0 0.0413893725
C  C97  1  0.16666000  0.89059000  0.76036000  1.0 -0.131609086
C  C98  1  0.83334000  0.10941000  0.23964000  1.0 -0.131609086
C  C99  1  0.83334000  0.89059000  0.73964000  1.0 -0.131609086
C  C100  1  0.16666000  0.10941000  0.26036000  1.0 -0.131609086
C  C101  1  0.66666667  0.39059000  0.76036000  1.0 -0.131609086
C  C102  1  0.33333333  0.60941000  0.23964000  1.0 -0.131609086
C  C103  1  0.33333333  0.39059000  0.73964000  1.0 -0.131609086
C  C104  1  0.66666667  0.60941000  0.26036000  1.0 -0.131609086
C  C105  1  0.26306000  0.94598000  0.90583000  1.0 0.5511297621
C  C106  1  0.73694000  0.05402000  0.09417000  1.0 0.5511297621
C  C107  1  0.73694000  0.94598000  0.59417000  1.0 0.5511297621
C  C108  1  0.26306000  0.05402000  0.40583000  1.0 0.5511297621
C  C109  1  0.76306000  0.44598000  0.90583000  1.0 0.5511297621
C  C110  1  0.23694000  0.55402000  0.09417000  1.0 0.5511297621
C  C111  1  0.23694000  0.44598000  0.59417000  1.0 0.5511297621
C  C112  1  0.76306000  0.55402000  0.40583000  1.0 0.5511297621
C  C113  1  0.39491000  0.98459000  0.24348000  1.0 -0.0757393353
C  C114  1  0.60509000  0.01541000  0.75652000  1.0 -0.0757393353
C  C115  1  0.60509000  0.98459000  0.25652000  1.0 -0.0757393353
C  C116  1  0.39491000  0.01541000  0.74348000  1.0 -0.0757393353
C  C117  1  0.89491000  0.48459000  0.24348000  1.0 -0.0757393353
C  C118  1  0.10509000  0.51541000  0.75652000  1.0 -0.0757393353
C  C119  1  0.10509000  0.48459000  0.25652000  1.0 -0.0757393353
C  C120  1  0.89491000  0.51541000  0.74348000  1.0 -0.0757393353
C  C121  1  0.51552000  0.99030000  0.15805000  1.0 -0.0885119022
C  C122  1  0.48448000  0.00970000  0.84195000  1.0 -0.0885119022
C  C123  1  0.48448000  0.99030000  0.34195000  1.0 -0.0885119022
C  C124  1  0.51552000  0.00970000  0.65805000  1.0 -0.0885119022
C  C125  1  0.01552000  0.49030000  0.15805000  1.0 -0.0885119022
C  C126  1  0.98448000  0.50970000  0.84195000  1.0 -0.0885119022
C  C127  1  0.98448000  0.49030000  0.34195000  1.0 -0.0885119022
C  C128  1  0.01552000  0.50970000  0.65805000  1.0 -0.0885119022
C  C129  1  0.44947000  0.07099000  0.20530000  1.0 -0.0885119022
C  C130  1  0.55053000  0.92901000  0.79470000  1.0 -0.0885119022
C  C131  1  0.55053000  0.07099000  0.29470000  1.0 -0.0885119022
C  C132  1  0.44947000  0.92901000  0.70530000  1.0 -0.0885119022
C  C133  1  0.94947000  0.57099000  0.20530000  1.0 -0.0885119022
C  C134  1  0.05053000  0.42901000  0.79470000  1.0 -0.0885119022
C  C135  1  0.05053000  0.57099000  0.29470000  1.0 -0.0885119022
C  C136  1  0.94947000  0.42901000  0.70530000  1.0 -0.0885119022
C  C137  1  0.97970000  0.92717000  0.20153000  1.0 -0.0482008579
C  C138  1  0.02030000  0.07283000  0.79847000  1.0 -0.0482008579
C  C139  1  0.02030000  0.92717000  0.29847000  1.0 -0.0482008579
C  C140  1  0.97970000  0.07283000  0.70153000  1.0 -0.0482008579
C  C141  1  0.47970000  0.42717000  0.20153000  1.0 -0.0482008579
C  C142  1  0.52030000  0.57283000  0.79847000  1.0 -0.0482008579
C  C143  1  0.52030000  0.42717000  0.29847000  1.0 -0.0482008579
C  C144  1  0.47970000  0.57283000  0.70153000  1.0 -0.0482008579
C  C145  1  0.98937000  0.90525000  0.12464000  1.0 0.2727736421
C  C146  1  0.01063000  0.09475000  0.87536000  1.0 0.2727736421
C  C147  1  0.01063000  0.90525000  0.37536000  1.0 0.2727736421
C  C148  1  0.98937000  0.09475000  0.62464000  1.0 0.2727736421
C  C149  1  0.48937000  0.40525000  0.12464000  1.0 0.2727736421
C  C150  1  0.51063000  0.59475000  0.87536000  1.0 0.2727736421
C  C151  1  0.51063000  0.40525000  0.37536000  1.0 0.2727736421
C  C152  1  0.48937000  0.59475000  0.62464000  1.0 0.2727736421
C  C153  1  0.12235000  0.96106000  0.08783000  1.0 0.5624186732
C  C154  1  0.87765000  0.03894000  0.91217000  1.0 0.5624186732
C  C155  1  0.87765000  0.96106000  0.41217000  1.0 0.5624186732
C  C156  1  0.12235000  0.03894000  0.58783000  1.0 0.5624186732
C  C157  1  0.62235000  0.46106000  0.08783000  1.0 0.5624186732
C  C158  1  0.37765000  0.53894000  0.91217000  1.0 0.5624186732
C  C159  1  0.37765000  0.46106000  0.41217000  1.0 0.5624186732
C  C160  1  0.62235000  0.53894000  0.58783000  1.0 0.5624186732
N  N1  1  0.42258000  0.01540000  0.16988000  1.0 -0.1191223413
N  N2  1  0.57742000  0.98460000  0.83012000  1.0 -0.1191223413
N  N3  1  0.57742000  0.01540000  0.33012000  1.0 -0.1191223413
N  N4  1  0.42258000  0.98460000  0.66988000  1.0 -0.1191223413
N  N5  1  0.92258000  0.51540000  0.16988000  1.0 -0.1191223413
N  N6  1  0.07742000  0.48460000  0.83012000  1.0 -0.1191223413
N  N7  1  0.07742000  0.51540000  0.33012000  1.0 -0.1191223413
N  N8  1  0.92258000  0.48460000  0.66988000  1.0 -0.1191223413
N  N9  1  0.93491000  0.84247000  0.88679000  1.0 0.5270026438
N  N10  1  0.06509000  0.15753000  0.11321000  1.0 0.5270026438
N  N11  1  0.06509000  0.84247000  0.61321000  1.0 0.5270026438
N  N12  1  0.93491000  0.15753000  0.38679000  1.0 0.5270026438
N  N13  1  0.43491000  0.34247000  0.88679000  1.0 0.5270026438
N  N14  1  0.56509000  0.65753000  0.11321000  1.0 0.5270026438
N  N15  1  0.56509000  0.34247000  0.61321000  1.0 0.5270026438
N  N16  1  0.43491000  0.65753000  0.38679000  1.0 0.5270026438
N  N17  1  0.10912000  0.27091000  0.85803000  1.0 0.5219417848
N  N18  1  0.89088000  0.72909000  0.14197000  1.0 0.5219417848
N  N19  1  0.89088000  0.27091000  0.64197000  1.0 0.5219417848
N  N20  1  0.10912000  0.72909000  0.35803000  1.0 0.5219417848
N  N21  1  0.60912000  0.77091000  0.85803000  1.0 0.5219417848
N  N22  1  0.39088000  0.22909000  0.14197000  1.0 0.5219417848
N  N23  1  0.39088000  0.77091000  0.64197000  1.0 0.5219417848
N  N24  1  0.60912000  0.22909000  0.35803000  1.0 0.5219417848
N  N25  1  0.06412000  0.93035000  0.10402000  1.0 -0.2842572294
N  N26  1  0.93588000  0.06965000  0.89598000  1.0 -0.2842572294
N  N27  1  0.93588000  0.93035000  0.39598000  1.0 -0.2842572294
N  N28  1  0.06412000  0.06965000  0.60402000  1.0 -0.2842572294
N  N29  1  0.56412000  0.43035000  0.10402000  1.0 -0.2842572294
N  N30  1  0.43588000  0.56965000  0.89598000  1.0 -0.2842572294
N  N31  1  0.43588000  0.43035000  0.39598000  1.0 -0.2842572294
N  N32  1  0.56412000  0.56965000  0.60402000  1.0 -0.2842572294
O  O1  1  0.38219000  0.07271000  0.96507000  1.0 -0.5380477793
O  O2  1  0.61781000  0.92729000  0.03493000  1.0 -0.5380477793
O  O3  1  0.61781000  0.07271000  0.53493000  1.0 -0.5380477793
O  O4  1  0.38219000  0.92729000  0.46507000  1.0 -0.5380477793
O  O5  1  0.88219000  0.57271000  0.96507000  1.0 -0.5380477793
O  O6  1  0.11781000  0.42729000  0.03493000  1.0 -0.5380477793
O  O7  1  0.11781000  0.57271000  0.53493000  1.0 -0.5380477793
O  O8  1  0.88219000  0.42729000  0.46507000  1.0 -0.5380477793
O  O9  1  0.24045000  0.08936000  0.00263000  1.0 -0.5245637856
O  O10  1  0.75955000  0.91064000  0.99737000  1.0 -0.5245637856
O  O11  1  0.75955000  0.08936000  0.49737000  1.0 -0.5245637856
O  O12  1  0.24045000  0.91064000  0.50263000  1.0 -0.5245637856
O  O13  1  0.74045000  0.58936000  0.00263000  1.0 -0.5245637856
O  O14  1  0.25955000  0.41064000  0.99737000  1.0 -0.5245637856
O  O15  1  0.25955000  0.58936000  0.49737000  1.0 -0.5245637856
O  O16  1  0.74045000  0.41064000  0.50263000  1.0 -0.5245637856
O  O17  1  0.33033000  0.94332000  0.99210000  1.0 -0.5380477793
O  O18  1  0.66967000  0.05668000  0.00790000  1.0 -0.5380477793
O  O19  1  0.66967000  0.94332000  0.50790000  1.0 -0.5380477793
O  O20  1  0.33033000  0.05668000  0.49210000  1.0 -0.5380477793
O  O21  1  0.83033000  0.44332000  0.99210000  1.0 -0.5380477793
O  O22  1  0.16967000  0.55668000  0.00790000  1.0 -0.5380477793
O  O23  1  0.16967000  0.44332000  0.50790000  1.0 -0.5380477793
O  O24  1  0.83033000  0.55668000  0.49210000  1.0 -0.5380477793
O  O25  1  0.20932000  0.98534000  0.86938000  1.0 -0.5131505988
O  O26  1  0.79068000  0.01466000  0.13062000  1.0 -0.5131505988
O  O27  1  0.79068000  0.98534000  0.63062000  1.0 -0.5131505988
O  O28  1  0.20932000  0.01466000  0.36938000  1.0 -0.5131505988
O  O29  1  0.70932000  0.48534000  0.86938000  1.0 -0.5131505988
O  O30  1  0.29068000  0.51466000  0.13062000  1.0 -0.5131505988
O  O31  1  0.29068000  0.48534000  0.63062000  1.0 -0.5131505988
O  O32  1  0.70932000  0.51466000  0.36938000  1.0 -0.5131505988
O  O33  1  0.02951000  0.24921000  0.86046000  1.0 -0.3280789628
O  O34  1  0.97049000  0.75079000  0.13954000  1.0 -0.3280789628
O  O35  1  0.97049000  0.24921000  0.63954000  1.0 -0.3280789628
O  O36  1  0.02951000  0.75079000  0.36046000  1.0 -0.3280789628
O  O37  1  0.52951000  0.74921000  0.86046000  1.0 -0.3280789628
O  O38  1  0.47049000  0.25079000  0.13954000  1.0 -0.3280789628
O  O39  1  0.47049000  0.74921000  0.63954000  1.0 -0.3280789628
O  O40  1  0.52951000  0.25079000  0.36046000  1.0 -0.3280789628
O  O41  1  0.12245000  0.31946000  0.85569000  1.0 -0.3280789628
O  O42  1  0.87755000  0.68054000  0.14431000  1.0 -0.3280789628
O  O43  1  0.87755000  0.31946000  0.64431000  1.0 -0.3280789628
O  O44  1  0.12245000  0.68054000  0.35569000  1.0 -0.3280789628
O  O45  1  0.62245000  0.81946000  0.85569000  1.0 -0.3280789628
O  O46  1  0.37755000  0.18054000  0.14431000  1.0 -0.3280789628
O  O47  1  0.37755000  0.81946000  0.64431000  1.0 -0.3280789628
O  O48  1  0.62245000  0.18054000  0.35569000  1.0 -0.3280789628
O  O49  1  0.93104000  0.81282000  0.95205000  1.0 -0.3435373455
O  O50  1  0.06896000  0.18718000  0.04795000  1.0 -0.3435373455
O  O51  1  0.06896000  0.81282000  0.54795000  1.0 -0.3435373455
O  O52  1  0.93104000  0.18718000  0.45205000  1.0 -0.3435373455
O  O53  1  0.43104000  0.31282000  0.95205000  1.0 -0.3435373455
O  O54  1  0.56896000  0.68718000  0.04795000  1.0 -0.3435373455
O  O55  1  0.56896000  0.31282000  0.54795000  1.0 -0.3435373455
O  O56  1  0.43104000  0.68718000  0.45205000  1.0 -0.3435373455
O  O57  1  0.01229000  0.87016000  0.89151000  1.0 -0.358586695
O  O58  1  0.98771000  0.12984000  0.10849000  1.0 -0.358586695
O  O59  1  0.98771000  0.87016000  0.60849000  1.0 -0.358586695
O  O60  1  0.01229000  0.12984000  0.39151000  1.0 -0.358586695
O  O61  1  0.51229000  0.37016000  0.89151000  1.0 -0.358586695
O  O62  1  0.48771000  0.62984000  0.10849000  1.0 -0.358586695
O  O63  1  0.48771000  0.37016000  0.60849000  1.0 -0.358586695
O  O64  1  0.51229000  0.62984000  0.39151000  1.0 -0.358586695
O  O65  1  0.17977000  0.99140000  0.06805000  1.0 -0.430120036
O  O66  1  0.82023000  0.00860000  0.93195000  1.0 -0.430120036
O  O67  1  0.82023000  0.99140000  0.43195000  1.0 -0.430120036
O  O68  1  0.17977000  0.00860000  0.56805000  1.0 -0.430120036
O  O69  1  0.67977000  0.49140000  0.06805000  1.0 -0.430120036
O  O70  1  0.32023000  0.50860000  0.93195000  1.0 -0.430120036
O  O71  1  0.32023000  0.49140000  0.43195000  1.0 -0.430120036
O  O72  1  0.67977000  0.50860000  0.56805000  1.0 -0.430120036
