# DDEC6 charges by PACMAN v1.1 (https://github.com/mtap-research/PACMAN-charge/)
data_PIDRAY_ASR_pacman
_symmetry_space_group_name_H-M   'P 1'
_cell_length_a   18.98540000
_cell_length_b   18.98540000
_cell_length_c   9.54330000
_cell_angle_alpha   76.09950000
_cell_angle_beta   103.90100000
_cell_angle_gamma   96.00560000
_symmetry_Int_Tables_number   1
_chemical_formula_structural   Cu3H14C32(NO9)2
_chemical_formula_sum   'Cu6 H28 C64 N4 O36'
_cell_volume   3237.28721094
_cell_formula_units_Z   2
loop_
 _symmetry_equiv_pos_site_id
 _symmetry_equiv_pos_as_xyz
  1  'x, y, z'
loop_
 _atom_site_type_symbol
 _atom_site_label
 _atom_site_symmetry_multiplicity
 _atom_site_fract_x
 _atom_site_fract_y
 _atom_site_fract_z
 _atom_site_occupancy
 _atom_site_charge
Cu  Cu1  1  0.97452000  0.45440000  0.11249000  1.0 0.8742171998
Cu  Cu2  1  0.45440000  0.97452000  0.88751000  1.0 0.8742171998
Cu  Cu3  1  0.02548000  0.54560000  0.88751000  1.0 0.8742171998
Cu  Cu4  1  0.54560000  0.02548000  0.11249000  1.0 0.8742171998
Cu  Cu5  1  0.54269000  0.45731000  0.10979000  1.0 0.8576009746
Cu  Cu6  1  0.45731000  0.54269000  0.89021000  1.0 0.8576009746
H  H1  1  0.82850000  0.65110000  0.65680000  1.0 0.1411679859
H  H2  1  0.74730000  0.50730000  0.96740000  1.0 0.1480929486
H  H3  1  0.61430000  0.63590000  0.63280000  1.0 0.1411679859
H  H4  1  0.88220000  0.28120000  0.89680000  1.0 0.1411679859
H  H5  1  0.96080000  0.41260000  0.56520000  1.0 0.1480929486
H  H6  1  0.84660000  0.22740000  0.50390000  1.0 0.1143078755
H  H7  1  0.65110000  0.82850000  0.34320000  1.0 0.1411679859
H  H8  1  0.50730000  0.74730000  0.03260000  1.0 0.1480929486
H  H9  1  0.63590000  0.61430000  0.36720000  1.0 0.1411679859
H  H10  1  0.28120000  0.88220000  0.10320000  1.0 0.1411679859
H  H11  1  0.41260000  0.96080000  0.43480000  1.0 0.1480929486
H  H12  1  0.22740000  0.84660000  0.49610000  1.0 0.1143078755
H  H13  1  0.17150000  0.34890000  0.34320000  1.0 0.1411679859
H  H14  1  0.25270000  0.49270000  0.03260000  1.0 0.1480929486
H  H15  1  0.38570000  0.36410000  0.36720000  1.0 0.1411679859
H  H16  1  0.11780000  0.71880000  0.10320000  1.0 0.1411679859
H  H17  1  0.03920000  0.58740000  0.43480000  1.0 0.1480929486
H  H18  1  0.15340000  0.77260000  0.49610000  1.0 0.1143078755
H  H19  1  0.34890000  0.17150000  0.65680000  1.0 0.1411679859
H  H20  1  0.49270000  0.25270000  0.96740000  1.0 0.1480929486
H  H21  1  0.36410000  0.38570000  0.63280000  1.0 0.1411679859
H  H22  1  0.71880000  0.11780000  0.89680000  1.0 0.1411679859
H  H23  1  0.58740000  0.03920000  0.56520000  1.0 0.1480929486
H  H24  1  0.77260000  0.15340000  0.50390000  1.0 0.1143078755
H  H25  1  0.83540000  0.16460000  0.86600000  1.0 0.2724904294
H  H26  1  0.16460000  0.83540000  0.13400000  1.0 0.2724904294
H  H27  1  0.74620000  0.74620000  0.50000000  1.0 0.2857191439
H  H28  1  0.25380000  0.25380000  0.50000000  1.0 0.2857191439
C  C1  1  0.71973000  0.65359000  0.62330000  1.0 0.202670979
C  C2  1  0.78874000  0.62992000  0.69520000  1.0 -0.1896581823
C  C3  1  0.79927000  0.57541000  0.82290000  1.0 0.00415765
C  C4  1  0.74043000  0.54385000  0.88150000  1.0 -0.1217733876
C  C5  1  0.67057000  0.56709000  0.81140000  1.0 -0.0026498619
C  C6  1  0.66089000  0.62131000  0.68120000  1.0 -0.1896581823
C  C7  1  0.87461000  0.54965000  0.89500000  1.0 0.5814130878
C  C8  1  0.60717000  0.53757000  0.87890000  1.0 0.5814130878
C  C9  1  0.85555000  0.24455000  0.70890000  1.0 0.2157871749
C  C10  1  0.88732000  0.29170000  0.79940000  1.0 -0.1774893564
C  C11  1  0.92698000  0.35480000  0.74720000  1.0 0.0056974595
C  C12  1  0.93501000  0.37059000  0.60160000  1.0 -0.1011355643
C  C13  1  0.90420000  0.32320000  0.51140000  1.0 -0.0139032065
C  C14  1  0.86563000  0.25963000  0.56470000  1.0 -0.1896581823
C  C15  1  0.95817000  0.40559000  0.84660000  1.0 0.5814130878
C  C16  1  0.91301000  0.34041000  0.35270000  1.0 0.4414188514
C  C17  1  0.65359000  0.71973000  0.37670000  1.0 0.202670979
C  C18  1  0.62992000  0.78874000  0.30480000  1.0 -0.1896581823
C  C19  1  0.57541000  0.79927000  0.17710000  1.0 0.00415765
C  C20  1  0.54385000  0.74043000  0.11850000  1.0 -0.1217733876
C  C21  1  0.56709000  0.67057000  0.18860000  1.0 -0.0026498619
C  C22  1  0.62131000  0.66089000  0.31880000  1.0 -0.1896581823
C  C23  1  0.54965000  0.87461000  0.10500000  1.0 0.5814130878
C  C24  1  0.53757000  0.60717000  0.12110000  1.0 0.5814130878
C  C25  1  0.24455000  0.85555000  0.29110000  1.0 0.2157871749
C  C26  1  0.29170000  0.88732000  0.20060000  1.0 -0.1774893564
C  C27  1  0.35480000  0.92698000  0.25280000  1.0 0.0056974595
C  C28  1  0.37059000  0.93501000  0.39840000  1.0 -0.1059181839
C  C29  1  0.32320000  0.90420000  0.48860000  1.0 -0.0156660725
C  C30  1  0.25963000  0.86563000  0.43530000  1.0 -0.1896581823
C  C31  1  0.40559000  0.95817000  0.15340000  1.0 0.5814130878
C  C32  1  0.34041000  0.91301000  0.64730000  1.0 0.4414188514
C  C33  1  0.28027000  0.34641000  0.37670000  1.0 0.202670979
C  C34  1  0.21126000  0.37008000  0.30480000  1.0 -0.1896581823
C  C35  1  0.20073000  0.42459000  0.17710000  1.0 0.0056974595
C  C36  1  0.25957000  0.45615000  0.11850000  1.0 -0.1217733876
C  C37  1  0.32943000  0.43291000  0.18860000  1.0 -0.0026498619
C  C38  1  0.33911000  0.37869000  0.31880000  1.0 -0.1896581823
C  C39  1  0.12539000  0.45035000  0.10500000  1.0 0.5814130878
C  C40  1  0.39283000  0.46243000  0.12110000  1.0 0.5814130878
C  C41  1  0.14445000  0.75545000  0.29110000  1.0 0.2157871749
C  C42  1  0.11268000  0.70830000  0.20060000  1.0 -0.1774893564
C  C43  1  0.07302000  0.64520000  0.25280000  1.0 0.0056974595
C  C44  1  0.06499000  0.62941000  0.39840000  1.0 -0.1059181839
C  C45  1  0.09580000  0.67680000  0.48860000  1.0 -0.0156660725
C  C46  1  0.13437000  0.74037000  0.43530000  1.0 -0.1896581823
C  C47  1  0.04183000  0.59441000  0.15340000  1.0 0.5814130878
C  C48  1  0.08699000  0.65959000  0.64730000  1.0 0.4414188514
C  C49  1  0.34641000  0.28027000  0.62330000  1.0 0.202670979
C  C50  1  0.37008000  0.21126000  0.69520000  1.0 -0.1896581823
C  C51  1  0.42459000  0.20073000  0.82290000  1.0 0.00415765
C  C52  1  0.45615000  0.25957000  0.88150000  1.0 -0.1217733876
C  C53  1  0.43291000  0.32943000  0.81140000  1.0 -0.0026498619
C  C54  1  0.37869000  0.33911000  0.68120000  1.0 -0.1896581823
C  C55  1  0.45035000  0.12539000  0.89500000  1.0 0.5814130878
C  C56  1  0.46243000  0.39283000  0.87890000  1.0 0.5814130878
C  C57  1  0.75545000  0.14445000  0.70890000  1.0 0.2157871749
C  C58  1  0.70830000  0.11268000  0.79940000  1.0 -0.1774893564
C  C59  1  0.64520000  0.07302000  0.74720000  1.0 0.0056974595
C  C60  1  0.62941000  0.06499000  0.60160000  1.0 -0.1059181839
C  C61  1  0.67680000  0.09580000  0.51140000  1.0 -0.0139032065
C  C62  1  0.74037000  0.13437000  0.56470000  1.0 -0.1896581823
C  C63  1  0.59441000  0.04183000  0.84660000  1.0 0.5814130878
C  C64  1  0.65959000  0.08699000  0.35270000  1.0 0.4414188514
N  N1  1  0.81780000  0.18220000  0.77370000  1.0 -0.2756768589
N  N2  1  0.18220000  0.81780000  0.22630000  1.0 -0.2726848249
N  N3  1  0.71236000  0.71236000  0.50000000  1.0 -0.3112591033
N  N4  1  0.28764000  0.28764000  0.50000000  1.0 -0.3112591033
O  O1  1  0.88157000  0.50109000  0.01370000  1.0 -0.5204801087
O  O2  1  0.92421000  0.57759000  0.83030000  1.0 -0.5204801087
O  O3  1  0.61902000  0.49040000  0.99890000  1.0 -0.5126134504
O  O4  1  0.54679000  0.56333000  0.81350000  1.0 -0.5306510453
O  O5  1  0.94875000  0.38811000  0.97760000  1.0 -0.5306510453
O  O6  1  0.99072000  0.46312000  0.79180000  1.0 -0.5126134504
O  O7  1  0.94523000  0.39691000  0.30930000  1.0 -0.4416938771
O  O8  1  0.90440000  0.28360000  0.29100000  1.0 -0.079497372
O  O9  1  0.86830000  0.30690000  0.26240000  1.0 -0.1011355643
O  O10  1  0.50109000  0.88157000  0.98630000  1.0 -0.5204801087
O  O11  1  0.57759000  0.92421000  0.16970000  1.0 -0.5204801087
O  O12  1  0.49040000  0.61902000  0.00110000  1.0 -0.5126134504
O  O13  1  0.56333000  0.54679000  0.18650000  1.0 -0.5306510453
O  O14  1  0.38811000  0.94875000  0.02240000  1.0 -0.5306510453
O  O15  1  0.46312000  0.99072000  0.20820000  1.0 -0.5126134504
O  O16  1  0.39691000  0.94523000  0.69070000  1.0 -0.4416938771
O  O17  1  0.28360000  0.90440000  0.70900000  1.0 -0.079497372
O  O18  1  0.30690000  0.86830000  0.73760000  1.0 -0.0922734414
O  O19  1  0.11843000  0.49891000  0.98630000  1.0 -0.5204801087
O  O20  1  0.07579000  0.42241000  0.16970000  1.0 -0.5204801087
O  O21  1  0.38098000  0.50960000  0.00110000  1.0 -0.5126134504
O  O22  1  0.45321000  0.43667000  0.18650000  1.0 -0.5306510453
O  O23  1  0.05125000  0.61189000  0.02240000  1.0 -0.5306510453
O  O24  1  0.00928000  0.53688000  0.20820000  1.0 -0.5126134504
O  O25  1  0.05477000  0.60309000  0.69070000  1.0 -0.4416938771
O  O26  1  0.09560000  0.71640000  0.70900000  1.0 -0.0922734414
O  O27  1  0.13170000  0.69310000  0.73760000  1.0 -0.1011355643
O  O28  1  0.49891000  0.11843000  0.01370000  1.0 -0.5204801087
O  O29  1  0.42241000  0.07579000  0.83030000  1.0 -0.5204801087
O  O30  1  0.50960000  0.38098000  0.99890000  1.0 -0.5126134504
O  O31  1  0.43667000  0.45321000  0.81350000  1.0 -0.5306510453
O  O32  1  0.61189000  0.05125000  0.97760000  1.0 -0.5306510453
O  O33  1  0.53688000  0.00928000  0.79180000  1.0 -0.5126134504
O  O34  1  0.60309000  0.05477000  0.30930000  1.0 -0.4416938771
O  O35  1  0.71640000  0.09560000  0.29100000  1.0 -0.0746304219
O  O36  1  0.69310000  0.13170000  0.26240000  1.0 -0.0922734414
