# DDEC6 charges by PACMAN v1.1 (https://github.com/mtap-research/PACMAN-charge/)
data_PIGHAR_FSR_pacman
_symmetry_space_group_name_H-M   'P 1'
_cell_length_a   13.40960000
_cell_length_b   14.86180000
_cell_length_c   18.22100000
_cell_angle_alpha   90.00000000
_cell_angle_beta   90.00000000
_cell_angle_gamma   90.00000000
_symmetry_Int_Tables_number   1
_chemical_formula_structural   CoH38C36S2(N3O4)2
_chemical_formula_sum   'Co4 H152 C144 S8 N24 O32'
_cell_volume   3631.27754435
_cell_formula_units_Z   4
loop_
 _symmetry_equiv_pos_site_id
 _symmetry_equiv_pos_as_xyz
  1  'x, y, z'
loop_
 _atom_site_type_symbol
 _atom_site_label
 _atom_site_symmetry_multiplicity
 _atom_site_fract_x
 _atom_site_fract_y
 _atom_site_fract_z
 _atom_site_occupancy
 _atom_site_charge
Co  Co1  1  0.25000000  0.75000000  0.24908000  1.0 0.6629516958
Co  Co2  1  0.75000000  0.25000000  0.75092000  1.0 0.6629516958
Co  Co3  1  0.75000000  0.25000000  0.25092000  1.0 0.6629516958
Co  Co4  1  0.25000000  0.75000000  0.74908000  1.0 0.6629516958
H  H1  1  0.28930000  0.62320000  0.37880000  1.0 0.1095750053
H  H2  1  0.21370000  0.55290000  0.47550000  1.0 0.1321092203
H  H3  1  0.95320000  0.65060000  0.40400000  1.0 0.1321092203
H  H4  1  0.03680000  0.71630000  0.30930000  1.0 0.1095750053
H  H5  1  0.06900000  0.53430000  0.55240000  1.0 0.1095750053
H  H6  1  0.14440000  0.77640000  0.10200000  1.0 0.1175167586
H  H7  1  0.94260000  0.59420000  0.58520000  1.0 0.2259532242
H  H8  1  0.05510000  0.69510000  0.01100000  1.0 0.1095750053
H  H9  1  0.15570000  0.47000000  0.10640000  1.0 0.0901425082
H  H10  1  0.21940000  0.55550000  0.19940000  1.0 0.0901425082
H  H11  1  0.03990000  0.55700000  0.94580000  1.0 0.0376204741
H  H12  1  0.10150000  0.43970000  0.92260000  1.0 0.2576897322
H  H13  1  0.96300000  0.58300000  0.52670000  1.0 0.1175167586
H  H14  1  0.04660000  0.54090000  0.61060000  1.0 0.2164601787
H  H15  1  0.03380000  0.72090000  0.02660000  1.0 0.1009577023
H  H16  1  0.07410000  0.48840000  0.13490000  1.0 0.0811866625
H  H17  1  0.16350000  0.56940000  0.21870000  1.0 0.0901425082
H  H18  1  0.91660000  0.56030000  0.00120000  1.0 0.1095750053
H  H19  1  0.04930000  0.61950000  0.92900000  1.0 0.1935695663
H  H20  1  0.21070000  0.87680000  0.37880000  1.0 0.1095750053
H  H21  1  0.28630000  0.94710000  0.47550000  1.0 0.1321092203
H  H22  1  0.54680000  0.84940000  0.40400000  1.0 0.1321092203
H  H23  1  0.46320000  0.78370000  0.30930000  1.0 0.1095750053
H  H24  1  0.43100000  0.96570000  0.55240000  1.0 0.1095750053
H  H25  1  0.35560000  0.72360000  0.10200000  1.0 0.1175167586
H  H26  1  0.55740000  0.90580000  0.58520000  1.0 0.2259532242
H  H27  1  0.44490000  0.80490000  0.01100000  1.0 0.1095750053
H  H28  1  0.34430000  0.03000000  0.10640000  1.0 0.0901425082
H  H29  1  0.28060000  0.94450000  0.19940000  1.0 0.0901425082
H  H30  1  0.46010000  0.94300000  0.94580000  1.0 0.0376204741
H  H31  1  0.39850000  0.06030000  0.92260000  1.0 0.2576897322
H  H32  1  0.53700000  0.91700000  0.52670000  1.0 0.1175167586
H  H33  1  0.45340000  0.95910000  0.61060000  1.0 0.2164601787
H  H34  1  0.46620000  0.77910000  0.02660000  1.0 0.1009577023
H  H35  1  0.42590000  0.01160000  0.13490000  1.0 0.0811866625
H  H36  1  0.33650000  0.93060000  0.21870000  1.0 0.0901425082
H  H37  1  0.58340000  0.93970000  0.00120000  1.0 0.1095750053
H  H38  1  0.45070000  0.88050000  0.92900000  1.0 0.1935695663
H  H39  1  0.71070000  0.37680000  0.62120000  1.0 0.1095750053
H  H40  1  0.78630000  0.44710000  0.52450000  1.0 0.1321092203
H  H41  1  0.04680000  0.34940000  0.59600000  1.0 0.1321092203
H  H42  1  0.96320000  0.28370000  0.69070000  1.0 0.1095750053
H  H43  1  0.93100000  0.46570000  0.44760000  1.0 0.1095750053
H  H44  1  0.85560000  0.22360000  0.89800000  1.0 0.1175167586
H  H45  1  0.05740000  0.40580000  0.41480000  1.0 0.2259532242
H  H46  1  0.94490000  0.30490000  0.98900000  1.0 0.1095750053
H  H47  1  0.84430000  0.53000000  0.89360000  1.0 0.0901425082
H  H48  1  0.78060000  0.44450000  0.80060000  1.0 0.0901425082
H  H49  1  0.96010000  0.44300000  0.05420000  1.0 0.0376204741
H  H50  1  0.89850000  0.56030000  0.07740000  1.0 0.2576897322
H  H51  1  0.03700000  0.41700000  0.47330000  1.0 0.1175167586
H  H52  1  0.95340000  0.45910000  0.38940000  1.0 0.2164601787
H  H53  1  0.96620000  0.27910000  0.97340000  1.0 0.1009577023
H  H54  1  0.92590000  0.51160000  0.86510000  1.0 0.0811866625
H  H55  1  0.83650000  0.43060000  0.78130000  1.0 0.0901425082
H  H56  1  0.08340000  0.43970000  0.99880000  1.0 0.1095750053
H  H57  1  0.95070000  0.38050000  0.07100000  1.0 0.1935695663
H  H58  1  0.78930000  0.12320000  0.62120000  1.0 0.1095750053
H  H59  1  0.71370000  0.05290000  0.52450000  1.0 0.1321092203
H  H60  1  0.45320000  0.15060000  0.59600000  1.0 0.1321092203
H  H61  1  0.53680000  0.21630000  0.69070000  1.0 0.1095750053
H  H62  1  0.56900000  0.03430000  0.44760000  1.0 0.1095750053
H  H63  1  0.64440000  0.27640000  0.89800000  1.0 0.1175167586
H  H64  1  0.44260000  0.09420000  0.41480000  1.0 0.2259532242
H  H65  1  0.55510000  0.19510000  0.98900000  1.0 0.1095750053
H  H66  1  0.65570000  0.97000000  0.89360000  1.0 0.0901425082
H  H67  1  0.71940000  0.05550000  0.80060000  1.0 0.0901425082
H  H68  1  0.53990000  0.05700000  0.05420000  1.0 0.0376204741
H  H69  1  0.60150000  0.93970000  0.07740000  1.0 0.2576897322
H  H70  1  0.46300000  0.08300000  0.47330000  1.0 0.1175167586
H  H71  1  0.54660000  0.04090000  0.38940000  1.0 0.2164601787
H  H72  1  0.53380000  0.22090000  0.97340000  1.0 0.1009577023
H  H73  1  0.57410000  0.98840000  0.86510000  1.0 0.0811866625
H  H74  1  0.66350000  0.06940000  0.78130000  1.0 0.0901425082
H  H75  1  0.41660000  0.06030000  0.99880000  1.0 0.1095750053
H  H76  1  0.54930000  0.11950000  0.07100000  1.0 0.1935695663
H  H77  1  0.71070000  0.12320000  0.12120000  1.0 0.1095750053
H  H78  1  0.78630000  0.05290000  0.02450000  1.0 0.1321092203
H  H79  1  0.04680000  0.15060000  0.09600000  1.0 0.1321092203
H  H80  1  0.96320000  0.21630000  0.19070000  1.0 0.1095750053
H  H81  1  0.93100000  0.03430000  0.94760000  1.0 0.1095750053
H  H82  1  0.85560000  0.27640000  0.39800000  1.0 0.1175167586
H  H83  1  0.05740000  0.09420000  0.91480000  1.0 0.2259532242
H  H84  1  0.94490000  0.19510000  0.48900000  1.0 0.1095750053
H  H85  1  0.84430000  0.97000000  0.39360000  1.0 0.0901425082
H  H86  1  0.78060000  0.05550000  0.30060000  1.0 0.0901425082
H  H87  1  0.96010000  0.05700000  0.55420000  1.0 0.0376204741
H  H88  1  0.89850000  0.93970000  0.57740000  1.0 0.2576897322
H  H89  1  0.03700000  0.08300000  0.97330000  1.0 0.1175167586
H  H90  1  0.95340000  0.04090000  0.88940000  1.0 0.2164601787
H  H91  1  0.96620000  0.22090000  0.47340000  1.0 0.1009577023
H  H92  1  0.92590000  0.98840000  0.36510000  1.0 0.0811866625
H  H93  1  0.83650000  0.06940000  0.28130000  1.0 0.0901425082
H  H94  1  0.08340000  0.06030000  0.49880000  1.0 0.1095750053
H  H95  1  0.95070000  0.11950000  0.57100000  1.0 0.1935695663
H  H96  1  0.78930000  0.37680000  0.12120000  1.0 0.1095750053
H  H97  1  0.71370000  0.44710000  0.02450000  1.0 0.1321092203
H  H98  1  0.45320000  0.34940000  0.09600000  1.0 0.1321092203
H  H99  1  0.53680000  0.28370000  0.19070000  1.0 0.1095750053
H  H100  1  0.56900000  0.46570000  0.94760000  1.0 0.1095750053
H  H101  1  0.64440000  0.22360000  0.39800000  1.0 0.1175167586
H  H102  1  0.44260000  0.40580000  0.91480000  1.0 0.2259532242
H  H103  1  0.55510000  0.30490000  0.48900000  1.0 0.1095750053
H  H104  1  0.65570000  0.53000000  0.39360000  1.0 0.0901425082
H  H105  1  0.71940000  0.44450000  0.30060000  1.0 0.0901425082
H  H106  1  0.53990000  0.44300000  0.55420000  1.0 0.0376204741
H  H107  1  0.60150000  0.56030000  0.57740000  1.0 0.2576897322
H  H108  1  0.46300000  0.41700000  0.97330000  1.0 0.1175167586
H  H109  1  0.54660000  0.45910000  0.88940000  1.0 0.2164601787
H  H110  1  0.53380000  0.27910000  0.47340000  1.0 0.1009577023
H  H111  1  0.57410000  0.51160000  0.36510000  1.0 0.0811866625
H  H112  1  0.66350000  0.43060000  0.28130000  1.0 0.0901425082
H  H113  1  0.41660000  0.43970000  0.49880000  1.0 0.1095750053
H  H114  1  0.54930000  0.38050000  0.57100000  1.0 0.1935695663
H  H115  1  0.28930000  0.87680000  0.87880000  1.0 0.1095750053
H  H116  1  0.21370000  0.94710000  0.97550000  1.0 0.1321092203
H  H117  1  0.95320000  0.84940000  0.90400000  1.0 0.1321092203
H  H118  1  0.03680000  0.78370000  0.80930000  1.0 0.1095750053
H  H119  1  0.06900000  0.96570000  0.05240000  1.0 0.1095750053
H  H120  1  0.14440000  0.72360000  0.60200000  1.0 0.1175167586
H  H121  1  0.94260000  0.90580000  0.08520000  1.0 0.2259532242
H  H122  1  0.05510000  0.80490000  0.51100000  1.0 0.1095750053
H  H123  1  0.15570000  0.03000000  0.60640000  1.0 0.0901425082
H  H124  1  0.21940000  0.94450000  0.69940000  1.0 0.0901425082
H  H125  1  0.03990000  0.94300000  0.44580000  1.0 0.0376204741
H  H126  1  0.10150000  0.06030000  0.42260000  1.0 0.2576897322
H  H127  1  0.96300000  0.91700000  0.02670000  1.0 0.1175167586
H  H128  1  0.04660000  0.95910000  0.11060000  1.0 0.2164601787
H  H129  1  0.03380000  0.77910000  0.52660000  1.0 0.1009577023
H  H130  1  0.07410000  0.01160000  0.63490000  1.0 0.0811866625
H  H131  1  0.16350000  0.93060000  0.71870000  1.0 0.0901425082
H  H132  1  0.91660000  0.93970000  0.50120000  1.0 0.1095750053
H  H133  1  0.04930000  0.88050000  0.42900000  1.0 0.1935695663
H  H134  1  0.21070000  0.62320000  0.87880000  1.0 0.1095750053
H  H135  1  0.28630000  0.55290000  0.97550000  1.0 0.1321092203
H  H136  1  0.54680000  0.65060000  0.90400000  1.0 0.1321092203
H  H137  1  0.46320000  0.71630000  0.80930000  1.0 0.1095750053
H  H138  1  0.43100000  0.53430000  0.05240000  1.0 0.1095750053
H  H139  1  0.35560000  0.77640000  0.60200000  1.0 0.1175167586
H  H140  1  0.55740000  0.59420000  0.08520000  1.0 0.2259532242
H  H141  1  0.44490000  0.69510000  0.51100000  1.0 0.1095750053
H  H142  1  0.34430000  0.47000000  0.60640000  1.0 0.0901425082
H  H143  1  0.28060000  0.55550000  0.69940000  1.0 0.0901425082
H  H144  1  0.46010000  0.55700000  0.44580000  1.0 0.0376204741
H  H145  1  0.39850000  0.43970000  0.42260000  1.0 0.2576897322
H  H146  1  0.53700000  0.58300000  0.02670000  1.0 0.1175167586
H  H147  1  0.45340000  0.54090000  0.11060000  1.0 0.2164601787
H  H148  1  0.46620000  0.72090000  0.52660000  1.0 0.1009577023
H  H149  1  0.42590000  0.48840000  0.63490000  1.0 0.0811866625
H  H150  1  0.33650000  0.56940000  0.71870000  1.0 0.0901425082
H  H151  1  0.58340000  0.56030000  0.50120000  1.0 0.1095750053
H  H152  1  0.45070000  0.61950000  0.42900000  1.0 0.1935695663
C  C1  1  0.22050000  0.62860000  0.38390000  1.0 0.02198749
C  C2  1  0.17570000  0.58610000  0.44240000  1.0 -0.2938813575
C  C3  1  0.07380000  0.59330000  0.45150000  1.0 -0.0108227803
C  C4  1  0.02190000  0.64370000  0.40010000  1.0 -0.2001379084
C  C5  1  0.07290000  0.68310000  0.34340000  1.0 0.0505709689
C  C6  1  0.02050000  0.54580000  0.51330000  1.0 0.1009577023
C  C7  1  0.12820000  0.71610000  0.10840000  1.0 -0.050335639
C  C8  1  0.44280000  0.62110000  0.23580000  1.0 0.1095750053
C  C9  1  0.08780000  0.66570000  0.04920000  1.0 -0.0877145872
C  C10  1  0.09700000  0.57260000  0.04810000  1.0 0.0505709689
C  C11  1  0.14740000  0.53210000  0.10570000  1.0 -0.0684979087
C  C12  1  0.18500000  0.58380000  0.16150000  1.0 0.0376204741
C  C13  1  0.05140000  0.51630000  0.98730000  1.0 0.1009577023
C  C14  1  0.06400000  0.68440000  0.06160000  1.0 -0.1045053116
C  C15  1  0.04330000  0.59260000  0.06650000  1.0 0.0031358293
C  C16  1  0.08570000  0.54940000  0.12710000  1.0 -0.0684979087
C  C17  1  0.14450000  0.59720000  0.17520000  1.0 0.0624248191
C  C18  1  0.98800000  0.54710000  0.00300000  1.0 0.0376204741
C  C19  1  0.27950000  0.87140000  0.38390000  1.0 0.02198749
C  C20  1  0.32430000  0.91390000  0.44240000  1.0 -0.2938813575
C  C21  1  0.42620000  0.90670000  0.45150000  1.0 -0.0108227803
C  C22  1  0.47810000  0.85630000  0.40010000  1.0 -0.2001379084
C  C23  1  0.42710000  0.81690000  0.34340000  1.0 0.0505709689
C  C24  1  0.47950000  0.95420000  0.51330000  1.0 0.1009577023
C  C25  1  0.37180000  0.78390000  0.10840000  1.0 -0.050335639
C  C26  1  0.05720000  0.87890000  0.23580000  1.0 0.1095750053
C  C27  1  0.41220000  0.83430000  0.04920000  1.0 -0.0877145872
C  C28  1  0.40300000  0.92740000  0.04810000  1.0 0.0505709689
C  C29  1  0.35260000  0.96790000  0.10570000  1.0 -0.0684979087
C  C30  1  0.31500000  0.91620000  0.16150000  1.0 0.0376204741
C  C31  1  0.44860000  0.98370000  0.98730000  1.0 0.1009577023
C  C32  1  0.43600000  0.81560000  0.06160000  1.0 -0.1045053116
C  C33  1  0.45670000  0.90740000  0.06650000  1.0 0.0031358293
C  C34  1  0.41430000  0.95060000  0.12710000  1.0 -0.0684979087
C  C35  1  0.35550000  0.90280000  0.17520000  1.0 0.0624248191
C  C36  1  0.51200000  0.95290000  0.00300000  1.0 0.0376204741
C  C37  1  0.77950000  0.37140000  0.61610000  1.0 0.02198749
C  C38  1  0.82430000  0.41390000  0.55760000  1.0 -0.2938813575
C  C39  1  0.92620000  0.40670000  0.54850000  1.0 -0.0108227803
C  C40  1  0.97810000  0.35630000  0.59990000  1.0 -0.2001379084
C  C41  1  0.92710000  0.31690000  0.65660000  1.0 0.0505709689
C  C42  1  0.97950000  0.45420000  0.48670000  1.0 0.1009577023
C  C43  1  0.87180000  0.28390000  0.89160000  1.0 -0.050335639
C  C44  1  0.55720000  0.37890000  0.76420000  1.0 0.1175167586
C  C45  1  0.91220000  0.33430000  0.95080000  1.0 -0.0877145872
C  C46  1  0.90300000  0.42740000  0.95190000  1.0 0.0505709689
C  C47  1  0.85260000  0.46790000  0.89430000  1.0 -0.0684979087
C  C48  1  0.81500000  0.41620000  0.83850000  1.0 0.0376204741
C  C49  1  0.94860000  0.48370000  0.01270000  1.0 0.1009577023
C  C50  1  0.93600000  0.31560000  0.93840000  1.0 -0.1045053116
C  C51  1  0.95670000  0.40740000  0.93350000  1.0 0.0031358293
C  C52  1  0.91430000  0.45060000  0.87290000  1.0 -0.0684979087
C  C53  1  0.85550000  0.40280000  0.82480000  1.0 0.0624248191
C  C54  1  0.01200000  0.45290000  0.99700000  1.0 0.0376204741
C  C55  1  0.72050000  0.12860000  0.61610000  1.0 0.02198749
C  C56  1  0.67570000  0.08610000  0.55760000  1.0 -0.2938813575
C  C57  1  0.57380000  0.09330000  0.54850000  1.0 -0.0108227803
C  C58  1  0.52190000  0.14370000  0.59990000  1.0 -0.2001379084
C  C59  1  0.57290000  0.18310000  0.65660000  1.0 0.0505709689
C  C60  1  0.52050000  0.04580000  0.48670000  1.0 0.1009577023
C  C61  1  0.62820000  0.21610000  0.89160000  1.0 -0.050335639
C  C62  1  0.94280000  0.12110000  0.76420000  1.0 0.1095750053
C  C63  1  0.58780000  0.16570000  0.95080000  1.0 -0.0877145872
C  C64  1  0.59700000  0.07260000  0.95190000  1.0 0.0505709689
C  C65  1  0.64740000  0.03210000  0.89430000  1.0 -0.0684979087
C  C66  1  0.68500000  0.08380000  0.83850000  1.0 0.0376204741
C  C67  1  0.55140000  0.01630000  0.01270000  1.0 0.1009577023
C  C68  1  0.56400000  0.18440000  0.93840000  1.0 -0.1045053116
C  C69  1  0.54330000  0.09260000  0.93350000  1.0 0.0031358293
C  C70  1  0.58570000  0.04940000  0.87290000  1.0 -0.0684979087
C  C71  1  0.64450000  0.09720000  0.82480000  1.0 0.0624248191
C  C72  1  0.48800000  0.04710000  0.99700000  1.0 0.0376204741
C  C73  1  0.77950000  0.12860000  0.11610000  1.0 0.02198749
C  C74  1  0.82430000  0.08610000  0.05760000  1.0 -0.2938813575
C  C75  1  0.92620000  0.09330000  0.04850000  1.0 -0.0108227803
C  C76  1  0.97810000  0.14370000  0.09990000  1.0 -0.2001379084
C  C77  1  0.92710000  0.18310000  0.15660000  1.0 0.0505709689
C  C78  1  0.97950000  0.04580000  0.98670000  1.0 0.1009577023
C  C79  1  0.87180000  0.21610000  0.39160000  1.0 -0.050335639
C  C80  1  0.55720000  0.12110000  0.26420000  1.0 0.1095750053
C  C81  1  0.91220000  0.16570000  0.45080000  1.0 -0.0877145872
C  C82  1  0.90300000  0.07260000  0.45190000  1.0 0.0505709689
C  C83  1  0.85260000  0.03210000  0.39430000  1.0 -0.0684979087
C  C84  1  0.81500000  0.08380000  0.33850000  1.0 0.0376204741
C  C85  1  0.94860000  0.01630000  0.51270000  1.0 0.1009577023
C  C86  1  0.93600000  0.18440000  0.43840000  1.0 -0.1045053116
C  C87  1  0.95670000  0.09260000  0.43350000  1.0 0.0031358293
C  C88  1  0.91430000  0.04940000  0.37290000  1.0 -0.0684979087
C  C89  1  0.85550000  0.09720000  0.32480000  1.0 0.0624248191
C  C90  1  0.01200000  0.04710000  0.49700000  1.0 0.0376204741
C  C91  1  0.72050000  0.37140000  0.11610000  1.0 0.02198749
C  C92  1  0.67570000  0.41390000  0.05760000  1.0 -0.2938813575
C  C93  1  0.57380000  0.40670000  0.04850000  1.0 -0.0108227803
C  C94  1  0.52190000  0.35630000  0.09990000  1.0 -0.2001379084
C  C95  1  0.57290000  0.31690000  0.15660000  1.0 0.0505709689
C  C96  1  0.52050000  0.45420000  0.98670000  1.0 0.1009577023
C  C97  1  0.62820000  0.28390000  0.39160000  1.0 -0.050335639
C  C98  1  0.94280000  0.37890000  0.26420000  1.0 0.1175167586
C  C99  1  0.58780000  0.33430000  0.45080000  1.0 -0.0877145872
C  C100  1  0.59700000  0.42740000  0.45190000  1.0 0.0505709689
C  C101  1  0.64740000  0.46790000  0.39430000  1.0 -0.0684979087
C  C102  1  0.68500000  0.41620000  0.33850000  1.0 0.0376204741
C  C103  1  0.55140000  0.48370000  0.51270000  1.0 0.1009577023
C  C104  1  0.56400000  0.31560000  0.43840000  1.0 -0.1045053116
C  C105  1  0.54330000  0.40740000  0.43350000  1.0 0.0031358293
C  C106  1  0.58570000  0.45060000  0.37290000  1.0 -0.0684979087
C  C107  1  0.64450000  0.40280000  0.32480000  1.0 0.0624248191
C  C108  1  0.48800000  0.45290000  0.49700000  1.0 0.0376204741
C  C109  1  0.22050000  0.87140000  0.88390000  1.0 0.02198749
C  C110  1  0.17570000  0.91390000  0.94240000  1.0 -0.2938813575
C  C111  1  0.07380000  0.90670000  0.95150000  1.0 -0.0108227803
C  C112  1  0.02190000  0.85630000  0.90010000  1.0 -0.2001379084
C  C113  1  0.07290000  0.81690000  0.84340000  1.0 0.0505709689
C  C114  1  0.02050000  0.95420000  0.01330000  1.0 0.1009577023
C  C115  1  0.12820000  0.78390000  0.60840000  1.0 -0.050335639
C  C116  1  0.44280000  0.87890000  0.73580000  1.0 0.1095750053
C  C117  1  0.08780000  0.83430000  0.54920000  1.0 -0.0877145872
C  C118  1  0.09700000  0.92740000  0.54810000  1.0 0.0505709689
C  C119  1  0.14740000  0.96790000  0.60570000  1.0 -0.0684979087
C  C120  1  0.18500000  0.91620000  0.66150000  1.0 0.0376204741
C  C121  1  0.05140000  0.98370000  0.48730000  1.0 0.1009577023
C  C122  1  0.06400000  0.81560000  0.56160000  1.0 -0.1045053116
C  C123  1  0.04330000  0.90740000  0.56650000  1.0 0.0031358293
C  C124  1  0.08570000  0.95060000  0.62710000  1.0 -0.0684979087
C  C125  1  0.14450000  0.90280000  0.67520000  1.0 0.0624248191
C  C126  1  0.98800000  0.95290000  0.50300000  1.0 0.0376204741
C  C127  1  0.27950000  0.62860000  0.88390000  1.0 0.02198749
C  C128  1  0.32430000  0.58610000  0.94240000  1.0 -0.2938813575
C  C129  1  0.42620000  0.59330000  0.95150000  1.0 -0.0108227803
C  C130  1  0.47810000  0.64370000  0.90010000  1.0 -0.2001379084
C  C131  1  0.42710000  0.68310000  0.84340000  1.0 0.0505709689
C  C132  1  0.47950000  0.54580000  0.01330000  1.0 0.1009577023
C  C133  1  0.37180000  0.71610000  0.60840000  1.0 -0.050335639
C  C134  1  0.05720000  0.62110000  0.73580000  1.0 0.1095750053
C  C135  1  0.41220000  0.66570000  0.54920000  1.0 -0.0877145872
C  C136  1  0.40300000  0.57260000  0.54810000  1.0 0.0505709689
C  C137  1  0.35260000  0.53210000  0.60570000  1.0 -0.0684979087
C  C138  1  0.31500000  0.58380000  0.66150000  1.0 0.0376204741
C  C139  1  0.44860000  0.51630000  0.48730000  1.0 0.1009577023
C  C140  1  0.43600000  0.68440000  0.56160000  1.0 -0.1045053116
C  C141  1  0.45670000  0.59260000  0.56650000  1.0 0.0031358293
C  C142  1  0.41430000  0.54940000  0.62710000  1.0 -0.0684979087
C  C143  1  0.35550000  0.59720000  0.67520000  1.0 0.0624248191
C  C144  1  0.51200000  0.54710000  0.50300000  1.0 0.0376204741
S  S1  1  0.55147000  0.57513000  0.21826000  1.0 -0.3600291208
S  S2  1  0.94853000  0.92487000  0.21826000  1.0 -0.3600291208
S  S3  1  0.44853000  0.42487000  0.78174000  1.0 -0.3600291208
S  S4  1  0.05147000  0.07513000  0.78174000  1.0 -0.3600291208
S  S5  1  0.44853000  0.07513000  0.28174000  1.0 -0.3600291208
S  S6  1  0.05147000  0.42487000  0.28174000  1.0 -0.3600291208
S  S7  1  0.55147000  0.92487000  0.71826000  1.0 -0.3600291208
S  S8  1  0.94853000  0.57513000  0.71826000  1.0 -0.3600291208
N  N1  1  0.17170000  0.67650000  0.33430000  1.0 -0.2263303556
N  N2  1  0.17400000  0.67590000  0.16390000  1.0 -0.1690627903
N  N3  1  0.36400000  0.65410000  0.24750000  1.0 -0.4333994956
N  N4  1  0.32830000  0.82350000  0.33430000  1.0 -0.2263303556
N  N5  1  0.32600000  0.82410000  0.16390000  1.0 -0.1690627903
N  N6  1  0.13600000  0.84590000  0.24750000  1.0 -0.4333994956
N  N7  1  0.82830000  0.32350000  0.66570000  1.0 -0.2263303556
N  N8  1  0.82600000  0.32410000  0.83610000  1.0 -0.1690627903
N  N9  1  0.63600000  0.34590000  0.75250000  1.0 -0.4333994956
N  N10  1  0.67170000  0.17650000  0.66570000  1.0 -0.2263303556
N  N11  1  0.67400000  0.17590000  0.83610000  1.0 -0.1690627903
N  N12  1  0.86400000  0.15410000  0.75250000  1.0 -0.4333994956
N  N13  1  0.82830000  0.17650000  0.16570000  1.0 -0.2263303556
N  N14  1  0.82600000  0.17590000  0.33610000  1.0 -0.1690627903
N  N15  1  0.63600000  0.15410000  0.25250000  1.0 -0.4333994956
N  N16  1  0.67170000  0.32350000  0.16570000  1.0 -0.2263303556
N  N17  1  0.67400000  0.32410000  0.33610000  1.0 -0.1690627903
N  N18  1  0.86400000  0.34590000  0.25250000  1.0 -0.4333994956
N  N19  1  0.17170000  0.82350000  0.83430000  1.0 -0.2263303556
N  N20  1  0.17400000  0.82410000  0.66390000  1.0 -0.1690627903
N  N21  1  0.36400000  0.84590000  0.74750000  1.0 -0.4333994956
N  N22  1  0.32830000  0.67650000  0.83430000  1.0 -0.2263303556
N  N23  1  0.32600000  0.67590000  0.66390000  1.0 -0.1690627903
N  N24  1  0.13600000  0.65410000  0.74750000  1.0 -0.4333994956
O  O1  1  0.94800000  0.60220000  0.54090000  1.0 -0.3746739522
O  O2  1  0.11560000  0.45500000  0.96460000  1.0 -0.2822576583
O  O3  1  0.08090000  0.54120000  0.57330000  1.0 -0.3746739522
O  O4  1  0.04100000  0.56500000  0.93380000  1.0 -0.235054043
O  O5  1  0.55200000  0.89780000  0.54090000  1.0 -0.3746739522
O  O6  1  0.38440000  0.04500000  0.96460000  1.0 -0.2822576583
O  O7  1  0.41910000  0.95880000  0.57330000  1.0 -0.3746739522
O  O8  1  0.45900000  0.93500000  0.93380000  1.0 -0.235054043
O  O9  1  0.05200000  0.39780000  0.45910000  1.0 -0.3746739522
O  O10  1  0.88440000  0.54500000  0.03540000  1.0 -0.2822576583
O  O11  1  0.91910000  0.45880000  0.42670000  1.0 -0.3746739522
O  O12  1  0.95900000  0.43500000  0.06620000  1.0 -0.235054043
O  O13  1  0.44800000  0.10220000  0.45910000  1.0 -0.3746739522
O  O14  1  0.61560000  0.95500000  0.03540000  1.0 -0.2822576583
O  O15  1  0.58090000  0.04120000  0.42670000  1.0 -0.3746739522
O  O16  1  0.54100000  0.06500000  0.06620000  1.0 -0.235054043
O  O17  1  0.05200000  0.10220000  0.95910000  1.0 -0.3746739522
O  O18  1  0.88440000  0.95500000  0.53540000  1.0 -0.2822576583
O  O19  1  0.91910000  0.04120000  0.92670000  1.0 -0.3746739522
O  O20  1  0.95900000  0.06500000  0.56620000  1.0 -0.235054043
O  O21  1  0.44800000  0.39780000  0.95910000  1.0 -0.3746739522
O  O22  1  0.61560000  0.54500000  0.53540000  1.0 -0.2822576583
O  O23  1  0.58090000  0.45880000  0.92670000  1.0 -0.3746739522
O  O24  1  0.54100000  0.43500000  0.56620000  1.0 -0.235054043
O  O25  1  0.94800000  0.89780000  0.04090000  1.0 -0.3746739522
O  O26  1  0.11560000  0.04500000  0.46460000  1.0 -0.2822576583
O  O27  1  0.08090000  0.95880000  0.07330000  1.0 -0.3746739522
O  O28  1  0.04100000  0.93500000  0.43380000  1.0 -0.235054043
O  O29  1  0.55200000  0.60220000  0.04090000  1.0 -0.3746739522
O  O30  1  0.38440000  0.45500000  0.46460000  1.0 -0.2822576583
O  O31  1  0.41910000  0.54120000  0.07330000  1.0 -0.3746739522
O  O32  1  0.45900000  0.56500000  0.43380000  1.0 -0.235054043
