# DDEC6 charges by PACMAN v1.1 (https://github.com/mtap-research/PACMAN-charge/)
data_PIGHEV_FSR_pacman
_symmetry_space_group_name_H-M   'P 1'
_cell_length_a   14.77400000
_cell_length_b   14.77400000
_cell_length_c   17.21900000
_cell_angle_alpha   90.00000000
_cell_angle_beta   90.00000000
_cell_angle_gamma   90.00000000
_symmetry_Int_Tables_number   1
_chemical_formula_structural   CoH32C26S2(N3O4)2
_chemical_formula_sum   'Co4 H128 C104 S8 N24 O32'
_cell_volume   3758.40965764
_cell_formula_units_Z   4
loop_
 _symmetry_equiv_pos_site_id
 _symmetry_equiv_pos_as_xyz
  1  'x, y, z'
loop_
 _atom_site_type_symbol
 _atom_site_label
 _atom_site_symmetry_multiplicity
 _atom_site_fract_x
 _atom_site_fract_y
 _atom_site_fract_z
 _atom_site_occupancy
 _atom_site_charge
Co  Co1  1  0.50000000  0.50000000  0.74813000  1.0 0.678793196
Co  Co2  1  0.00000000  0.00000000  0.24813000  1.0 0.678793196
Co  Co3  1  0.50000000  0.50000000  0.25187000  1.0 0.678793196
Co  Co4  1  0.00000000  0.00000000  0.75187000  1.0 0.678793196
H  H1  1  0.30100000  0.48570000  0.69400000  1.0 0.1190246701
H  H2  1  0.21120000  0.42190000  0.60130000  1.0 0.1275125343
H  H3  1  0.42940000  0.31150000  0.50690000  1.0 0.1275125343
H  H4  1  0.51520000  0.37740000  0.60210000  1.0 0.1007947193
H  H5  1  0.29210000  0.29180000  0.44090000  1.0 0.1079050707
H  H6  1  0.95970000  0.12180000  0.39080000  1.0 0.1079050707
H  H7  1  0.03130000  0.20130000  0.48730000  1.0 0.1275125343
H  H8  1  0.26650000  0.12440000  0.40200000  1.0 0.1275125343
H  H9  1  0.18980000  0.05160000  0.30400000  1.0 0.1190246701
H  H10  1  0.16180000  0.24770000  0.55370000  1.0 0.1007947193
H  H11  1  0.14580000  0.37360000  0.47800000  1.0 0.237610808
H  H12  1  0.29260000  0.14020000  0.52860000  1.0 0.237610808
H  H13  1  0.20320000  0.35370000  0.46840000  1.0 0.1190246701
H  H14  1  0.25680000  0.18610000  0.53360000  1.0 0.1275125343
H  H15  1  0.34580000  0.33960000  0.41870000  1.0 0.227437178
H  H16  1  0.18360000  0.25870000  0.61240000  1.0 0.2007654648
H  H17  1  0.69900000  0.51430000  0.69400000  1.0 0.1190246701
H  H18  1  0.78880000  0.57810000  0.60130000  1.0 0.1275125343
H  H19  1  0.57060000  0.68850000  0.50690000  1.0 0.1275125343
H  H20  1  0.48480000  0.62260000  0.60210000  1.0 0.1007947193
H  H21  1  0.70790000  0.70820000  0.44090000  1.0 0.1079050707
H  H22  1  0.04030000  0.87820000  0.39080000  1.0 0.1079050707
H  H23  1  0.96870000  0.79870000  0.48730000  1.0 0.1275125343
H  H24  1  0.73350000  0.87560000  0.40200000  1.0 0.1275125343
H  H25  1  0.81020000  0.94840000  0.30400000  1.0 0.1190246701
H  H26  1  0.83820000  0.75230000  0.55370000  1.0 0.1007947193
H  H27  1  0.85420000  0.62640000  0.47800000  1.0 0.237610808
H  H28  1  0.70740000  0.85980000  0.52860000  1.0 0.237610808
H  H29  1  0.79680000  0.64630000  0.46840000  1.0 0.1190246701
H  H30  1  0.74320000  0.81390000  0.53360000  1.0 0.1275125343
H  H31  1  0.65420000  0.66040000  0.41870000  1.0 0.227437178
H  H32  1  0.81640000  0.74130000  0.61240000  1.0 0.2007654648
H  H33  1  0.98570000  0.80100000  0.19400000  1.0 0.1190246701
H  H34  1  0.92190000  0.71120000  0.10130000  1.0 0.1275125343
H  H35  1  0.81150000  0.92940000  0.00690000  1.0 0.1275125343
H  H36  1  0.87740000  0.01520000  0.10210000  1.0 0.1007947193
H  H37  1  0.79180000  0.79210000  0.94090000  1.0 0.1079050707
H  H38  1  0.62180000  0.45970000  0.89080000  1.0 0.1079050707
H  H39  1  0.70130000  0.53130000  0.98730000  1.0 0.1275125343
H  H40  1  0.62440000  0.76650000  0.90200000  1.0 0.1275125343
H  H41  1  0.55160000  0.68980000  0.80400000  1.0 0.1190246701
H  H42  1  0.74770000  0.66180000  0.05370000  1.0 0.1007947193
H  H43  1  0.87360000  0.64580000  0.97800000  1.0 0.237610808
H  H44  1  0.64020000  0.79260000  0.02860000  1.0 0.237610808
H  H45  1  0.85370000  0.70320000  0.96840000  1.0 0.1190246701
H  H46  1  0.68610000  0.75680000  0.03360000  1.0 0.1275125343
H  H47  1  0.83960000  0.84580000  0.91870000  1.0 0.227437178
H  H48  1  0.75870000  0.68360000  0.11240000  1.0 0.2007654648
H  H49  1  0.01430000  0.19900000  0.19400000  1.0 0.1190246701
H  H50  1  0.07810000  0.28880000  0.10130000  1.0 0.1275125343
H  H51  1  0.18850000  0.07060000  0.00690000  1.0 0.1275125343
H  H52  1  0.12260000  0.98480000  0.10210000  1.0 0.1007947193
H  H53  1  0.20820000  0.20790000  0.94090000  1.0 0.1079050707
H  H54  1  0.37820000  0.54030000  0.89080000  1.0 0.1079050707
H  H55  1  0.29870000  0.46870000  0.98730000  1.0 0.1275125343
H  H56  1  0.37560000  0.23350000  0.90200000  1.0 0.1275125343
H  H57  1  0.44840000  0.31020000  0.80400000  1.0 0.1190246701
H  H58  1  0.25230000  0.33820000  0.05370000  1.0 0.1007947193
H  H59  1  0.12640000  0.35420000  0.97800000  1.0 0.237610808
H  H60  1  0.35980000  0.20740000  0.02860000  1.0 0.237610808
H  H61  1  0.14630000  0.29680000  0.96840000  1.0 0.1190246701
H  H62  1  0.31390000  0.24320000  0.03360000  1.0 0.1275125343
H  H63  1  0.16040000  0.15420000  0.91870000  1.0 0.227437178
H  H64  1  0.24130000  0.31640000  0.11240000  1.0 0.2007654648
H  H65  1  0.51430000  0.30100000  0.30600000  1.0 0.1190246701
H  H66  1  0.57810000  0.21120000  0.39870000  1.0 0.1275125343
H  H67  1  0.68850000  0.42940000  0.49310000  1.0 0.1275125343
H  H68  1  0.62260000  0.51520000  0.39790000  1.0 0.1007947193
H  H69  1  0.70820000  0.29210000  0.55910000  1.0 0.1079050707
H  H70  1  0.87820000  0.95970000  0.60920000  1.0 0.1079050707
H  H71  1  0.79870000  0.03130000  0.51270000  1.0 0.1275125343
H  H72  1  0.87560000  0.26650000  0.59800000  1.0 0.1275125343
H  H73  1  0.94840000  0.18980000  0.69600000  1.0 0.1190246701
H  H74  1  0.75230000  0.16180000  0.44630000  1.0 0.1007947193
H  H75  1  0.62640000  0.14580000  0.52200000  1.0 0.237610808
H  H76  1  0.85980000  0.29260000  0.47140000  1.0 0.237610808
H  H77  1  0.64630000  0.20320000  0.53160000  1.0 0.1190246701
H  H78  1  0.81390000  0.25680000  0.46640000  1.0 0.1275125343
H  H79  1  0.66040000  0.34580000  0.58130000  1.0 0.227437178
H  H80  1  0.74130000  0.18360000  0.38760000  1.0 0.2007654648
H  H81  1  0.48570000  0.69900000  0.30600000  1.0 0.1190246701
H  H82  1  0.42190000  0.78880000  0.39870000  1.0 0.1275125343
H  H83  1  0.31150000  0.57060000  0.49310000  1.0 0.1275125343
H  H84  1  0.37740000  0.48480000  0.39790000  1.0 0.1007947193
H  H85  1  0.29180000  0.70790000  0.55910000  1.0 0.1079050707
H  H86  1  0.12180000  0.04030000  0.60920000  1.0 0.1079050707
H  H87  1  0.20130000  0.96870000  0.51270000  1.0 0.1275125343
H  H88  1  0.12440000  0.73350000  0.59800000  1.0 0.1275125343
H  H89  1  0.05160000  0.81020000  0.69600000  1.0 0.1190246701
H  H90  1  0.24770000  0.83820000  0.44630000  1.0 0.1007947193
H  H91  1  0.37360000  0.85420000  0.52200000  1.0 0.237610808
H  H92  1  0.14020000  0.70740000  0.47140000  1.0 0.237610808
H  H93  1  0.35370000  0.79680000  0.53160000  1.0 0.1190246701
H  H94  1  0.18610000  0.74320000  0.46640000  1.0 0.1275125343
H  H95  1  0.33960000  0.65420000  0.58130000  1.0 0.227437178
H  H96  1  0.25870000  0.81640000  0.38760000  1.0 0.2007654648
H  H97  1  0.19900000  0.98570000  0.80600000  1.0 0.1190246701
H  H98  1  0.28880000  0.92190000  0.89870000  1.0 0.1275125343
H  H99  1  0.07060000  0.81150000  0.99310000  1.0 0.1275125343
H  H100  1  0.98480000  0.87740000  0.89790000  1.0 0.1007947193
H  H101  1  0.20790000  0.79180000  0.05910000  1.0 0.1079050707
H  H102  1  0.54030000  0.62180000  0.10920000  1.0 0.1079050707
H  H103  1  0.46870000  0.70130000  0.01270000  1.0 0.1275125343
H  H104  1  0.23350000  0.62440000  0.09800000  1.0 0.1275125343
H  H105  1  0.31020000  0.55160000  0.19600000  1.0 0.1190246701
H  H106  1  0.33820000  0.74770000  0.94630000  1.0 0.1007947193
H  H107  1  0.35420000  0.87360000  0.02200000  1.0 0.237610808
H  H108  1  0.20740000  0.64020000  0.97140000  1.0 0.237610808
H  H109  1  0.29680000  0.85370000  0.03160000  1.0 0.1190246701
H  H110  1  0.24320000  0.68610000  0.96640000  1.0 0.1275125343
H  H111  1  0.15420000  0.83960000  0.08130000  1.0 0.227437178
H  H112  1  0.31640000  0.75870000  0.88760000  1.0 0.2007654648
H  H113  1  0.80100000  0.01430000  0.80600000  1.0 0.1190246701
H  H114  1  0.71120000  0.07810000  0.89870000  1.0 0.1275125343
H  H115  1  0.92940000  0.18850000  0.99310000  1.0 0.1275125343
H  H116  1  0.01520000  0.12260000  0.89790000  1.0 0.1007947193
H  H117  1  0.79210000  0.20820000  0.05910000  1.0 0.1079050707
H  H118  1  0.45970000  0.37820000  0.10920000  1.0 0.1079050707
H  H119  1  0.53130000  0.29870000  0.01270000  1.0 0.1275125343
H  H120  1  0.76650000  0.37560000  0.09800000  1.0 0.1275125343
H  H121  1  0.68980000  0.44840000  0.19600000  1.0 0.1190246701
H  H122  1  0.66180000  0.25230000  0.94630000  1.0 0.1007947193
H  H123  1  0.64580000  0.12640000  0.02200000  1.0 0.237610808
H  H124  1  0.79260000  0.35980000  0.97140000  1.0 0.237610808
H  H125  1  0.70320000  0.14630000  0.03160000  1.0 0.1190246701
H  H126  1  0.75680000  0.31390000  0.96640000  1.0 0.1275125343
H  H127  1  0.84580000  0.16040000  0.08130000  1.0 0.227437178
H  H128  1  0.68360000  0.24130000  0.88760000  1.0 0.2007654648
C  C1  1  0.32750000  0.44950000  0.65610000  1.0 0.0730490874
C  C2  1  0.27330000  0.41150000  0.60090000  1.0 -0.1978428267
C  C3  1  0.31110000  0.35790000  0.54480000  1.0 -0.037588175
C  C4  1  0.40170000  0.34630000  0.54510000  1.0 -0.2148092199
C  C5  1  0.45290000  0.38640000  0.60260000  1.0 0.082097803
C  C6  1  0.25170000  0.31150000  0.48270000  1.0 0.082097803
C  C7  1  0.02260000  0.12300000  0.39140000  1.0 0.1007947193
C  C8  1  0.06620000  0.17160000  0.45030000  1.0 -0.1937970506
C  C9  1  0.15640000  0.17680000  0.45510000  1.0 -0.0512173824
C  C10  1  0.20370000  0.12720000  0.40000000  1.0 -0.1937970506
C  C11  1  0.15670000  0.08190000  0.34190000  1.0 0.082097803
C  C12  1  0.20750000  0.22610000  0.51680000  1.0 0.1190246701
C  C13  1  0.36510000  0.67210000  0.74900000  1.0 0.2622068863
C  C14  1  0.67250000  0.55050000  0.65610000  1.0 0.0730490874
C  C15  1  0.72670000  0.58850000  0.60090000  1.0 -0.1978428267
C  C16  1  0.68890000  0.64210000  0.54480000  1.0 -0.037588175
C  C17  1  0.59830000  0.65370000  0.54510000  1.0 -0.2148092199
C  C18  1  0.54710000  0.61360000  0.60260000  1.0 0.082097803
C  C19  1  0.74830000  0.68850000  0.48270000  1.0 0.082097803
C  C20  1  0.97740000  0.87700000  0.39140000  1.0 0.1007947193
C  C21  1  0.93380000  0.82840000  0.45030000  1.0 -0.1937970506
C  C22  1  0.84360000  0.82320000  0.45510000  1.0 -0.0512173824
C  C23  1  0.79630000  0.87280000  0.40000000  1.0 -0.1937970506
C  C24  1  0.84330000  0.91810000  0.34190000  1.0 0.082097803
C  C25  1  0.79250000  0.77390000  0.51680000  1.0 0.1190246701
C  C26  1  0.63490000  0.32790000  0.74900000  1.0 0.2622068863
C  C27  1  0.94950000  0.82750000  0.15610000  1.0 0.0730490874
C  C28  1  0.91150000  0.77330000  0.10090000  1.0 -0.1978428267
C  C29  1  0.85790000  0.81110000  0.04480000  1.0 -0.037588175
C  C30  1  0.84630000  0.90170000  0.04510000  1.0 -0.2212577815
C  C31  1  0.88640000  0.95290000  0.10260000  1.0 0.082097803
C  C32  1  0.81150000  0.75170000  0.98270000  1.0 0.082097803
C  C33  1  0.62300000  0.52260000  0.89140000  1.0 0.1007947193
C  C34  1  0.67160000  0.56620000  0.95030000  1.0 -0.1937970506
C  C35  1  0.67680000  0.65640000  0.95510000  1.0 -0.0512173824
C  C36  1  0.62720000  0.70370000  0.90000000  1.0 -0.1937970506
C  C37  1  0.58190000  0.65670000  0.84190000  1.0 0.082097803
C  C38  1  0.72610000  0.70750000  0.01680000  1.0 0.1190246701
C  C39  1  0.17210000  0.86510000  0.24900000  1.0 0.2622068863
C  C40  1  0.05050000  0.17250000  0.15610000  1.0 0.0730490874
C  C41  1  0.08850000  0.22670000  0.10090000  1.0 -0.1978428267
C  C42  1  0.14210000  0.18890000  0.04480000  1.0 -0.037588175
C  C43  1  0.15370000  0.09830000  0.04510000  1.0 -0.2212577815
C  C44  1  0.11360000  0.04710000  0.10260000  1.0 0.082097803
C  C45  1  0.18850000  0.24830000  0.98270000  1.0 0.082097803
C  C46  1  0.37700000  0.47740000  0.89140000  1.0 0.1007947193
C  C47  1  0.32840000  0.43380000  0.95030000  1.0 -0.1937970506
C  C48  1  0.32320000  0.34360000  0.95510000  1.0 -0.0512173824
C  C49  1  0.37280000  0.29630000  0.90000000  1.0 -0.1937970506
C  C50  1  0.41810000  0.34330000  0.84190000  1.0 0.082097803
C  C51  1  0.27390000  0.29250000  0.01680000  1.0 0.1190246701
C  C52  1  0.82790000  0.13490000  0.24900000  1.0 0.2622068863
C  C53  1  0.55050000  0.32750000  0.34390000  1.0 0.0730490874
C  C54  1  0.58850000  0.27330000  0.39910000  1.0 -0.1978428267
C  C55  1  0.64210000  0.31110000  0.45520000  1.0 -0.037588175
C  C56  1  0.65370000  0.40170000  0.45490000  1.0 -0.2148092199
C  C57  1  0.61360000  0.45290000  0.39740000  1.0 0.082097803
C  C58  1  0.68850000  0.25170000  0.51730000  1.0 0.082097803
C  C59  1  0.87700000  0.02260000  0.60860000  1.0 0.1007947193
C  C60  1  0.82840000  0.06620000  0.54970000  1.0 -0.1937970506
C  C61  1  0.82320000  0.15640000  0.54490000  1.0 -0.0512173824
C  C62  1  0.87280000  0.20370000  0.60000000  1.0 -0.1937970506
C  C63  1  0.91810000  0.15670000  0.65810000  1.0 0.082097803
C  C64  1  0.77390000  0.20750000  0.48320000  1.0 0.1190246701
C  C65  1  0.32790000  0.36510000  0.25100000  1.0 0.2622068863
C  C66  1  0.44950000  0.67250000  0.34390000  1.0 0.0730490874
C  C67  1  0.41150000  0.72670000  0.39910000  1.0 -0.1978428267
C  C68  1  0.35790000  0.68890000  0.45520000  1.0 -0.037588175
C  C69  1  0.34630000  0.59830000  0.45490000  1.0 -0.2148092199
C  C70  1  0.38640000  0.54710000  0.39740000  1.0 0.082097803
C  C71  1  0.31150000  0.74830000  0.51730000  1.0 0.082097803
C  C72  1  0.12300000  0.97740000  0.60860000  1.0 0.1007947193
C  C73  1  0.17160000  0.93380000  0.54970000  1.0 -0.1937970506
C  C74  1  0.17680000  0.84360000  0.54490000  1.0 -0.0512173824
C  C75  1  0.12720000  0.79630000  0.60000000  1.0 -0.1937970506
C  C76  1  0.08190000  0.84330000  0.65810000  1.0 0.082097803
C  C77  1  0.22610000  0.79250000  0.48320000  1.0 0.1190246701
C  C78  1  0.67210000  0.63490000  0.25100000  1.0 0.2622068863
C  C79  1  0.17250000  0.94950000  0.84390000  1.0 0.0730490874
C  C80  1  0.22670000  0.91150000  0.89910000  1.0 -0.1978428267
C  C81  1  0.18890000  0.85790000  0.95520000  1.0 -0.037588175
C  C82  1  0.09830000  0.84630000  0.95490000  1.0 -0.2212577815
C  C83  1  0.04710000  0.88640000  0.89740000  1.0 0.082097803
C  C84  1  0.24830000  0.81150000  0.01730000  1.0 0.082097803
C  C85  1  0.47740000  0.62300000  0.10860000  1.0 0.1007947193
C  C86  1  0.43380000  0.67160000  0.04970000  1.0 -0.1937970506
C  C87  1  0.34360000  0.67680000  0.04490000  1.0 -0.0512173824
C  C88  1  0.29630000  0.62720000  0.10000000  1.0 -0.1937970506
C  C89  1  0.34330000  0.58190000  0.15810000  1.0 0.082097803
C  C90  1  0.29250000  0.72610000  0.98320000  1.0 0.1190246701
C  C91  1  0.13490000  0.17210000  0.75100000  1.0 0.2622068863
C  C92  1  0.82750000  0.05050000  0.84390000  1.0 0.0730490874
C  C93  1  0.77330000  0.08850000  0.89910000  1.0 -0.1978428267
C  C94  1  0.81110000  0.14210000  0.95520000  1.0 -0.037588175
C  C95  1  0.90170000  0.15370000  0.95490000  1.0 -0.2148092199
C  C96  1  0.95290000  0.11360000  0.89740000  1.0 0.082097803
C  C97  1  0.75170000  0.18850000  0.01730000  1.0 0.082097803
C  C98  1  0.52260000  0.37700000  0.10860000  1.0 0.1007947193
C  C99  1  0.56620000  0.32840000  0.04970000  1.0 -0.1937970506
C  C100  1  0.65640000  0.32320000  0.04490000  1.0 -0.0512173824
C  C101  1  0.70370000  0.37280000  0.10000000  1.0 -0.1937970506
C  C102  1  0.65670000  0.41810000  0.15810000  1.0 0.082097803
C  C103  1  0.70750000  0.27390000  0.98320000  1.0 0.1190246701
C  C104  1  0.86510000  0.82790000  0.75100000  1.0 0.2622068863
S  S1  1  0.29740000  0.75980000  0.75150000  1.0 -0.3862722433
S  S2  1  0.70260000  0.24020000  0.75150000  1.0 -0.3862722433
S  S3  1  0.25980000  0.79740000  0.25150000  1.0 -0.3862722433
S  S4  1  0.74020000  0.20260000  0.25150000  1.0 -0.3862722433
S  S5  1  0.24020000  0.29740000  0.24850000  1.0 -0.3825124759
S  S6  1  0.75980000  0.70260000  0.24850000  1.0 -0.3862722433
S  S7  1  0.20260000  0.25980000  0.74850000  1.0 -0.3862722433
S  S8  1  0.79740000  0.74020000  0.74850000  1.0 -0.3862722433
N  N1  1  0.41840000  0.43650000  0.65810000  1.0 -0.2253923971
N  N2  1  0.06610000  0.07940000  0.33760000  1.0 -0.2212577815
N  N3  1  0.41050000  0.61000000  0.74790000  1.0 -0.4938014705
N  N4  1  0.58160000  0.56350000  0.65810000  1.0 -0.2253923971
N  N5  1  0.93390000  0.92060000  0.33760000  1.0 -0.2212577815
N  N6  1  0.58950000  0.39000000  0.74790000  1.0 -0.4938014705
N  N7  1  0.93650000  0.91840000  0.15810000  1.0 -0.2212577815
N  N8  1  0.57940000  0.56610000  0.83760000  1.0 -0.2212577815
N  N9  1  0.11000000  0.91050000  0.24790000  1.0 -0.4938014705
N  N10  1  0.06350000  0.08160000  0.15810000  1.0 -0.2212577815
N  N11  1  0.42060000  0.43390000  0.83760000  1.0 -0.2212577815
N  N12  1  0.89000000  0.08950000  0.24790000  1.0 -0.4938014705
N  N13  1  0.56350000  0.41840000  0.34190000  1.0 -0.2253923971
N  N14  1  0.92060000  0.06610000  0.66240000  1.0 -0.2212577815
N  N15  1  0.39000000  0.41050000  0.25210000  1.0 -0.4938014705
N  N16  1  0.43650000  0.58160000  0.34190000  1.0 -0.2253923971
N  N17  1  0.07940000  0.93390000  0.66240000  1.0 -0.2212577815
N  N18  1  0.61000000  0.58950000  0.25210000  1.0 -0.4938014705
N  N19  1  0.08160000  0.93650000  0.84190000  1.0 -0.2253923971
N  N20  1  0.43390000  0.57940000  0.16240000  1.0 -0.2212577815
N  N21  1  0.08950000  0.11000000  0.75210000  1.0 -0.4938014705
N  N22  1  0.91840000  0.06350000  0.84190000  1.0 -0.2212577815
N  N23  1  0.56610000  0.42060000  0.16240000  1.0 -0.2212577815
N  N24  1  0.91050000  0.89000000  0.75210000  1.0 -0.4938014705
O  O1  1  0.19140000  0.37090000  0.45100000  1.0 -0.3413082023
O  O2  1  0.26240000  0.17190000  0.55780000  1.0 -0.2677709121
O  O3  1  0.30660000  0.30000000  0.41890000  1.0 -0.3482656102
O  O4  1  0.15500000  0.23700000  0.57620000  1.0 -0.28270781
O  O5  1  0.80860000  0.62910000  0.45100000  1.0 -0.3413082023
O  O6  1  0.73760000  0.82810000  0.55780000  1.0 -0.2677709121
O  O7  1  0.69340000  0.70000000  0.41890000  1.0 -0.3482656102
O  O8  1  0.84500000  0.76300000  0.57620000  1.0 -0.28270781
O  O9  1  0.87090000  0.69140000  0.95100000  1.0 -0.3413082023
O  O10  1  0.67190000  0.76240000  0.05780000  1.0 -0.2677709121
O  O11  1  0.80000000  0.80660000  0.91890000  1.0 -0.3482656102
O  O12  1  0.73700000  0.65500000  0.07620000  1.0 -0.28270781
O  O13  1  0.12910000  0.30860000  0.95100000  1.0 -0.3413082023
O  O14  1  0.32810000  0.23760000  0.05780000  1.0 -0.2677709121
O  O15  1  0.20000000  0.19340000  0.91890000  1.0 -0.3482656102
O  O16  1  0.26300000  0.34500000  0.07620000  1.0 -0.28270781
O  O17  1  0.62910000  0.19140000  0.54900000  1.0 -0.3413082023
O  O18  1  0.82810000  0.26240000  0.44220000  1.0 -0.2677709121
O  O19  1  0.70000000  0.30660000  0.58110000  1.0 -0.3482656102
O  O20  1  0.76300000  0.15500000  0.42380000  1.0 -0.28270781
O  O21  1  0.37090000  0.80860000  0.54900000  1.0 -0.3413082023
O  O22  1  0.17190000  0.73760000  0.44220000  1.0 -0.2677709121
O  O23  1  0.30000000  0.69340000  0.58110000  1.0 -0.3482656102
O  O24  1  0.23700000  0.84500000  0.42380000  1.0 -0.28270781
O  O25  1  0.30860000  0.87090000  0.04900000  1.0 -0.3413082023
O  O26  1  0.23760000  0.67190000  0.94220000  1.0 -0.2677709121
O  O27  1  0.19340000  0.80000000  0.08110000  1.0 -0.3482656102
O  O28  1  0.34500000  0.73700000  0.92380000  1.0 -0.28270781
O  O29  1  0.69140000  0.12910000  0.04900000  1.0 -0.3413082023
O  O30  1  0.76240000  0.32810000  0.94220000  1.0 -0.2677709121
O  O31  1  0.80660000  0.20000000  0.08110000  1.0 -0.3482656102
O  O32  1  0.65500000  0.26300000  0.92380000  1.0 -0.28270781
