# DDEC6 charges by PACMAN v1.1 (https://github.com/mtap-research/PACMAN-charge/)
data_PIHWOU_ASR_pacman
_symmetry_space_group_name_H-M   'P 1'
_cell_length_a   10.50070000
_cell_length_b   9.37080000
_cell_length_c   16.23870000
_cell_angle_alpha   90.00000000
_cell_angle_beta   93.89800000
_cell_angle_gamma   90.00000000
_symmetry_Int_Tables_number   1
_chemical_formula_structural   Zn2P3(HO4)3
_chemical_formula_sum   'Zn8 P12 H12 O48'
_cell_volume   1594.19095429
_cell_formula_units_Z   4
loop_
 _symmetry_equiv_pos_site_id
 _symmetry_equiv_pos_as_xyz
  1  'x, y, z'
loop_
 _atom_site_type_symbol
 _atom_site_label
 _atom_site_symmetry_multiplicity
 _atom_site_fract_x
 _atom_site_fract_y
 _atom_site_fract_z
 _atom_site_occupancy
 _atom_site_charge
Zn  Zn1  1  0.16164000  0.57099000  0.95252000  1.0 1.1593252018
Zn  Zn2  1  0.33836000  0.07099000  0.04748000  1.0 1.1593252018
Zn  Zn3  1  0.83836000  0.42901000  0.04748000  1.0 1.1593252018
Zn  Zn4  1  0.66164000  0.92901000  0.95252000  1.0 1.1593252018
Zn  Zn5  1  0.13847000  0.37391000  0.58513000  1.0 1.1452042952
Zn  Zn6  1  0.36153000  0.87391000  0.41487000  1.0 1.1427316561
Zn  Zn7  1  0.86153000  0.62609000  0.41487000  1.0 1.1427316561
Zn  Zn8  1  0.63847000  0.12609000  0.58513000  1.0 1.1452042952
P  P1  1  0.11157000  0.29283000  0.06158000  1.0 1.539948453
P  P2  1  0.38843000  0.79283000  0.93842000  1.0 1.539948453
P  P3  1  0.88843000  0.70717000  0.93842000  1.0 1.539948453
P  P4  1  0.61157000  0.20717000  0.06158000  1.0 1.539948453
P  P5  1  0.11827000  0.52275000  0.75388000  1.0 1.5102695421
P  P6  1  0.38173000  0.02275000  0.24612000  1.0 1.5102695421
P  P7  1  0.88173000  0.47725000  0.24612000  1.0 1.5102695421
P  P8  1  0.61827000  0.97725000  0.75388000  1.0 1.5102695421
P  P9  1  0.84092000  0.38675000  0.53952000  1.0 1.539948453
P  P10  1  0.65908000  0.88675000  0.46048000  1.0 1.539948453
P  P11  1  0.15908000  0.61325000  0.46048000  1.0 1.539948453
P  P12  1  0.34092000  0.11325000  0.53952000  1.0 1.539948453
H  H1  1  0.08220000  0.32760000  0.18170000  1.0 0.4273890004
H  H2  1  0.41780000  0.82760000  0.81830000  1.0 0.4273890004
H  H3  1  0.91780000  0.67240000  0.81830000  1.0 0.4273890004
H  H4  1  0.58220000  0.17240000  0.18170000  1.0 0.4273890004
H  H5  1  0.26080000  0.66490000  0.77350000  1.0 0.4179128304
H  H6  1  0.23920000  0.16490000  0.22650000  1.0 0.4179128304
H  H7  1  0.73920000  0.33510000  0.22650000  1.0 0.4179128304
H  H8  1  0.76080000  0.83510000  0.77350000  1.0 0.4179128304
H  H9  1  0.89650000  0.58150000  0.57890000  1.0 0.4273890004
H  H10  1  0.60350000  0.08150000  0.42110000  1.0 0.4273890004
H  H11  1  0.10350000  0.41850000  0.42110000  1.0 0.4273890004
H  H12  1  0.39650000  0.91850000  0.57890000  1.0 0.4273890004
O  O1  1  0.13610000  0.28070000  0.15933000  1.0 -0.5567054704
O  O2  1  0.36390000  0.78070000  0.84067000  1.0 -0.5567054704
O  O3  1  0.86390000  0.71930000  0.84067000  1.0 -0.5567054704
O  O4  1  0.63610000  0.21930000  0.15933000  1.0 -0.5567054704
O  O5  1  0.17020000  0.43240000  0.03859000  1.0 -0.7511716689
O  O6  1  0.32980000  0.93240000  0.96141000  1.0 -0.7511716689
O  O7  1  0.82980000  0.56760000  0.96141000  1.0 -0.7511716689
O  O8  1  0.67020000  0.06760000  0.03859000  1.0 -0.7511716689
O  O9  1  0.17577000  0.16320000  0.02891000  1.0 -0.7117188081
O  O10  1  0.32423000  0.66320000  0.97109000  1.0 -0.7158942327
O  O11  1  0.82423000  0.83680000  0.97109000  1.0 -0.7158942327
O  O12  1  0.67577000  0.33680000  0.02891000  1.0 -0.7117188081
O  O13  1  0.96968000  0.28720000  0.03912000  1.0 -0.7511716689
O  O14  1  0.53032000  0.78720000  0.96088000  1.0 -0.7511716689
O  O15  1  0.03032000  0.71280000  0.96088000  1.0 -0.7511716689
O  O16  1  0.46968000  0.21280000  0.03912000  1.0 -0.7511716689
O  O17  1  0.13330000  0.48600000  0.84385000  1.0 -0.7562371299
O  O18  1  0.36670000  0.98600000  0.15615000  1.0 -0.7562371299
O  O19  1  0.86670000  0.51400000  0.15615000  1.0 -0.7562371299
O  O20  1  0.63330000  0.01400000  0.84385000  1.0 -0.7562371299
O  O21  1  0.99410000  0.60040000  0.72984000  1.0 -0.6635717406
O  O22  1  0.50590000  0.10040000  0.27016000  1.0 -0.6635717406
O  O23  1  0.00590000  0.39960000  0.27016000  1.0 -0.6635717406
O  O24  1  0.49410000  0.89960000  0.72984000  1.0 -0.6635717406
O  O25  1  0.23060000  0.62560000  0.73148000  1.0 -0.5567054704
O  O26  1  0.26940000  0.12560000  0.26852000  1.0 -0.5567054704
O  O27  1  0.76940000  0.37440000  0.26852000  1.0 -0.5567054704
O  O28  1  0.73060000  0.87440000  0.73148000  1.0 -0.5567054704
O  O29  1  0.12930000  0.39030000  0.70136000  1.0 -0.7117188081
O  O30  1  0.37070000  0.89030000  0.29864000  1.0 -0.7117188081
O  O31  1  0.87070000  0.60970000  0.29864000  1.0 -0.7117188081
O  O32  1  0.62930000  0.10970000  0.70136000  1.0 -0.7117188081
O  O33  1  0.74550000  0.28680000  0.57019000  1.0 -0.6897459731
O  O34  1  0.75450000  0.78680000  0.42981000  1.0 -0.6897459731
O  O35  1  0.25450000  0.71320000  0.42981000  1.0 -0.6897459731
O  O36  1  0.24550000  0.21320000  0.57019000  1.0 -0.6897459731
O  O37  1  0.79260000  0.45050000  0.45747000  1.0 -0.741090919
O  O38  1  0.70740000  0.95050000  0.54253000  1.0 -0.741090919
O  O39  1  0.20740000  0.54950000  0.54253000  1.0 -0.741090919
O  O40  1  0.29260000  0.04950000  0.45747000  1.0 -0.741090919
O  O41  1  0.97154000  0.31820000  0.53521000  1.0 -0.7511716689
O  O42  1  0.52846000  0.81820000  0.46479000  1.0 -0.7511716689
O  O43  1  0.02846000  0.68180000  0.46479000  1.0 -0.7511716689
O  O44  1  0.47154000  0.18180000  0.53521000  1.0 -0.7511716689
O  O45  1  0.85340000  0.51960000  0.59938000  1.0 -0.5230534181
O  O46  1  0.64660000  0.01960000  0.40062000  1.0 -0.5230534181
O  O47  1  0.14660000  0.48040000  0.40062000  1.0 -0.5230534181
O  O48  1  0.35340000  0.98040000  0.59938000  1.0 -0.5230534181
