# DDEC6 charges by PACMAN v1.1 (https://github.com/mtap-research/PACMAN-charge/)
data_PIJPAD_ASR_pacman
_symmetry_space_group_name_H-M   'P 1'
_cell_length_a   13.07080000
_cell_length_b   15.06470000
_cell_length_c   17.46590000
_cell_angle_alpha   90.00000000
_cell_angle_beta   90.00000000
_cell_angle_gamma   90.00000000
_symmetry_Int_Tables_number   1
_chemical_formula_structural   CdH30C46(N2O)4
_chemical_formula_sum   'Cd4 H120 C184 N32 O16'
_cell_volume   3439.16986139
_cell_formula_units_Z   4
loop_
 _symmetry_equiv_pos_site_id
 _symmetry_equiv_pos_as_xyz
  1  'x, y, z'
loop_
 _atom_site_type_symbol
 _atom_site_label
 _atom_site_symmetry_multiplicity
 _atom_site_fract_x
 _atom_site_fract_y
 _atom_site_fract_z
 _atom_site_occupancy
 _atom_site_charge
Cd  Cd1  1  0.25000000  0.75000000  0.33181000  1.0 0.8329375733
Cd  Cd2  1  0.75000000  0.75000000  0.83181000  1.0 0.8329375733
Cd  Cd3  1  0.25000000  0.25000000  0.16819000  1.0 0.8329375733
Cd  Cd4  1  0.75000000  0.25000000  0.66819000  1.0 0.8329375733
H  H1  1  0.31679000  0.91593000  0.21767000  1.0 0.1085870054
H  H2  1  0.18321000  0.58407000  0.21767000  1.0 0.1085870054
H  H3  1  0.68321000  0.91593000  0.71767000  1.0 0.1085870054
H  H4  1  0.81679000  0.58407000  0.71767000  1.0 0.1085870054
H  H5  1  0.49663000  0.71492000  0.27321000  1.0 0.1278540969
H  H6  1  0.00337000  0.78508000  0.27321000  1.0 0.1278540969
H  H7  1  0.50337000  0.71492000  0.77321000  1.0 0.1278540969
H  H8  1  0.99663000  0.78508000  0.77321000  1.0 0.1278540969
H  H9  1  0.59790000  0.81618000  0.19133000  1.0 0.1191223493
H  H10  1  0.90210000  0.68382000  0.19133000  1.0 0.1191223493
H  H11  1  0.40210000  0.81618000  0.69133000  1.0 0.1191223493
H  H12  1  0.09790000  0.68382000  0.69133000  1.0 0.1191223493
H  H13  1  0.63341000  0.98542000  0.17152000  1.0 0.1085870054
H  H14  1  0.86659000  0.51458000  0.17152000  1.0 0.1085870054
H  H15  1  0.36659000  0.98542000  0.67152000  1.0 0.1085870054
H  H16  1  0.13341000  0.51458000  0.67152000  1.0 0.1085870054
H  H17  1  0.66256000  0.11570000  0.10192000  1.0 0.0892081409
H  H18  1  0.83744000  0.38430000  0.10192000  1.0 0.0892081409
H  H19  1  0.33744000  0.11570000  0.60192000  1.0 0.0892081409
H  H20  1  0.16256000  0.38430000  0.60192000  1.0 0.0892081409
H  H21  1  0.37442000  0.10316000  0.01687000  1.0 0.0892081409
H  H22  1  0.12558000  0.39684000  0.01687000  1.0 0.0892081409
H  H23  1  0.62558000  0.10316000  0.51687000  1.0 0.0892081409
H  H24  1  0.87442000  0.39684000  0.51687000  1.0 0.0892081409
H  H25  1  0.34526000  0.97287000  0.08647000  1.0 0.0806512733
H  H26  1  0.15474000  0.52713000  0.08647000  1.0 0.0806512733
H  H27  1  0.65474000  0.97287000  0.58647000  1.0 0.0806512733
H  H28  1  0.84526000  0.52713000  0.58647000  1.0 0.0806512733
H  H29  1  0.62007000  0.43802000  0.82665000  1.0 0.1278540969
H  H30  1  0.87993000  0.06198000  0.82665000  1.0 0.1278540969
H  H31  1  0.37993000  0.43802000  0.32665000  1.0 0.1278540969
H  H32  1  0.12007000  0.06198000  0.32665000  1.0 0.1278540969
H  H33  1  0.65319000  0.55125000  0.03479000  1.0 0.1191223493
H  H34  1  0.84681000  0.94875000  0.03479000  1.0 0.1191223493
H  H35  1  0.34681000  0.55125000  0.53479000  1.0 0.1191223493
H  H36  1  0.15319000  0.94875000  0.53479000  1.0 0.1191223493
H  H37  1  0.61988000  0.41494000  0.09217000  1.0 0.1085870054
H  H38  1  0.88012000  0.08506000  0.09217000  1.0 0.1085870054
H  H39  1  0.38012000  0.41494000  0.59217000  1.0 0.1085870054
H  H40  1  0.11988000  0.08506000  0.59217000  1.0 0.1085870054
H  H41  1  0.58854000  0.30294000  0.88562000  1.0 0.1191223493
H  H42  1  0.91146000  0.19706000  0.88562000  1.0 0.1191223493
H  H43  1  0.41146000  0.30294000  0.38562000  1.0 0.1191223493
H  H44  1  0.08854000  0.19706000  0.38562000  1.0 0.1191223493
H  H45  1  0.69957000  0.09796000  0.13546000  1.0 0.0892081409
H  H46  1  0.80043000  0.40204000  0.13546000  1.0 0.0892081409
H  H47  1  0.30043000  0.09796000  0.63546000  1.0 0.0892081409
H  H48  1  0.19957000  0.40204000  0.63546000  1.0 0.0892081409
H  H49  1  0.41628000  0.13265000  0.04598000  1.0 0.0954814975
H  H50  1  0.08372000  0.36735000  0.04598000  1.0 0.0954814975
H  H51  1  0.58372000  0.13265000  0.54598000  1.0 0.0954814975
H  H52  1  0.91628000  0.36735000  0.54598000  1.0 0.0954814975
H  H53  1  0.36281000  0.99963000  0.10242000  1.0 0.1085870054
H  H54  1  0.13719000  0.50037000  0.10242000  1.0 0.1085870054
H  H55  1  0.63719000  0.99963000  0.60242000  1.0 0.1085870054
H  H56  1  0.86281000  0.50037000  0.60242000  1.0 0.1085870054
H  H57  1  0.64611000  0.96493000  0.19189000  1.0 0.0806512733
H  H58  1  0.85389000  0.53507000  0.19189000  1.0 0.0806512733
H  H59  1  0.35389000  0.96493000  0.69189000  1.0 0.0806512733
H  H60  1  0.14611000  0.53507000  0.69189000  1.0 0.0806512733
H  H61  1  0.31679000  0.08407000  0.28233000  1.0 0.1085870054
H  H62  1  0.18321000  0.41593000  0.28233000  1.0 0.1085870054
H  H63  1  0.68321000  0.08407000  0.78233000  1.0 0.1085870054
H  H64  1  0.81679000  0.41593000  0.78233000  1.0 0.1085870054
H  H65  1  0.49663000  0.28508000  0.22679000  1.0 0.1278540969
H  H66  1  0.00337000  0.21492000  0.22679000  1.0 0.1278540969
H  H67  1  0.50337000  0.28508000  0.72679000  1.0 0.1278540969
H  H68  1  0.99663000  0.21492000  0.72679000  1.0 0.1278540969
H  H69  1  0.59790000  0.18382000  0.30867000  1.0 0.1191223493
H  H70  1  0.90210000  0.31618000  0.30867000  1.0 0.1191223493
H  H71  1  0.40210000  0.18382000  0.80867000  1.0 0.1191223493
H  H72  1  0.09790000  0.31618000  0.80867000  1.0 0.1191223493
H  H73  1  0.63341000  0.01458000  0.32848000  1.0 0.1085870054
H  H74  1  0.86659000  0.48542000  0.32848000  1.0 0.1085870054
H  H75  1  0.36659000  0.01458000  0.82848000  1.0 0.1085870054
H  H76  1  0.13341000  0.48542000  0.82848000  1.0 0.1085870054
H  H77  1  0.66256000  0.88430000  0.39808000  1.0 0.0892081409
H  H78  1  0.83744000  0.61570000  0.39808000  1.0 0.0892081409
H  H79  1  0.33744000  0.88430000  0.89808000  1.0 0.0892081409
H  H80  1  0.16256000  0.61570000  0.89808000  1.0 0.0892081409
H  H81  1  0.37442000  0.89684000  0.48313000  1.0 0.0892081409
H  H82  1  0.12558000  0.60316000  0.48313000  1.0 0.0892081409
H  H83  1  0.62558000  0.89684000  0.98313000  1.0 0.0892081409
H  H84  1  0.87442000  0.60316000  0.98313000  1.0 0.0892081409
H  H85  1  0.34526000  0.02713000  0.41353000  1.0 0.0806512733
H  H86  1  0.15474000  0.47287000  0.41353000  1.0 0.0806512733
H  H87  1  0.65474000  0.02713000  0.91353000  1.0 0.0806512733
H  H88  1  0.84526000  0.47287000  0.91353000  1.0 0.0806512733
H  H89  1  0.62007000  0.56198000  0.67335000  1.0 0.1278540969
H  H90  1  0.87993000  0.93802000  0.67335000  1.0 0.1278540969
H  H91  1  0.37993000  0.56198000  0.17335000  1.0 0.1278540969
H  H92  1  0.12007000  0.93802000  0.17335000  1.0 0.1278540969
H  H93  1  0.65319000  0.44875000  0.46521000  1.0 0.1191223493
H  H94  1  0.84681000  0.05125000  0.46521000  1.0 0.1191223493
H  H95  1  0.34681000  0.44875000  0.96521000  1.0 0.1191223493
H  H96  1  0.15319000  0.05125000  0.96521000  1.0 0.1191223493
H  H97  1  0.61988000  0.58506000  0.40783000  1.0 0.1085870054
H  H98  1  0.88012000  0.91494000  0.40783000  1.0 0.1085870054
H  H99  1  0.38012000  0.58506000  0.90783000  1.0 0.1085870054
H  H100  1  0.11988000  0.91494000  0.90783000  1.0 0.1085870054
H  H101  1  0.58854000  0.69706000  0.61438000  1.0 0.1191223493
H  H102  1  0.91146000  0.80294000  0.61438000  1.0 0.1191223493
H  H103  1  0.41146000  0.69706000  0.11438000  1.0 0.1191223493
H  H104  1  0.08854000  0.80294000  0.11438000  1.0 0.1191223493
H  H105  1  0.69957000  0.90204000  0.36454000  1.0 0.0892081409
H  H106  1  0.80043000  0.59796000  0.36454000  1.0 0.0892081409
H  H107  1  0.30043000  0.90204000  0.86454000  1.0 0.0892081409
H  H108  1  0.19957000  0.59796000  0.86454000  1.0 0.0892081409
H  H109  1  0.41628000  0.86735000  0.45402000  1.0 0.0954814975
H  H110  1  0.08372000  0.63265000  0.45402000  1.0 0.0954814975
H  H111  1  0.58372000  0.86735000  0.95402000  1.0 0.0954814975
H  H112  1  0.91628000  0.63265000  0.95402000  1.0 0.0954814975
H  H113  1  0.36281000  0.00037000  0.39758000  1.0 0.1085870054
H  H114  1  0.13719000  0.49963000  0.39758000  1.0 0.1085870054
H  H115  1  0.63719000  0.00037000  0.89758000  1.0 0.1085870054
H  H116  1  0.86281000  0.49963000  0.89758000  1.0 0.1085870054
H  H117  1  0.64611000  0.03507000  0.30811000  1.0 0.0806512733
H  H118  1  0.85389000  0.46493000  0.30811000  1.0 0.0806512733
H  H119  1  0.35389000  0.03507000  0.80811000  1.0 0.0806512733
H  H120  1  0.14611000  0.46493000  0.80811000  1.0 0.0806512733
C  C1  1  0.66780000  0.59320000  0.88560000  1.0 0.5204149534
C  C2  1  0.83220000  0.90680000  0.88560000  1.0 0.5204149534
C  C3  1  0.33220000  0.59320000  0.38560000  1.0 0.5204149534
C  C4  1  0.16780000  0.90680000  0.38560000  1.0 0.5204149534
C  C5  1  0.37460000  0.87790000  0.22100000  1.0 -0.0599804763
C  C6  1  0.12540000  0.62210000  0.22100000  1.0 -0.0599804763
C  C7  1  0.62540000  0.87790000  0.72100000  1.0 -0.0599804763
C  C8  1  0.87460000  0.62210000  0.72100000  1.0 -0.0599804763
C  C9  1  0.47290000  0.76880000  0.25130000  1.0 -0.0375859929
C  C10  1  0.02710000  0.73120000  0.25130000  1.0 -0.0375859929
C  C11  1  0.52710000  0.76880000  0.75130000  1.0 -0.0375859929
C  C12  1  0.97290000  0.73120000  0.75130000  1.0 -0.0375859929
C  C13  1  0.52860000  0.82380000  0.20630000  1.0 -0.2099788596
C  C14  1  0.97140000  0.67620000  0.20630000  1.0 -0.2099788596
C  C15  1  0.47140000  0.82380000  0.70630000  1.0 -0.2099788596
C  C16  1  0.02860000  0.67620000  0.70630000  1.0 -0.2099788596
C  C17  1  0.58080000  0.00930000  0.14010000  1.0 -0.0599804763
C  C18  1  0.91920000  0.49070000  0.14010000  1.0 -0.0599804763
C  C19  1  0.41920000  0.00930000  0.64010000  1.0 -0.0599804763
C  C20  1  0.08080000  0.49070000  0.64010000  1.0 -0.0599804763
C  C21  1  0.59820000  0.08670000  0.09880000  1.0 -0.0020446516
C  C22  1  0.90180000  0.41330000  0.09880000  1.0 -0.0020446516
C  C23  1  0.40180000  0.08670000  0.59880000  1.0 -0.0020446516
C  C24  1  0.09820000  0.41330000  0.59880000  1.0 -0.0020446516
C  C25  1  0.52120000  0.12170000  0.05280000  1.0 0.058034315
C  C26  1  0.97880000  0.37830000  0.05280000  1.0 0.058034315
C  C27  1  0.47880000  0.12170000  0.55280000  1.0 0.058034315
C  C28  1  0.02120000  0.37830000  0.55280000  1.0 0.058034315
C  C29  1  0.42700000  0.07930000  0.04830000  1.0 -0.0913726787
C  C30  1  0.07300000  0.42070000  0.04830000  1.0 -0.0913726787
C  C31  1  0.57300000  0.07930000  0.54830000  1.0 -0.0913726787
C  C32  1  0.92700000  0.42070000  0.54830000  1.0 -0.0913726787
C  C33  1  0.40970000  0.00190000  0.08960000  1.0 -0.0599804763
C  C34  1  0.09030000  0.49810000  0.08960000  1.0 -0.0599804763
C  C35  1  0.59030000  0.00190000  0.58960000  1.0 -0.0599804763
C  C36  1  0.90970000  0.49810000  0.58960000  1.0 -0.0599804763
C  C37  1  0.48660000  0.96690000  0.13550000  1.0 0.0448606399
C  C38  1  0.01340000  0.53310000  0.13550000  1.0 0.0448606399
C  C39  1  0.51340000  0.96690000  0.63550000  1.0 0.0462385267
C  C40  1  0.98660000  0.53310000  0.63550000  1.0 0.0462385267
C  C41  1  0.62090000  0.43380000  0.88090000  1.0 -0.1010420008
C  C42  1  0.87910000  0.06620000  0.88090000  1.0 -0.1010420008
C  C43  1  0.37910000  0.43380000  0.38090000  1.0 -0.1010420008
C  C44  1  0.12090000  0.06620000  0.38090000  1.0 -0.1010420008
C  C45  1  0.64030000  0.50050000  0.00400000  1.0 -0.1389011096
C  C46  1  0.85970000  0.99950000  0.00400000  1.0 -0.1389011096
C  C47  1  0.35970000  0.50050000  0.50400000  1.0 -0.1389011096
C  C48  1  0.14030000  0.99950000  0.50400000  1.0 -0.1389011096
C  C49  1  0.64160000  0.50750000  0.92480000  1.0 -0.025216988
C  C50  1  0.85840000  0.99250000  0.92480000  1.0 -0.025216988
C  C51  1  0.35840000  0.50750000  0.42480000  1.0 -0.025216988
C  C52  1  0.14160000  0.99250000  0.42480000  1.0 -0.025216988
C  C53  1  0.60030000  0.34560000  0.99480000  1.0 0.0087410909
C  C54  1  0.89970000  0.15440000  0.99480000  1.0 0.0087410909
C  C55  1  0.39970000  0.34560000  0.49480000  1.0 0.0087410909
C  C56  1  0.10030000  0.15440000  0.49480000  1.0 0.0087410909
C  C57  1  0.62010000  0.41940000  0.03790000  1.0 -0.1511878769
C  C58  1  0.87990000  0.08060000  0.03790000  1.0 -0.1511878769
C  C59  1  0.37990000  0.41940000  0.53790000  1.0 -0.1511878769
C  C60  1  0.12010000  0.08060000  0.53790000  1.0 -0.1511878769
C  C61  1  0.60150000  0.35380000  0.91620000  1.0 -0.1010420008
C  C62  1  0.89850000  0.14620000  0.91620000  1.0 -0.1010420008
C  C63  1  0.39850000  0.35380000  0.41620000  1.0 -0.1010420008
C  C64  1  0.10150000  0.14620000  0.41620000  1.0 -0.1010420008
C  C65  1  0.57640000  0.25890000  0.03120000  1.0 0.2689224978
C  C66  1  0.92360000  0.24110000  0.03120000  1.0 0.2689224978
C  C67  1  0.42360000  0.25890000  0.53120000  1.0 0.2689224978
C  C68  1  0.07640000  0.24110000  0.53120000  1.0 0.2689224978
C  C69  1  0.63120000  0.07800000  0.12880000  1.0 -0.0827829938
C  C70  1  0.86880000  0.42200000  0.12880000  1.0 -0.0827829938
C  C71  1  0.36880000  0.07800000  0.62880000  1.0 -0.0827829938
C  C72  1  0.13120000  0.42200000  0.62880000  1.0 -0.0827829938
C  C73  1  0.56300000  0.12780000  0.08540000  1.0 0.058034315
C  C74  1  0.93700000  0.37220000  0.08540000  1.0 0.058034315
C  C75  1  0.43700000  0.12780000  0.58540000  1.0 0.058034315
C  C76  1  0.06300000  0.37220000  0.58540000  1.0 0.058034315
C  C77  1  0.46290000  0.09860000  0.07560000  1.0 -0.0209287815
C  C78  1  0.03710000  0.40140000  0.07560000  1.0 -0.0209287815
C  C79  1  0.53710000  0.09860000  0.57560000  1.0 -0.0209287815
C  C80  1  0.96290000  0.40140000  0.57560000  1.0 -0.0209287815
C  C81  1  0.43120000  0.01960000  0.10910000  1.0 -0.0375859929
C  C82  1  0.06880000  0.48040000  0.10910000  1.0 -0.0375859929
C  C83  1  0.56880000  0.01960000  0.60910000  1.0 -0.0375859929
C  C84  1  0.93120000  0.48040000  0.60910000  1.0 -0.0375859929
C  C85  1  0.49940000  0.96980000  0.15250000  1.0 0.0177399859
C  C86  1  0.00060000  0.53020000  0.15250000  1.0 0.0177399859
C  C87  1  0.50060000  0.96980000  0.65250000  1.0 0.0177399859
C  C88  1  0.99940000  0.53020000  0.65250000  1.0 0.0177399859
C  C89  1  0.59950000  0.99900000  0.16230000  1.0 -0.0690223451
C  C90  1  0.90050000  0.50100000  0.16230000  1.0 -0.0690223451
C  C91  1  0.40050000  0.99900000  0.66230000  1.0 -0.0690223451
C  C92  1  0.09950000  0.50100000  0.66230000  1.0 -0.0690223451
C  C93  1  0.66780000  0.40680000  0.61440000  1.0 0.5204149534
C  C94  1  0.83220000  0.09320000  0.61440000  1.0 0.5204149534
C  C95  1  0.33220000  0.40680000  0.11440000  1.0 0.5204149534
C  C96  1  0.16780000  0.09320000  0.11440000  1.0 0.5204149534
C  C97  1  0.37460000  0.12210000  0.27900000  1.0 -0.0599804763
C  C98  1  0.12540000  0.37790000  0.27900000  1.0 -0.0599804763
C  C99  1  0.62540000  0.12210000  0.77900000  1.0 -0.0599804763
C  C100  1  0.87460000  0.37790000  0.77900000  1.0 -0.0599804763
C  C101  1  0.47290000  0.23120000  0.24870000  1.0 -0.0375859929
C  C102  1  0.02710000  0.26880000  0.24870000  1.0 -0.0375859929
C  C103  1  0.52710000  0.23120000  0.74870000  1.0 -0.0375859929
C  C104  1  0.97290000  0.26880000  0.74870000  1.0 -0.0375859929
C  C105  1  0.52860000  0.17620000  0.29370000  1.0 -0.2099788596
C  C106  1  0.97140000  0.32380000  0.29370000  1.0 -0.2099788596
C  C107  1  0.47140000  0.17620000  0.79370000  1.0 -0.2099788596
C  C108  1  0.02860000  0.32380000  0.79370000  1.0 -0.2099788596
C  C109  1  0.58080000  0.99070000  0.35990000  1.0 -0.0599804763
C  C110  1  0.91920000  0.50930000  0.35990000  1.0 -0.0599804763
C  C111  1  0.41920000  0.99070000  0.85990000  1.0 -0.0599804763
C  C112  1  0.08080000  0.50930000  0.85990000  1.0 -0.0599804763
C  C113  1  0.59820000  0.91330000  0.40120000  1.0 -0.0020446516
C  C114  1  0.90180000  0.58670000  0.40120000  1.0 -0.0020446516
C  C115  1  0.40180000  0.91330000  0.90120000  1.0 -0.0020446516
C  C116  1  0.09820000  0.58670000  0.90120000  1.0 -0.0020446516
C  C117  1  0.52120000  0.87830000  0.44720000  1.0 0.058034315
C  C118  1  0.97880000  0.62170000  0.44720000  1.0 0.058034315
C  C119  1  0.47880000  0.87830000  0.94720000  1.0 0.058034315
C  C120  1  0.02120000  0.62170000  0.94720000  1.0 0.058034315
C  C121  1  0.42700000  0.92070000  0.45170000  1.0 -0.0913726787
C  C122  1  0.07300000  0.57930000  0.45170000  1.0 -0.0913726787
C  C123  1  0.57300000  0.92070000  0.95170000  1.0 -0.0913726787
C  C124  1  0.92700000  0.57930000  0.95170000  1.0 -0.0913726787
C  C125  1  0.40970000  0.99810000  0.41040000  1.0 -0.0599804763
C  C126  1  0.09030000  0.50190000  0.41040000  1.0 -0.0599804763
C  C127  1  0.59030000  0.99810000  0.91040000  1.0 -0.0599804763
C  C128  1  0.90970000  0.50190000  0.91040000  1.0 -0.0599804763
C  C129  1  0.48660000  0.03310000  0.36450000  1.0 0.0462385267
C  C130  1  0.01340000  0.46690000  0.36450000  1.0 0.0462385267
C  C131  1  0.51340000  0.03310000  0.86450000  1.0 0.0462385267
C  C132  1  0.98660000  0.46690000  0.86450000  1.0 0.0462385267
C  C133  1  0.62090000  0.56620000  0.61910000  1.0 -0.1010420008
C  C134  1  0.87910000  0.93380000  0.61910000  1.0 -0.1010420008
C  C135  1  0.37910000  0.56620000  0.11910000  1.0 -0.1010420008
C  C136  1  0.12090000  0.93380000  0.11910000  1.0 -0.1010420008
C  C137  1  0.64030000  0.49950000  0.49600000  1.0 -0.1389011096
C  C138  1  0.85970000  0.00050000  0.49600000  1.0 -0.1389011096
C  C139  1  0.35970000  0.49950000  0.99600000  1.0 -0.1389011096
C  C140  1  0.14030000  0.00050000  0.99600000  1.0 -0.1389011096
C  C141  1  0.64160000  0.49250000  0.57520000  1.0 -0.025216988
C  C142  1  0.85840000  0.00750000  0.57520000  1.0 -0.025216988
C  C143  1  0.35840000  0.49250000  0.07520000  1.0 -0.025216988
C  C144  1  0.14160000  0.00750000  0.07520000  1.0 -0.025216988
C  C145  1  0.60030000  0.65440000  0.50520000  1.0 0.0087410909
C  C146  1  0.89970000  0.84560000  0.50520000  1.0 0.0087410909
C  C147  1  0.39970000  0.65440000  0.00520000  1.0 0.0087410909
C  C148  1  0.10030000  0.84560000  0.00520000  1.0 0.0087410909
C  C149  1  0.62010000  0.58060000  0.46210000  1.0 -0.1511878769
C  C150  1  0.87990000  0.91940000  0.46210000  1.0 -0.1511878769
C  C151  1  0.37990000  0.58060000  0.96210000  1.0 -0.1511878769
C  C152  1  0.12010000  0.91940000  0.96210000  1.0 -0.1511878769
C  C153  1  0.60150000  0.64620000  0.58380000  1.0 -0.1010420008
C  C154  1  0.89850000  0.85380000  0.58380000  1.0 -0.1010420008
C  C155  1  0.39850000  0.64620000  0.08380000  1.0 -0.1010420008
C  C156  1  0.10150000  0.85380000  0.08380000  1.0 -0.1010420008
C  C157  1  0.57640000  0.74110000  0.46880000  1.0 0.2689224978
C  C158  1  0.92360000  0.75890000  0.46880000  1.0 0.2689224978
C  C159  1  0.42360000  0.74110000  0.96880000  1.0 0.2689224978
C  C160  1  0.07640000  0.75890000  0.96880000  1.0 0.2689224978
C  C161  1  0.63120000  0.92200000  0.37120000  1.0 -0.0827829938
C  C162  1  0.86880000  0.57800000  0.37120000  1.0 -0.0827829938
C  C163  1  0.36880000  0.92200000  0.87120000  1.0 -0.0827829938
C  C164  1  0.13120000  0.57800000  0.87120000  1.0 -0.0827829938
C  C165  1  0.56300000  0.87220000  0.41460000  1.0 0.058034315
C  C166  1  0.93700000  0.62780000  0.41460000  1.0 0.058034315
C  C167  1  0.43700000  0.87220000  0.91460000  1.0 0.058034315
C  C168  1  0.06300000  0.62780000  0.91460000  1.0 0.058034315
C  C169  1  0.46290000  0.90140000  0.42440000  1.0 -0.0209287815
C  C170  1  0.03710000  0.59860000  0.42440000  1.0 -0.0209287815
C  C171  1  0.53710000  0.90140000  0.92440000  1.0 -0.0209287815
C  C172  1  0.96290000  0.59860000  0.92440000  1.0 -0.0209287815
C  C173  1  0.43120000  0.98040000  0.39090000  1.0 -0.0375859929
C  C174  1  0.06880000  0.51960000  0.39090000  1.0 -0.0375859929
C  C175  1  0.56880000  0.98040000  0.89090000  1.0 -0.0375859929
C  C176  1  0.93120000  0.51960000  0.89090000  1.0 -0.0375859929
C  C177  1  0.49940000  0.03020000  0.34750000  1.0 0.0177399859
C  C178  1  0.00060000  0.46980000  0.34750000  1.0 0.0177399859
C  C179  1  0.50060000  0.03020000  0.84750000  1.0 0.0177399859
C  C180  1  0.99940000  0.46980000  0.84750000  1.0 0.0177399859
C  C181  1  0.59950000  0.00100000  0.33770000  1.0 -0.0690223451
C  C182  1  0.90050000  0.49900000  0.33770000  1.0 -0.0690223451
C  C183  1  0.40050000  0.00100000  0.83770000  1.0 -0.0690223451
C  C184  1  0.09950000  0.49900000  0.83770000  1.0 -0.0690223451
N  N1  1  0.46490000  0.89290000  0.18633000  1.0 -0.0375859929
N  N2  1  0.03510000  0.60710000  0.18633000  1.0 -0.0375859929
N  N3  1  0.53510000  0.89290000  0.68633000  1.0 -0.0375859929
N  N4  1  0.96490000  0.60710000  0.68633000  1.0 -0.0375859929
N  N5  1  0.37730000  0.80330000  0.26020000  1.0 -0.2892468075
N  N6  1  0.12270000  0.69670000  0.26020000  1.0 -0.2892468075
N  N7  1  0.62270000  0.80330000  0.76020000  1.0 -0.2892468075
N  N8  1  0.87730000  0.69670000  0.76020000  1.0 -0.2892468075
N  N9  1  0.53502000  0.19912000  0.00695000  1.0 -0.2099788596
N  N10  1  0.96498000  0.30088000  0.00695000  1.0 -0.2099788596
N  N11  1  0.46498000  0.19912000  0.50695000  1.0 -0.2099788596
N  N12  1  0.03502000  0.30088000  0.50695000  1.0 -0.2099788596
N  N13  1  0.59710000  0.21540000  0.06650000  1.0 -0.1640703666
N  N14  1  0.90290000  0.28460000  0.06650000  1.0 -0.1667720738
N  N15  1  0.40290000  0.21540000  0.56650000  1.0 -0.1640703666
N  N16  1  0.09710000  0.28460000  0.56650000  1.0 -0.1667720738
N  N17  1  0.46490000  0.10710000  0.31367000  1.0 -0.0375859929
N  N18  1  0.03510000  0.39290000  0.31367000  1.0 -0.0375859929
N  N19  1  0.53510000  0.10710000  0.81367000  1.0 -0.0375859929
N  N20  1  0.96490000  0.39290000  0.81367000  1.0 -0.0375859929
N  N21  1  0.37730000  0.19670000  0.23980000  1.0 -0.2892468075
N  N22  1  0.12270000  0.30330000  0.23980000  1.0 -0.2892468075
N  N23  1  0.62270000  0.19670000  0.73980000  1.0 -0.2892468075
N  N24  1  0.87730000  0.30330000  0.73980000  1.0 -0.2892468075
N  N25  1  0.53502000  0.80088000  0.49305000  1.0 -0.2099788596
N  N26  1  0.96498000  0.69912000  0.49305000  1.0 -0.2099788596
N  N27  1  0.46498000  0.80088000  0.99305000  1.0 -0.2099788596
N  N28  1  0.03502000  0.69912000  0.99305000  1.0 -0.2099788596
N  N29  1  0.59710000  0.78460000  0.43350000  1.0 -0.1667720738
N  N30  1  0.90290000  0.71540000  0.43350000  1.0 -0.1640703666
N  N31  1  0.40290000  0.78460000  0.93350000  1.0 -0.1667720738
N  N32  1  0.09710000  0.71540000  0.93350000  1.0 -0.1640703666
O  O1  1  0.69130000  0.65910000  0.92626000  1.0 -0.5207410406
O  O2  1  0.80870000  0.84090000  0.92626000  1.0 -0.5207410406
O  O3  1  0.30870000  0.65910000  0.42626000  1.0 -0.5207410406
O  O4  1  0.19130000  0.84090000  0.42626000  1.0 -0.5207410406
O  O5  1  0.67060000  0.59660000  0.81530000  1.0 -0.4944741081
O  O6  1  0.82940000  0.90340000  0.81530000  1.0 -0.4944741081
O  O7  1  0.32940000  0.59660000  0.31530000  1.0 -0.4944741081
O  O8  1  0.17060000  0.90340000  0.31530000  1.0 -0.4944741081
O  O9  1  0.69130000  0.34090000  0.57374000  1.0 -0.5207410406
O  O10  1  0.80870000  0.15910000  0.57374000  1.0 -0.5207410406
O  O11  1  0.30870000  0.34090000  0.07374000  1.0 -0.5207410406
O  O12  1  0.19130000  0.15910000  0.07374000  1.0 -0.5207410406
O  O13  1  0.67060000  0.40340000  0.68470000  1.0 -0.4944741081
O  O14  1  0.82940000  0.09660000  0.68470000  1.0 -0.4944741081
O  O15  1  0.32940000  0.40340000  0.18470000  1.0 -0.4944741081
O  O16  1  0.17060000  0.09660000  0.18470000  1.0 -0.4944741081
