# DDEC6 charges by PACMAN v1.1 (https://github.com/mtap-research/PACMAN-charge/)
data_PIKCUK_ion_pacman
_symmetry_space_group_name_H-M   'P 1'
_cell_length_a   12.14110000
_cell_length_b   12.14110000
_cell_length_c   17.88880000
_cell_angle_alpha   90.00000000
_cell_angle_beta   90.00000000
_cell_angle_gamma   120.00000000
_symmetry_Int_Tables_number   1
_chemical_formula_structural   Tb7H15C15N3(ClO8)4
_chemical_formula_sum   'Tb14 H30 C30 N6 Cl8 O64'
_cell_volume   2283.64142611
_cell_formula_units_Z   2
loop_
 _symmetry_equiv_pos_site_id
 _symmetry_equiv_pos_as_xyz
  1  'x, y, z'
loop_
 _atom_site_type_symbol
 _atom_site_label
 _atom_site_symmetry_multiplicity
 _atom_site_fract_x
 _atom_site_fract_y
 _atom_site_fract_z
 _atom_site_occupancy
 _atom_site_charge
Tb  Tb1  1  0.12698000  0.60680000  0.42941000  1.0 2.0729206966
Tb  Tb2  1  0.12754000  0.60073000  0.76266000  1.0 2.1659974026
Tb  Tb3  1  0.39320000  0.52018000  0.42941000  1.0 2.0729206966
Tb  Tb4  1  0.39927000  0.52681000  0.76266000  1.0 2.1659974026
Tb  Tb5  1  0.47982000  0.87302000  0.42941000  1.0 2.0729206966
Tb  Tb6  1  0.47319000  0.87246000  0.76266000  1.0 2.1659974026
Tb  Tb7  1  0.87302000  0.39320000  0.92941000  1.0 2.0729206966
Tb  Tb8  1  0.87246000  0.39927000  0.26266000  1.0 2.1659974026
Tb  Tb9  1  0.60680000  0.47982000  0.92941000  1.0 2.0729206966
Tb  Tb10  1  0.60073000  0.47319000  0.26266000  1.0 2.1659974026
Tb  Tb11  1  0.52018000  0.12698000  0.92941000  1.0 2.0729206966
Tb  Tb12  1  0.52681000  0.12754000  0.26266000  1.0 2.1659974026
Tb  Tb13  1  0.33333333  0.66666667  0.59340000  1.0 2.215275185
Tb  Tb14  1  0.66666667  0.33333333  0.09340000  1.0 2.2142528462
H  H1  1  0.07720000  0.80540000  0.49500000  1.0 0.2665736494
H  H2  1  0.86620000  0.58210000  0.54250000  1.0 0.1551349727
H  H3  1  0.91970000  0.71860000  0.57680000  1.0 0.1341547027
H  H4  1  0.97970000  0.80970000  0.40000000  1.0 0.1500183212
H  H5  1  0.86090000  0.73280000  0.45130000  1.0 0.1500183212
H  H6  1  0.19460000  0.27180000  0.49500000  1.0 0.2665736494
H  H7  1  0.41790000  0.28410000  0.54250000  1.0 0.1551349727
H  H8  1  0.28140000  0.20110000  0.57680000  1.0 0.1341547027
H  H9  1  0.19030000  0.17000000  0.40000000  1.0 0.1500183212
H  H10  1  0.26720000  0.12810000  0.45130000  1.0 0.1500183212
H  H11  1  0.72820000  0.92280000  0.49500000  1.0 0.2665736494
H  H12  1  0.71590000  0.13380000  0.54250000  1.0 0.1551349727
H  H13  1  0.79890000  0.08030000  0.57680000  1.0 0.1341547027
H  H14  1  0.83000000  0.02030000  0.40000000  1.0 0.1500183212
H  H15  1  0.87190000  0.13910000  0.45130000  1.0 0.1500183212
H  H16  1  0.92280000  0.19460000  0.99500000  1.0 0.2665736494
H  H17  1  0.13380000  0.41790000  0.04250000  1.0 0.1551349727
H  H18  1  0.08030000  0.28140000  0.07680000  1.0 0.1341547027
H  H19  1  0.02030000  0.19030000  0.90000000  1.0 0.1500183212
H  H20  1  0.13910000  0.26720000  0.95130000  1.0 0.1500183212
H  H21  1  0.80540000  0.72820000  0.99500000  1.0 0.2665736494
H  H22  1  0.58210000  0.71590000  0.04250000  1.0 0.1551349727
H  H23  1  0.71860000  0.79890000  0.07680000  1.0 0.1341547027
H  H24  1  0.80970000  0.83000000  0.90000000  1.0 0.1500183212
H  H25  1  0.73280000  0.87190000  0.95130000  1.0 0.1500183212
H  H26  1  0.27180000  0.07720000  0.99500000  1.0 0.2665736494
H  H27  1  0.28410000  0.86620000  0.04250000  1.0 0.1551349727
H  H28  1  0.20110000  0.91970000  0.07680000  1.0 0.1341547027
H  H29  1  0.17000000  0.97970000  0.90000000  1.0 0.1500183212
H  H30  1  0.12810000  0.86090000  0.95130000  1.0 0.1500183212
C  C1  1  0.87300000  0.62300000  0.36830000  1.0 0.6944935389
C  C2  1  0.02620000  0.63760000  0.60480000  1.0 0.7197002935
C  C3  1  0.25700000  0.87500000  0.31470000  1.0 0.8369821477
C  C4  1  0.94340000  0.66160000  0.55300000  1.0 -0.2232718451
C  C5  1  0.93000000  0.72960000  0.42610000  1.0 -0.2077228559
C  C6  1  0.37700000  0.25000000  0.36830000  1.0 0.6944935389
C  C7  1  0.36240000  0.38860000  0.60480000  1.0 0.7197002935
C  C8  1  0.12500000  0.38200000  0.31470000  1.0 0.8369821477
C  C9  1  0.33840000  0.28180000  0.55300000  1.0 -0.2232718451
C  C10  1  0.27040000  0.20040000  0.42610000  1.0 -0.2077228559
C  C11  1  0.75000000  0.12700000  0.36830000  1.0 0.6944935389
C  C12  1  0.61140000  0.97380000  0.60480000  1.0 0.7197002935
C  C13  1  0.61800000  0.74300000  0.31470000  1.0 0.8369821477
C  C14  1  0.71820000  0.05660000  0.55300000  1.0 -0.2232718451
C  C15  1  0.79960000  0.07000000  0.42610000  1.0 -0.2077228559
C  C16  1  0.12700000  0.37700000  0.86830000  1.0 0.6944935389
C  C17  1  0.97380000  0.36240000  0.10480000  1.0 0.7197002935
C  C18  1  0.74300000  0.12500000  0.81470000  1.0 0.8369821477
C  C19  1  0.05660000  0.33840000  0.05300000  1.0 -0.2232718451
C  C20  1  0.07000000  0.27040000  0.92610000  1.0 -0.2077228559
C  C21  1  0.62300000  0.75000000  0.86830000  1.0 0.6944935389
C  C22  1  0.63760000  0.61140000  0.10480000  1.0 0.7197002935
C  C23  1  0.87500000  0.61800000  0.81470000  1.0 0.8369821477
C  C24  1  0.66160000  0.71820000  0.05300000  1.0 -0.2232718451
C  C25  1  0.72960000  0.79960000  0.92610000  1.0 -0.2077228559
C  C26  1  0.25000000  0.87300000  0.86830000  1.0 0.6944935389
C  C27  1  0.38860000  0.02620000  0.10480000  1.0 0.7197002935
C  C28  1  0.38200000  0.25700000  0.81470000  1.0 0.8369821477
C  C29  1  0.28180000  0.94340000  0.05300000  1.0 -0.2232718451
C  C30  1  0.20040000  0.93000000  0.92610000  1.0 -0.2077228559
N  N1  1  0.01100000  0.71840000  0.48280000  1.0 -0.3065492345
N  N2  1  0.28160000  0.29260000  0.48280000  1.0 -0.3065492345
N  N3  1  0.70740000  0.98900000  0.48280000  1.0 -0.299817015
N  N4  1  0.98900000  0.28160000  0.98280000  1.0 -0.299817015
N  N5  1  0.71840000  0.70740000  0.98280000  1.0 -0.299817015
N  N6  1  0.29260000  0.01100000  0.98280000  1.0 -0.299817015
Cl  Cl1  1  0.33333333  0.66666667  0.00160000  1.0 -0.2819793878
Cl  Cl2  1  0.66666667  0.33333333  0.50160000  1.0 -0.2819793878
Cl  Cl3  1  0.77480000  0.04540000  0.08900000  1.0 -0.2340101906
Cl  Cl4  1  0.27060000  0.22520000  0.08900000  1.0 -0.2340101906
Cl  Cl5  1  0.95460000  0.72940000  0.08900000  1.0 -0.2340101906
Cl  Cl6  1  0.22520000  0.95460000  0.58900000  1.0 -0.2340101906
Cl  Cl7  1  0.72940000  0.77480000  0.58900000  1.0 -0.2340101906
Cl  Cl8  1  0.04540000  0.27060000  0.58900000  1.0 -0.2340101906
O  O1  1  0.92310000  0.55010000  0.36430000  1.0 -0.6967363986
O  O2  1  0.78460000  0.61320000  0.33140000  1.0 -0.57843456
O  O3  1  0.29370000  0.77510000  0.49580000  1.0 -0.9788760277
O  O4  1  0.94940000  0.39800000  0.48030000  1.0 -0.2819793878
O  O5  1  0.22680000  0.51540000  0.69180000  1.0 -1.0057725343
O  O6  1  0.95500000  0.39900000  0.71930000  1.0 -0.299817015
O  O7  1  0.37500000  0.92430000  0.32840000  1.0 -0.7090594007
O  O8  1  0.17160000  0.77470000  0.34750000  1.0 -0.6501314176
O  O9  1  0.10590000  0.61060000  0.57650000  1.0 -0.6145692681
O  O10  1  0.01470000  0.64530000  0.67440000  1.0 -0.6145692681
O  O11  1  0.44990000  0.37300000  0.36430000  1.0 -0.6967363986
O  O12  1  0.38680000  0.17140000  0.33140000  1.0 -0.57843456
O  O13  1  0.22490000  0.51860000  0.49580000  1.0 -0.9788760277
O  O14  1  0.60200000  0.55140000  0.48030000  1.0 -0.2863641513
O  O15  1  0.48460000  0.71140000  0.69180000  1.0 -1.0057725343
O  O16  1  0.60100000  0.55600000  0.71930000  1.0 -0.299817015
O  O17  1  0.07570000  0.45070000  0.32840000  1.0 -0.7090594007
O  O18  1  0.22530000  0.39690000  0.34750000  1.0 -0.6501314176
O  O19  1  0.38940000  0.49530000  0.57650000  1.0 -0.6145692681
O  O20  1  0.35470000  0.36940000  0.67440000  1.0 -0.6145692681
O  O21  1  0.62700000  0.07690000  0.36430000  1.0 -0.6967363986
O  O22  1  0.82860000  0.21540000  0.33140000  1.0 -0.57843456
O  O23  1  0.48140000  0.70630000  0.49580000  1.0 -0.9788760277
O  O24  1  0.44860000  0.05060000  0.48030000  1.0 -0.2819793878
O  O25  1  0.28860000  0.77320000  0.69180000  1.0 -1.0057725343
O  O26  1  0.44400000  0.04500000  0.71930000  1.0 -0.299817015
O  O27  1  0.54930000  0.62500000  0.32840000  1.0 -0.7090594007
O  O28  1  0.60310000  0.82840000  0.34750000  1.0 -0.6501314176
O  O29  1  0.50470000  0.89410000  0.57650000  1.0 -0.6145692681
O  O30  1  0.63060000  0.98530000  0.67440000  1.0 -0.6145692681
O  O31  1  0.07690000  0.44990000  0.86430000  1.0 -0.6967363986
O  O32  1  0.21540000  0.38680000  0.83140000  1.0 -0.57843456
O  O33  1  0.70630000  0.22490000  0.99580000  1.0 -0.9788760277
O  O34  1  0.05060000  0.60200000  0.98030000  1.0 -0.2863641513
O  O35  1  0.77320000  0.48460000  0.19180000  1.0 -1.0057725343
O  O36  1  0.04500000  0.60100000  0.21930000  1.0 -0.299817015
O  O37  1  0.62500000  0.07570000  0.82840000  1.0 -0.7090594007
O  O38  1  0.82840000  0.22530000  0.84750000  1.0 -0.6501314176
O  O39  1  0.89410000  0.38940000  0.07650000  1.0 -0.6145692681
O  O40  1  0.98530000  0.35470000  0.17440000  1.0 -0.6145692681
O  O41  1  0.55010000  0.62700000  0.86430000  1.0 -0.6967363986
O  O42  1  0.61320000  0.82860000  0.83140000  1.0 -0.57843456
O  O43  1  0.77510000  0.48140000  0.99580000  1.0 -0.9788760277
O  O44  1  0.39800000  0.44860000  0.98030000  1.0 -0.2863641513
O  O45  1  0.51540000  0.28860000  0.19180000  1.0 -1.0057725343
O  O46  1  0.39900000  0.44400000  0.21930000  1.0 -0.299817015
O  O47  1  0.92430000  0.54930000  0.82840000  1.0 -0.7090594007
O  O48  1  0.77470000  0.60310000  0.84750000  1.0 -0.6501314176
O  O49  1  0.61060000  0.50470000  0.07650000  1.0 -0.6145692681
O  O50  1  0.64530000  0.63060000  0.17440000  1.0 -0.6161011291
O  O51  1  0.37300000  0.92310000  0.86430000  1.0 -0.6967363986
O  O52  1  0.17140000  0.78460000  0.83140000  1.0 -0.57843456
O  O53  1  0.51860000  0.29370000  0.99580000  1.0 -0.9788760277
O  O54  1  0.55140000  0.94940000  0.98030000  1.0 -0.2863641513
O  O55  1  0.71140000  0.22680000  0.19180000  1.0 -1.0057725343
O  O56  1  0.55600000  0.95500000  0.21930000  1.0 -0.299817015
O  O57  1  0.45070000  0.37500000  0.82840000  1.0 -0.7090594007
O  O58  1  0.39690000  0.17160000  0.84750000  1.0 -0.6501314176
O  O59  1  0.49530000  0.10590000  0.07650000  1.0 -0.6145692681
O  O60  1  0.36940000  0.01470000  0.17440000  1.0 -0.6145692681
O  O61  1  0.33333333  0.66666667  0.37890000  1.0 -0.8893182409
O  O62  1  0.33333333  0.66666667  0.81580000  1.0 -0.8808792961
O  O63  1  0.66666667  0.33333333  0.87890000  1.0 -0.8893182409
O  O64  1  0.66666667  0.33333333  0.31580000  1.0 -0.8808792961
