# DDEC6 charges by PACMAN v1.1 (https://github.com/mtap-research/PACMAN-charge/)
data_PIMJUS_ASR_pacman
_symmetry_space_group_name_H-M   'P 1'
_cell_length_a   15.17960000
_cell_length_b   15.64530000
_cell_length_c   16.98400000
_cell_angle_alpha   90.00000000
_cell_angle_beta   119.21800000
_cell_angle_gamma   90.00000000
_symmetry_Int_Tables_number   1
_chemical_formula_structural   Cd3H32C52(N2O9)2
_chemical_formula_sum   'Cd6 H64 C104 N8 O36'
_cell_volume   3520.33019577
_cell_formula_units_Z   2
loop_
 _symmetry_equiv_pos_site_id
 _symmetry_equiv_pos_as_xyz
  1  'x, y, z'
loop_
 _atom_site_type_symbol
 _atom_site_label
 _atom_site_symmetry_multiplicity
 _atom_site_fract_x
 _atom_site_fract_y
 _atom_site_fract_z
 _atom_site_occupancy
 _atom_site_charge
Cd  Cd1  1  0.00000000  0.63815000  0.25000000  1.0 0.9355140714
Cd  Cd2  1  0.00000000  0.36185000  0.75000000  1.0 0.9355140714
Cd  Cd3  1  0.04018000  0.47430000  0.41409000  1.0 0.9617933271
Cd  Cd4  1  0.95982000  0.47430000  0.08591000  1.0 0.9617933271
Cd  Cd5  1  0.95982000  0.52570000  0.58591000  1.0 0.9617933271
Cd  Cd6  1  0.04018000  0.52570000  0.91409000  1.0 0.9617933271
H  H1  1  0.73750000  0.30060000  0.36990000  1.0 0.1100045195
H  H2  1  0.26250000  0.30060000  0.13010000  1.0 0.1100045195
H  H3  1  0.26250000  0.69940000  0.63010000  1.0 0.1100045195
H  H4  1  0.73750000  0.69940000  0.86990000  1.0 0.1100045195
H  H5  1  0.28600000  0.47980000  0.46730000  1.0 0.1100045195
H  H6  1  0.71400000  0.47980000  0.03270000  1.0 0.1100045195
H  H7  1  0.71400000  0.52020000  0.53270000  1.0 0.1100045195
H  H8  1  0.28600000  0.52020000  0.96730000  1.0 0.1100045195
H  H9  1  0.87180000  0.24200000  0.51060000  1.0 0.1373434132
H  H10  1  0.12820000  0.24200000  0.98940000  1.0 0.1373434132
H  H11  1  0.12820000  0.75800000  0.48940000  1.0 0.1373434132
H  H12  1  0.87180000  0.75800000  0.01060000  1.0 0.1373434132
H  H13  1  0.59660000  0.20730000  0.29470000  1.0 0.1100045195
H  H14  1  0.40340000  0.20730000  0.20530000  1.0 0.1100045195
H  H15  1  0.40340000  0.79270000  0.70530000  1.0 0.1100045195
H  H16  1  0.59660000  0.79270000  0.79470000  1.0 0.1100045195
H  H17  1  0.76090000  0.35550000  0.51190000  1.0 0.1373434132
H  H18  1  0.23910000  0.35550000  0.98810000  1.0 0.1373434132
H  H19  1  0.23910000  0.64450000  0.48810000  1.0 0.1373434132
H  H20  1  0.76090000  0.64450000  0.01190000  1.0 0.1373434132
H  H21  1  0.83040000  0.16360000  0.59370000  1.0 0.1310025832
H  H22  1  0.16960000  0.16360000  0.90630000  1.0 0.1310025832
H  H23  1  0.16960000  0.83640000  0.40630000  1.0 0.1310025832
H  H24  1  0.83040000  0.83640000  0.09370000  1.0 0.1310025832
H  H25  1  0.40940000  0.39080000  0.27970000  1.0 0.1310025832
H  H26  1  0.59060000  0.39080000  0.22030000  1.0 0.1310025832
H  H27  1  0.59060000  0.60920000  0.72030000  1.0 0.1310025832
H  H28  1  0.40940000  0.60920000  0.77970000  1.0 0.1310025832
H  H29  1  0.72170000  0.27520000  0.59550000  1.0 0.1373434132
H  H30  1  0.27830000  0.27520000  0.90450000  1.0 0.1373434132
H  H31  1  0.27830000  0.72480000  0.40450000  1.0 0.1373434132
H  H32  1  0.72170000  0.72480000  0.09550000  1.0 0.1373434132
H  H33  1  0.25460000  0.45740000  0.21830000  1.0 0.1373434132
H  H34  1  0.74540000  0.45740000  0.28170000  1.0 0.1373434132
H  H35  1  0.74540000  0.54260000  0.78170000  1.0 0.1373434132
H  H36  1  0.25460000  0.54260000  0.71830000  1.0 0.1373434132
H  H37  1  0.44450000  0.41640000  0.52850000  1.0 0.1373434132
H  H38  1  0.55550000  0.41640000  0.97150000  1.0 0.1373434132
H  H39  1  0.55550000  0.58360000  0.47150000  1.0 0.1373434132
H  H40  1  0.44450000  0.58360000  0.02850000  1.0 0.1373434132
H  H41  1  0.96020000  0.80390000  0.47290000  1.0 0.1209732726
H  H42  1  0.03980000  0.80390000  0.02710000  1.0 0.1209732726
H  H43  1  0.03980000  0.19610000  0.52710000  1.0 0.1209732726
H  H44  1  0.96020000  0.19610000  0.97290000  1.0 0.1209732726
H  H45  1  0.93000000  0.92810000  0.52960000  1.0 0.1310025832
H  H46  1  0.07000000  0.92810000  0.97040000  1.0 0.1310025832
H  H47  1  0.07000000  0.07190000  0.47040000  1.0 0.1310025832
H  H48  1  0.93000000  0.07190000  0.02960000  1.0 0.1310025832
H  H49  1  0.65350000  0.13430000  0.54100000  1.0 0.1014905585
H  H50  1  0.34650000  0.13430000  0.95900000  1.0 0.1014905585
H  H51  1  0.34650000  0.86570000  0.45900000  1.0 0.1014905585
H  H52  1  0.65350000  0.86570000  0.04100000  1.0 0.1014905585
H  H53  1  0.55460000  0.12260000  0.38370000  1.0 0.1209732726
H  H54  1  0.44540000  0.12260000  0.11630000  1.0 0.1209732726
H  H55  1  0.44540000  0.87740000  0.61630000  1.0 0.1209732726
H  H56  1  0.55460000  0.87740000  0.88370000  1.0 0.1209732726
H  H57  1  0.80880000  0.90020000  0.22400000  1.0 0.1310025832
H  H58  1  0.19120000  0.90020000  0.27600000  1.0 0.1310025832
H  H59  1  0.19120000  0.09980000  0.77600000  1.0 0.1310025832
H  H60  1  0.80880000  0.09980000  0.72400000  1.0 0.1310025832
H  H61  1  0.77360000  0.02140000  0.27920000  1.0 0.1310025832
H  H62  1  0.22640000  0.02140000  0.22080000  1.0 0.1310025832
H  H63  1  0.22640000  0.97860000  0.72080000  1.0 0.1310025832
H  H64  1  0.77360000  0.97860000  0.77920000  1.0 0.1310025832
C  C1  1  0.15580000  0.52310000  0.30220000  1.0 0.5689660697
C  C2  1  0.84420000  0.52310000  0.19780000  1.0 0.5689660697
C  C3  1  0.84420000  0.47690000  0.69780000  1.0 0.5689660697
C  C4  1  0.15580000  0.47690000  0.80220000  1.0 0.5689660697
C  C5  1  0.72240000  0.26580000  0.40980000  1.0 0.0164579613
C  C6  1  0.27760000  0.26580000  0.09020000  1.0 0.0164579613
C  C7  1  0.27760000  0.73420000  0.59020000  1.0 0.0164579613
C  C8  1  0.72240000  0.73420000  0.90980000  1.0 0.0164579613
C  C9  1  0.31140000  0.46300000  0.42970000  1.0 -0.09412255
C  C10  1  0.68860000  0.46300000  0.07030000  1.0 -0.09412255
C  C11  1  0.68860000  0.53700000  0.57030000  1.0 -0.09412255
C  C12  1  0.31140000  0.53700000  0.92970000  1.0 -0.09412255
C  C13  1  0.83820000  0.14460000  0.41850000  1.0 0.4611433375
C  C14  1  0.16180000  0.14460000  0.08150000  1.0 0.4611433375
C  C15  1  0.16180000  0.85540000  0.58150000  1.0 0.4611433375
C  C16  1  0.83820000  0.85540000  0.91850000  1.0 0.4611433375
C  C17  1  0.81250000  0.20710000  0.47200000  1.0 -0.1694458002
C  C18  1  0.18750000  0.20710000  0.02800000  1.0 -0.1694458002
C  C19  1  0.18750000  0.79290000  0.52800000  1.0 -0.1694458002
C  C20  1  0.81250000  0.79290000  0.97200000  1.0 -0.1694458002
C  C21  1  0.57010000  0.29350000  0.51030000  1.0 0.4611433375
C  C22  1  0.42990000  0.29350000  0.98970000  1.0 0.4611433375
C  C23  1  0.42990000  0.70650000  0.48970000  1.0 0.4611433375
C  C24  1  0.57010000  0.70650000  0.01030000  1.0 0.4611433375
C  C25  1  0.63230000  0.20860000  0.35740000  1.0 -0.1456645589
C  C26  1  0.36770000  0.20860000  0.14260000  1.0 -0.1397859664
C  C27  1  0.36770000  0.79140000  0.64260000  1.0 -0.1456645589
C  C28  1  0.63230000  0.79140000  0.85740000  1.0 -0.1456645589
C  C29  1  0.70120000  0.32110000  0.47330000  1.0 -0.1694458002
C  C30  1  0.29880000  0.32110000  0.02670000  1.0 -0.1694458002
C  C31  1  0.29880000  0.67890000  0.52670000  1.0 -0.1694458002
C  C32  1  0.70120000  0.67890000  0.97330000  1.0 -0.1694458002
C  C33  1  0.78450000  0.15170000  0.52970000  1.0 -0.1809091424
C  C34  1  0.21550000  0.15170000  0.97030000  1.0 -0.1809091424
C  C35  1  0.21550000  0.84830000  0.47030000  1.0 -0.1809091424
C  C36  1  0.78450000  0.84830000  0.02970000  1.0 -0.1809091424
C  C37  1  0.38480000  0.41000000  0.31710000  1.0 -0.157433529
C  C38  1  0.61520000  0.41000000  0.18290000  1.0 -0.157433529
C  C39  1  0.61520000  0.59000000  0.68290000  1.0 -0.157433529
C  C40  1  0.38480000  0.59000000  0.81710000  1.0 -0.157433529
C  C41  1  0.25500000  0.47640000  0.33830000  1.0 -0.0112726339
C  C42  1  0.74500000  0.47640000  0.16170000  1.0 -0.0112726339
C  C43  1  0.74500000  0.52360000  0.66170000  1.0 -0.0112726339
C  C44  1  0.25500000  0.52360000  0.83830000  1.0 -0.0112726339
C  C45  1  0.67390000  0.26570000  0.53150000  1.0 -0.1809091424
C  C46  1  0.32610000  0.26570000  0.96850000  1.0 -0.1809091424
C  C47  1  0.32610000  0.73430000  0.46850000  1.0 -0.1809091424
C  C48  1  0.67390000  0.73430000  0.03150000  1.0 -0.1809091424
C  C49  1  0.29230000  0.44900000  0.28030000  1.0 -0.0631831461
C  C50  1  0.70770000  0.44900000  0.21970000  1.0 -0.0631831461
C  C51  1  0.70770000  0.55100000  0.71970000  1.0 -0.0631831461
C  C52  1  0.29230000  0.55100000  0.78030000  1.0 -0.0631831461
C  C53  1  0.44180000  0.39890000  0.40930000  1.0 0.1822012229
C  C54  1  0.55820000  0.39890000  0.09070000  1.0 0.1822012229
C  C55  1  0.55820000  0.60110000  0.59070000  1.0 0.1822012229
C  C56  1  0.44180000  0.60110000  0.90930000  1.0 0.1822012229
C  C57  1  0.40600000  0.42460000  0.46650000  1.0 -0.157433529
C  C58  1  0.59400000  0.42460000  0.03350000  1.0 -0.157433529
C  C59  1  0.59400000  0.57540000  0.53350000  1.0 -0.157433529
C  C60  1  0.40600000  0.57540000  0.96650000  1.0 -0.157433529
C  C61  1  0.92140000  0.76250000  0.30710000  1.0 0.5349793224
C  C62  1  0.07860000  0.76250000  0.19290000  1.0 0.5356387882
C  C63  1  0.07860000  0.23750000  0.69290000  1.0 0.5356387882
C  C64  1  0.92140000  0.23750000  0.80710000  1.0 0.5349793224
C  C65  1  0.92430000  0.84820000  0.43370000  1.0 -0.0798268771
C  C66  1  0.07570000  0.84820000  0.06630000  1.0 -0.0798268771
C  C67  1  0.07570000  0.15180000  0.56630000  1.0 -0.0798268771
C  C68  1  0.92430000  0.15180000  0.93370000  1.0 -0.0798268771
C  C69  1  0.90500000  0.92220000  0.46780000  1.0 -0.157433529
C  C70  1  0.09500000  0.92220000  0.03220000  1.0 -0.157433529
C  C71  1  0.09500000  0.07780000  0.53220000  1.0 -0.157433529
C  C72  1  0.90500000  0.07780000  0.96780000  1.0 -0.157433529
C  C73  1  0.67490000  0.17150000  0.50710000  1.0 0.0101665497
C  C74  1  0.32510000  0.17150000  0.99290000  1.0 0.0101665497
C  C75  1  0.32510000  0.82850000  0.49290000  1.0 0.0101665497
C  C76  1  0.67490000  0.82850000  0.00710000  1.0 0.0101665497
C  C77  1  0.61170000  0.37890000  0.42180000  1.0 0.4611433375
C  C78  1  0.38830000  0.37890000  0.07820000  1.0 0.4611433375
C  C79  1  0.38830000  0.62110000  0.57820000  1.0 0.4611433375
C  C80  1  0.61170000  0.62110000  0.92180000  1.0 0.4611433375
C  C81  1  0.79700000  0.06220000  0.50960000  1.0 0.4548698453
C  C82  1  0.20300000  0.06220000  0.99040000  1.0 0.4611433375
C  C83  1  0.20300000  0.93780000  0.49040000  1.0 0.4611433375
C  C84  1  0.79700000  0.93780000  0.00960000  1.0 0.4611433375
C  C85  1  0.60870000  0.16050000  0.40800000  1.0 -0.1397859664
C  C86  1  0.39130000  0.16050000  0.09200000  1.0 -0.1397859664
C  C87  1  0.39130000  0.83950000  0.59200000  1.0 -0.1397859664
C  C88  1  0.60870000  0.83950000  0.90800000  1.0 -0.1397859664
C  C89  1  0.89160000  0.83910000  0.34410000  1.0 -0.0112726339
C  C90  1  0.10840000  0.83910000  0.15590000  1.0 -0.0112726339
C  C91  1  0.10840000  0.16090000  0.65590000  1.0 -0.0112726339
C  C92  1  0.89160000  0.16090000  0.84410000  1.0 -0.0112726339
C  C93  1  0.84890000  0.98660000  0.41000000  1.0 0.1822012229
C  C94  1  0.15110000  0.98660000  0.09000000  1.0 0.1822012229
C  C95  1  0.15110000  0.01340000  0.59000000  1.0 0.1822012229
C  C96  1  0.84890000  0.01340000  0.91000000  1.0 0.1822012229
C  C97  1  0.83330000  0.90580000  0.28570000  1.0 -0.0798268771
C  C98  1  0.16670000  0.90580000  0.21430000  1.0 -0.0798268771
C  C99  1  0.16670000  0.09420000  0.71430000  1.0 -0.0798268771
C  C100  1  0.83330000  0.09420000  0.78570000  1.0 -0.0798268771
C  C101  1  0.81230000  0.97820000  0.31840000  1.0 -0.157433529
C  C102  1  0.18770000  0.97820000  0.18160000  1.0 -0.157433529
C  C103  1  0.18770000  0.02180000  0.68160000  1.0 -0.157433529
C  C104  1  0.81230000  0.02180000  0.81840000  1.0 -0.157433529
N  N1  1  0.53910000  0.35910000  0.44680000  1.0 -0.2385763066
N  N2  1  0.46090000  0.35910000  0.05320000  1.0 -0.2385763066
N  N3  1  0.46090000  0.64090000  0.55320000  1.0 -0.2385763066
N  N4  1  0.53910000  0.64090000  0.94680000  1.0 -0.2385763066
N  N5  1  0.82910000  0.06270000  0.44380000  1.0 -0.2272486748
N  N6  1  0.17090000  0.06270000  0.05620000  1.0 -0.2272486748
N  N7  1  0.17090000  0.93730000  0.55620000  1.0 -0.2272486748
N  N8  1  0.82910000  0.93730000  0.94380000  1.0 -0.2272486748
O  O1  1  0.07460000  0.59030000  0.53050000  1.0 -0.6139902384
O  O2  1  0.92540000  0.59030000  0.96950000  1.0 -0.6139902384
O  O3  1  0.92540000  0.40970000  0.46950000  1.0 -0.6194271656
O  O4  1  0.07460000  0.40970000  0.03050000  1.0 -0.6194271656
O  O5  1  0.60230000  0.43340000  0.36780000  1.0 -0.4097687291
O  O6  1  0.39770000  0.43340000  0.13220000  1.0 -0.4097687291
O  O7  1  0.39770000  0.56660000  0.63220000  1.0 -0.4097687291
O  O8  1  0.60230000  0.56660000  0.86780000  1.0 -0.4097687291
O  O9  1  0.86330000  0.16170000  0.36200000  1.0 -0.4301609607
O  O10  1  0.13670000  0.16170000  0.13800000  1.0 -0.4301609607
O  O11  1  0.13670000  0.83830000  0.63800000  1.0 -0.4301609607
O  O12  1  0.86330000  0.83830000  0.86200000  1.0 -0.4301609607
O  O13  1  0.51780000  0.26400000  0.53930000  1.0 -0.4097687291
O  O14  1  0.48220000  0.26400000  0.96070000  1.0 -0.4097687291
O  O15  1  0.48220000  0.73600000  0.46070000  1.0 -0.4097687291
O  O16  1  0.51780000  0.73600000  0.03930000  1.0 -0.4097687291
O  O17  1  0.87980000  0.75070000  0.22500000  1.0 -0.5216200934
O  O18  1  0.12020000  0.75070000  0.27500000  1.0 -0.5216200934
O  O19  1  0.12020000  0.24930000  0.77500000  1.0 -0.5216200934
O  O20  1  0.87980000  0.24930000  0.72500000  1.0 -0.5216200934
O  O21  1  0.98560000  0.71260000  0.36430000  1.0 -0.4928012402
O  O22  1  0.01440000  0.71260000  0.13570000  1.0 -0.4928012402
O  O23  1  0.01440000  0.28740000  0.63570000  1.0 -0.4928012402
O  O24  1  0.98560000  0.28740000  0.86430000  1.0 -0.4928012402
O  O25  1  0.78150000  0.99870000  0.54020000  1.0 -0.4097687291
O  O26  1  0.21850000  0.99870000  0.95980000  1.0 -0.4097687291
O  O27  1  0.21850000  0.00130000  0.45980000  1.0 -0.4097687291
O  O28  1  0.78150000  0.00130000  0.04020000  1.0 -0.4097687291
O  O29  1  0.13060000  0.55010000  0.35430000  1.0 -0.5216200934
O  O30  1  0.86940000  0.55010000  0.14570000  1.0 -0.5216200934
O  O31  1  0.86940000  0.44990000  0.64570000  1.0 -0.5216200934
O  O32  1  0.13060000  0.44990000  0.85430000  1.0 -0.5216200934
O  O33  1  0.10650000  0.53640000  0.21640000  1.0 -0.551066211
O  O34  1  0.89350000  0.53640000  0.28360000  1.0 -0.551066211
O  O35  1  0.89350000  0.46360000  0.78360000  1.0 -0.551066211
O  O36  1  0.10650000  0.46360000  0.71640000  1.0 -0.551066211
