# DDEC6 charges by PACMAN v1.1 (https://github.com/mtap-research/PACMAN-charge/)
data_PIMKEF_FSR_pacman
_symmetry_space_group_name_H-M   'P 1'
_cell_length_a   18.99370000
_cell_length_b   7.60230000
_cell_length_c   25.41040000
_cell_angle_alpha   90.00000000
_cell_angle_beta   118.23200000
_cell_angle_gamma   90.00000000
_symmetry_Int_Tables_number   1
_chemical_formula_structural   ZnH22C28N5O4
_chemical_formula_sum   'Zn4 H88 C112 N20 O16'
_cell_volume   3232.67024751
_cell_formula_units_Z   4
loop_
 _symmetry_equiv_pos_site_id
 _symmetry_equiv_pos_as_xyz
  1  'x, y, z'
loop_
 _atom_site_type_symbol
 _atom_site_label
 _atom_site_symmetry_multiplicity
 _atom_site_fract_x
 _atom_site_fract_y
 _atom_site_fract_z
 _atom_site_occupancy
 _atom_site_charge
Zn  Zn1  1  0.25402000  0.71872000  0.24896000  1.0 0.7473395598
Zn  Zn2  1  0.74598000  0.21872000  0.25104000  1.0 0.7473395598
Zn  Zn3  1  0.74598000  0.28128000  0.75104000  1.0 0.7473395598
Zn  Zn4  1  0.25402000  0.78128000  0.74896000  1.0 0.7473395598
H  H1  1  0.21330000  0.67370000  0.44190000  1.0 0.1190003924
H  H2  1  0.78670000  0.17370000  0.05810000  1.0 0.1190003924
H  H3  1  0.78670000  0.32630000  0.55810000  1.0 0.1190003924
H  H4  1  0.21330000  0.82630000  0.94190000  1.0 0.1190003924
H  H5  1  0.21850000  0.84200000  0.51900000  1.0 0.1120214417
H  H6  1  0.78150000  0.34200000  0.98100000  1.0 0.1120214417
H  H7  1  0.78150000  0.15800000  0.48100000  1.0 0.1120214417
H  H8  1  0.21850000  0.65800000  0.01900000  1.0 0.1120214417
H  H9  1  0.22170000  0.27800000  0.43200000  1.0 0.1289230754
H  H10  1  0.77830000  0.77800000  0.06800000  1.0 0.1289230754
H  H11  1  0.77830000  0.72200000  0.56800000  1.0 0.1289230754
H  H12  1  0.22170000  0.22200000  0.93200000  1.0 0.1289230754
H  H13  1  0.22160000  0.10990000  0.35750000  1.0 0.1289230754
H  H14  1  0.77840000  0.60990000  0.14250000  1.0 0.1289230754
H  H15  1  0.77840000  0.89010000  0.64250000  1.0 0.1289230754
H  H16  1  0.22160000  0.39010000  0.85750000  1.0 0.1289230754
H  H17  1  0.30170000  0.01820000  0.60090000  1.0 0.1190003924
H  H18  1  0.69830000  0.51820000  0.89910000  1.0 0.1190003924
H  H19  1  0.69830000  0.98180000  0.39910000  1.0 0.1190003924
H  H20  1  0.30170000  0.48180000  0.10090000  1.0 0.1190003924
H  H21  1  0.32520000  0.19710000  0.68170000  1.0 0.1120214417
H  H22  1  0.67480000  0.69710000  0.81830000  1.0 0.1120214417
H  H23  1  0.67480000  0.80290000  0.31830000  1.0 0.1120214417
H  H24  1  0.32520000  0.30290000  0.18170000  1.0 0.1120214417
H  H25  1  0.18510000  0.56720000  0.57050000  1.0 0.1190003924
H  H26  1  0.81490000  0.06720000  0.92950000  1.0 0.1190003924
H  H27  1  0.81490000  0.43280000  0.42950000  1.0 0.1190003924
H  H28  1  0.18510000  0.93280000  0.07050000  1.0 0.1190003924
H  H29  1  0.16190000  0.39360000  0.48940000  1.0 0.1190003924
H  H30  1  0.83810000  0.89360000  0.01060000  1.0 0.1190003924
H  H31  1  0.83810000  0.60640000  0.51060000  1.0 0.1190003924
H  H32  1  0.16190000  0.10640000  0.98940000  1.0 0.1190003924
H  H33  1  0.38720000  0.66630000  0.22180000  1.0 0.1120214417
H  H34  1  0.61280000  0.16630000  0.27820000  1.0 0.1120214417
H  H35  1  0.61280000  0.33370000  0.77820000  1.0 0.1120214417
H  H36  1  0.38720000  0.83370000  0.72180000  1.0 0.1120214417
H  H37  1  0.52240000  0.60720000  0.26810000  1.0 0.1415462874
H  H38  1  0.47760000  0.10720000  0.23190000  1.0 0.1415462874
H  H39  1  0.47760000  0.39280000  0.73190000  1.0 0.1415462874
H  H40  1  0.52240000  0.89280000  0.76810000  1.0 0.1415462874
H  H41  1  0.58720000  0.55120000  0.37030000  1.0 0.1190003924
H  H42  1  0.41280000  0.05120000  0.12970000  1.0 0.1190003924
H  H43  1  0.41280000  0.44880000  0.62970000  1.0 0.1190003924
H  H44  1  0.58720000  0.94880000  0.87030000  1.0 0.1190003924
H  H45  1  0.37850000  0.59800000  0.37090000  1.0 0.1190003924
H  H46  1  0.62150000  0.09800000  0.12910000  1.0 0.1190003924
H  H47  1  0.62150000  0.40200000  0.62910000  1.0 0.1190003924
H  H48  1  0.37850000  0.90200000  0.87090000  1.0 0.1190003924
H  H49  1  0.63080000  0.39620000  0.46830000  1.0 0.1496611568
H  H50  1  0.36920000  0.89620000  0.03170000  1.0 0.1496611568
H  H51  1  0.36920000  0.60380000  0.53170000  1.0 0.1496611568
H  H52  1  0.63080000  0.10380000  0.96830000  1.0 0.1496611568
H  H53  1  0.64180000  0.60090000  0.47040000  1.0 0.1415462874
H  H54  1  0.35820000  0.10090000  0.02960000  1.0 0.1415462874
H  H55  1  0.35820000  0.39910000  0.52960000  1.0 0.1415462874
H  H56  1  0.64180000  0.89910000  0.97040000  1.0 0.1415462874
H  H57  1  0.63450000  0.50430000  0.52210000  1.0 0.1599342563
H  H58  1  0.36550000  0.00430000  0.97790000  1.0 0.1599342563
H  H59  1  0.36550000  0.49570000  0.47790000  1.0 0.1599342563
H  H60  1  0.63450000  0.99570000  0.02210000  1.0 0.1599342563
H  H61  1  0.22900000  0.35560000  0.28170000  1.0 0.1190003924
H  H62  1  0.77100000  0.85560000  0.21830000  1.0 0.1190003924
H  H63  1  0.77100000  0.64440000  0.71830000  1.0 0.1190003924
H  H64  1  0.22900000  0.14440000  0.78170000  1.0 0.1190003924
H  H65  1  0.15530000  0.10670000  0.23850000  1.0 0.1496611568
H  H66  1  0.84470000  0.60670000  0.26150000  1.0 0.1496611568
H  H67  1  0.84470000  0.89330000  0.76150000  1.0 0.1496611568
H  H68  1  0.15530000  0.39330000  0.73850000  1.0 0.1496611568
H  H69  1  0.06560000  0.10680000  0.13770000  1.0 0.1289230754
H  H70  1  0.93440000  0.60680000  0.36230000  1.0 0.1289230754
H  H71  1  0.93440000  0.89320000  0.86230000  1.0 0.1289230754
H  H72  1  0.06560000  0.39320000  0.63770000  1.0 0.1289230754
H  H73  1  0.13060000  0.59860000  0.12860000  1.0 0.1120214417
H  H74  1  0.86940000  0.09860000  0.37140000  1.0 0.1120214417
H  H75  1  0.86940000  0.40140000  0.87140000  1.0 0.1120214417
H  H76  1  0.13060000  0.90140000  0.62860000  1.0 0.1120214417
H  H77  1  0.95080000  0.23810000  0.98490000  1.0 0.1289230754
H  H78  1  0.04920000  0.73810000  0.51510000  1.0 0.1289230754
H  H79  1  0.04920000  0.76190000  0.01510000  1.0 0.1289230754
H  H80  1  0.95080000  0.26190000  0.48490000  1.0 0.1289230754
H  H81  1  0.01870000  0.11470000  0.03000000  1.0 0.1415462874
H  H82  1  0.98130000  0.61470000  0.47000000  1.0 0.1415462874
H  H83  1  0.98130000  0.88530000  0.97000000  1.0 0.1415462874
H  H84  1  0.01870000  0.38530000  0.53000000  1.0 0.1415462874
H  H85  1  0.95070000  0.17850000  0.04390000  1.0 0.1496611568
H  H86  1  0.04930000  0.67850000  0.45610000  1.0 0.1496611568
H  H87  1  0.04930000  0.82150000  0.95610000  1.0 0.1496611568
H  H88  1  0.95070000  0.32150000  0.54390000  1.0 0.1496611568
C  C1  1  0.22630000  0.76060000  0.34570000  1.0 0.554236753
C  C2  1  0.77370000  0.26060000  0.15430000  1.0 0.554236753
C  C3  1  0.77370000  0.23940000  0.65430000  1.0 0.554236753
C  C4  1  0.22630000  0.73940000  0.84570000  1.0 0.554236753
C  C5  1  0.21960000  0.87430000  0.39200000  1.0 -0.011462942
C  C6  1  0.78040000  0.37430000  0.10800000  1.0 -0.011462942
C  C7  1  0.78040000  0.12570000  0.60800000  1.0 -0.011462942
C  C8  1  0.21960000  0.62570000  0.89200000  1.0 -0.011462942
C  C9  1  0.21680000  0.79540000  0.44050000  1.0 -0.1085792951
C  C10  1  0.78320000  0.29540000  0.05950000  1.0 -0.1085792951
C  C11  1  0.78320000  0.20460000  0.55950000  1.0 -0.1085792951
C  C12  1  0.21680000  0.70460000  0.94050000  1.0 -0.1085792951
C  C13  1  0.21930000  0.89710000  0.48660000  1.0 -0.1601533398
C  C14  1  0.78070000  0.39710000  0.01340000  1.0 -0.1601533398
C  C15  1  0.78070000  0.10290000  0.51340000  1.0 -0.1601533398
C  C16  1  0.21930000  0.60290000  0.98660000  1.0 -0.1601533398
C  C17  1  0.22300000  0.07970000  0.48550000  1.0 0.0700984393
C  C18  1  0.77700000  0.57970000  0.01450000  1.0 0.0700984393
C  C19  1  0.77700000  0.92030000  0.51450000  1.0 0.0700984393
C  C20  1  0.22300000  0.42030000  0.98550000  1.0 0.0700984393
C  C21  1  0.22190000  0.15610000  0.43510000  1.0 -0.138608707
C  C22  1  0.77810000  0.65610000  0.06490000  1.0 -0.138608707
C  C23  1  0.77810000  0.84390000  0.56490000  1.0 -0.138608707
C  C24  1  0.22190000  0.34390000  0.93510000  1.0 -0.138608707
C  C25  1  0.22110000  0.05500000  0.39000000  1.0 -0.0874512418
C  C26  1  0.77890000  0.55500000  0.11000000  1.0 -0.0874512418
C  C27  1  0.77890000  0.94500000  0.61000000  1.0 -0.0874512418
C  C28  1  0.22110000  0.44500000  0.89000000  1.0 -0.0874512418
C  C29  1  0.23170000  0.18940000  0.53670000  1.0 0.0700984393
C  C30  1  0.76830000  0.68940000  0.96330000  1.0 0.0700984393
C  C31  1  0.76830000  0.81060000  0.46330000  1.0 0.0700984393
C  C32  1  0.23170000  0.31060000  0.03670000  1.0 0.0700984393
C  C33  1  0.27890000  0.12970000  0.59440000  1.0 -0.1601533398
C  C34  1  0.72110000  0.62970000  0.90560000  1.0 -0.1601533398
C  C35  1  0.72110000  0.87030000  0.40560000  1.0 -0.1601533398
C  C36  1  0.27890000  0.37030000  0.09440000  1.0 -0.1601533398
C  C37  1  0.29250000  0.23670000  0.64300000  1.0 -0.1085792951
C  C38  1  0.70750000  0.73670000  0.85700000  1.0 -0.1085792951
C  C39  1  0.70750000  0.76330000  0.35700000  1.0 -0.1085792951
C  C40  1  0.29250000  0.26330000  0.14300000  1.0 -0.1085792951
C  C41  1  0.25770000  0.40070000  0.63400000  1.0 -0.0379458716
C  C42  1  0.74230000  0.90070000  0.86600000  1.0 -0.0379458716
C  C43  1  0.74230000  0.59930000  0.36600000  1.0 -0.0379458716
C  C44  1  0.25770000  0.09930000  0.13400000  1.0 -0.0379458716
C  C45  1  0.20920000  0.45720000  0.57670000  1.0 -0.1085792951
C  C46  1  0.79080000  0.95720000  0.92330000  1.0 -0.1085792951
C  C47  1  0.79080000  0.54280000  0.42330000  1.0 -0.1085792951
C  C48  1  0.20920000  0.04280000  0.07670000  1.0 -0.1085792951
C  C49  1  0.19530000  0.35370000  0.52790000  1.0 -0.1601533398
C  C50  1  0.80470000  0.85370000  0.97210000  1.0 -0.1601533398
C  C51  1  0.80470000  0.64630000  0.47210000  1.0 -0.1601533398
C  C52  1  0.19530000  0.14630000  0.02790000  1.0 -0.1601533398
C  C53  1  0.27460000  0.51280000  0.68660000  1.0 0.5409537238
C  C54  1  0.72540000  0.01280000  0.81340000  1.0 0.5409537238
C  C55  1  0.72540000  0.48720000  0.31340000  1.0 0.5409537238
C  C56  1  0.27460000  0.98720000  0.18660000  1.0 0.5409537238
C  C57  1  0.41300000  0.64030000  0.26230000  1.0 0.0700984393
C  C58  1  0.58700000  0.14030000  0.23770000  1.0 0.0700984393
C  C59  1  0.58700000  0.35970000  0.73770000  1.0 0.0700984393
C  C60  1  0.41300000  0.85970000  0.76230000  1.0 0.0700984393
C  C61  1  0.49420000  0.60640000  0.28970000  1.0 -0.138608707
C  C62  1  0.50580000  0.10640000  0.21030000  1.0 -0.138608707
C  C63  1  0.50580000  0.39360000  0.71030000  1.0 -0.138608707
C  C64  1  0.49420000  0.89360000  0.78970000  1.0 -0.138608707
C  C65  1  0.53240000  0.57140000  0.35050000  1.0 -0.0777855272
C  C66  1  0.46760000  0.07140000  0.14950000  1.0 -0.0777855272
C  C67  1  0.46760000  0.42860000  0.64950000  1.0 -0.0777855272
C  C68  1  0.53240000  0.92860000  0.85050000  1.0 -0.0777855272
C  C69  1  0.49000000  0.56620000  0.38150000  1.0 0.0070389901
C  C70  1  0.51000000  0.06620000  0.11850000  1.0 0.0070389901
C  C71  1  0.51000000  0.43380000  0.61850000  1.0 0.0070389901
C  C72  1  0.49000000  0.93380000  0.88150000  1.0 0.0070389901
C  C73  1  0.40800000  0.60060000  0.35030000  1.0 0.0511918311
C  C74  1  0.59200000  0.10060000  0.14970000  1.0 0.0511918311
C  C75  1  0.59200000  0.39940000  0.64970000  1.0 0.0511918311
C  C76  1  0.40800000  0.89940000  0.85030000  1.0 0.0511918311
C  C77  1  0.52820000  0.52830000  0.44700000  1.0 0.2657478732
C  C78  1  0.47180000  0.02830000  0.05300000  1.0 0.2657478732
C  C79  1  0.47180000  0.47170000  0.55300000  1.0 0.2657478732
C  C80  1  0.52820000  0.97170000  0.94700000  1.0 0.2657478732
C  C81  1  0.61670000  0.50540000  0.47990000  1.0 -0.5031190682
C  C82  1  0.38330000  0.00540000  0.02010000  1.0 -0.5031190682
C  C83  1  0.38330000  0.49460000  0.52010000  1.0 -0.5031190682
C  C84  1  0.61670000  0.99460000  0.97990000  1.0 -0.5031190682
C  C85  1  0.19330000  0.35590000  0.24110000  1.0 0.0796895102
C  C86  1  0.80670000  0.85590000  0.25890000  1.0 0.0796895102
C  C87  1  0.80670000  0.64410000  0.75890000  1.0 0.0796895102
C  C88  1  0.19330000  0.14410000  0.74110000  1.0 0.0796895102
C  C89  1  0.14920000  0.20630000  0.21550000  1.0 -0.1085792951
C  C90  1  0.85080000  0.70630000  0.28450000  1.0 -0.1085792951
C  C91  1  0.85080000  0.79370000  0.78450000  1.0 -0.1085792951
C  C92  1  0.14920000  0.29370000  0.71550000  1.0 -0.1085792951
C  C93  1  0.09590000  0.20650000  0.15540000  1.0 -0.0685602966
C  C94  1  0.90410000  0.70650000  0.34460000  1.0 -0.0685602966
C  C95  1  0.90410000  0.79350000  0.84460000  1.0 -0.0685602966
C  C96  1  0.09590000  0.29350000  0.65540000  1.0 -0.0685602966
C  C97  1  0.08730000  0.35600000  0.12090000  1.0 -0.0281205717
C  C98  1  0.91270000  0.85600000  0.37910000  1.0 -0.0281205717
C  C99  1  0.91270000  0.64400000  0.87910000  1.0 -0.0281205717
C  C100  1  0.08730000  0.14400000  0.62090000  1.0 -0.0281205717
C  C101  1  0.13480000  0.49820000  0.15080000  1.0 0.0312086308
C  C102  1  0.86520000  0.99820000  0.34920000  1.0 0.0312086308
C  C103  1  0.86520000  0.50180000  0.84920000  1.0 0.0312086308
C  C104  1  0.13480000  0.00180000  0.65080000  1.0 0.0312086308
C  C105  1  0.03100000  0.36280000  0.05680000  1.0 0.1599342563
C  C106  1  0.96900000  0.86280000  0.44320000  1.0 0.1599342563
C  C107  1  0.96900000  0.63720000  0.94320000  1.0 0.1599342563
C  C108  1  0.03100000  0.13720000  0.55680000  1.0 0.1599342563
C  C109  1  0.98380000  0.21080000  0.02630000  1.0 -0.5593928787
C  C110  1  0.01620000  0.71080000  0.47370000  1.0 -0.5593928787
C  C111  1  0.01620000  0.78920000  0.97370000  1.0 -0.5593928787
C  C112  1  0.98380000  0.28920000  0.52630000  1.0 -0.5593928787
N  N1  1  0.37009000  0.63740000  0.29149000  1.0 -0.228870809
N  N2  1  0.62991000  0.13740000  0.20851000  1.0 -0.228870809
N  N3  1  0.62991000  0.36260000  0.70851000  1.0 -0.228870809
N  N4  1  0.37009000  0.86260000  0.79149000  1.0 -0.228870809
N  N5  1  0.48056000  0.51790000  0.46896000  1.0 -0.228870809
N  N6  1  0.51944000  0.01790000  0.03104000  1.0 -0.228870809
N  N7  1  0.51944000  0.48210000  0.53104000  1.0 -0.228870809
N  N8  1  0.48056000  0.98210000  0.96896000  1.0 -0.228870809
N  N9  1  0.18609000  0.50190000  0.20909000  1.0 -0.2140160966
N  N10  1  0.81391000  0.00190000  0.29091000  1.0 -0.2140160966
N  N11  1  0.81391000  0.49810000  0.79091000  1.0 -0.2140160966
N  N12  1  0.18609000  0.99810000  0.70909000  1.0 -0.2140160966
N  N13  1  0.00670000  0.51950000  0.03490000  1.0 -0.011462942
N  N14  1  0.99330000  0.01950000  0.46510000  1.0 -0.011462942
N  N15  1  0.99330000  0.48050000  0.96510000  1.0 -0.011462942
N  N16  1  0.00670000  0.98050000  0.53490000  1.0 -0.011462942
N  N17  1  0.04700000  0.48280000  0.02610000  1.0 -0.0379458716
N  N18  1  0.95300000  0.98280000  0.47390000  1.0 -0.0379458716
N  N19  1  0.95300000  0.51720000  0.97390000  1.0 -0.0379458716
N  N20  1  0.04700000  0.01720000  0.52610000  1.0 -0.0379458716
O  O1  1  0.22505000  0.84350000  0.30195000  1.0 -0.5300222355
O  O2  1  0.77495000  0.34350000  0.19805000  1.0 -0.5300222355
O  O3  1  0.77495000  0.15650000  0.69805000  1.0 -0.5300222355
O  O4  1  0.22505000  0.65650000  0.80195000  1.0 -0.5300222355
O  O5  1  0.23548000  0.60080000  0.35318000  1.0 -0.5593928787
O  O6  1  0.76452000  0.10080000  0.14682000  1.0 -0.5593928787
O  O7  1  0.76452000  0.39920000  0.64682000  1.0 -0.5593928787
O  O8  1  0.23548000  0.89920000  0.85318000  1.0 -0.5593928787
O  O9  1  0.32485000  0.47150000  0.73725000  1.0 -0.5300222355
O  O10  1  0.67515000  0.97150000  0.76275000  1.0 -0.5300222355
O  O11  1  0.67515000  0.52850000  0.26275000  1.0 -0.5300222355
O  O12  1  0.32485000  0.02850000  0.23725000  1.0 -0.5300222355
O  O13  1  0.23092000  0.65300000  0.67646000  1.0 -0.57153696
O  O14  1  0.76908000  0.15300000  0.82354000  1.0 -0.57153696
O  O15  1  0.76908000  0.34700000  0.32354000  1.0 -0.57153696
O  O16  1  0.23092000  0.84700000  0.17646000  1.0 -0.57153696
