# DDEC6 charges by PACMAN v1.1 (https://github.com/mtap-research/PACMAN-charge/)
data_PIQFIG_FSR_pacman
_symmetry_space_group_name_H-M   'P 1'
_cell_length_a   12.99190000
_cell_length_b   12.99190000
_cell_length_c   22.96490000
_cell_angle_alpha   89.84760000
_cell_angle_beta   90.15240000
_cell_angle_gamma   113.76900000
_symmetry_Int_Tables_number   1
_chemical_formula_structural   Mn2CrH14C22N2O15
_chemical_formula_sum   'Mn8 Cr4 H56 C88 N8 O60'
_cell_volume   3547.42496565
_cell_formula_units_Z   4
loop_
 _symmetry_equiv_pos_site_id
 _symmetry_equiv_pos_as_xyz
  1  'x, y, z'
loop_
 _atom_site_type_symbol
 _atom_site_label
 _atom_site_symmetry_multiplicity
 _atom_site_fract_x
 _atom_site_fract_y
 _atom_site_fract_z
 _atom_site_occupancy
 _atom_site_charge
Mn  Mn1  1  0.99735000  0.52783000  0.11722000  1.0 0.9723053374
Mn  Mn2  1  0.52783000  0.99735000  0.38278000  1.0 0.9723053374
Mn  Mn3  1  0.00265000  0.47217000  0.88278000  1.0 0.9723053374
Mn  Mn4  1  0.47217000  0.00265000  0.61722000  1.0 0.9723053374
Mn  Mn5  1  0.91881000  0.48699000  0.44270000  1.0 0.9632696011
Mn  Mn6  1  0.08119000  0.51301000  0.55730000  1.0 0.9632696011
Mn  Mn7  1  0.48699000  0.91881000  0.05730000  1.0 0.9632696011
Mn  Mn8  1  0.51301000  0.08119000  0.94270000  1.0 0.9632696011
Cr  Cr1  1  0.15854000  0.91216000  0.24210000  1.0 1.1685952046
Cr  Cr2  1  0.91216000  0.15854000  0.25790000  1.0 1.1685952046
Cr  Cr3  1  0.84146000  0.08784000  0.75790000  1.0 1.1751940348
Cr  Cr4  1  0.08784000  0.84146000  0.74210000  1.0 1.1685952046
H  H1  1  0.81120000  0.22800000  0.57680000  1.0 0.1465687552
H  H2  1  0.18880000  0.77200000  0.42320000  1.0 0.1465687552
H  H3  1  0.80740000  0.04700000  0.57610000  1.0 0.1293088337
H  H4  1  0.19260000  0.95300000  0.42390000  1.0 0.1293088337
H  H5  1  0.89440000  0.99280000  0.50170000  1.0 0.1143944361
H  H6  1  0.10560000  0.00720000  0.49830000  1.0 0.1143944361
H  H7  1  0.98730000  0.11990000  0.42890000  1.0 0.1293088337
H  H8  1  0.01270000  0.88010000  0.57110000  1.0 0.1293088337
H  H9  1  0.06370000  0.30750000  0.38760000  1.0 0.1193387215
H  H10  1  0.93630000  0.69250000  0.61240000  1.0 0.1193387215
H  H11  1  0.15160000  0.56440000  0.37560000  1.0 0.1385318139
H  H12  1  0.84840000  0.43560000  0.62440000  1.0 0.1385318139
H  H13  1  0.11010000  0.46410000  0.32890000  1.0 0.1293088337
H  H14  1  0.88990000  0.53590000  0.67110000  1.0 0.1293088337
H  H15  1  0.95890000  0.50430000  0.30030000  1.0 0.1293088337
H  H16  1  0.04110000  0.49570000  0.69970000  1.0 0.1293088337
H  H17  1  0.06070000  0.62610000  0.30560000  1.0 0.1293088337
H  H18  1  0.93930000  0.37390000  0.69440000  1.0 0.1293088337
H  H19  1  0.94660000  0.71360000  0.33040000  1.0 0.1193387215
H  H20  1  0.05340000  0.28640000  0.66960000  1.0 0.1193387215
H  H21  1  0.85740000  0.83280000  0.35070000  1.0 0.1293088337
H  H22  1  0.14260000  0.16720000  0.64930000  1.0 0.1293088337
H  H23  1  0.74410000  0.88810000  0.40880000  1.0 0.1293088337
H  H24  1  0.25590000  0.11190000  0.59120000  1.0 0.1293088337
H  H25  1  0.67950000  0.79510000  0.49730000  1.0 0.1293088337
H  H26  1  0.32050000  0.20490000  0.50270000  1.0 0.1293088337
H  H27  1  0.72280000  0.64680000  0.52800000  1.0 0.1293088337
H  H28  1  0.27720000  0.35320000  0.47200000  1.0 0.1293088337
H  H29  1  0.22800000  0.81120000  0.92320000  1.0 0.1465687552
H  H30  1  0.77200000  0.18880000  0.07680000  1.0 0.1465687552
H  H31  1  0.04700000  0.80740000  0.92390000  1.0 0.1293088337
H  H32  1  0.95300000  0.19260000  0.07610000  1.0 0.1293088337
H  H33  1  0.99280000  0.89440000  0.99830000  1.0 0.1143944361
H  H34  1  0.00720000  0.10560000  0.00170000  1.0 0.1143944361
H  H35  1  0.11990000  0.98730000  0.07110000  1.0 0.1293088337
H  H36  1  0.88010000  0.01270000  0.92890000  1.0 0.1293088337
H  H37  1  0.30750000  0.06370000  0.11240000  1.0 0.1193387215
H  H38  1  0.69250000  0.93630000  0.88760000  1.0 0.1193387215
H  H39  1  0.56440000  0.15160000  0.12440000  1.0 0.1385318139
H  H40  1  0.43560000  0.84840000  0.87560000  1.0 0.1385318139
H  H41  1  0.46410000  0.11010000  0.17110000  1.0 0.1293088337
H  H42  1  0.53590000  0.88990000  0.82890000  1.0 0.1293088337
H  H43  1  0.50430000  0.95890000  0.19970000  1.0 0.1293088337
H  H44  1  0.49570000  0.04110000  0.80030000  1.0 0.1293088337
H  H45  1  0.62610000  0.06070000  0.19440000  1.0 0.1293088337
H  H46  1  0.37390000  0.93930000  0.80560000  1.0 0.1293088337
H  H47  1  0.71360000  0.94660000  0.16960000  1.0 0.1193387215
H  H48  1  0.28640000  0.05340000  0.83040000  1.0 0.1193387215
H  H49  1  0.83280000  0.85740000  0.14930000  1.0 0.1293088337
H  H50  1  0.16720000  0.14260000  0.85070000  1.0 0.1293088337
H  H51  1  0.88810000  0.74410000  0.09120000  1.0 0.1293088337
H  H52  1  0.11190000  0.25590000  0.90880000  1.0 0.1293088337
H  H53  1  0.79510000  0.67950000  0.00270000  1.0 0.1293088337
H  H54  1  0.20490000  0.32050000  0.99730000  1.0 0.1293088337
H  H55  1  0.64680000  0.72280000  0.97200000  1.0 0.1293088337
H  H56  1  0.35320000  0.27720000  0.02800000  1.0 0.1293088337
C  C1  1  0.12770000  0.74830000  0.15850000  1.0 0.4676951678
C  C2  1  0.74830000  0.12770000  0.34150000  1.0 0.4676951678
C  C3  1  0.87230000  0.25170000  0.84150000  1.0 0.4676951678
C  C4  1  0.25170000  0.87230000  0.65850000  1.0 0.4676951678
C  C5  1  0.01460000  0.70720000  0.19080000  1.0 0.477493892
C  C6  1  0.70720000  0.01460000  0.30920000  1.0 0.477493892
C  C7  1  0.98540000  0.29280000  0.80920000  1.0 0.477493892
C  C8  1  0.29280000  0.98540000  0.69080000  1.0 0.477493892
C  C9  1  0.00870000  0.37510000  0.20700000  1.0 0.4871963286
C  C10  1  0.37510000  0.00870000  0.29300000  1.0 0.4871963286
C  C11  1  0.99130000  0.62490000  0.79300000  1.0 0.4871963286
C  C12  1  0.62490000  0.99130000  0.70700000  1.0 0.4871963286
C  C13  1  0.89080000  0.31660000  0.17670000  1.0 0.4871963286
C  C14  1  0.31660000  0.89080000  0.32330000  1.0 0.4871963286
C  C15  1  0.10920000  0.68340000  0.82330000  1.0 0.4871963286
C  C16  1  0.68340000  0.10920000  0.67670000  1.0 0.4871963286
C  C17  1  0.95590000  0.52630000  0.99520000  1.0 0.4676951678
C  C18  1  0.52630000  0.95590000  0.50480000  1.0 0.4676951678
C  C19  1  0.04410000  0.47370000  0.00480000  1.0 0.4676951678
C  C20  1  0.47370000  0.04410000  0.49520000  1.0 0.4676951678
C  C21  1  0.04340000  0.05040000  0.21630000  1.0 0.4980167844
C  C22  1  0.05040000  0.04340000  0.28370000  1.0 0.4980167844
C  C23  1  0.95660000  0.94960000  0.78370000  1.0 0.4980167844
C  C24  1  0.94960000  0.95660000  0.71630000  1.0 0.4980167844
C  C25  1  0.90550000  0.28550000  0.50380000  1.0 0.2614026167
C  C26  1  0.09450000  0.71450000  0.49620000  1.0 0.2614026167
C  C27  1  0.84860000  0.20700000  0.54660000  1.0 -0.1914120144
C  C28  1  0.15140000  0.79300000  0.45340000  1.0 -0.1914120144
C  C29  1  0.84530000  0.09870000  0.54600000  1.0 -0.0609595273
C  C30  1  0.15470000  0.90130000  0.45400000  1.0 -0.0609595273
C  C31  1  0.89640000  0.06680000  0.50240000  1.0 -0.1302974275
C  C32  1  0.10360000  0.93320000  0.49760000  1.0 -0.1302974275
C  C33  1  0.95140000  0.14260000  0.45910000  1.0 -0.1158179916
C  C34  1  0.04860000  0.85740000  0.54090000  1.0 -0.1158179916
C  C35  1  0.95600000  0.25200000  0.45840000  1.0 -0.0609595273
C  C36  1  0.04400000  0.74800000  0.54160000  1.0 -0.0609595273
C  C37  1  0.01820000  0.33000000  0.41240000  1.0 0.1193387215
C  C38  1  0.98180000  0.67000000  0.58760000  1.0 0.1193387215
C  C39  1  0.08460000  0.50520000  0.35770000  1.0 -0.0919097117
C  C40  1  0.91540000  0.49480000  0.64230000  1.0 -0.0919097117
C  C41  1  0.01240000  0.55840000  0.32770000  1.0 -0.0836709324
C  C42  1  0.98760000  0.44160000  0.67230000  1.0 -0.0836709324
C  C43  1  0.92230000  0.67130000  0.36530000  1.0 0.0882247505
C  C44  1  0.07770000  0.32870000  0.63470000  1.0 0.0882247505
C  C45  1  0.85770000  0.70390000  0.40400000  1.0 -0.0609595273
C  C46  1  0.14230000  0.29610000  0.59600000  1.0 -0.0609595273
C  C47  1  0.82950000  0.79510000  0.38650000  1.0 -0.1109905127
C  C48  1  0.17050000  0.20490000  0.61350000  1.0 -0.1109905127
C  C49  1  0.76370000  0.82810000  0.42040000  1.0 -0.1109905127
C  C50  1  0.23630000  0.17190000  0.57960000  1.0 -0.1109905127
C  C51  1  0.72520000  0.77160000  0.47320000  1.0 -0.0609595273
C  C52  1  0.27480000  0.22840000  0.52680000  1.0 -0.0609595273
C  C53  1  0.75060000  0.68260000  0.49180000  1.0 -0.220616532
C  C54  1  0.24940000  0.31740000  0.50820000  1.0 -0.220616532
C  C55  1  0.81680000  0.64640000  0.45720000  1.0 0.2793361046
C  C56  1  0.18320000  0.35360000  0.54280000  1.0 0.2793361046
C  C57  1  0.28550000  0.90550000  0.99620000  1.0 0.2614026167
C  C58  1  0.71450000  0.09450000  0.00380000  1.0 0.2614026167
C  C59  1  0.20700000  0.84860000  0.95340000  1.0 -0.1914120144
C  C60  1  0.79300000  0.15140000  0.04660000  1.0 -0.1914120144
C  C61  1  0.09870000  0.84530000  0.95400000  1.0 -0.0609595273
C  C62  1  0.90130000  0.15470000  0.04600000  1.0 -0.0609595273
C  C63  1  0.06680000  0.89640000  0.99760000  1.0 -0.1302974275
C  C64  1  0.93320000  0.10360000  0.00240000  1.0 -0.1302974275
C  C65  1  0.14260000  0.95140000  0.04090000  1.0 -0.1158179916
C  C66  1  0.85740000  0.04860000  0.95910000  1.0 -0.1158179916
C  C67  1  0.25200000  0.95600000  0.04160000  1.0 -0.0609595273
C  C68  1  0.74800000  0.04400000  0.95840000  1.0 -0.0609595273
C  C69  1  0.33000000  0.01820000  0.08760000  1.0 0.1193387215
C  C70  1  0.67000000  0.98180000  0.91240000  1.0 0.1193387215
C  C71  1  0.50520000  0.08460000  0.14230000  1.0 -0.0919097117
C  C72  1  0.49480000  0.91540000  0.85770000  1.0 -0.0919097117
C  C73  1  0.55840000  0.01240000  0.17230000  1.0 -0.0836709324
C  C74  1  0.44160000  0.98760000  0.82770000  1.0 -0.0836709324
C  C75  1  0.67130000  0.92230000  0.13470000  1.0 0.0882247505
C  C76  1  0.32870000  0.07770000  0.86530000  1.0 0.0882247505
C  C77  1  0.70390000  0.85770000  0.09600000  1.0 -0.0609595273
C  C78  1  0.29610000  0.14230000  0.90400000  1.0 -0.0609595273
C  C79  1  0.79510000  0.82950000  0.11350000  1.0 -0.1109905127
C  C80  1  0.20490000  0.17050000  0.88650000  1.0 -0.1109905127
C  C81  1  0.82810000  0.76370000  0.07960000  1.0 -0.1109905127
C  C82  1  0.17190000  0.23630000  0.92040000  1.0 -0.1109905127
C  C83  1  0.77160000  0.72520000  0.02680000  1.0 -0.0609595273
C  C84  1  0.22840000  0.27480000  0.97320000  1.0 -0.0609595273
C  C85  1  0.68260000  0.75060000  0.00820000  1.0 -0.220616532
C  C86  1  0.31740000  0.24940000  0.99180000  1.0 -0.220616532
C  C87  1  0.64640000  0.81680000  0.04280000  1.0 0.2793361046
C  C88  1  0.35360000  0.18320000  0.95720000  1.0 0.2793361046
N  N1  1  0.01598000  0.42722000  0.40282000  1.0 -0.2146124035
N  N2  1  0.98402000  0.57278000  0.59718000  1.0 -0.2146124035
N  N3  1  0.95110000  0.58890000  0.37325000  1.0 -0.2312262556
N  N4  1  0.04890000  0.41110000  0.62675000  1.0 -0.2312262556
N  N5  1  0.42722000  0.01598000  0.09718000  1.0 -0.2146124035
N  N6  1  0.57278000  0.98402000  0.90282000  1.0 -0.2146124035
N  N7  1  0.58890000  0.95110000  0.12675000  1.0 -0.2312262556
N  N8  1  0.41110000  0.04890000  0.87325000  1.0 -0.2312262556
O  O1  1  0.13617000  0.68623000  0.11959000  1.0 -0.4045932493
O  O2  1  0.68623000  0.13617000  0.38041000  1.0 -0.4045932493
O  O3  1  0.86383000  0.31377000  0.88041000  1.0 -0.4045932493
O  O4  1  0.31377000  0.86383000  0.61959000  1.0 -0.4045932493
O  O5  1  0.93969000  0.61491000  0.17557000  1.0 -0.4514033697
O  O6  1  0.61491000  0.93969000  0.32443000  1.0 -0.4514033697
O  O7  1  0.06031000  0.38509000  0.82443000  1.0 -0.4514033697
O  O8  1  0.38509000  0.06031000  0.67557000  1.0 -0.4514033697
O  O9  1  0.20289000  0.83971000  0.17379000  1.0 -0.4991806498
O  O10  1  0.83971000  0.20289000  0.32621000  1.0 -0.4991806498
O  O11  1  0.79711000  0.16029000  0.82621000  1.0 -0.4991806498
O  O12  1  0.16029000  0.79711000  0.67379000  1.0 -0.4991806498
O  O13  1  0.00899000  0.76981000  0.23021000  1.0 -0.5136159561
O  O14  1  0.76981000  0.00899000  0.26979000  1.0 -0.5136159561
O  O15  1  0.99101000  0.23019000  0.76979000  1.0 -0.5136159561
O  O16  1  0.23019000  0.99101000  0.73021000  1.0 -0.5136159561
O  O17  1  0.06994000  0.47226000  0.18872000  1.0 -0.4614863944
O  O18  1  0.47226000  0.06994000  0.31128000  1.0 -0.4614863944
O  O19  1  0.93006000  0.52774000  0.81128000  1.0 -0.4614863944
O  O20  1  0.52774000  0.93006000  0.68872000  1.0 -0.4614863944
O  O21  1  0.86669000  0.37251000  0.13724000  1.0 -0.4691954306
O  O22  1  0.37251000  0.86669000  0.36276000  1.0 -0.4691954306
O  O23  1  0.13331000  0.62749000  0.86276000  1.0 -0.4691954306
O  O24  1  0.62749000  0.13331000  0.63724000  1.0 -0.4691954306
O  O25  1  0.03261000  0.32079000  0.24723000  1.0 -0.5301161311
O  O26  1  0.32079000  0.03261000  0.25277000  1.0 -0.5301161311
O  O27  1  0.96739000  0.67921000  0.75277000  1.0 -0.5301161311
O  O28  1  0.67921000  0.96739000  0.74723000  1.0 -0.5301161311
O  O29  1  0.83043000  0.21917000  0.19476000  1.0 -0.5195364407
O  O30  1  0.21917000  0.83043000  0.30524000  1.0 -0.5195364407
O  O31  1  0.16957000  0.78083000  0.80524000  1.0 -0.5195364407
O  O32  1  0.78083000  0.16957000  0.69476000  1.0 -0.5195364407
O  O33  1  0.92281000  0.55599000  0.03990000  1.0 -0.4614863944
O  O34  1  0.55599000  0.92281000  0.46010000  1.0 -0.4614863944
O  O35  1  0.07719000  0.44401000  0.96010000  1.0 -0.4614863944
O  O36  1  0.44401000  0.07719000  0.53990000  1.0 -0.4614863944
O  O37  1  0.92544000  0.53456000  0.94338000  1.0 -0.4691954306
O  O38  1  0.53456000  0.92544000  0.55662000  1.0 -0.4691954306
O  O39  1  0.07456000  0.46544000  0.05662000  1.0 -0.4691954306
O  O40  1  0.46544000  0.07456000  0.44338000  1.0 -0.4691954306
O  O41  1  0.09610000  0.00590000  0.18866000  1.0 -0.4991806498
O  O42  1  0.00590000  0.09610000  0.31134000  1.0 -0.4991806498
O  O43  1  0.90390000  0.99410000  0.81134000  1.0 -0.4991806498
O  O44  1  0.99410000  0.90390000  0.68866000  1.0 -0.4991806498
O  O45  1  0.98290000  0.09890000  0.19531000  1.0 -0.5301161311
O  O46  1  0.09890000  0.98290000  0.30469000  1.0 -0.5301161311
O  O47  1  0.01710000  0.90110000  0.80469000  1.0 -0.5301161311
O  O48  1  0.90110000  0.01710000  0.69531000  1.0 -0.5301161311
O  O49  1  0.91425000  0.39215000  0.50882000  1.0 -0.5195364407
O  O50  1  0.08575000  0.60785000  0.49118000  1.0 -0.5195364407
O  O51  1  0.83867000  0.56013000  0.47683000  1.0 -0.4614863944
O  O52  1  0.16133000  0.43987000  0.52317000  1.0 -0.4614863944
O  O53  1  0.76179000  0.36441000  0.40469000  1.0 -0.0069806301
O  O54  1  0.23821000  0.63559000  0.59531000  1.0 -0.0069806301
O  O55  1  0.39215000  0.91425000  0.99118000  1.0 -0.5195364407
O  O56  1  0.60785000  0.08575000  0.00882000  1.0 -0.5195364407
O  O57  1  0.56013000  0.83867000  0.02317000  1.0 -0.4614863944
O  O58  1  0.43987000  0.16133000  0.97683000  1.0 -0.4614863944
O  O59  1  0.36441000  0.76179000  0.09531000  1.0 -0.0069806301
O  O60  1  0.63559000  0.23821000  0.90469000  1.0 -0.0024829055
