# DDEC6 charges by PACMAN v1.1 (https://github.com/mtap-research/PACMAN-charge/)
data_PIQQEN_FSR_pacman
_symmetry_space_group_name_H-M   'P 1'
_cell_length_a   15.44810000
_cell_length_b   11.43910000
_cell_length_c   19.11560000
_cell_angle_alpha   90.00000000
_cell_angle_beta   94.62500000
_cell_angle_gamma   90.00000000
_symmetry_Int_Tables_number   1
_chemical_formula_structural   Cd3H30(C27O10)2
_chemical_formula_sum   'Cd6 H60 C108 O40'
_cell_volume   3366.96344677
_cell_formula_units_Z   2
loop_
 _symmetry_equiv_pos_site_id
 _symmetry_equiv_pos_as_xyz
  1  'x, y, z'
loop_
 _atom_site_type_symbol
 _atom_site_label
 _atom_site_symmetry_multiplicity
 _atom_site_fract_x
 _atom_site_fract_y
 _atom_site_fract_z
 _atom_site_occupancy
 _atom_site_charge
Cd  Cd1  1  0.50000000  0.53199000  0.75000000  1.0 1.1344331109
Cd  Cd2  1  0.50000000  0.46801000  0.25000000  1.0 1.1371680104
Cd  Cd3  1  0.54334000  0.43363000  0.92290000  1.0 1.0215807461
Cd  Cd4  1  0.45666000  0.43363000  0.57710000  1.0 1.0215807461
Cd  Cd5  1  0.45666000  0.56637000  0.07710000  1.0 1.0215807461
Cd  Cd6  1  0.54334000  0.56637000  0.42290000  1.0 1.0215807461
H  H1  1  0.72010000  0.73200000  0.98040000  1.0 0.1232552094
H  H2  1  0.27990000  0.73200000  0.51960000  1.0 0.1232552094
H  H3  1  0.27990000  0.26800000  0.01960000  1.0 0.1232552094
H  H4  1  0.72010000  0.26800000  0.48040000  1.0 0.1232552094
H  H5  1  0.82100000  0.88060000  0.00020000  1.0 0.131669061
H  H6  1  0.17900000  0.88060000  0.49980000  1.0 0.131669061
H  H7  1  0.17900000  0.11940000  0.99980000  1.0 0.131669061
H  H8  1  0.82100000  0.11940000  0.50020000  1.0 0.131669061
H  H9  1  0.76370000  0.99860000  0.80510000  1.0 0.131669061
H  H10  1  0.23630000  0.99860000  0.69490000  1.0 0.131669061
H  H11  1  0.23630000  0.00140000  0.19490000  1.0 0.131669061
H  H12  1  0.76370000  0.00140000  0.30510000  1.0 0.131669061
H  H13  1  0.16340000  0.99190000  0.82990000  1.0 0.1588868925
H  H14  1  0.83660000  0.99190000  0.67010000  1.0 0.1588868925
H  H15  1  0.83660000  0.00810000  0.17010000  1.0 0.1588868925
H  H16  1  0.16340000  0.00810000  0.32990000  1.0 0.1588868925
H  H17  1  0.98040000  0.19020000  0.91150000  1.0 0.1698880994
H  H18  1  0.01960000  0.19020000  0.58850000  1.0 0.1698880994
H  H19  1  0.01960000  0.80980000  0.08850000  1.0 0.1698880994
H  H20  1  0.98040000  0.80980000  0.41150000  1.0 0.1698880994
H  H21  1  0.28930000  0.26180000  0.89120000  1.0 0.1408961319
H  H22  1  0.71070000  0.26180000  0.60880000  1.0 0.1408961319
H  H23  1  0.71070000  0.73820000  0.10880000  1.0 0.1408961319
H  H24  1  0.28930000  0.73820000  0.39120000  1.0 0.1408961319
H  H25  1  0.38210000  0.31480000  0.80730000  1.0 0.1232552094
H  H26  1  0.61790000  0.31480000  0.69270000  1.0 0.1232552094
H  H27  1  0.61790000  0.68520000  0.19270000  1.0 0.1232552094
H  H28  1  0.38210000  0.68520000  0.30730000  1.0 0.1232552094
H  H29  1  0.10180000  0.19560000  0.73880000  1.0 0.131669061
H  H30  1  0.89820000  0.19560000  0.76120000  1.0 0.131669061
H  H31  1  0.89820000  0.80440000  0.26120000  1.0 0.131669061
H  H32  1  0.10180000  0.80440000  0.23880000  1.0 0.131669061
H  H33  1  0.15870000  0.79180000  0.94320000  1.0 0.1408961319
H  H34  1  0.84130000  0.79180000  0.55680000  1.0 0.1408961319
H  H35  1  0.84130000  0.20820000  0.05680000  1.0 0.1408961319
H  H36  1  0.15870000  0.20820000  0.44320000  1.0 0.1408961319
H  H37  1  0.28520000  0.68850000  0.97510000  1.0 0.131669061
H  H38  1  0.71480000  0.68850000  0.52490000  1.0 0.131669061
H  H39  1  0.71480000  0.31150000  0.02490000  1.0 0.131669061
H  H40  1  0.28520000  0.31150000  0.47510000  1.0 0.131669061
H  H41  1  0.29350000  0.57910000  0.77680000  1.0 0.1232552094
H  H42  1  0.70650000  0.57910000  0.72320000  1.0 0.1232552094
H  H43  1  0.70650000  0.42090000  0.22320000  1.0 0.1232552094
H  H44  1  0.29350000  0.42090000  0.27680000  1.0 0.1232552094
H  H45  1  0.16720000  0.68170000  0.74470000  1.0 0.1408961319
H  H46  1  0.83280000  0.68170000  0.75530000  1.0 0.1408961319
H  H47  1  0.83280000  0.31830000  0.25530000  1.0 0.1408961319
H  H48  1  0.16720000  0.31830000  0.24470000  1.0 0.1408961319
H  H49  1  0.93300000  0.85000000  0.86700000  1.0 0.1588868925
H  H50  1  0.06700000  0.85000000  0.63300000  1.0 0.1588868925
H  H51  1  0.06700000  0.15000000  0.13300000  1.0 0.1588868925
H  H52  1  0.93300000  0.15000000  0.36700000  1.0 0.1588868925
H  H53  1  0.66400000  0.84400000  0.78600000  1.0 0.1232552094
H  H54  1  0.33600000  0.84400000  0.71400000  1.0 0.1232552094
H  H55  1  0.33600000  0.15600000  0.21400000  1.0 0.1232552094
H  H56  1  0.66400000  0.15600000  0.28600000  1.0 0.1232552094
H  H57  1  0.19400000  0.25700000  0.65600000  1.0 0.1232552094
H  H58  1  0.80600000  0.25700000  0.84400000  1.0 0.1232552094
H  H59  1  0.80600000  0.74300000  0.34400000  1.0 0.1232552094
H  H60  1  0.19400000  0.74300000  0.15600000  1.0 0.1232552094
C  C1  1  0.61969000  0.67490000  0.86636000  1.0 0.5799703801
C  C2  1  0.38031000  0.67490000  0.63364000  1.0 0.5799703801
C  C3  1  0.38031000  0.32510000  0.13364000  1.0 0.5799703801
C  C4  1  0.61969000  0.32510000  0.36636000  1.0 0.5799703801
C  C5  1  0.68224000  0.77450000  0.88051000  1.0 -0.0369729905
C  C6  1  0.31776000  0.77450000  0.61949000  1.0 -0.0369729905
C  C7  1  0.31776000  0.22550000  0.11949000  1.0 -0.0369729905
C  C8  1  0.68224000  0.22550000  0.38051000  1.0 -0.0369729905
C  C9  1  0.72920000  0.78500000  0.94480000  1.0 -0.078660494
C  C10  1  0.27080000  0.78500000  0.55520000  1.0 -0.078660494
C  C11  1  0.27080000  0.21500000  0.05520000  1.0 -0.078660494
C  C12  1  0.72920000  0.21500000  0.44480000  1.0 -0.078660494
C  C13  1  0.78960000  0.87380000  0.95690000  1.0 -0.2021215909
C  C14  1  0.21040000  0.87380000  0.54310000  1.0 -0.2021215909
C  C15  1  0.21040000  0.12620000  0.04310000  1.0 -0.2078928464
C  C16  1  0.78960000  0.12620000  0.45690000  1.0 -0.2021215909
C  C17  1  0.80230000  0.95140000  0.90420000  1.0 0.238198688
C  C18  1  0.19770000  0.95140000  0.59580000  1.0 0.238198688
C  C19  1  0.19770000  0.04860000  0.09580000  1.0 0.238198688
C  C20  1  0.80230000  0.04860000  0.40420000  1.0 0.238198688
C  C21  1  0.75540000  0.94410000  0.84000000  1.0 -0.2021215909
C  C22  1  0.24460000  0.94410000  0.66000000  1.0 -0.2021215909
C  C23  1  0.24460000  0.05590000  0.16000000  1.0 -0.2021215909
C  C24  1  0.75540000  0.05590000  0.34000000  1.0 -0.2021215909
C  C25  1  0.69580000  0.85460000  0.82822000  1.0 -0.078660494
C  C26  1  0.30420000  0.85460000  0.67178000  1.0 -0.078660494
C  C27  1  0.30420000  0.14540000  0.17178000  1.0 -0.078660494
C  C28  1  0.69580000  0.14540000  0.32822000  1.0 -0.078660494
C  C29  1  0.94370000  0.02200000  0.89238000  1.0 0.2959426248
C  C30  1  0.05630000  0.02200000  0.60762000  1.0 0.2959426248
C  C31  1  0.05630000  0.97800000  0.10762000  1.0 0.2959426248
C  C32  1  0.94370000  0.97800000  0.39238000  1.0 0.2959426248
C  C33  1  0.96950000  0.91470000  0.86780000  1.0 -0.3288520819
C  C34  1  0.03050000  0.91470000  0.63220000  1.0 -0.3288520819
C  C35  1  0.03050000  0.08530000  0.13220000  1.0 -0.3288520819
C  C36  1  0.96950000  0.08530000  0.36780000  1.0 -0.3288520819
C  C37  1  0.05200000  0.90550000  0.84524000  1.0 0.2884353862
C  C38  1  0.94800000  0.90550000  0.65476000  1.0 0.2884353862
C  C39  1  0.94800000  0.09450000  0.15476000  1.0 0.2884353862
C  C40  1  0.05200000  0.09450000  0.34524000  1.0 0.2884353862
C  C41  1  0.10820000  0.99940000  0.84558000  1.0 -0.3415062672
C  C42  1  0.89180000  0.99940000  0.65442000  1.0 -0.3415062672
C  C43  1  0.89180000  0.00060000  0.15442000  1.0 -0.3415062672
C  C44  1  0.10820000  0.00060000  0.34558000  1.0 -0.3415062672
C  C45  1  0.07920000  0.10550000  0.87024000  1.0 0.2884353862
C  C46  1  0.92080000  0.10550000  0.62976000  1.0 0.2884353862
C  C47  1  0.92080000  0.89450000  0.12976000  1.0 0.2884353862
C  C48  1  0.07920000  0.89450000  0.37024000  1.0 0.2884353862
C  C49  1  0.99810000  0.11870000  0.89438000  1.0 -0.3288520819
C  C50  1  0.00190000  0.11870000  0.60562000  1.0 -0.3288520819
C  C51  1  0.00190000  0.88130000  0.10562000  1.0 -0.3288520819
C  C52  1  0.99810000  0.88130000  0.39438000  1.0 -0.3288520819
C  C53  1  0.18680000  0.22580000  0.82297000  1.0 0.2509105185
C  C54  1  0.81320000  0.22580000  0.67703000  1.0 0.2509105185
C  C55  1  0.81320000  0.77420000  0.17703000  1.0 0.2509105185
C  C56  1  0.18680000  0.77420000  0.32297000  1.0 0.2509105185
C  C57  1  0.27020000  0.26020000  0.84381000  1.0 -0.2021215909
C  C58  1  0.72980000  0.26020000  0.65619000  1.0 -0.2021215909
C  C59  1  0.72980000  0.73980000  0.15619000  1.0 -0.2021215909
C  C60  1  0.27020000  0.73980000  0.34381000  1.0 -0.2021215909
C  C61  1  0.32540000  0.29240000  0.79350000  1.0 -0.0683403906
C  C62  1  0.67460000  0.29240000  0.70650000  1.0 -0.0683403906
C  C63  1  0.67460000  0.70760000  0.20650000  1.0 -0.0683403906
C  C64  1  0.32540000  0.70760000  0.29350000  1.0 -0.0683403906
C  C65  1  0.29705000  0.29160000  0.72303000  1.0 -0.0500498994
C  C66  1  0.70295000  0.29160000  0.77697000  1.0 -0.0500498994
C  C67  1  0.70295000  0.70840000  0.27697000  1.0 -0.0500498994
C  C68  1  0.29705000  0.70840000  0.22303000  1.0 -0.0500498994
C  C69  1  0.21350000  0.25450000  0.70266000  1.0 -0.078660494
C  C70  1  0.78650000  0.25450000  0.79734000  1.0 -0.078660494
C  C71  1  0.78650000  0.74550000  0.29734000  1.0 -0.078660494
C  C72  1  0.21350000  0.74550000  0.20266000  1.0 -0.078660494
C  C73  1  0.15780000  0.22090000  0.75247000  1.0 -0.2198434596
C  C74  1  0.84220000  0.22090000  0.74753000  1.0 -0.2198434596
C  C75  1  0.84220000  0.77910000  0.24753000  1.0 -0.2198434596
C  C76  1  0.15780000  0.77910000  0.25247000  1.0 -0.2198434596
C  C77  1  0.15190000  0.74650000  0.84081000  1.0 0.2509105185
C  C78  1  0.84810000  0.74650000  0.65919000  1.0 0.2509105185
C  C79  1  0.84810000  0.25350000  0.15919000  1.0 0.2509105185
C  C80  1  0.15190000  0.25350000  0.34081000  1.0 0.2509105185
C  C81  1  0.18610000  0.74930000  0.90989000  1.0 -0.2198434596
C  C82  1  0.81390000  0.74930000  0.59011000  1.0 -0.2198434596
C  C83  1  0.81390000  0.25070000  0.09011000  1.0 -0.2198434596
C  C84  1  0.18610000  0.25070000  0.40989000  1.0 -0.2198434596
C  C85  1  0.26180000  0.68760000  0.92876000  1.0 -0.0683403906
C  C86  1  0.73820000  0.68760000  0.57124000  1.0 -0.0683403906
C  C87  1  0.73820000  0.31240000  0.07124000  1.0 -0.0683403906
C  C88  1  0.26180000  0.31240000  0.42876000  1.0 -0.0683403906
C  C89  1  0.30269000  0.62450000  0.87892000  1.0 -0.0500498994
C  C90  1  0.69731000  0.62450000  0.62108000  1.0 -0.0500498994
C  C91  1  0.69731000  0.37550000  0.12108000  1.0 -0.0500498994
C  C92  1  0.30269000  0.37550000  0.37892000  1.0 -0.0500498994
C  C93  1  0.38566000  0.55990000  0.89814000  1.0 0.5929991805
C  C94  1  0.61434000  0.55990000  0.60186000  1.0 0.5929991805
C  C95  1  0.61434000  0.44010000  0.10186000  1.0 0.5929991805
C  C96  1  0.38566000  0.44010000  0.39814000  1.0 0.5929991805
C  C97  1  0.26670000  0.62210000  0.81025000  1.0 -0.0683403906
C  C98  1  0.73330000  0.62210000  0.68975000  1.0 -0.0683403906
C  C99  1  0.73330000  0.37790000  0.18975000  1.0 -0.0683403906
C  C100  1  0.26670000  0.37790000  0.31025000  1.0 -0.0683403906
C  C101  1  0.19120000  0.68330000  0.79090000  1.0 -0.2078928464
C  C102  1  0.80880000  0.68330000  0.70910000  1.0 -0.2078928464
C  C103  1  0.80880000  0.31670000  0.20910000  1.0 -0.2078928464
C  C104  1  0.19120000  0.31670000  0.29090000  1.0 -0.2078928464
C  C105  1  0.35538000  0.33420000  0.67010000  1.0 0.5799703801
C  C106  1  0.64462000  0.33420000  0.82990000  1.0 0.5799703801
C  C107  1  0.64462000  0.66580000  0.32990000  1.0 0.5799703801
C  C108  1  0.35538000  0.66580000  0.17010000  1.0 0.5799703801
O  O1  1  0.60299000  0.61360000  0.91843000  1.0 -0.5218259192
O  O2  1  0.39701000  0.61360000  0.58157000  1.0 -0.5218259192
O  O3  1  0.39701000  0.38640000  0.08157000  1.0 -0.5218259192
O  O4  1  0.60299000  0.38640000  0.41843000  1.0 -0.5218259192
O  O5  1  0.58923000  0.66060000  0.80438000  1.0 -0.568665812
O  O6  1  0.41077000  0.66060000  0.69562000  1.0 -0.568665812
O  O7  1  0.41077000  0.33940000  0.19562000  1.0 -0.568665812
O  O8  1  0.58923000  0.33940000  0.30438000  1.0 -0.568665812
O  O9  1  0.42756000  0.38070000  0.69165000  1.0 -0.5960170424
O  O10  1  0.57244000  0.38070000  0.80835000  1.0 -0.5960170424
O  O11  1  0.57244000  0.61930000  0.30835000  1.0 -0.5960170424
O  O12  1  0.42756000  0.61930000  0.19165000  1.0 -0.5960170424
O  O13  1  0.45565000  0.29140000  0.95942000  1.0 -0.2021215909
O  O14  1  0.54435000  0.29140000  0.54058000  1.0 -0.2021215909
O  O15  1  0.54435000  0.70860000  0.04058000  1.0 -0.2021215909
O  O16  1  0.45565000  0.70860000  0.45942000  1.0 -0.191566611
O  O17  1  0.33432000  0.32530000  0.60578000  1.0 -0.5355546272
O  O18  1  0.66568000  0.32530000  0.89422000  1.0 -0.5355546272
O  O19  1  0.66568000  0.67470000  0.39422000  1.0 -0.5355546272
O  O20  1  0.33432000  0.67470000  0.10578000  1.0 -0.5341819322
O  O21  1  0.86289000  0.04060000  0.91646000  1.0 -0.2198434596
O  O22  1  0.13711000  0.04060000  0.58354000  1.0 -0.2198434596
O  O23  1  0.13711000  0.95940000  0.08354000  1.0 -0.2198434596
O  O24  1  0.86289000  0.95940000  0.41646000  1.0 -0.2198434596
O  O25  1  0.13306000  0.20260000  0.87601000  1.0 -0.2198434596
O  O26  1  0.86694000  0.20260000  0.62399000  1.0 -0.2198434596
O  O27  1  0.86694000  0.79740000  0.12399000  1.0 -0.2198434596
O  O28  1  0.13306000  0.79740000  0.37601000  1.0 -0.2198434596
O  O29  1  0.07395000  0.79860000  0.81736000  1.0 -0.2078928464
O  O30  1  0.92605000  0.79860000  0.68264000  1.0 -0.2078928464
O  O31  1  0.92605000  0.20140000  0.18264000  1.0 -0.2078928464
O  O32  1  0.07395000  0.20140000  0.31736000  1.0 -0.2078928464
O  O33  1  0.41373000  0.54830000  0.96096000  1.0 -0.5218259192
O  O34  1  0.58627000  0.54830000  0.53904000  1.0 -0.5218259192
O  O35  1  0.58627000  0.45170000  0.03904000  1.0 -0.5218259192
O  O36  1  0.41373000  0.45170000  0.46096000  1.0 -0.5218259192
O  O37  1  0.42575000  0.51540000  0.84978000  1.0 -0.5852746761
O  O38  1  0.57425000  0.51540000  0.65022000  1.0 -0.5852746761
O  O39  1  0.57425000  0.48460000  0.15022000  1.0 -0.5852746761
O  O40  1  0.42575000  0.48460000  0.34978000  1.0 -0.5852746761
