# DDEC6 charges by PACMAN v1.1 (https://github.com/mtap-research/PACMAN-charge/)
data_PITRIU_ASR_pacman
_symmetry_space_group_name_H-M   'P 1'
_cell_length_a   15.38270000
_cell_length_b   20.96710000
_cell_length_c   19.23000000
_cell_angle_alpha   90.00000000
_cell_angle_beta   109.48700000
_cell_angle_gamma   90.00000000
_symmetry_Int_Tables_number   1
_chemical_formula_structural   Zn2H20C61(NO4)2
_chemical_formula_sum   'Zn8 H80 C244 N8 O32'
_cell_volume   5846.98062043
_cell_formula_units_Z   4
loop_
 _symmetry_equiv_pos_site_id
 _symmetry_equiv_pos_as_xyz
  1  'x, y, z'
loop_
 _atom_site_type_symbol
 _atom_site_label
 _atom_site_symmetry_multiplicity
 _atom_site_fract_x
 _atom_site_fract_y
 _atom_site_fract_z
 _atom_site_occupancy
 _atom_site_charge
Zn  Zn1  1  0.21463000  0.25341000  0.93641000  1.0 0.8488995319
Zn  Zn2  1  0.78537000  0.75341000  0.56359000  1.0 0.8488995319
Zn  Zn3  1  0.78537000  0.74659000  0.06359000  1.0 0.8488995319
Zn  Zn4  1  0.21463000  0.24659000  0.43641000  1.0 0.8488995319
Zn  Zn5  1  0.29755000  0.24565000  0.09884000  1.0 0.8395347333
Zn  Zn6  1  0.70245000  0.74565000  0.40116000  1.0 0.8395347333
Zn  Zn7  1  0.70245000  0.75435000  0.90116000  1.0 0.8395347333
Zn  Zn8  1  0.29755000  0.25435000  0.59884000  1.0 0.8395347333
H  H1  1  0.20500000  0.17940000  0.80120000  1.0 0.1094927586
H  H2  1  0.79500000  0.67940000  0.69880000  1.0 0.1094927586
H  H3  1  0.79500000  0.82060000  0.19880000  1.0 0.1094927586
H  H4  1  0.20500000  0.32060000  0.30120000  1.0 0.1094927586
H  H5  1  0.07290000  0.33000000  0.82570000  1.0 0.1190006861
H  H6  1  0.92710000  0.83000000  0.67430000  1.0 0.1190006861
H  H7  1  0.92710000  0.67000000  0.17430000  1.0 0.1190006861
H  H8  1  0.07290000  0.17000000  0.32570000  1.0 0.1190006861
H  H9  1  0.12680000  0.17810000  0.67700000  1.0 0.138079602
H  H10  1  0.87320000  0.67810000  0.82300000  1.0 0.138079602
H  H11  1  0.87320000  0.82190000  0.32300000  1.0 0.138079602
H  H12  1  0.12680000  0.32190000  0.17700000  1.0 0.138079602
H  H13  1  0.99060000  0.33310000  0.70190000  1.0 0.1300607812
H  H14  1  0.00940000  0.83310000  0.79810000  1.0 0.1300607812
H  H15  1  0.00940000  0.66690000  0.29810000  1.0 0.1300607812
H  H16  1  0.99060000  0.16690000  0.20190000  1.0 0.1300607812
H  H17  1  0.37930000  0.32280000  0.86150000  1.0 0.138079602
H  H18  1  0.62070000  0.82280000  0.63850000  1.0 0.138079602
H  H19  1  0.62070000  0.67720000  0.13850000  1.0 0.138079602
H  H20  1  0.37930000  0.17720000  0.36150000  1.0 0.138079602
H  H21  1  0.52530000  0.17570000  0.83010000  1.0 0.138079602
H  H22  1  0.47470000  0.67570000  0.66990000  1.0 0.138079602
H  H23  1  0.47470000  0.82430000  0.16990000  1.0 0.138079602
H  H24  1  0.52530000  0.32430000  0.33010000  1.0 0.138079602
H  H25  1  0.44440000  0.18080000  0.70700000  1.0 0.1190006861
H  H26  1  0.55560000  0.68080000  0.79300000  1.0 0.1190006861
H  H27  1  0.55560000  0.81920000  0.29300000  1.0 0.1190006861
H  H28  1  0.44440000  0.31920000  0.20700000  1.0 0.1190006861
H  H29  1  0.30000000  0.32230000  0.73810000  1.0 0.1190006861
H  H30  1  0.70000000  0.82230000  0.76190000  1.0 0.1190006861
H  H31  1  0.70000000  0.67770000  0.26190000  1.0 0.1190006861
H  H32  1  0.30000000  0.17770000  0.23810000  1.0 0.1190006861
H  H33  1  0.52570000  0.37390000  0.11950000  1.0 0.1094927586
H  H34  1  0.47430000  0.87390000  0.38050000  1.0 0.1094927586
H  H35  1  0.47430000  0.62610000  0.88050000  1.0 0.1094927586
H  H36  1  0.52570000  0.12610000  0.61950000  1.0 0.1094927586
H  H37  1  0.35820000  0.43060000  0.92100000  1.0 0.1300607812
H  H38  1  0.64180000  0.93060000  0.57900000  1.0 0.1300607812
H  H39  1  0.64180000  0.56940000  0.07900000  1.0 0.1300607812
H  H40  1  0.35820000  0.06940000  0.42100000  1.0 0.1300607812
H  H41  1  0.61330000  0.46520000  0.13060000  1.0 0.1300607812
H  H42  1  0.38670000  0.96520000  0.36940000  1.0 0.1300607812
H  H43  1  0.38670000  0.53480000  0.86940000  1.0 0.1300607812
H  H44  1  0.61330000  0.03480000  0.63060000  1.0 0.1300607812
H  H45  1  0.18160000  0.42920000  0.13300000  1.0 0.1190006861
H  H46  1  0.81840000  0.92920000  0.36700000  1.0 0.1190006861
H  H47  1  0.81840000  0.57080000  0.86700000  1.0 0.1190006861
H  H48  1  0.18160000  0.07080000  0.63300000  1.0 0.1190006861
H  H49  1  0.00940000  0.39440000  0.92830000  1.0 0.1190006861
H  H50  1  0.99060000  0.89440000  0.57170000  1.0 0.1190006861
H  H51  1  0.99060000  0.60560000  0.07170000  1.0 0.1190006861
H  H52  1  0.00940000  0.10560000  0.42830000  1.0 0.1190006861
H  H53  1  0.11180000  0.52500000  0.13450000  1.0 0.1300607812
H  H54  1  0.88820000  0.02500000  0.36550000  1.0 0.1300607812
H  H55  1  0.88820000  0.47500000  0.86550000  1.0 0.1300607812
H  H56  1  0.11180000  0.97500000  0.63450000  1.0 0.1300607812
H  H57  1  0.10790000  0.10250000  0.14190000  1.0 0.1190006861
H  H58  1  0.89210000  0.60250000  0.35810000  1.0 0.1190006861
H  H59  1  0.89210000  0.89750000  0.85810000  1.0 0.1190006861
H  H60  1  0.10790000  0.39750000  0.64190000  1.0 0.1190006861
H  H61  1  0.05970000  0.08320000  0.92390000  1.0 0.1300607812
H  H62  1  0.94030000  0.58320000  0.57610000  1.0 0.1300607812
H  H63  1  0.94030000  0.91680000  0.07610000  1.0 0.1300607812
H  H64  1  0.05970000  0.41680000  0.42390000  1.0 0.1300607812
H  H65  1  0.02610000  0.01150000  0.14250000  1.0 0.1190006861
H  H66  1  0.97390000  0.51150000  0.35750000  1.0 0.1190006861
H  H67  1  0.97390000  0.98850000  0.85750000  1.0 0.1190006861
H  H68  1  0.02610000  0.48850000  0.64250000  1.0 0.1190006861
H  H69  1  0.45040000  0.07350000  0.09150000  1.0 0.1300607812
H  H70  1  0.54960000  0.57350000  0.40850000  1.0 0.1300607812
H  H71  1  0.54960000  0.92650000  0.90850000  1.0 0.1300607812
H  H72  1  0.45040000  0.42650000  0.59150000  1.0 0.1300607812
H  H73  1  0.38690000  0.11520000  0.87610000  1.0 0.1190006861
H  H74  1  0.61310000  0.61520000  0.62390000  1.0 0.1190006861
H  H75  1  0.61310000  0.88480000  0.12390000  1.0 0.1190006861
H  H76  1  0.38690000  0.38480000  0.37610000  1.0 0.1190006861
H  H77  1  0.46370000  0.02650000  0.85880000  1.0 0.1190006861
H  H78  1  0.53630000  0.52650000  0.64120000  1.0 0.1190006861
H  H79  1  0.53630000  0.97350000  0.14120000  1.0 0.1190006861
H  H80  1  0.46370000  0.47350000  0.35880000  1.0 0.1190006861
C  C1  1  0.16060000  0.21050000  0.78130000  1.0 0.0768859878
C  C2  1  0.83940000  0.71050000  0.71870000  1.0 0.0768859878
C  C3  1  0.83940000  0.78950000  0.21870000  1.0 0.0768859878
C  C4  1  0.16060000  0.28950000  0.28130000  1.0 0.0768859878
C  C5  1  0.08340000  0.29840000  0.79550000  1.0 0.0597264047
C  C6  1  0.91660000  0.79840000  0.70450000  1.0 0.0597264047
C  C7  1  0.91660000  0.70160000  0.20450000  1.0 0.0597264047
C  C8  1  0.08340000  0.20160000  0.29550000  1.0 0.0597264047
C  C9  1  0.11280000  0.20880000  0.70650000  1.0 -0.1457552599
C  C10  1  0.88720000  0.70880000  0.79350000  1.0 -0.1457552599
C  C11  1  0.88720000  0.79120000  0.29350000  1.0 -0.1457552599
C  C12  1  0.11280000  0.29120000  0.20650000  1.0 -0.1413631198
C  C13  1  0.03240000  0.30020000  0.72100000  1.0 -0.1698146562
C  C14  1  0.96760000  0.80020000  0.77900000  1.0 -0.1698146562
C  C15  1  0.96760000  0.69980000  0.27900000  1.0 -0.1698146562
C  C16  1  0.03240000  0.19980000  0.22100000  1.0 -0.1698146562
C  C17  1  0.04410000  0.25300000  0.67560000  1.0 0.1737905031
C  C18  1  0.95590000  0.75300000  0.82440000  1.0 0.1737905031
C  C19  1  0.95590000  0.74700000  0.32440000  1.0 0.1737905031
C  C20  1  0.04410000  0.24700000  0.17560000  1.0 0.1737905031
C  C21  1  0.99030000  0.25100000  0.59840000  1.0 -0.2039721395
C  C22  1  0.00970000  0.75100000  0.90160000  1.0 -0.2095072448
C  C23  1  0.00970000  0.74900000  0.40160000  1.0 -0.2095072448
C  C24  1  0.99030000  0.24900000  0.09840000  1.0 -0.2095072448
C  C25  1  0.94440000  0.24980000  0.53520000  1.0 -0.0700719609
C  C26  1  0.05560000  0.74980000  0.96480000  1.0 -0.0700719609
C  C27  1  0.05560000  0.75020000  0.46480000  1.0 -0.0754820521
C  C28  1  0.94440000  0.25020000  0.03520000  1.0 -0.0700719609
C  C29  1  0.87940000  0.25860000  0.46000000  1.0 0.1094927586
C  C30  1  0.12060000  0.75860000  0.04000000  1.0 0.1094927586
C  C31  1  0.12060000  0.74140000  0.54000000  1.0 0.0972858677
C  C32  1  0.87940000  0.24140000  0.96000000  1.0 0.1094927586
C  C33  1  0.92260000  0.24570000  0.40890000  1.0 0.0190691356
C  C34  1  0.07740000  0.74570000  0.09110000  1.0 0.0190691356
C  C35  1  0.07740000  0.75430000  0.59110000  1.0 0.0190691356
C  C36  1  0.92260000  0.25430000  0.90890000  1.0 0.0190691356
C  C37  1  0.78400000  0.26670000  0.43720000  1.0 -0.0587748506
C  C38  1  0.21600000  0.76670000  0.06280000  1.0 -0.0587748506
C  C39  1  0.21600000  0.73330000  0.56280000  1.0 -0.0587748506
C  C40  1  0.78400000  0.23330000  0.93720000  1.0 -0.0587748506
C  C41  1  0.86830000  0.24590000  0.33220000  1.0 -0.0022216325
C  C42  1  0.13170000  0.74590000  0.16780000  1.0 0.0019440508
C  C43  1  0.13170000  0.75410000  0.66780000  1.0 0.0019440508
C  C44  1  0.86830000  0.25410000  0.83220000  1.0 -0.0022216325
C  C45  1  0.73260000  0.26420000  0.36330000  1.0 -0.0999941195
C  C46  1  0.26740000  0.76420000  0.13670000  1.0 -0.0999941195
C  C47  1  0.26740000  0.73580000  0.63670000  1.0 -0.0999941195
C  C48  1  0.73260000  0.23580000  0.86330000  1.0 -0.0999941195
C  C49  1  0.77160000  0.25470000  0.30960000  1.0 0.0972858677
C  C50  1  0.22840000  0.75470000  0.19040000  1.0 0.0883966706
C  C51  1  0.22840000  0.74530000  0.69040000  1.0 0.0883966706
C  C52  1  0.77160000  0.24530000  0.80960000  1.0 0.0972858677
C  C53  1  0.71900000  0.25360000  0.22990000  1.0 0.0597264047
C  C54  1  0.28100000  0.75360000  0.27010000  1.0 0.0597264047
C  C55  1  0.28100000  0.74640000  0.77010000  1.0 0.0597264047
C  C56  1  0.71900000  0.24640000  0.72990000  1.0 0.0597264047
C  C57  1  0.75190000  0.28060000  0.17830000  1.0 -0.0587748506
C  C58  1  0.24810000  0.78060000  0.32170000  1.0 -0.0587748506
C  C59  1  0.24810000  0.71940000  0.82170000  1.0 -0.0587748506
C  C60  1  0.75190000  0.21940000  0.67830000  1.0 -0.0587748506
C  C61  1  0.64300000  0.23600000  0.20410000  1.0 -0.0587748506
C  C62  1  0.35700000  0.73600000  0.29590000  1.0 -0.0587748506
C  C63  1  0.35700000  0.76400000  0.79590000  1.0 -0.0587748506
C  C64  1  0.64300000  0.26400000  0.70410000  1.0 -0.0587748506
C  C65  1  0.70020000  0.27930000  0.10370000  1.0 0.0414400806
C  C66  1  0.29980000  0.77930000  0.39630000  1.0 0.0414400806
C  C67  1  0.29980000  0.72070000  0.89630000  1.0 0.0414400806
C  C68  1  0.70020000  0.22070000  0.60370000  1.0 0.0414400806
C  C69  1  0.59100000  0.23930000  0.13070000  1.0 0.0190691356
C  C70  1  0.40900000  0.73930000  0.36930000  1.0 0.0190691356
C  C71  1  0.40900000  0.76070000  0.86930000  1.0 0.0190691356
C  C72  1  0.59100000  0.26070000  0.63070000  1.0 0.0190691356
C  C73  1  0.62140000  0.24800000  0.07750000  1.0 0.0711804241
C  C74  1  0.37860000  0.74800000  0.42250000  1.0 0.0711804241
C  C75  1  0.37860000  0.75200000  0.92250000  1.0 0.0711804241
C  C76  1  0.62140000  0.25200000  0.57750000  1.0 0.0711804241
C  C77  1  0.56680000  0.24940000  0.00070000  1.0 -0.1091852274
C  C78  1  0.43320000  0.74940000  0.49930000  1.0 -0.1091852274
C  C79  1  0.43320000  0.75060000  0.99930000  1.0 -0.1091852274
C  C80  1  0.56680000  0.25060000  0.50070000  1.0 -0.1091852274
C  C81  1  0.51950000  0.25050000  0.93690000  1.0 -0.0922604243
C  C82  1  0.48050000  0.75050000  0.56310000  1.0 -0.0922604243
C  C83  1  0.48050000  0.74950000  0.06310000  1.0 -0.0922604243
C  C84  1  0.51950000  0.24950000  0.43690000  1.0 -0.0922604243
C  C85  1  0.46590000  0.25160000  0.86020000  1.0 0.1789376771
C  C86  1  0.53410000  0.75160000  0.63980000  1.0 0.1789376771
C  C87  1  0.53410000  0.74840000  0.13980000  1.0 0.1789376771
C  C88  1  0.46590000  0.24840000  0.36020000  1.0 0.1789376771
C  C89  1  0.39510000  0.29380000  0.83110000  1.0 -0.1698146562
C  C90  1  0.60490000  0.79380000  0.66890000  1.0 -0.1698146562
C  C91  1  0.60490000  0.70620000  0.16890000  1.0 -0.1698146562
C  C92  1  0.39510000  0.20620000  0.33110000  1.0 -0.1698146562
C  C93  1  0.48120000  0.20740000  0.81230000  1.0 -0.1759464706
C  C94  1  0.51880000  0.70740000  0.68770000  1.0 -0.1759464706
C  C95  1  0.51880000  0.79260000  0.18770000  1.0 -0.1759464706
C  C96  1  0.48120000  0.29260000  0.31230000  1.0 -0.1759464706
C  C97  1  0.43160000  0.21020000  0.73840000  1.0 0.0597264047
C  C98  1  0.56840000  0.71020000  0.76160000  1.0 0.0597264047
C  C99  1  0.56840000  0.78980000  0.26160000  1.0 0.0597264047
C  C100  1  0.43160000  0.28980000  0.23840000  1.0 0.0597264047
C  C101  1  0.34770000  0.29310000  0.75670000  1.0 0.0711804241
C  C102  1  0.65230000  0.79310000  0.74330000  1.0 0.0711804241
C  C103  1  0.65230000  0.70690000  0.24330000  1.0 0.0711804241
C  C104  1  0.34770000  0.20690000  0.25670000  1.0 0.0711804241
C  C105  1  0.37090000  0.33750000  0.01630000  1.0 0.5807100234
C  C106  1  0.62910000  0.83750000  0.48370000  1.0 0.5807100234
C  C107  1  0.62910000  0.66250000  0.98370000  1.0 0.5807100234
C  C108  1  0.37090000  0.16250000  0.51630000  1.0 0.5807100234
C  C109  1  0.43120000  0.39530000  0.01940000  1.0 -0.0022216325
C  C110  1  0.56880000  0.89530000  0.48060000  1.0 -0.0022216325
C  C111  1  0.56880000  0.60470000  0.98060000  1.0 -0.0022216325
C  C112  1  0.43120000  0.10470000  0.51940000  1.0 -0.0022216325
C  C113  1  0.50950000  0.40440000  0.08230000  1.0 -0.128834557
C  C114  1  0.49050000  0.90440000  0.41770000  1.0 -0.128834557
C  C115  1  0.49050000  0.59560000  0.91770000  1.0 -0.128834557
C  C116  1  0.50950000  0.09560000  0.58230000  1.0 -0.128834557
C  C117  1  0.40860000  0.43850000  0.96300000  1.0 -0.1698146562
C  C118  1  0.59140000  0.93850000  0.53700000  1.0 -0.1698146562
C  C119  1  0.59140000  0.56150000  0.03700000  1.0 -0.1698146562
C  C120  1  0.40860000  0.06150000  0.46300000  1.0 -0.1698146562
C  C121  1  0.56220000  0.45890000  0.08870000  1.0 -0.1413631198
C  C122  1  0.43780000  0.95890000  0.41130000  1.0 -0.1413631198
C  C123  1  0.43780000  0.54110000  0.91130000  1.0 -0.1413631198
C  C124  1  0.56220000  0.04110000  0.58870000  1.0 -0.1413631198
C  C125  1  0.46090000  0.49530000  0.96760000  1.0 0.0883966706
C  C126  1  0.53910000  0.99530000  0.53240000  1.0 0.0883966706
C  C127  1  0.53910000  0.50470000  0.03240000  1.0 0.0768859878
C  C128  1  0.46090000  0.00470000  0.46760000  1.0 0.0883966706
C  C129  1  0.15160000  0.34140000  0.02560000  1.0 0.5807100234
C  C130  1  0.84840000  0.84140000  0.47440000  1.0 0.5807100234
C  C131  1  0.84840000  0.65860000  0.97440000  1.0 0.5807100234
C  C132  1  0.15160000  0.15860000  0.52560000  1.0 0.5807100234
C  C133  1  0.10230000  0.40320000  0.02910000  1.0 -0.0022216325
C  C134  1  0.89770000  0.90320000  0.47090000  1.0 -0.0022216325
C  C135  1  0.89770000  0.59680000  0.97090000  1.0 -0.0022216325
C  C136  1  0.10230000  0.09680000  0.52910000  1.0 0.0019440508
C  C137  1  0.13280000  0.44230000  0.09200000  1.0 -0.1091852274
C  C138  1  0.86720000  0.94230000  0.40800000  1.0 -0.1091852274
C  C139  1  0.86720000  0.55770000  0.90800000  1.0 -0.1091852274
C  C140  1  0.13280000  0.05770000  0.59200000  1.0 -0.1091852274
C  C141  1  0.02950000  0.42110000  0.96910000  1.0 -0.1698146562
C  C142  1  0.97050000  0.92110000  0.53090000  1.0 -0.1698146562
C  C143  1  0.97050000  0.57890000  0.03090000  1.0 -0.1698146562
C  C144  1  0.02950000  0.07890000  0.46910000  1.0 -0.1698146562
C  C145  1  0.09090000  0.49920000  0.09300000  1.0 -0.1413631198
C  C146  1  0.90910000  0.99920000  0.40700000  1.0 -0.1413631198
C  C147  1  0.90910000  0.50080000  0.90700000  1.0 -0.1413631198
C  C148  1  0.09090000  0.00080000  0.59300000  1.0 -0.1413631198
C  C149  1  0.98430000  0.48040000  0.96880000  1.0 0.0883966706
C  C150  1  0.01570000  0.98040000  0.53120000  1.0 0.0972858677
C  C151  1  0.01570000  0.51960000  0.03120000  1.0 0.0972858677
C  C152  1  0.98430000  0.01960000  0.46880000  1.0 0.0883966706
C  C153  1  0.15040000  0.16010000  0.03200000  1.0 0.5807100234
C  C154  1  0.84960000  0.66010000  0.46800000  1.0 0.5807100234
C  C155  1  0.84960000  0.83990000  0.96800000  1.0 0.5807100234
C  C156  1  0.15040000  0.33990000  0.53200000  1.0 0.5807100234
C  C157  1  0.09270000  0.10210000  0.03190000  1.0 -0.0022216325
C  C158  1  0.90730000  0.60210000  0.46810000  1.0 -0.0022216325
C  C159  1  0.90730000  0.89790000  0.96810000  1.0 -0.0022216325
C  C160  1  0.09270000  0.39790000  0.53190000  1.0 -0.0022216325
C  C161  1  0.08190000  0.07980000  0.09840000  1.0 -0.1181402553
C  C162  1  0.91810000  0.57980000  0.40160000  1.0 -0.1181402553
C  C163  1  0.91810000  0.92020000  0.90160000  1.0 -0.1181402553
C  C164  1  0.08190000  0.42020000  0.59840000  1.0 -0.1181402553
C  C165  1  0.05360000  0.06800000  0.96750000  1.0 -0.1698146562
C  C166  1  0.94640000  0.56800000  0.53250000  1.0 -0.1698146562
C  C167  1  0.94640000  0.93200000  0.03250000  1.0 -0.1698146562
C  C168  1  0.05360000  0.43200000  0.46750000  1.0 -0.1698146562
C  C169  1  0.03360000  0.02500000  0.09880000  1.0 -0.1413631198
C  C170  1  0.96640000  0.52500000  0.40120000  1.0 -0.1413631198
C  C171  1  0.96640000  0.97500000  0.90120000  1.0 -0.1413631198
C  C172  1  0.03360000  0.47500000  0.59880000  1.0 -0.1413631198
C  C173  1  0.00500000  0.01140000  0.96600000  1.0 0.0972858677
C  C174  1  0.99500000  0.51140000  0.53400000  1.0 0.0972858677
C  C175  1  0.99500000  0.98860000  0.03400000  1.0 0.0972858677
C  C176  1  0.00500000  0.48860000  0.46600000  1.0 0.0972858677
C  C177  1  0.35780000  0.16060000  0.99710000  1.0 0.5807100234
C  C178  1  0.64220000  0.66060000  0.50290000  1.0 0.5807100234
C  C179  1  0.64220000  0.83940000  0.00290000  1.0 0.5807100234
C  C180  1  0.35780000  0.33940000  0.49710000  1.0 0.5807100234
C  C181  1  0.41060000  0.10320000  0.98640000  1.0 -0.0117794336
C  C182  1  0.58940000  0.60320000  0.51360000  1.0 -0.0117794336
C  C183  1  0.58940000  0.89680000  0.01360000  1.0 -0.0117794336
C  C184  1  0.41060000  0.39680000  0.48640000  1.0 -0.0117794336
C  C185  1  0.45240000  0.06330000  0.04500000  1.0 -0.1628981607
C  C186  1  0.54760000  0.56330000  0.45500000  1.0 -0.1628981607
C  C187  1  0.54760000  0.93670000  0.95500000  1.0 -0.1628981607
C  C188  1  0.45240000  0.43670000  0.54500000  1.0 -0.1628981607
C  C189  1  0.41500000  0.08840000  0.91570000  1.0 -0.1181402553
C  C190  1  0.58500000  0.58840000  0.58430000  1.0 -0.1181402553
C  C191  1  0.58500000  0.91160000  0.08430000  1.0 -0.1181402553
C  C192  1  0.41500000  0.41160000  0.41570000  1.0 -0.1181402553
C  C193  1  0.49860000  0.00680000  0.03570000  1.0 0.0883966706
C  C194  1  0.50140000  0.50680000  0.46430000  1.0 0.0883966706
C  C195  1  0.50140000  0.99320000  0.96430000  1.0 0.0883966706
C  C196  1  0.49860000  0.49320000  0.53570000  1.0 0.0883966706
C  C197  1  0.46010000  0.03520000  0.90530000  1.0 -0.1457552599
C  C198  1  0.53990000  0.53520000  0.59470000  1.0 -0.1457552599
C  C199  1  0.53990000  0.96480000  0.09470000  1.0 -0.1457552599
C  C200  1  0.46010000  0.46480000  0.40530000  1.0 -0.1457552599
C  C201  1  0.90040000  0.23990000  0.45530000  1.0 0.0597264047
C  C202  1  0.09960000  0.73990000  0.04470000  1.0 0.0597264047
C  C203  1  0.09960000  0.76010000  0.54470000  1.0 0.0597264047
C  C204  1  0.90040000  0.26010000  0.95530000  1.0 0.0597264047
C  C205  1  0.93300000  0.27400000  0.40510000  1.0 -0.0117794336
C  C206  1  0.06700000  0.77400000  0.09490000  1.0 -0.0117794336
C  C207  1  0.06700000  0.72600000  0.59490000  1.0 -0.0117794336
C  C208  1  0.93300000  0.22600000  0.90510000  1.0 -0.0117794336
C  C209  1  0.82940000  0.20160000  0.42920000  1.0 -0.0117794336
C  C210  1  0.17060000  0.70160000  0.07080000  1.0 -0.0117794336
C  C211  1  0.17060000  0.79840000  0.57080000  1.0 -0.0117794336
C  C212  1  0.82940000  0.29840000  0.92920000  1.0 -0.0117794336
C  C213  1  0.88200000  0.27470000  0.33130000  1.0 -0.0482462097
C  C214  1  0.11800000  0.77470000  0.16870000  1.0 -0.0482462097
C  C215  1  0.11800000  0.72530000  0.66870000  1.0 -0.0482462097
C  C216  1  0.88200000  0.22530000  0.83130000  1.0 -0.0482462097
C  C217  1  0.77620000  0.20080000  0.35280000  1.0 -0.0700719609
C  C218  1  0.22380000  0.70080000  0.14720000  1.0 -0.0700719609
C  C219  1  0.22380000  0.79920000  0.64720000  1.0 -0.0700719609
C  C220  1  0.77620000  0.29920000  0.85280000  1.0 -0.0700719609
C  C221  1  0.79770000  0.23940000  0.30540000  1.0 0.0768859878
C  C222  1  0.20230000  0.73940000  0.19460000  1.0 0.0768859878
C  C223  1  0.20230000  0.76060000  0.69460000  1.0 0.0768859878
C  C224  1  0.79770000  0.26060000  0.80540000  1.0 0.0711804241
C  C225  1  0.74150000  0.23950000  0.22450000  1.0 0.0597264047
C  C226  1  0.25850000  0.73950000  0.27550000  1.0 0.0597264047
C  C227  1  0.25850000  0.76050000  0.77550000  1.0 0.0530974304
C  C228  1  0.74150000  0.26050000  0.72450000  1.0 0.0597264047
C  C229  1  0.78140000  0.24910000  0.17130000  1.0 -0.0482462097
C  C230  1  0.21860000  0.74910000  0.32870000  1.0 -0.0482462097
C  C231  1  0.21860000  0.75090000  0.82870000  1.0 -0.0482462097
C  C232  1  0.78140000  0.25090000  0.67130000  1.0 -0.0482462097
C  C233  1  0.63000000  0.22130000  0.20690000  1.0 -0.0482462097
C  C234  1  0.37000000  0.72130000  0.29310000  1.0 -0.0482462097
C  C235  1  0.37000000  0.77870000  0.79310000  1.0 -0.0482462097
C  C236  1  0.63000000  0.27870000  0.70690000  1.0 -0.0482462097
C  C237  1  0.72620000  0.25190000  0.09540000  1.0 0.0414400806
C  C238  1  0.27380000  0.75190000  0.40460000  1.0 0.0414400806
C  C239  1  0.27380000  0.74810000  0.90460000  1.0 0.0414400806
C  C240  1  0.72620000  0.24810000  0.59540000  1.0 0.0414400806
C  C241  1  0.57770000  0.22030000  0.13180000  1.0 0.0019440508
C  C242  1  0.42230000  0.72030000  0.36820000  1.0 0.0019440508
C  C243  1  0.42230000  0.77970000  0.86820000  1.0 0.0019440508
C  C244  1  0.57770000  0.27970000  0.63180000  1.0 0.0019440508
N  N1  1  0.14640000  0.25430000  0.82630000  1.0 -0.2095072448
N  N2  1  0.85360000  0.75430000  0.67370000  1.0 -0.2095072448
N  N3  1  0.85360000  0.74570000  0.17370000  1.0 -0.2095072448
N  N4  1  0.14640000  0.24570000  0.32630000  1.0 -0.2095072448
N  N5  1  0.36550000  0.25350000  0.71000000  1.0 -0.2039721395
N  N6  1  0.63450000  0.75350000  0.79000000  1.0 -0.2039721395
N  N7  1  0.63450000  0.74650000  0.29000000  1.0 -0.2039721395
N  N8  1  0.36550000  0.24650000  0.21000000  1.0 -0.2039721395
O  O1  1  0.30480000  0.32863000  0.95640000  1.0 -0.5497436637
O  O2  1  0.69520000  0.82863000  0.54360000  1.0 -0.5497436637
O  O3  1  0.69520000  0.67137000  0.04360000  1.0 -0.5497436637
O  O4  1  0.30480000  0.17137000  0.45640000  1.0 -0.5497436637
O  O5  1  0.38820000  0.30488000  0.07320000  1.0 -0.5289657454
O  O6  1  0.61180000  0.80488000  0.42680000  1.0 -0.5289657454
O  O7  1  0.61180000  0.69512000  0.92680000  1.0 -0.5289657454
O  O8  1  0.38820000  0.19512000  0.57320000  1.0 -0.5289657454
O  O9  1  0.12870000  0.31330000  0.96470000  1.0 -0.5414312112
O  O10  1  0.87130000  0.81330000  0.53530000  1.0 -0.5414312112
O  O11  1  0.87130000  0.68670000  0.03530000  1.0 -0.5414312112
O  O12  1  0.12870000  0.18670000  0.46470000  1.0 -0.5414312112
O  O13  1  0.21390000  0.32420000  0.08410000  1.0 -0.5414312112
O  O14  1  0.78610000  0.82420000  0.41590000  1.0 -0.5414312112
O  O15  1  0.78610000  0.67580000  0.91590000  1.0 -0.5414312112
O  O16  1  0.21390000  0.17580000  0.58410000  1.0 -0.5414312112
O  O17  1  0.15210000  0.17880000  0.97060000  1.0 -0.5497436637
O  O18  1  0.84790000  0.67880000  0.52940000  1.0 -0.5497436637
O  O19  1  0.84790000  0.82120000  0.02940000  1.0 -0.5497436637
O  O20  1  0.15210000  0.32120000  0.47060000  1.0 -0.5497436637
O  O21  1  0.19370000  0.18480000  0.09390000  1.0 -0.5289657454
O  O22  1  0.80630000  0.68480000  0.40610000  1.0 -0.5289657454
O  O23  1  0.80630000  0.81520000  0.90610000  1.0 -0.5289657454
O  O24  1  0.19370000  0.31520000  0.59390000  1.0 -0.5289657454
O  O25  1  0.31590000  0.19180000  0.93930000  1.0 -0.5414312112
O  O26  1  0.68410000  0.69180000  0.56070000  1.0 -0.5414312112
O  O27  1  0.68410000  0.80820000  0.06070000  1.0 -0.5414312112
O  O28  1  0.31590000  0.30820000  0.43930000  1.0 -0.5414312112
O  O29  1  0.35710000  0.17177000  0.06100000  1.0 -0.5414312112
O  O30  1  0.64290000  0.67177000  0.43900000  1.0 -0.5414312112
O  O31  1  0.64290000  0.82823000  0.93900000  1.0 -0.5414312112
O  O32  1  0.35710000  0.32823000  0.56100000  1.0 -0.5414312112
