# DDEC6 charges by PACMAN v1.1 (https://github.com/mtap-research/PACMAN-charge/)
data_PIVWAT_ASR_pacman
_symmetry_space_group_name_H-M   'P 1'
_cell_length_a   19.29610000
_cell_length_b   19.29610000
_cell_length_c   19.29610000
_cell_angle_alpha   117.08500000
_cell_angle_beta   117.08500000
_cell_angle_gamma   117.08500000
_symmetry_Int_Tables_number   1
_chemical_formula_structural   AgH28(C5N)5
_chemical_formula_sum   'Ag6 H168 C150 N30'
_cell_volume   3125.90622872
_cell_formula_units_Z   6
loop_
 _symmetry_equiv_pos_site_id
 _symmetry_equiv_pos_as_xyz
  1  'x, y, z'
loop_
 _atom_site_type_symbol
 _atom_site_label
 _atom_site_symmetry_multiplicity
 _atom_site_fract_x
 _atom_site_fract_y
 _atom_site_fract_z
 _atom_site_occupancy
 _atom_site_charge
Ag  Ag1  1  0.76172000  0.15219000  0.82480000  1.0 0.2999948099
Ag  Ag2  1  0.15219000  0.82480000  0.76172000  1.0 0.2999948099
Ag  Ag3  1  0.82480000  0.76172000  0.15219000  1.0 0.2999948099
Ag  Ag4  1  0.23828000  0.84781000  0.17520000  1.0 0.2999948099
Ag  Ag5  1  0.84781000  0.17520000  0.23828000  1.0 0.2999948099
Ag  Ag6  1  0.17520000  0.23828000  0.84781000  1.0 0.2999948099
H  H1  1  0.87740000  0.34360000  0.05440000  1.0 0.2439676061
H  H2  1  0.34360000  0.05440000  0.87740000  1.0 0.2439676061
H  H3  1  0.05440000  0.87740000  0.34360000  1.0 0.2439676061
H  H4  1  0.12260000  0.65640000  0.94560000  1.0 0.2439676061
H  H5  1  0.65640000  0.94560000  0.12260000  1.0 0.2439676061
H  H6  1  0.94560000  0.12260000  0.65640000  1.0 0.2439676061
H  H7  1  0.68500000  0.96860000  0.62910000  1.0 0.2294975653
H  H8  1  0.96860000  0.62910000  0.68500000  1.0 0.2294975653
H  H9  1  0.62910000  0.68500000  0.96860000  1.0 0.2294975653
H  H10  1  0.31500000  0.03140000  0.37090000  1.0 0.2294975653
H  H11  1  0.03140000  0.37090000  0.31500000  1.0 0.2294975653
H  H12  1  0.37090000  0.31500000  0.03140000  1.0 0.2294975653
H  H13  1  0.09870000  0.61190000  0.20350000  1.0 0.1084675104
H  H14  1  0.61190000  0.20350000  0.09870000  1.0 0.1084675104
H  H15  1  0.20350000  0.09870000  0.61190000  1.0 0.1084675104
H  H16  1  0.90130000  0.38810000  0.79650000  1.0 0.1084675104
H  H17  1  0.38810000  0.79650000  0.90130000  1.0 0.1084675104
H  H18  1  0.79650000  0.90130000  0.38810000  1.0 0.1084675104
H  H19  1  0.75550000  0.28900000  0.78000000  1.0 0.1084675104
H  H20  1  0.28900000  0.78000000  0.75550000  1.0 0.1084675104
H  H21  1  0.78000000  0.75550000  0.28900000  1.0 0.1084675104
H  H22  1  0.24450000  0.71100000  0.22000000  1.0 0.1084675104
H  H23  1  0.71100000  0.22000000  0.24450000  1.0 0.1084675104
H  H24  1  0.22000000  0.24450000  0.71100000  1.0 0.1084675104
H  H25  1  0.72230000  0.31520000  0.89080000  1.0 0.1084675104
H  H26  1  0.31520000  0.89080000  0.72230000  1.0 0.1084675104
H  H27  1  0.89080000  0.72230000  0.31520000  1.0 0.1084675104
H  H28  1  0.27770000  0.68480000  0.10920000  1.0 0.1084675104
H  H29  1  0.68480000  0.10920000  0.27770000  1.0 0.1084675104
H  H30  1  0.10920000  0.27770000  0.68480000  1.0 0.1084675104
H  H31  1  0.85660000  0.44800000  0.05990000  1.0 0.1017632846
H  H32  1  0.44800000  0.05990000  0.85660000  1.0 0.1017632846
H  H33  1  0.05990000  0.85660000  0.44800000  1.0 0.1017632846
H  H34  1  0.14340000  0.55200000  0.94010000  1.0 0.1017632846
H  H35  1  0.55200000  0.94010000  0.14340000  1.0 0.1017632846
H  H36  1  0.94010000  0.14340000  0.55200000  1.0 0.1017632846
H  H37  1  0.71690000  0.27260000  0.01200000  1.0 0.1017632846
H  H38  1  0.27260000  0.01200000  0.71690000  1.0 0.1017632846
H  H39  1  0.01200000  0.71690000  0.27260000  1.0 0.1017632846
H  H40  1  0.28310000  0.72740000  0.98800000  1.0 0.1017632846
H  H41  1  0.72740000  0.98800000  0.28310000  1.0 0.1017632846
H  H42  1  0.98800000  0.28310000  0.72740000  1.0 0.1017632846
H  H43  1  0.59470000  0.14680000  0.84540000  1.0 0.1017632846
H  H44  1  0.14680000  0.84540000  0.59470000  1.0 0.1017632846
H  H45  1  0.84540000  0.59470000  0.14680000  1.0 0.1017632846
H  H46  1  0.40530000  0.85320000  0.15460000  1.0 0.1017632846
H  H47  1  0.85320000  0.15460000  0.40530000  1.0 0.1017632846
H  H48  1  0.15460000  0.40530000  0.85320000  1.0 0.1017632846
H  H49  1  0.81040000  0.25140000  0.12450000  1.0 0.0910126261
H  H50  1  0.25140000  0.12450000  0.81040000  1.0 0.0910126261
H  H51  1  0.12450000  0.81040000  0.25140000  1.0 0.0910126261
H  H52  1  0.18960000  0.74860000  0.87550000  1.0 0.0910126261
H  H53  1  0.74860000  0.87550000  0.18960000  1.0 0.0910126261
H  H54  1  0.87550000  0.18960000  0.74860000  1.0 0.0910126261
H  H55  1  0.10640000  0.40040000  0.11750000  1.0 0.1017632846
H  H56  1  0.40040000  0.11750000  0.10640000  1.0 0.1017632846
H  H57  1  0.11750000  0.10640000  0.40040000  1.0 0.1017632846
H  H58  1  0.89360000  0.59960000  0.88250000  1.0 0.1017632846
H  H59  1  0.59960000  0.88250000  0.89360000  1.0 0.1017632846
H  H60  1  0.88250000  0.89360000  0.59960000  1.0 0.1017632846
H  H61  1  0.31180000  0.54790000  0.21640000  1.0 0.1312970056
H  H62  1  0.54790000  0.21640000  0.31180000  1.0 0.1312970056
H  H63  1  0.21640000  0.31180000  0.54790000  1.0 0.1312970056
H  H64  1  0.68820000  0.45210000  0.78360000  1.0 0.1312970056
H  H65  1  0.45210000  0.78360000  0.68820000  1.0 0.1312970056
H  H66  1  0.78360000  0.68820000  0.45210000  1.0 0.1312970056
H  H67  1  0.48790000  0.92520000  0.70100000  1.0 0.1180250983
H  H68  1  0.92520000  0.70100000  0.48790000  1.0 0.1180250983
H  H69  1  0.70100000  0.48790000  0.92520000  1.0 0.1180250983
H  H70  1  0.51210000  0.07480000  0.29900000  1.0 0.1180250983
H  H71  1  0.07480000  0.29900000  0.51210000  1.0 0.1180250983
H  H72  1  0.29900000  0.51210000  0.07480000  1.0 0.1180250983
H  H73  1  0.58260000  0.95920000  0.46160000  1.0 0.1180250983
H  H74  1  0.95920000  0.46160000  0.58260000  1.0 0.1180250983
H  H75  1  0.46160000  0.58260000  0.95920000  1.0 0.1180250983
H  H76  1  0.41740000  0.04080000  0.53840000  1.0 0.1180250983
H  H77  1  0.04080000  0.53840000  0.41740000  1.0 0.1180250983
H  H78  1  0.53840000  0.41740000  0.04080000  1.0 0.1180250983
H  H79  1  0.42030000  0.92310000  0.54360000  1.0 0.1180250983
H  H80  1  0.92310000  0.54360000  0.42030000  1.0 0.1180250983
H  H81  1  0.54360000  0.42030000  0.92310000  1.0 0.1180250983
H  H82  1  0.57970000  0.07690000  0.45640000  1.0 0.1180250983
H  H83  1  0.07690000  0.45640000  0.57970000  1.0 0.1180250983
H  H84  1  0.45640000  0.57970000  0.07690000  1.0 0.1180250983
H  H85  1  0.46450000  0.77970000  0.42350000  1.0 0.1084675104
H  H86  1  0.77970000  0.42350000  0.46450000  1.0 0.1084675104
H  H87  1  0.42350000  0.46450000  0.77970000  1.0 0.1084675104
H  H88  1  0.53550000  0.22030000  0.57650000  1.0 0.1084675104
H  H89  1  0.22030000  0.57650000  0.53550000  1.0 0.1084675104
H  H90  1  0.57650000  0.53550000  0.22030000  1.0 0.1084675104
H  H91  1  0.42920000  0.79460000  0.48500000  1.0 0.1084675104
H  H92  1  0.79460000  0.48500000  0.42920000  1.0 0.1084675104
H  H93  1  0.48500000  0.42920000  0.79460000  1.0 0.1084675104
H  H94  1  0.57080000  0.20540000  0.51500000  1.0 0.1084675104
H  H95  1  0.20540000  0.51500000  0.57080000  1.0 0.1084675104
H  H96  1  0.51500000  0.57080000  0.20540000  1.0 0.1084675104
H  H97  1  0.59500000  0.86160000  0.67010000  1.0 0.1084675104
H  H98  1  0.86160000  0.67010000  0.59500000  1.0 0.1084675104
H  H99  1  0.67010000  0.59500000  0.86160000  1.0 0.1084675104
H  H100  1  0.40500000  0.13840000  0.32990000  1.0 0.1084675104
H  H101  1  0.13840000  0.32990000  0.40500000  1.0 0.1084675104
H  H102  1  0.32990000  0.40500000  0.13840000  1.0 0.1084675104
H  H103  1  0.58050000  0.79160000  0.57040000  1.0 0.0735243096
H  H104  1  0.79160000  0.57040000  0.58050000  1.0 0.0735243096
H  H105  1  0.57040000  0.58050000  0.79160000  1.0 0.0735243096
H  H106  1  0.41950000  0.20840000  0.42960000  1.0 0.0735243096
H  H107  1  0.20840000  0.42960000  0.41950000  1.0 0.0735243096
H  H108  1  0.42960000  0.41950000  0.20840000  1.0 0.0735243096
H  H109  1  0.79940000  0.91090000  0.67530000  1.0 0.0488146776
H  H110  1  0.91090000  0.67530000  0.79940000  1.0 0.0488146776
H  H111  1  0.67530000  0.79940000  0.91090000  1.0 0.0488146776
H  H112  1  0.20060000  0.08910000  0.32470000  1.0 0.0488146776
H  H113  1  0.08910000  0.32470000  0.20060000  1.0 0.0488146776
H  H114  1  0.32470000  0.20060000  0.08910000  1.0 0.0488146776
H  H115  1  0.12710000  0.19670000  0.08450000  1.0 0.1084675104
H  H116  1  0.19670000  0.08450000  0.12710000  1.0 0.1084675104
H  H117  1  0.08450000  0.12710000  0.19670000  1.0 0.1084675104
H  H118  1  0.87290000  0.80330000  0.91550000  1.0 0.1084675104
H  H119  1  0.80330000  0.91550000  0.87290000  1.0 0.1084675104
H  H120  1  0.91550000  0.87290000  0.80330000  1.0 0.1084675104
H  H121  1  0.89080000  0.97930000  0.79000000  1.0 0.1084675104
H  H122  1  0.97930000  0.79000000  0.89080000  1.0 0.1084675104
H  H123  1  0.79000000  0.89080000  0.97930000  1.0 0.1084675104
H  H124  1  0.10920000  0.02070000  0.21000000  1.0 0.1084675104
H  H125  1  0.02070000  0.21000000  0.10920000  1.0 0.1084675104
H  H126  1  0.21000000  0.10920000  0.02070000  1.0 0.1084675104
H  H127  1  0.79560000  0.05760000  0.90770000  1.0 0.1017632846
H  H128  1  0.05760000  0.90770000  0.79560000  1.0 0.1017632846
H  H129  1  0.90770000  0.79560000  0.05760000  1.0 0.1017632846
H  H130  1  0.20440000  0.94240000  0.09230000  1.0 0.1017632846
H  H131  1  0.94240000  0.09230000  0.20440000  1.0 0.1017632846
H  H132  1  0.09230000  0.20440000  0.94240000  1.0 0.1017632846
H  H133  1  0.73480000  0.94780000  0.73390000  1.0 0.0824376284
H  H134  1  0.94780000  0.73390000  0.73480000  1.0 0.0824376284
H  H135  1  0.73390000  0.73480000  0.94780000  1.0 0.0824376284
H  H136  1  0.26520000  0.05220000  0.26610000  1.0 0.0824376284
H  H137  1  0.05220000  0.26610000  0.26520000  1.0 0.0824376284
H  H138  1  0.26610000  0.26520000  0.05220000  1.0 0.0824376284
H  H139  1  0.61170000  0.88200000  0.68790000  1.0 0.1084675104
H  H140  1  0.88200000  0.68790000  0.61170000  1.0 0.1084675104
H  H141  1  0.68790000  0.61170000  0.88200000  1.0 0.1084675104
H  H142  1  0.38830000  0.11800000  0.31210000  1.0 0.1084675104
H  H143  1  0.11800000  0.31210000  0.38830000  1.0 0.1084675104
H  H144  1  0.31210000  0.38830000  0.11800000  1.0 0.1084675104
H  H145  1  0.36820000  0.62830000  0.44710000  1.0 0.1017632846
H  H146  1  0.62830000  0.44710000  0.36820000  1.0 0.1017632846
H  H147  1  0.44710000  0.36820000  0.62830000  1.0 0.1017632846
H  H148  1  0.63180000  0.37170000  0.55290000  1.0 0.1017632846
H  H149  1  0.37170000  0.55290000  0.63180000  1.0 0.1017632846
H  H150  1  0.55290000  0.63180000  0.37170000  1.0 0.1017632846
H  H151  1  0.35400000  0.39400000  0.28820000  1.0 0.1084675104
H  H152  1  0.39400000  0.28820000  0.35400000  1.0 0.1084675104
H  H153  1  0.28820000  0.35400000  0.39400000  1.0 0.1084675104
H  H154  1  0.64600000  0.60600000  0.71180000  1.0 0.1084675104
H  H155  1  0.60600000  0.71180000  0.64600000  1.0 0.1084675104
H  H156  1  0.71180000  0.64600000  0.60600000  1.0 0.1084675104
H  H157  1  0.59490000  0.59030000  0.46360000  1.0 0.1180250983
H  H158  1  0.59030000  0.46360000  0.59490000  1.0 0.1180250983
H  H159  1  0.46360000  0.59490000  0.59030000  1.0 0.1180250983
H  H160  1  0.40510000  0.40970000  0.53640000  1.0 0.1180250983
H  H161  1  0.40970000  0.53640000  0.40510000  1.0 0.1180250983
H  H162  1  0.53640000  0.40510000  0.40970000  1.0 0.1180250983
H  H163  1  0.72520000  0.81560000  0.62700000  1.0 0.0824376284
H  H164  1  0.81560000  0.62700000  0.72520000  1.0 0.0824376284
H  H165  1  0.62700000  0.72520000  0.81560000  1.0 0.0824376284
H  H166  1  0.27480000  0.18440000  0.37300000  1.0 0.0824376284
H  H167  1  0.18440000  0.37300000  0.27480000  1.0 0.0824376284
H  H168  1  0.37300000  0.27480000  0.18440000  1.0 0.0824376284
C  C1  1  0.91209000  0.44058000  0.98993000  1.0 0.0910126261
C  C2  1  0.44058000  0.98993000  0.91209000  1.0 0.0910126261
C  C3  1  0.98993000  0.91209000  0.44058000  1.0 0.0910126261
C  C4  1  0.08791000  0.55942000  0.01007000  1.0 0.0910126261
C  C5  1  0.55942000  0.01007000  0.08791000  1.0 0.0910126261
C  C6  1  0.01007000  0.08791000  0.55942000  1.0 0.0910126261
C  C7  1  0.05780000  0.56580000  0.12010000  1.0 -0.1479017266
C  C8  1  0.56580000  0.12010000  0.05780000  1.0 -0.1479017266
C  C9  1  0.12010000  0.05780000  0.56580000  1.0 -0.1479017266
C  C10  1  0.94220000  0.43420000  0.87990000  1.0 -0.1479017266
C  C11  1  0.43420000  0.87990000  0.94220000  1.0 -0.1479017266
C  C12  1  0.87990000  0.94220000  0.43420000  1.0 -0.1479017266
C  C13  1  0.85558000  0.37552000  0.87030000  1.0 -0.1479017266
C  C14  1  0.37552000  0.87030000  0.85558000  1.0 -0.1479017266
C  C15  1  0.87030000  0.85558000  0.37552000  1.0 -0.1479017266
C  C16  1  0.14442000  0.62448000  0.12970000  1.0 -0.1479017266
C  C17  1  0.62448000  0.12970000  0.14442000  1.0 -0.1479017266
C  C18  1  0.12970000  0.14442000  0.62448000  1.0 -0.1479017266
C  C19  1  0.81480000  0.37300000  0.97600000  1.0 -0.1696993823
C  C20  1  0.37300000  0.97600000  0.81480000  1.0 -0.1696993823
C  C21  1  0.97600000  0.81480000  0.37300000  1.0 -0.1696993823
C  C22  1  0.18520000  0.62700000  0.02400000  1.0 -0.1696993823
C  C23  1  0.62700000  0.02400000  0.18520000  1.0 -0.1696993823
C  C24  1  0.02400000  0.18520000  0.62700000  1.0 -0.1696993823
C  C25  1  0.68400000  0.20350000  0.93370000  1.0 -0.1696993823
C  C26  1  0.20350000  0.93370000  0.68400000  1.0 -0.1696993823
C  C27  1  0.93370000  0.68400000  0.20350000  1.0 -0.1696993823
C  C28  1  0.31600000  0.79650000  0.06630000  1.0 -0.1696993823
C  C29  1  0.79650000  0.06630000  0.31600000  1.0 -0.1696993823
C  C30  1  0.06630000  0.31600000  0.79650000  1.0 -0.1696993823
C  C31  1  0.65600000  0.10720000  0.91790000  1.0 0.0488146776
C  C32  1  0.10720000  0.91790000  0.65600000  1.0 0.0488146776
C  C33  1  0.91790000  0.65600000  0.10720000  1.0 0.0488146776
C  C34  1  0.34400000  0.89280000  0.08210000  1.0 0.0488146776
C  C35  1  0.89280000  0.08210000  0.34400000  1.0 0.0488146776
C  C36  1  0.08210000  0.34400000  0.89280000  1.0 0.0488146776
C  C37  1  0.73630000  0.15500000  0.03370000  1.0 -0.0324153605
C  C38  1  0.15500000  0.03370000  0.73630000  1.0 -0.0324153605
C  C39  1  0.03370000  0.73630000  0.15500000  1.0 -0.0324153605
C  C40  1  0.26370000  0.84500000  0.96630000  1.0 -0.0324153605
C  C41  1  0.84500000  0.96630000  0.26370000  1.0 -0.0324153605
C  C42  1  0.96630000  0.26370000  0.84500000  1.0 -0.0324153605
C  C43  1  0.10010000  0.38640000  0.05980000  1.0 -0.0243176107
C  C44  1  0.38640000  0.05980000  0.10010000  1.0 -0.0243176107
C  C45  1  0.05980000  0.10010000  0.38640000  1.0 -0.0243176107
C  C46  1  0.89990000  0.61360000  0.94020000  1.0 -0.0243176107
C  C47  1  0.61360000  0.94020000  0.89990000  1.0 -0.0243176107
C  C48  1  0.94020000  0.89990000  0.61360000  1.0 -0.0243176107
C  C49  1  0.22290000  0.47400000  0.11910000  1.0 -0.180485994
C  C50  1  0.47400000  0.11910000  0.22290000  1.0 -0.180485994
C  C51  1  0.11910000  0.22290000  0.47400000  1.0 -0.180485994
C  C52  1  0.77710000  0.52600000  0.88090000  1.0 -0.180485994
C  C53  1  0.52600000  0.88090000  0.77710000  1.0 -0.180485994
C  C54  1  0.88090000  0.77710000  0.52600000  1.0 -0.180485994
C  C55  1  0.54640000  0.96400000  0.78430000  1.0 -0.1479017266
C  C56  1  0.96400000  0.78430000  0.54640000  1.0 -0.1479017266
C  C57  1  0.78430000  0.54640000  0.96400000  1.0 -0.1479017266
C  C58  1  0.45360000  0.03600000  0.21570000  1.0 -0.1479017266
C  C59  1  0.03600000  0.21570000  0.45360000  1.0 -0.1479017266
C  C60  1  0.21570000  0.45360000  0.03600000  1.0 -0.1479017266
C  C61  1  0.49940000  0.92740000  0.50040000  1.0 0.0824376284
C  C62  1  0.92740000  0.50040000  0.49940000  1.0 0.0824376284
C  C63  1  0.50040000  0.49940000  0.92740000  1.0 0.0824376284
C  C64  1  0.50060000  0.07260000  0.49960000  1.0 0.0824376284
C  C65  1  0.07260000  0.49960000  0.50060000  1.0 0.0824376284
C  C66  1  0.49960000  0.50060000  0.07260000  1.0 0.0824376284
C  C67  1  0.54819000  0.97519000  0.47669000  1.0 -0.1625369778
C  C68  1  0.97519000  0.47669000  0.54819000  1.0 -0.1625369778
C  C69  1  0.47669000  0.54819000  0.97519000  1.0 -0.1625369778
C  C70  1  0.45181000  0.02481000  0.52331000  1.0 -0.1625369778
C  C71  1  0.02481000  0.52331000  0.45181000  1.0 -0.1625369778
C  C72  1  0.52331000  0.45181000  0.02481000  1.0 -0.1625369778
C  C73  1  0.45210000  0.95340000  0.52530000  1.0 -0.1625369778
C  C74  1  0.95340000  0.52530000  0.45210000  1.0 -0.1625369778
C  C75  1  0.52530000  0.45210000  0.95340000  1.0 -0.1625369778
C  C76  1  0.54790000  0.04660000  0.47470000  1.0 -0.1625369778
C  C77  1  0.04660000  0.47470000  0.54790000  1.0 -0.1625369778
C  C78  1  0.47470000  0.54790000  0.04660000  1.0 -0.1625369778
C  C79  1  0.49710000  0.84830000  0.50140000  1.0 -0.1880549804
C  C80  1  0.84830000  0.50140000  0.49710000  1.0 -0.1880549804
C  C81  1  0.50140000  0.49710000  0.84830000  1.0 -0.1880549804
C  C82  1  0.50290000  0.15170000  0.49860000  1.0 -0.1880549804
C  C83  1  0.15170000  0.49860000  0.50290000  1.0 -0.1880549804
C  C84  1  0.49860000  0.50290000  0.15170000  1.0 -0.1880549804
C  C85  1  0.63720000  0.88070000  0.65410000  1.0 -0.1696993823
C  C86  1  0.88070000  0.65410000  0.63720000  1.0 -0.1696993823
C  C87  1  0.65410000  0.63720000  0.88070000  1.0 -0.1696993823
C  C88  1  0.36280000  0.11930000  0.34590000  1.0 -0.1696993823
C  C89  1  0.11930000  0.34590000  0.36280000  1.0 -0.1696993823
C  C90  1  0.34590000  0.36280000  0.11930000  1.0 -0.1696993823
C  C91  1  0.77760000  0.97080000  0.77250000  1.0 -0.180485994
C  C92  1  0.97080000  0.77250000  0.77760000  1.0 -0.180485994
C  C93  1  0.77250000  0.77760000  0.97080000  1.0 -0.180485994
C  C94  1  0.22240000  0.02920000  0.22750000  1.0 -0.180485994
C  C95  1  0.02920000  0.22750000  0.22240000  1.0 -0.180485994
C  C96  1  0.22750000  0.22240000  0.02920000  1.0 -0.180485994
C  C97  1  0.84490000  0.97260000  0.76550000  1.0 -0.109915083
C  C98  1  0.97260000  0.76550000  0.84490000  1.0 -0.109915083
C  C99  1  0.76550000  0.84490000  0.97260000  1.0 -0.109915083
C  C100  1  0.15510000  0.02740000  0.23450000  1.0 -0.109915083
C  C101  1  0.02740000  0.23450000  0.15510000  1.0 -0.109915083
C  C102  1  0.23450000  0.15510000  0.02740000  1.0 -0.109915083
C  C103  1  0.03390000  0.13840000  0.00170000  1.0 -0.1479017266
C  C104  1  0.13840000  0.00170000  0.03390000  1.0 -0.1479017266
C  C105  1  0.00170000  0.03390000  0.13840000  1.0 -0.1479017266
C  C106  1  0.96610000  0.86160000  0.99830000  1.0 -0.1479017266
C  C107  1  0.86160000  0.99830000  0.96610000  1.0 -0.1479017266
C  C108  1  0.99830000  0.96610000  0.86160000  1.0 -0.1479017266
C  C109  1  0.98190000  0.02840000  0.85470000  1.0 0.0735243096
C  C110  1  0.02840000  0.85470000  0.98190000  1.0 0.0735243096
C  C111  1  0.85470000  0.98190000  0.02840000  1.0 0.0735243096
C  C112  1  0.01810000  0.97160000  0.14530000  1.0 0.0735243096
C  C113  1  0.97160000  0.14530000  0.01810000  1.0 0.0735243096
C  C114  1  0.14530000  0.01810000  0.97160000  1.0 0.0735243096
C  C115  1  0.84570000  0.06090000  0.90470000  1.0 -0.1403821958
C  C116  1  0.06090000  0.90470000  0.84570000  1.0 -0.1403821958
C  C117  1  0.90470000  0.84570000  0.06090000  1.0 -0.1403821958
C  C118  1  0.15430000  0.93910000  0.09530000  1.0 -0.1403821958
C  C119  1  0.93910000  0.09530000  0.15430000  1.0 -0.1403821958
C  C120  1  0.09530000  0.15430000  0.93910000  1.0 -0.1403821958
C  C121  1  0.56030000  0.74340000  0.55540000  1.0 -0.1696993823
C  C122  1  0.74340000  0.55540000  0.56030000  1.0 -0.1696993823
C  C123  1  0.55540000  0.56030000  0.74340000  1.0 -0.1696993823
C  C124  1  0.43970000  0.25660000  0.44460000  1.0 -0.1696993823
C  C125  1  0.25660000  0.44460000  0.43970000  1.0 -0.1696993823
C  C126  1  0.44460000  0.43970000  0.25660000  1.0 -0.1696993823
C  C127  1  0.41460000  0.61980000  0.44910000  1.0 -0.1403821958
C  C128  1  0.61980000  0.44910000  0.41460000  1.0 -0.1403821958
C  C129  1  0.44910000  0.41460000  0.61980000  1.0 -0.1403821958
C  C130  1  0.58540000  0.38020000  0.55090000  1.0 -0.1403821958
C  C131  1  0.38020000  0.55090000  0.58540000  1.0 -0.1403821958
C  C132  1  0.55090000  0.58540000  0.38020000  1.0 -0.1403821958
C  C133  1  0.40810000  0.48650000  0.35940000  1.0 -0.1987789587
C  C134  1  0.48650000  0.35940000  0.40810000  1.0 -0.1987789587
C  C135  1  0.35940000  0.40810000  0.48650000  1.0 -0.1987789587
C  C136  1  0.59190000  0.51350000  0.64060000  1.0 -0.1987789587
C  C137  1  0.51350000  0.64060000  0.59190000  1.0 -0.1987789587
C  C138  1  0.64060000  0.59190000  0.51350000  1.0 -0.1987789587
C  C139  1  0.55040000  0.60200000  0.46160000  1.0 0.0910126261
C  C140  1  0.60200000  0.46160000  0.55040000  1.0 0.0910126261
C  C141  1  0.46160000  0.55040000  0.60200000  1.0 0.0910126261
C  C142  1  0.44960000  0.39800000  0.53840000  1.0 0.0910126261
C  C143  1  0.39800000  0.53840000  0.44960000  1.0 0.0910126261
C  C144  1  0.53840000  0.44960000  0.39800000  1.0 0.0910126261
C  C145  1  0.62540000  0.73140000  0.55720000  1.0 -0.2092740775
C  C146  1  0.73140000  0.55720000  0.62540000  1.0 -0.2092740775
C  C147  1  0.55720000  0.62540000  0.73140000  1.0 -0.2092740775
C  C148  1  0.37460000  0.26860000  0.44280000  1.0 -0.2092740775
C  C149  1  0.26860000  0.44280000  0.37460000  1.0 -0.2092740775
C  C150  1  0.44280000  0.37460000  0.26860000  1.0 -0.2092740775
N  N1  1  0.79280000  0.28152000  0.96408000  1.0 -0.2743334413
N  N2  1  0.28152000  0.96408000  0.79280000  1.0 -0.275638269
N  N3  1  0.96408000  0.79280000  0.28152000  1.0 -0.2743334413
N  N4  1  0.20720000  0.71848000  0.03592000  1.0 -0.275638269
N  N5  1  0.71848000  0.03592000  0.20720000  1.0 -0.2743334413
N  N6  1  0.03592000  0.20720000  0.71848000  1.0 -0.2743334413
N  N7  1  0.63540000  0.94470000  0.63420000  1.0 -0.3139339502
N  N8  1  0.94470000  0.63420000  0.63540000  1.0 -0.3139339502
N  N9  1  0.63420000  0.63540000  0.94470000  1.0 -0.3139339502
N  N10  1  0.36460000  0.05530000  0.36580000  1.0 -0.3139339502
N  N11  1  0.05530000  0.36580000  0.36460000  1.0 -0.3139339502
N  N12  1  0.36580000  0.36460000  0.05530000  1.0 -0.3139339502
N  N13  1  0.97353000  0.28363000  0.92554000  1.0 -0.2470233009
N  N14  1  0.28363000  0.92554000  0.97353000  1.0 -0.2470233009
N  N15  1  0.92554000  0.97353000  0.28363000  1.0 -0.2470233009
N  N16  1  0.02647000  0.71637000  0.07446000  1.0 -0.2470233009
N  N17  1  0.71637000  0.07446000  0.02647000  1.0 -0.2470233009
N  N18  1  0.07446000  0.02647000  0.71637000  1.0 -0.2470233009
N  N19  1  0.97880000  0.06050000  0.88570000  1.0 0.0228731579
N  N20  1  0.06050000  0.88570000  0.97880000  1.0 0.0228731579
N  N21  1  0.88570000  0.97880000  0.06050000  1.0 0.0228731579
N  N22  1  0.02120000  0.93950000  0.11430000  1.0 0.0228731579
N  N23  1  0.93950000  0.11430000  0.02120000  1.0 0.0228731579
N  N24  1  0.11430000  0.02120000  0.93950000  1.0 0.0228731579
N  N25  1  0.33550000  0.48880000  0.34840000  1.0 -0.0243176107
N  N26  1  0.48880000  0.34840000  0.33550000  1.0 -0.0243176107
N  N27  1  0.34840000  0.33550000  0.48880000  1.0 -0.0243176107
N  N28  1  0.66450000  0.51120000  0.65160000  1.0 -0.0243176107
N  N29  1  0.51120000  0.65160000  0.66450000  1.0 -0.0243176107
N  N30  1  0.65160000  0.66450000  0.51120000  1.0 -0.0243176107
