# DDEC6 charges by PACMAN v1.1 (https://github.com/mtap-research/PACMAN-charge/)
data_PIXCUX_ASR_pacman
_symmetry_space_group_name_H-M   'P 1'
_cell_length_a   16.41760000
_cell_length_b   16.41760000
_cell_length_c   16.41760000
_cell_angle_alpha   106.47900000
_cell_angle_beta   106.47900000
_cell_angle_gamma   115.63800000
_symmetry_Int_Tables_number   1
_chemical_formula_structural   EuH8(C5O)4
_chemical_formula_sum   'Eu2 H16 C40 O8'
_cell_volume   3376.55206114
_cell_formula_units_Z   2
loop_
 _symmetry_equiv_pos_site_id
 _symmetry_equiv_pos_as_xyz
  1  'x, y, z'
loop_
 _atom_site_type_symbol
 _atom_site_label
 _atom_site_symmetry_multiplicity
 _atom_site_fract_x
 _atom_site_fract_y
 _atom_site_fract_z
 _atom_site_occupancy
 _atom_site_charge
Eu  Eu1  1  0.12582000  0.12582000  0.00000000  1.0 2.1257198992
Eu  Eu2  1  0.87418000  0.87418000  0.00000000  1.0 2.1245282831
H  H1  1  0.88429000  0.54465000  0.66036000  1.0 0.1082382454
H  H2  1  0.88465000  0.66423000  0.77958000  1.0 0.1082382454
H  H3  1  0.88429000  0.22393000  0.33964000  1.0 0.1082382454
H  H4  1  0.88465000  0.10507000  0.22042000  1.0 0.1082382454
H  H5  1  0.54465000  0.88429000  0.66036000  1.0 0.1082382454
H  H6  1  0.66423000  0.88465000  0.77958000  1.0 0.1049610021
H  H7  1  0.22393000  0.88429000  0.33964000  1.0 0.1082382454
H  H8  1  0.10507000  0.88465000  0.22042000  1.0 0.1049610021
H  H9  1  0.11571000  0.77607000  0.66036000  1.0 0.1082382454
H  H10  1  0.11535000  0.89493000  0.77958000  1.0 0.1082382454
H  H11  1  0.11571000  0.45535000  0.33964000  1.0 0.1082382454
H  H12  1  0.11535000  0.33577000  0.22042000  1.0 0.1082382454
H  H13  1  0.45535000  0.11571000  0.33964000  1.0 0.1082382454
H  H14  1  0.33577000  0.11535000  0.22042000  1.0 0.1082382454
H  H15  1  0.77607000  0.11571000  0.66036000  1.0 0.1082382454
H  H16  1  0.89493000  0.11535000  0.77958000  1.0 0.1082382454
C  C1  1  0.93034000  0.61437000  0.68403000  1.0 -0.1592344792
C  C2  1  0.93057000  0.68629000  0.75572000  1.0 -0.0928587291
C  C3  1  0.93034000  0.24631000  0.31597000  1.0 -0.1592344792
C  C4  1  0.93057000  0.17485000  0.24428000  1.0 -0.0928587291
C  C5  1  0.61437000  0.93034000  0.68403000  1.0 -0.1592344792
C  C6  1  0.68629000  0.93057000  0.75572000  1.0 -0.0928587291
C  C7  1  0.24631000  0.93034000  0.31597000  1.0 -0.1592344792
C  C8  1  0.17485000  0.93057000  0.24428000  1.0 -0.0928587291
C  C9  1  0.06966000  0.75369000  0.68403000  1.0 -0.1592344792
C  C10  1  0.06943000  0.82515000  0.75572000  1.0 -0.0928587291
C  C11  1  0.06966000  0.38563000  0.31597000  1.0 -0.1592344792
C  C12  1  0.06943000  0.31371000  0.24428000  1.0 -0.0928587291
C  C13  1  0.38563000  0.06966000  0.31597000  1.0 -0.1592344792
C  C14  1  0.31371000  0.06943000  0.24428000  1.0 -0.0928587291
C  C15  1  0.75369000  0.06966000  0.68403000  1.0 -0.1592344792
C  C16  1  0.82515000  0.06943000  0.75572000  1.0 -0.0928587291
C  C17  1  0.00000000  0.79080000  0.79080000  1.0 -0.0728013316
C  C18  1  0.00000000  0.86680000  0.86680000  1.0 0.6524009946
C  C19  1  0.00000000  0.64850000  0.64850000  1.0 0.0812448578
C  C20  1  0.00000000  0.57390000  0.57390000  1.0 -0.0443815907
C  C21  1  0.00000000  0.20920000  0.20920000  1.0 -0.0765947207
C  C22  1  0.00000000  0.13320000  0.13320000  1.0 0.6524009946
C  C23  1  0.00000000  0.35150000  0.35150000  1.0 0.0812448578
C  C24  1  0.00000000  0.42610000  0.42610000  1.0 -0.047061883
C  C25  1  0.79080000  0.00000000  0.79080000  1.0 -0.0728013316
C  C26  1  0.86680000  0.00000000  0.86680000  1.0 0.6524009946
C  C27  1  0.64850000  0.00000000  0.64850000  1.0 0.0812448578
C  C28  1  0.57390000  0.00000000  0.57390000  1.0 -0.0443815907
C  C29  1  0.20920000  0.00000000  0.20920000  1.0 -0.0728013316
C  C30  1  0.13320000  0.00000000  0.13320000  1.0 0.6524009946
C  C31  1  0.35150000  0.00000000  0.35150000  1.0 0.0812448578
C  C32  1  0.42610000  0.00000000  0.42610000  1.0 -0.047061883
C  C33  1  0.95030000  0.53650000  0.48680000  1.0 -0.0728013316
C  C34  1  0.04970000  0.46350000  0.51320000  1.0 -0.0728013316
C  C35  1  0.53650000  0.04970000  0.58620000  1.0 -0.0728013316
C  C36  1  0.46350000  0.95030000  0.41380000  1.0 -0.0728013316
C  C37  1  0.04970000  0.53650000  0.58620000  1.0 -0.0765947207
C  C38  1  0.95030000  0.46350000  0.41380000  1.0 -0.0765947207
C  C39  1  0.46350000  0.04970000  0.51320000  1.0 -0.0728013316
C  C40  1  0.53650000  0.95030000  0.48680000  1.0 -0.0765947207
O  O1  1  0.06340000  0.95953000  0.89613000  1.0 -0.7277083603
O  O2  1  0.06340000  0.16727000  0.10387000  1.0 -0.7277083603
O  O3  1  0.95953000  0.06340000  0.89613000  1.0 -0.7277083603
O  O4  1  0.16727000  0.06340000  0.10387000  1.0 -0.7277083603
O  O5  1  0.93660000  0.83273000  0.89613000  1.0 -0.7277083603
O  O6  1  0.93660000  0.04047000  0.10387000  1.0 -0.7277083603
O  O7  1  0.04047000  0.93660000  0.10387000  1.0 -0.7277083603
O  O8  1  0.83273000  0.93660000  0.89613000  1.0 -0.7277083603
