# DDEC6 charges by PACMAN v1.1 (https://github.com/mtap-research/PACMAN-charge/)
data_PIZHEN_ASR_pacman
_symmetry_space_group_name_H-M   'P 1'
_cell_length_a   12.30800000
_cell_length_b   19.99800000
_cell_length_c   21.53200000
_cell_angle_alpha   90.00000000
_cell_angle_beta   90.00000000
_cell_angle_gamma   90.00000000
_symmetry_Int_Tables_number   1
_chemical_formula_structural   SiAg6H4W12C8(NO3)12
_chemical_formula_sum   'Si4 Ag24 H16 W48 C32 N48 O144'
_cell_volume   5299.78708829
_cell_formula_units_Z   4
loop_
 _symmetry_equiv_pos_site_id
 _symmetry_equiv_pos_as_xyz
  1  'x, y, z'
loop_
 _atom_site_type_symbol
 _atom_site_label
 _atom_site_symmetry_multiplicity
 _atom_site_fract_x
 _atom_site_fract_y
 _atom_site_fract_z
 _atom_site_occupancy
 _atom_site_charge
Si  Si1  1  0.69950000  0.25000000  0.47080000  1.0 1.5807043766
Si  Si2  1  0.30050000  0.75000000  0.52920000  1.0 1.5807043766
Si  Si3  1  0.69950000  0.75000000  0.02920000  1.0 1.5807043766
Si  Si4  1  0.30050000  0.25000000  0.97080000  1.0 1.5807043766
Ag  Ag1  1  0.09440000  0.42688000  0.26157000  1.0 0.4414244932
Ag  Ag2  1  0.90560000  0.92688000  0.73843000  1.0 0.4414244932
Ag  Ag3  1  0.09440000  0.57312000  0.23843000  1.0 0.4414244932
Ag  Ag4  1  0.90560000  0.07312000  0.76157000  1.0 0.4414244932
Ag  Ag5  1  0.90560000  0.57312000  0.73843000  1.0 0.4414244932
Ag  Ag6  1  0.09440000  0.07312000  0.26157000  1.0 0.4414244932
Ag  Ag7  1  0.90560000  0.42688000  0.76157000  1.0 0.4414244932
Ag  Ag8  1  0.09440000  0.92688000  0.23843000  1.0 0.4414244932
Ag  Ag9  1  0.58365000  0.47209000  0.18851000  1.0 0.3375405823
Ag  Ag10  1  0.41635000  0.97209000  0.81149000  1.0 0.3375405823
Ag  Ag11  1  0.58365000  0.52791000  0.31149000  1.0 0.3375405823
Ag  Ag12  1  0.41635000  0.02791000  0.68851000  1.0 0.3375405823
Ag  Ag13  1  0.41635000  0.52791000  0.81149000  1.0 0.3375405823
Ag  Ag14  1  0.58365000  0.02791000  0.18851000  1.0 0.3375405823
Ag  Ag15  1  0.41635000  0.47209000  0.68851000  1.0 0.3375405823
Ag  Ag16  1  0.58365000  0.97209000  0.31149000  1.0 0.3375405823
Ag  Ag17  1  0.45450000  0.44870000  0.44930000  1.0 0.1801690018
Ag  Ag18  1  0.54550000  0.94870000  0.55070000  1.0 0.1801690018
Ag  Ag19  1  0.45450000  0.55130000  0.05070000  1.0 0.1801690018
Ag  Ag20  1  0.54550000  0.05130000  0.94930000  1.0 0.1801690018
Ag  Ag21  1  0.54550000  0.55130000  0.55070000  1.0 0.1801690018
Ag  Ag22  1  0.45450000  0.05130000  0.44930000  1.0 0.1801690018
Ag  Ag23  1  0.54550000  0.44870000  0.94930000  1.0 0.1801690018
Ag  Ag24  1  0.45450000  0.94870000  0.05070000  1.0 0.1801690018
H  H1  1  0.41460000  0.46960000  0.41130000  1.0 0.1191557874
H  H2  1  0.58540000  0.96960000  0.58870000  1.0 0.1191557874
H  H3  1  0.41460000  0.53040000  0.08870000  1.0 0.1191557874
H  H4  1  0.58540000  0.03040000  0.91130000  1.0 0.1191557874
H  H5  1  0.58540000  0.53040000  0.58870000  1.0 0.1191557874
H  H6  1  0.41460000  0.03040000  0.41130000  1.0 0.1191557874
H  H7  1  0.58540000  0.46960000  0.91130000  1.0 0.1191557874
H  H8  1  0.41460000  0.96960000  0.08870000  1.0 0.1191557874
H  H9  1  0.95200000  0.37480000  0.14280000  1.0 0.1410254702
H  H10  1  0.04800000  0.87480000  0.85720000  1.0 0.1410254702
H  H11  1  0.95200000  0.62520000  0.35720000  1.0 0.1410254702
H  H12  1  0.04800000  0.12520000  0.64280000  1.0 0.1410254702
H  H13  1  0.04800000  0.62520000  0.85720000  1.0 0.1410254702
H  H14  1  0.95200000  0.12520000  0.14280000  1.0 0.1410254702
H  H15  1  0.04800000  0.37480000  0.64280000  1.0 0.1410254702
H  H16  1  0.95200000  0.87480000  0.35720000  1.0 0.1410254702
W  W1  1  0.49789000  0.33413000  0.55603000  1.0 2.3518495714
W  W2  1  0.50211000  0.83413000  0.44397000  1.0 2.3518495714
W  W3  1  0.49789000  0.66587000  0.94397000  1.0 2.3518495714
W  W4  1  0.50211000  0.16587000  0.05603000  1.0 2.3518495714
W  W5  1  0.50211000  0.66587000  0.44397000  1.0 2.3518495714
W  W6  1  0.49789000  0.16587000  0.55603000  1.0 2.3518495714
W  W7  1  0.50211000  0.33413000  0.05603000  1.0 2.3518495714
W  W8  1  0.49789000  0.83413000  0.94397000  1.0 2.3518495714
W  W9  1  0.42328000  0.25000000  0.42870000  1.0 2.442918316
W  W10  1  0.57672000  0.75000000  0.57130000  1.0 2.442918316
W  W11  1  0.42328000  0.75000000  0.07130000  1.0 2.442918316
W  W12  1  0.57672000  0.25000000  0.92870000  1.0 2.442918316
W  W13  1  0.78315000  0.33365000  0.60508000  1.0 2.4187095518
W  W14  1  0.21685000  0.83365000  0.39492000  1.0 2.4187095518
W  W15  1  0.78315000  0.66635000  0.89492000  1.0 2.4187095518
W  W16  1  0.21685000  0.16635000  0.10508000  1.0 2.4187095518
W  W17  1  0.21685000  0.66635000  0.39492000  1.0 2.4187095518
W  W18  1  0.78315000  0.16635000  0.60508000  1.0 2.4187095518
W  W19  1  0.21685000  0.33365000  0.10508000  1.0 2.4187095518
W  W20  1  0.78315000  0.83365000  0.89492000  1.0 2.4187095518
W  W21  1  0.62750000  0.15826000  0.33762000  1.0 2.3765587067
W  W22  1  0.37250000  0.65826000  0.66238000  1.0 2.3765587067
W  W23  1  0.62750000  0.84174000  0.16238000  1.0 2.3765587067
W  W24  1  0.37250000  0.34174000  0.83762000  1.0 2.3765587067
W  W25  1  0.37250000  0.84174000  0.66238000  1.0 2.3765587067
W  W26  1  0.62750000  0.34174000  0.33762000  1.0 2.3765587067
W  W27  1  0.37250000  0.15826000  0.83762000  1.0 2.3765587067
W  W28  1  0.62750000  0.65826000  0.16238000  1.0 2.3765587067
W  W29  1  0.96792000  0.25000000  0.52306000  1.0 2.4187095518
W  W30  1  0.03208000  0.75000000  0.47694000  1.0 2.4187095518
W  W31  1  0.96792000  0.75000000  0.97694000  1.0 2.4187095518
W  W32  1  0.03208000  0.25000000  0.02306000  1.0 2.4187095518
W  W33  1  0.88714000  0.15796000  0.38288000  1.0 2.4004950976
W  W34  1  0.11286000  0.65796000  0.61712000  1.0 2.4004950976
W  W35  1  0.88714000  0.84204000  0.11712000  1.0 2.4004950976
W  W36  1  0.11286000  0.34204000  0.88288000  1.0 2.4004950976
W  W37  1  0.11286000  0.84204000  0.61712000  1.0 2.4004950976
W  W38  1  0.88714000  0.34204000  0.38288000  1.0 2.4004950976
W  W39  1  0.11286000  0.15796000  0.88288000  1.0 2.4004950976
W  W40  1  0.88714000  0.65796000  0.11712000  1.0 2.4004950976
W  W41  1  0.70276000  0.07425000  0.46474000  1.0 2.2989237463
W  W42  1  0.29724000  0.57425000  0.53526000  1.0 2.2989237463
W  W43  1  0.70276000  0.92575000  0.03526000  1.0 2.2989237463
W  W44  1  0.29724000  0.42575000  0.96474000  1.0 2.2989237463
W  W45  1  0.29724000  0.92575000  0.53526000  1.0 2.2989237463
W  W46  1  0.70276000  0.42575000  0.46474000  1.0 2.2989237463
W  W47  1  0.29724000  0.07425000  0.96474000  1.0 2.2989237463
W  W48  1  0.70276000  0.57425000  0.03526000  1.0 2.2989237463
C  C1  1  0.33200000  0.49000000  0.28210000  1.0 0.1904110616
C  C2  1  0.66800000  0.99000000  0.71790000  1.0 0.1904110616
C  C3  1  0.33200000  0.51000000  0.21790000  1.0 0.1904110616
C  C4  1  0.66800000  0.01000000  0.78210000  1.0 0.1904110616
C  C5  1  0.66800000  0.51000000  0.71790000  1.0 0.1904110616
C  C6  1  0.33200000  0.01000000  0.28210000  1.0 0.1904110616
C  C7  1  0.66800000  0.49000000  0.78210000  1.0 0.1904110616
C  C8  1  0.33200000  0.99000000  0.21790000  1.0 0.1904110616
C  C9  1  0.37700000  0.47100000  0.37410000  1.0 0.0847867807
C  C10  1  0.62300000  0.97100000  0.62590000  1.0 0.0847867807
C  C11  1  0.37700000  0.52900000  0.12590000  1.0 0.0847867807
C  C12  1  0.62300000  0.02900000  0.87410000  1.0 0.0847867807
C  C13  1  0.62300000  0.52900000  0.62590000  1.0 0.0847867807
C  C14  1  0.37700000  0.02900000  0.37410000  1.0 0.0847867807
C  C15  1  0.62300000  0.47100000  0.87410000  1.0 0.0847867807
C  C16  1  0.37700000  0.97100000  0.12590000  1.0 0.0847867807
C  C17  1  0.84450000  0.47390000  0.22710000  1.0 0.1801690018
C  C18  1  0.15550000  0.97390000  0.77290000  1.0 0.1801690018
C  C19  1  0.84450000  0.52610000  0.27290000  1.0 0.1801690018
C  C20  1  0.15550000  0.02610000  0.72710000  1.0 0.1801690018
C  C21  1  0.15550000  0.52610000  0.77290000  1.0 0.1801690018
C  C22  1  0.84450000  0.02610000  0.22710000  1.0 0.1801690018
C  C23  1  0.15550000  0.47390000  0.72710000  1.0 0.1801690018
C  C24  1  0.84450000  0.97390000  0.27290000  1.0 0.1801690018
C  C25  1  0.90600000  0.40300000  0.16530000  1.0 0.1410254702
C  C26  1  0.09400000  0.90300000  0.83470000  1.0 0.1410254702
C  C27  1  0.90600000  0.59700000  0.33470000  1.0 0.1410254702
C  C28  1  0.09400000  0.09700000  0.66530000  1.0 0.1410254702
C  C29  1  0.09400000  0.59700000  0.83470000  1.0 0.1410254702
C  C30  1  0.90600000  0.09700000  0.16530000  1.0 0.1410254702
C  C31  1  0.09400000  0.40300000  0.66530000  1.0 0.1410254702
C  C32  1  0.90600000  0.90300000  0.33470000  1.0 0.1410254702
N  N1  1  0.24400000  0.46220000  0.30780000  1.0 -0.1984605784
N  N2  1  0.75600000  0.96220000  0.69220000  1.0 -0.1984605784
N  N3  1  0.24400000  0.53780000  0.19220000  1.0 -0.1984605784
N  N4  1  0.75600000  0.03780000  0.80780000  1.0 -0.1984605784
N  N5  1  0.75600000  0.53780000  0.69220000  1.0 -0.1984605784
N  N6  1  0.24400000  0.03780000  0.30780000  1.0 -0.1984605784
N  N7  1  0.75600000  0.46220000  0.80780000  1.0 -0.1984605784
N  N8  1  0.24400000  0.96220000  0.19220000  1.0 -0.1984605784
N  N9  1  0.27700000  0.44980000  0.36730000  1.0 -0.0935663818
N  N10  1  0.72300000  0.94980000  0.63270000  1.0 -0.0935663818
N  N11  1  0.27700000  0.55020000  0.13270000  1.0 -0.0935663818
N  N12  1  0.72300000  0.05020000  0.86730000  1.0 -0.0935663818
N  N13  1  0.72300000  0.55020000  0.63270000  1.0 -0.0935663818
N  N14  1  0.27700000  0.05020000  0.36730000  1.0 -0.0935663818
N  N15  1  0.72300000  0.44980000  0.86730000  1.0 -0.0935663818
N  N16  1  0.27700000  0.94980000  0.13270000  1.0 -0.0935663818
N  N17  1  0.41630000  0.49430000  0.32240000  1.0 -0.3215787573
N  N18  1  0.58370000  0.99430000  0.67760000  1.0 -0.3215787573
N  N19  1  0.41630000  0.50570000  0.17760000  1.0 -0.3215787573
N  N20  1  0.58370000  0.00570000  0.82240000  1.0 -0.3215787573
N  N21  1  0.58370000  0.50570000  0.67760000  1.0 -0.3215787573
N  N22  1  0.41630000  0.00570000  0.32240000  1.0 -0.3215787573
N  N23  1  0.58370000  0.49430000  0.82240000  1.0 -0.3215787573
N  N24  1  0.41630000  0.99430000  0.17760000  1.0 -0.3215787573
N  N25  1  0.75960000  0.45630000  0.19370000  1.0 -0.1662531192
N  N26  1  0.24040000  0.95630000  0.80630000  1.0 -0.1662531192
N  N27  1  0.75960000  0.54370000  0.30630000  1.0 -0.1662531192
N  N28  1  0.24040000  0.04370000  0.69370000  1.0 -0.1662531192
N  N29  1  0.24040000  0.54370000  0.80630000  1.0 -0.1662531192
N  N30  1  0.75960000  0.04370000  0.19370000  1.0 -0.1662531192
N  N31  1  0.24040000  0.45630000  0.69370000  1.0 -0.1662531192
N  N32  1  0.75960000  0.95630000  0.30630000  1.0 -0.1662531192
N  N33  1  0.93630000  0.44200000  0.21060000  1.0 -0.3215787573
N  N34  1  0.06370000  0.94200000  0.78940000  1.0 -0.3215787573
N  N35  1  0.93630000  0.55800000  0.28940000  1.0 -0.3215787573
N  N36  1  0.06370000  0.05800000  0.71060000  1.0 -0.3215787573
N  N37  1  0.06370000  0.55800000  0.78940000  1.0 -0.3215787573
N  N38  1  0.93630000  0.05800000  0.21060000  1.0 -0.3215787573
N  N39  1  0.06370000  0.44200000  0.71060000  1.0 -0.3215787573
N  N40  1  0.93630000  0.94200000  0.28940000  1.0 -0.3215787573
N  N41  1  0.79900000  0.40800000  0.15620000  1.0 -0.1024082131
N  N42  1  0.20100000  0.90800000  0.84380000  1.0 -0.1024082131
N  N43  1  0.79900000  0.59200000  0.34380000  1.0 -0.1024082131
N  N44  1  0.20100000  0.09200000  0.65620000  1.0 -0.1024082131
N  N45  1  0.20100000  0.59200000  0.84380000  1.0 -0.1024082131
N  N46  1  0.79900000  0.09200000  0.15620000  1.0 -0.1024082131
N  N47  1  0.20100000  0.40800000  0.65620000  1.0 -0.1024082131
N  N48  1  0.79900000  0.90800000  0.34380000  1.0 -0.1024082131
O  O1  1  0.94630000  0.31530000  0.46010000  1.0 -0.9301218038
O  O2  1  0.05370000  0.81530000  0.53990000  1.0 -0.9301218038
O  O3  1  0.94630000  0.68470000  0.03990000  1.0 -0.9301218038
O  O4  1  0.05370000  0.18470000  0.96010000  1.0 -0.9301218038
O  O5  1  0.05370000  0.68470000  0.53990000  1.0 -0.9301218038
O  O6  1  0.94630000  0.18470000  0.46010000  1.0 -0.9301218038
O  O7  1  0.05370000  0.31530000  0.96010000  1.0 -0.9301218038
O  O8  1  0.94630000  0.81530000  0.03990000  1.0 -0.9301218038
O  O9  1  0.83700000  0.07510000  0.42110000  1.0 -0.8541882113
O  O10  1  0.16300000  0.57510000  0.57890000  1.0 -0.8541882113
O  O11  1  0.83700000  0.92490000  0.07890000  1.0 -0.8541882113
O  O12  1  0.16300000  0.42490000  0.92110000  1.0 -0.8582611824
O  O13  1  0.16300000  0.92490000  0.57890000  1.0 -0.8541882113
O  O14  1  0.83700000  0.42490000  0.42110000  1.0 -0.8582611824
O  O15  1  0.16300000  0.07510000  0.92110000  1.0 -0.8541882113
O  O16  1  0.83700000  0.57510000  0.07890000  1.0 -0.8541882113
O  O17  1  0.77510000  0.39340000  0.53660000  1.0 -0.8935719574
O  O18  1  0.22490000  0.89340000  0.46340000  1.0 -0.8935719574
O  O19  1  0.77510000  0.60660000  0.96340000  1.0 -0.8935719574
O  O20  1  0.22490000  0.10660000  0.03660000  1.0 -0.8935719574
O  O21  1  0.22490000  0.60660000  0.46340000  1.0 -0.8935719574
O  O22  1  0.77510000  0.10660000  0.53660000  1.0 -0.8935719574
O  O23  1  0.22490000  0.39340000  0.03660000  1.0 -0.8935719574
O  O24  1  0.77510000  0.89340000  0.96340000  1.0 -0.8935719574
O  O25  1  0.64500000  0.25000000  0.31700000  1.0 -0.9301218038
O  O26  1  0.35500000  0.75000000  0.68300000  1.0 -0.9301218038
O  O27  1  0.64500000  0.75000000  0.18300000  1.0 -0.9301218038
O  O28  1  0.35500000  0.25000000  0.81700000  1.0 -0.9301218038
O  O29  1  0.39520000  0.31530000  0.49120000  1.0 -0.9104311818
O  O30  1  0.60480000  0.81530000  0.50880000  1.0 -0.9104311818
O  O31  1  0.39520000  0.68470000  0.00880000  1.0 -0.9104311818
O  O32  1  0.60480000  0.18470000  0.99120000  1.0 -0.9104311818
O  O33  1  0.60480000  0.68470000  0.50880000  1.0 -0.9104311818
O  O34  1  0.39520000  0.18470000  0.49120000  1.0 -0.9104311818
O  O35  1  0.60480000  0.31530000  0.99120000  1.0 -0.9104311818
O  O36  1  0.39520000  0.81530000  0.00880000  1.0 -0.9104311818
O  O37  1  0.78130000  0.14330000  0.32030000  1.0 -0.9152479018
O  O38  1  0.21870000  0.64330000  0.67970000  1.0 -0.9104311818
O  O39  1  0.78130000  0.85670000  0.17970000  1.0 -0.9152479018
O  O40  1  0.21870000  0.35670000  0.82030000  1.0 -0.9104311818
O  O41  1  0.21870000  0.85670000  0.67970000  1.0 -0.9104311818
O  O42  1  0.78130000  0.35670000  0.32030000  1.0 -0.9152479018
O  O43  1  0.21870000  0.14330000  0.82030000  1.0 -0.9104311818
O  O44  1  0.78130000  0.64330000  0.17970000  1.0 -0.9152479018
O  O45  1  0.89400000  0.25000000  0.36080000  1.0 -0.9006762351
O  O46  1  0.10600000  0.75000000  0.63920000  1.0 -0.9006762351
O  O47  1  0.89400000  0.75000000  0.13920000  1.0 -0.9006762351
O  O48  1  0.10600000  0.25000000  0.86080000  1.0 -0.9006762351
O  O49  1  0.45600000  0.25000000  0.59140000  1.0 -0.8654017493
O  O50  1  0.54400000  0.75000000  0.40860000  1.0 -0.8654017493
O  O51  1  0.45600000  0.75000000  0.90860000  1.0 -0.8582611824
O  O52  1  0.54400000  0.25000000  0.09140000  1.0 -0.8654017493
O  O53  1  0.72320000  0.18370000  0.42990000  1.0 -1.0833351358
O  O54  1  0.27680000  0.68370000  0.57010000  1.0 -1.0833351358
O  O55  1  0.72320000  0.81630000  0.07010000  1.0 -1.0833351358
O  O56  1  0.27680000  0.31630000  0.92990000  1.0 -1.0833351358
O  O57  1  0.27680000  0.81630000  0.57010000  1.0 -1.0833351358
O  O58  1  0.72320000  0.31630000  0.42990000  1.0 -1.0833351358
O  O59  1  0.27680000  0.18370000  0.92990000  1.0 -1.0833351358
O  O60  1  0.72320000  0.68370000  0.07010000  1.0 -1.0833351358
O  O61  1  0.57350000  0.25000000  0.49490000  1.0 -1.0896271909
O  O62  1  0.42650000  0.75000000  0.50510000  1.0 -1.0896271909
O  O63  1  0.57350000  0.75000000  0.00510000  1.0 -1.0896271909
O  O64  1  0.42650000  0.25000000  0.99490000  1.0 -1.0896271909
O  O65  1  0.62680000  0.32780000  0.60260000  1.0 -0.9006762351
O  O66  1  0.37320000  0.82780000  0.39740000  1.0 -0.9006762351
O  O67  1  0.62680000  0.67220000  0.89740000  1.0 -0.9006762351
O  O68  1  0.37320000  0.17220000  0.10260000  1.0 -0.9006762351
O  O69  1  0.37320000  0.67220000  0.39740000  1.0 -0.9006762351
O  O70  1  0.62680000  0.17220000  0.60260000  1.0 -0.9006762351
O  O71  1  0.37320000  0.32780000  0.10260000  1.0 -0.9006762351
O  O72  1  0.62680000  0.82780000  0.89740000  1.0 -0.9006762351
O  O73  1  0.50390000  0.18630000  0.38300000  1.0 -0.951615795
O  O74  1  0.49610000  0.68630000  0.61700000  1.0 -0.951615795
O  O75  1  0.50390000  0.81370000  0.11700000  1.0 -0.951615795
O  O76  1  0.49610000  0.31370000  0.88300000  1.0 -0.951615795
O  O77  1  0.49610000  0.81370000  0.61700000  1.0 -0.951615795
O  O78  1  0.50390000  0.31370000  0.38300000  1.0 -0.951615795
O  O79  1  0.49610000  0.18630000  0.88300000  1.0 -0.951615795
O  O80  1  0.50390000  0.68630000  0.11700000  1.0 -0.951615795
O  O81  1  0.63130000  0.07820000  0.38480000  1.0 -0.9104311818
O  O82  1  0.36870000  0.57820000  0.61520000  1.0 -0.9104311818
O  O83  1  0.63130000  0.92180000  0.11520000  1.0 -0.9104311818
O  O84  1  0.36870000  0.42180000  0.88480000  1.0 -0.9104311818
O  O85  1  0.36870000  0.92180000  0.61520000  1.0 -0.9104311818
O  O86  1  0.63130000  0.42180000  0.38480000  1.0 -0.9104311818
O  O87  1  0.36870000  0.07820000  0.88480000  1.0 -0.9104311818
O  O88  1  0.63130000  0.57820000  0.11520000  1.0 -0.9104311818
O  O89  1  0.80620000  0.38590000  0.66690000  1.0 -0.7043942059
O  O90  1  0.19380000  0.88590000  0.33310000  1.0 -0.7043942059
O  O91  1  0.80620000  0.61410000  0.83310000  1.0 -0.7043942059
O  O92  1  0.19380000  0.11410000  0.16690000  1.0 -0.7043942059
O  O93  1  0.19380000  0.61410000  0.33310000  1.0 -0.7043942059
O  O94  1  0.80620000  0.11410000  0.66690000  1.0 -0.7043942059
O  O95  1  0.19380000  0.38590000  0.16690000  1.0 -0.7043942059
O  O96  1  0.80620000  0.88590000  0.83310000  1.0 -0.7043942059
O  O97  1  0.78100000  0.25000000  0.52950000  1.0 -1.0833351358
O  O98  1  0.21900000  0.75000000  0.47050000  1.0 -1.0833351358
O  O99  1  0.78100000  0.75000000  0.97050000  1.0 -1.0833351358
O  O100  1  0.21900000  0.25000000  0.02950000  1.0 -1.0833351358
O  O101  1  0.69400000  0.99180000  0.48030000  1.0 -0.6550374473
O  O102  1  0.30600000  0.49180000  0.51970000  1.0 -0.6515088203
O  O103  1  0.69400000  0.00820000  0.01970000  1.0 -0.6515088203
O  O104  1  0.30600000  0.50820000  0.98030000  1.0 -0.6515088203
O  O105  1  0.30600000  0.00820000  0.51970000  1.0 -0.6515088203
O  O106  1  0.69400000  0.50820000  0.48030000  1.0 -0.6515088203
O  O107  1  0.30600000  0.99180000  0.98030000  1.0 -0.6550374473
O  O108  1  0.69400000  0.49180000  0.01970000  1.0 -0.6550374473
O  O109  1  0.57050000  0.39450000  0.50480000  1.0 -0.8541882113
O  O110  1  0.42950000  0.89450000  0.49520000  1.0 -0.8582611824
O  O111  1  0.57050000  0.60550000  0.99520000  1.0 -0.8541882113
O  O112  1  0.42950000  0.10550000  0.00480000  1.0 -0.8541882113
O  O113  1  0.42950000  0.60550000  0.49520000  1.0 -0.8541882113
O  O114  1  0.57050000  0.10550000  0.50480000  1.0 -0.8541882113
O  O115  1  0.42950000  0.39450000  0.00480000  1.0 -0.8541882113
O  O116  1  0.57050000  0.89450000  0.99520000  1.0 -0.8541882113
O  O117  1  0.41900000  0.38490000  0.60010000  1.0 -0.6515088203
O  O118  1  0.58100000  0.88490000  0.39990000  1.0 -0.6515088203
O  O119  1  0.41900000  0.61510000  0.89990000  1.0 -0.6515088203
O  O120  1  0.58100000  0.11510000  0.10010000  1.0 -0.6515088203
O  O121  1  0.58100000  0.61510000  0.39990000  1.0 -0.6515088203
O  O122  1  0.41900000  0.11510000  0.60010000  1.0 -0.6515088203
O  O123  1  0.58100000  0.38490000  0.10010000  1.0 -0.6515088203
O  O124  1  0.41900000  0.88490000  0.89990000  1.0 -0.6515088203
O  O125  1  0.93270000  0.31690000  0.58570000  1.0 -0.951615795
O  O126  1  0.06730000  0.81690000  0.41430000  1.0 -0.951615795
O  O127  1  0.93270000  0.68310000  0.91430000  1.0 -0.951615795
O  O128  1  0.06730000  0.18310000  0.08570000  1.0 -0.951615795
O  O129  1  0.06730000  0.68310000  0.41430000  1.0 -0.951615795
O  O130  1  0.93270000  0.18310000  0.58570000  1.0 -0.951615795
O  O131  1  0.06730000  0.31690000  0.08570000  1.0 -0.951615795
O  O132  1  0.93270000  0.81690000  0.91430000  1.0 -0.951615795
O  O133  1  0.78000000  0.25000000  0.65000000  1.0 -0.880675524
O  O134  1  0.22000000  0.75000000  0.35000000  1.0 -0.880675524
O  O135  1  0.78000000  0.75000000  0.85000000  1.0 -0.880675524
O  O136  1  0.22000000  0.25000000  0.15000000  1.0 -0.880675524
O  O137  1  0.99600000  0.12880000  0.34560000  1.0 -0.6422608937
O  O138  1  0.00400000  0.62880000  0.65440000  1.0 -0.6422608937
O  O139  1  0.99600000  0.87120000  0.15440000  1.0 -0.6422608937
O  O140  1  0.00400000  0.37120000  0.84560000  1.0 -0.6422608937
O  O141  1  0.00400000  0.87120000  0.65440000  1.0 -0.6422608937
O  O142  1  0.99600000  0.37120000  0.34560000  1.0 -0.6422608937
O  O143  1  0.00400000  0.12880000  0.84560000  1.0 -0.6422608937
O  O144  1  0.99600000  0.62880000  0.15440000  1.0 -0.6422608937
