# DDEC6 charges by PACMAN v1.1 (https://github.com/mtap-research/PACMAN-charge/)
data_PIZNOB_FSR_pacman
_symmetry_space_group_name_H-M   'P 1'
_cell_length_a   8.71400000
_cell_length_b   9.32500000
_cell_length_c   10.27500000
_cell_angle_alpha   85.16000000
_cell_angle_beta   107.63000000
_cell_angle_gamma   116.19000000
_symmetry_Int_Tables_number   1
_chemical_formula_structural   Eu(C3O4)2
_chemical_formula_sum   'Eu2 C12 O16'
_cell_volume   712.83307739
_cell_formula_units_Z   2
loop_
 _symmetry_equiv_pos_site_id
 _symmetry_equiv_pos_as_xyz
  1  'x, y, z'
loop_
 _atom_site_type_symbol
 _atom_site_label
 _atom_site_symmetry_multiplicity
 _atom_site_fract_x
 _atom_site_fract_y
 _atom_site_fract_z
 _atom_site_occupancy
 _atom_site_charge
Eu  Eu1  1  0.75630000  0.00000000  0.01910000  1.0 1.9935932742
Eu  Eu2  1  0.24370000  0.00000000  0.98090000  1.0 1.9935932742
C  C1  1  0.43870000  0.72790000  0.07980000  1.0 0.6414927976
C  C2  1  0.56130000  0.27210000  0.92020000  1.0 0.6414927976
C  C3  1  0.28160000  0.57750000  0.08820000  1.0 -0.0909013873
C  C4  1  0.71840000  0.42250000  0.91180000  1.0 -0.0909013873
C  C5  1  0.28120000  0.43550000  0.08400000  1.0 -0.0690312148
C  C6  1  0.71880000  0.56450000  0.91600000  1.0 -0.0690312148
C  C7  1  0.11810000  0.28210000  0.07670000  1.0 0.6414927976
C  C8  1  0.88190000  0.71790000  0.92330000  1.0 0.6414927976
C  C9  1  0.87580000  0.01590000  0.31170000  1.0 0.6049002395
C  C10  1  0.12420000  0.98410000  0.68830000  1.0 0.6068108068
C  C11  1  0.93850000  0.02300000  0.46610000  1.0 -0.0690312148
C  C12  1  0.06150000  0.97700000  0.53390000  1.0 -0.0690312148
O  O1  1  0.41700000  0.85270000  0.04600000  1.0 -0.6743084206
O  O2  1  0.58300000  0.14730000  0.95400000  1.0 -0.6743084206
O  O3  1  0.59000000  0.73000000  0.10000000  1.0 -0.578545989
O  O4  1  0.41000000  0.27000000  0.90000000  1.0 -0.578545989
O  O5  1  0.11780000  0.15470000  0.04240000  1.0 -0.6743084206
O  O6  1  0.88220000  0.84530000  0.95760000  1.0 -0.6743084206
O  O7  1  0.98320000  0.28010000  0.09840000  1.0 -0.5733424141
O  O8  1  0.01680000  0.71990000  0.90160000  1.0 -0.5733424141
O  O9  1  0.94770000  0.97300000  0.24400000  1.0 -0.5617698742
O  O10  1  0.05230000  0.02700000  0.75600000  1.0 -0.5617698742
O  O11  1  0.75010000  0.05560000  0.25330000  1.0 -0.5733424141
O  O12  1  0.24990000  0.94440000  0.74670000  1.0 -0.5733424141
O  O13  1  0.82810000  0.13340000  0.81080000  1.0 0.0281191995
O  O14  1  0.17190000  0.86660000  0.18920000  1.0 0.0281191995
O  O15  1  0.51950000  0.83330000  0.81150000  1.0 -0.0486316285
O  O16  1  0.48050000  0.16670000  0.18850000  1.0 -0.0433128564
