# DDEC6 charges by PACMAN v1.1 (https://github.com/mtap-research/PACMAN-charge/)
data_PIZPET_ASR_pacman
_symmetry_space_group_name_H-M   'P 1'
_cell_length_a   8.48600000
_cell_length_b   17.27100000
_cell_length_c   9.73700000
_cell_angle_alpha   90.00000000
_cell_angle_beta   112.25000000
_cell_angle_gamma   90.00000000
_symmetry_Int_Tables_number   1
_chemical_formula_structural   Y(CO)6
_chemical_formula_sum   'Y4 C24 O24'
_cell_volume   1320.81231926
_cell_formula_units_Z   4
loop_
 _symmetry_equiv_pos_site_id
 _symmetry_equiv_pos_as_xyz
  1  'x, y, z'
loop_
 _atom_site_type_symbol
 _atom_site_label
 _atom_site_symmetry_multiplicity
 _atom_site_fract_x
 _atom_site_fract_y
 _atom_site_fract_z
 _atom_site_occupancy
 _atom_site_charge
Y  Y1  1  0.84400000  0.25750000  0.02450000  1.0 1.8137033397
Y  Y2  1  0.15600000  0.75750000  0.47550000  1.0 1.8137033397
Y  Y3  1  0.15600000  0.74250000  0.97550000  1.0 1.8137033397
Y  Y4  1  0.84400000  0.24250000  0.52450000  1.0 1.8137033397
C  C1  1  0.90370000  0.09780000  0.02500000  1.0 0.5878664517
C  C2  1  0.09630000  0.59780000  0.47500000  1.0 0.5878664517
C  C3  1  0.09630000  0.90220000  0.97500000  1.0 0.5878664517
C  C4  1  0.90370000  0.40220000  0.52500000  1.0 0.5878664517
C  C5  1  0.94650000  0.01460000  0.02870000  1.0 -0.0540621149
C  C6  1  0.05350000  0.51460000  0.47130000  1.0 -0.0556874535
C  C7  1  0.05350000  0.98540000  0.97130000  1.0 -0.0556874535
C  C8  1  0.94650000  0.48540000  0.52870000  1.0 -0.0540621149
C  C9  1  0.56080000  0.21060000  0.69820000  1.0 0.6705897266
C  C10  1  0.43920000  0.71060000  0.80180000  1.0 0.6705897266
C  C11  1  0.43920000  0.78940000  0.30180000  1.0 0.6705897266
C  C12  1  0.56080000  0.28940000  0.19820000  1.0 0.6705897266
C  C13  1  0.37940000  0.19900000  0.60610000  1.0 -0.10859346
C  C14  1  0.62060000  0.69900000  0.89390000  1.0 -0.10859346
C  C15  1  0.62060000  0.80100000  0.39390000  1.0 -0.10859346
C  C16  1  0.37940000  0.30100000  0.10610000  1.0 -0.10859346
C  C17  1  0.31320000  0.28250000  0.96020000  1.0 -0.0556874535
C  C18  1  0.68680000  0.78250000  0.53980000  1.0 -0.0540621149
C  C19  1  0.68680000  0.71750000  0.03980000  1.0 -0.0540621149
C  C20  1  0.31320000  0.21750000  0.46020000  1.0 -0.0556874535
C  C21  1  0.12730000  0.28660000  0.86670000  1.0 0.6643935257
C  C22  1  0.87270000  0.78660000  0.63330000  1.0 0.6643935257
C  C23  1  0.87270000  0.71340000  0.13330000  1.0 0.6643935257
C  C24  1  0.12730000  0.21340000  0.36670000  1.0 0.6643935257
O  O1  1  0.96400000  0.14460000  0.95390000  1.0 -0.606536834
O  O2  1  0.03600000  0.64460000  0.54610000  1.0 -0.5989748424
O  O3  1  0.03600000  0.85540000  0.04610000  1.0 -0.5989748424
O  O4  1  0.96400000  0.35540000  0.45390000  1.0 -0.606536834
O  O5  1  0.81360000  0.12150000  0.09070000  1.0 -0.4879001117
O  O6  1  0.18640000  0.62150000  0.40930000  1.0 -0.4879001117
O  O7  1  0.18640000  0.87850000  0.90930000  1.0 -0.4879001117
O  O8  1  0.81360000  0.37850000  0.59070000  1.0 -0.4879001117
O  O9  1  0.66370000  0.22900000  0.63980000  1.0 -0.6302928513
O  O10  1  0.33630000  0.72900000  0.86020000  1.0 -0.6302928513
O  O11  1  0.33630000  0.77100000  0.36020000  1.0 -0.6302928513
O  O12  1  0.66370000  0.27100000  0.13980000  1.0 -0.6302928513
O  O13  1  0.60310000  0.20320000  0.83780000  1.0 -0.5989748424
O  O14  1  0.39690000  0.70320000  0.66220000  1.0 -0.5989748424
O  O15  1  0.39690000  0.79680000  0.16220000  1.0 -0.5989748424
O  O16  1  0.60310000  0.29680000  0.33780000  1.0 -0.5989748424
O  O17  1  0.02460000  0.30480000  0.92470000  1.0 -0.606536834
O  O18  1  0.97540000  0.80480000  0.57530000  1.0 -0.606536834
O  O19  1  0.97540000  0.69520000  0.07530000  1.0 -0.606536834
O  O20  1  0.02460000  0.19520000  0.42470000  1.0 -0.606536834
O  O21  1  0.08870000  0.26880000  0.73300000  1.0 -0.5917495376
O  O22  1  0.91130000  0.76880000  0.76700000  1.0 -0.5917495376
O  O23  1  0.91130000  0.73120000  0.26700000  1.0 -0.5917495376
O  O24  1  0.08870000  0.23120000  0.23300000  1.0 -0.5917495376
