# DDEC6 charges by PACMAN v1.1 (https://github.com/mtap-research/PACMAN-charge/)
data_PIZPOD_ASR_pacman
_symmetry_space_group_name_H-M   'P 1'
_cell_length_a   8.42600000
_cell_length_b   17.15900000
_cell_length_c   9.62900000
_cell_angle_alpha   90.00000000
_cell_angle_beta   112.14000000
_cell_angle_gamma   90.00000000
_symmetry_Int_Tables_number   1
_chemical_formula_structural   Lu(CO)6
_chemical_formula_sum   'Lu4 C24 O24'
_cell_volume   1289.52635305
_cell_formula_units_Z   4
loop_
 _symmetry_equiv_pos_site_id
 _symmetry_equiv_pos_as_xyz
  1  'x, y, z'
loop_
 _atom_site_type_symbol
 _atom_site_label
 _atom_site_symmetry_multiplicity
 _atom_site_fract_x
 _atom_site_fract_y
 _atom_site_fract_z
 _atom_site_occupancy
 _atom_site_charge
Lu  Lu1  1  0.84420000  0.25710000  0.02560000  1.0 1.6061143783
Lu  Lu2  1  0.15580000  0.75710000  0.47440000  1.0 1.6061143783
Lu  Lu3  1  0.15580000  0.74290000  0.97440000  1.0 1.6061143783
Lu  Lu4  1  0.84420000  0.24290000  0.52560000  1.0 1.6061143783
C  C1  1  0.90670000  0.09840000  0.02580000  1.0 0.5636758712
C  C2  1  0.09330000  0.59840000  0.47420000  1.0 0.5658516792
C  C3  1  0.09330000  0.90160000  0.97420000  1.0 0.5658516792
C  C4  1  0.90670000  0.40160000  0.52580000  1.0 0.5636758712
C  C5  1  0.94660000  0.01440000  0.03420000  1.0 -0.0233341418
C  C6  1  0.05340000  0.51440000  0.46580000  1.0 -0.0233341418
C  C7  1  0.05340000  0.98560000  0.96580000  1.0 -0.0257878359
C  C8  1  0.94660000  0.48560000  0.53420000  1.0 -0.0257878359
C  C9  1  0.56340000  0.28890000  0.19640000  1.0 0.6606084314
C  C10  1  0.43660000  0.78890000  0.30360000  1.0 0.6606084314
C  C11  1  0.43660000  0.71110000  0.80360000  1.0 0.6606084314
C  C12  1  0.56340000  0.21110000  0.69640000  1.0 0.6606084314
C  C13  1  0.37790000  0.30060000  0.10310000  1.0 -0.0644552986
C  C14  1  0.62210000  0.80060000  0.39690000  1.0 -0.0644552986
C  C15  1  0.62210000  0.69940000  0.89690000  1.0 -0.0644552986
C  C16  1  0.37790000  0.19940000  0.60310000  1.0 -0.0644552986
C  C17  1  0.31200000  0.28270000  0.95790000  1.0 -0.0854589026
C  C18  1  0.68800000  0.78270000  0.54210000  1.0 -0.0854589026
C  C19  1  0.68800000  0.71730000  0.04210000  1.0 -0.0854589026
C  C20  1  0.31200000  0.21730000  0.45790000  1.0 -0.0854589026
C  C21  1  0.12780000  0.21420000  0.36430000  1.0 0.6606084314
C  C22  1  0.87220000  0.71420000  0.13570000  1.0 0.6606084314
C  C23  1  0.87220000  0.78580000  0.63570000  1.0 0.6606084314
C  C24  1  0.12780000  0.28580000  0.86430000  1.0 0.6606084314
O  O1  1  0.96570000  0.14530000  0.95420000  1.0 -0.5659340712
O  O2  1  0.03430000  0.64530000  0.54580000  1.0 -0.5659340712
O  O3  1  0.03430000  0.85470000  0.04580000  1.0 -0.5659340712
O  O4  1  0.96570000  0.35470000  0.45420000  1.0 -0.5659340712
O  O5  1  0.81350000  0.12330000  0.09280000  1.0 -0.5030000898
O  O6  1  0.18650000  0.62330000  0.40720000  1.0 -0.5030000898
O  O7  1  0.18650000  0.87670000  0.90720000  1.0 -0.5030000898
O  O8  1  0.81350000  0.37670000  0.59280000  1.0 -0.5030000898
O  O9  1  0.66250000  0.26960000  0.13490000  1.0 -0.5760494563
O  O10  1  0.33750000  0.76960000  0.36510000  1.0 -0.5760494563
O  O11  1  0.33750000  0.73040000  0.86510000  1.0 -0.5760494563
O  O12  1  0.66250000  0.23040000  0.63490000  1.0 -0.5760494563
O  O13  1  0.60690000  0.29630000  0.33550000  1.0 -0.5447179171
O  O14  1  0.39310000  0.79630000  0.16450000  1.0 -0.5447179171
O  O15  1  0.39310000  0.70370000  0.66450000  1.0 -0.5454387757
O  O16  1  0.60690000  0.20370000  0.83550000  1.0 -0.5454387757
O  O17  1  0.02240000  0.19470000  0.42390000  1.0 -0.5936430487
O  O18  1  0.97760000  0.69470000  0.07610000  1.0 -0.5936430487
O  O19  1  0.97760000  0.80530000  0.57610000  1.0 -0.5936430487
O  O20  1  0.02240000  0.30530000  0.92390000  1.0 -0.5936430487
O  O21  1  0.08540000  0.23120000  0.23010000  1.0 -0.5339148137
O  O22  1  0.91460000  0.73120000  0.26990000  1.0 -0.5339148137
O  O23  1  0.91460000  0.76880000  0.76990000  1.0 -0.5339148137
O  O24  1  0.08540000  0.26880000  0.73010000  1.0 -0.5339148137
