# DDEC6 charges by PACMAN v1.1 (https://github.com/mtap-research/PACMAN-charge/)
data_PIZPAP_FSR_pacman
_symmetry_space_group_name_H-M   'P 1'
_cell_length_a   8.52300000
_cell_length_b   17.31400000
_cell_length_c   9.76400000
_cell_angle_alpha   90.00000000
_cell_angle_beta   112.25000000
_cell_angle_gamma   90.00000000
_symmetry_Int_Tables_number   1
_chemical_formula_structural   Tb(C3O4)2
_chemical_formula_sum   'Tb4 C24 O32'
_cell_volume   1333.56166218
_cell_formula_units_Z   4
loop_
 _symmetry_equiv_pos_site_id
 _symmetry_equiv_pos_as_xyz
  1  'x, y, z'
loop_
 _atom_site_type_symbol
 _atom_site_label
 _atom_site_symmetry_multiplicity
 _atom_site_fract_x
 _atom_site_fract_y
 _atom_site_fract_z
 _atom_site_occupancy
 _atom_site_charge
Tb  Tb1  1  0.84310000  0.25770000  0.02600000  1.0 2.0169305135
Tb  Tb2  1  0.15690000  0.75770000  0.47400000  1.0 2.0169305135
Tb  Tb3  1  0.15690000  0.74230000  0.97400000  1.0 2.0135804941
Tb  Tb4  1  0.84310000  0.24230000  0.52600000  1.0 2.0169305135
C  C1  1  0.90590000  0.09750000  0.02290000  1.0 0.6068227419
C  C2  1  0.09410000  0.59750000  0.47710000  1.0 0.6068227419
C  C3  1  0.09410000  0.90250000  0.97710000  1.0 0.6068227419
C  C4  1  0.90590000  0.40250000  0.52290000  1.0 0.6049061347
C  C5  1  0.94630000  0.01310000  0.02790000  1.0 -0.0495502199
C  C6  1  0.05370000  0.51310000  0.47210000  1.0 -0.0495502199
C  C7  1  0.05370000  0.98690000  0.97210000  1.0 -0.0495502199
C  C8  1  0.94630000  0.48690000  0.52790000  1.0 -0.0495502199
C  C9  1  0.55770000  0.28970000  0.20180000  1.0 0.6854800512
C  C10  1  0.44230000  0.78970000  0.29820000  1.0 0.6854800512
C  C11  1  0.44230000  0.71030000  0.79820000  1.0 0.6830428173
C  C12  1  0.55770000  0.21030000  0.70180000  1.0 0.6830428173
C  C13  1  0.37440000  0.30180000  0.10540000  1.0 -0.081592239
C  C14  1  0.62560000  0.80180000  0.39460000  1.0 -0.081592239
C  C15  1  0.62560000  0.69820000  0.89460000  1.0 -0.081592239
C  C16  1  0.37440000  0.19820000  0.60540000  1.0 -0.081592239
C  C17  1  0.31340000  0.28320000  0.96220000  1.0 -0.081592239
C  C18  1  0.68660000  0.78320000  0.53780000  1.0 -0.081592239
C  C19  1  0.68660000  0.71680000  0.03780000  1.0 -0.081592239
C  C20  1  0.31340000  0.21680000  0.46220000  1.0 -0.081592239
C  C21  1  0.12970000  0.28650000  0.86830000  1.0 0.6952359606
C  C22  1  0.87030000  0.78650000  0.63170000  1.0 0.6952359606
C  C23  1  0.87030000  0.71350000  0.13170000  1.0 0.6952359606
C  C24  1  0.12970000  0.21350000  0.36830000  1.0 0.6952359606
O  O1  1  0.96440000  0.14410000  0.95610000  1.0 -0.5869351099
O  O2  1  0.03560000  0.64410000  0.54390000  1.0 -0.5869351099
O  O3  1  0.03560000  0.85590000  0.04390000  1.0 -0.5869351099
O  O4  1  0.96440000  0.35590000  0.45610000  1.0 -0.584941573
O  O5  1  0.81370000  0.12040000  0.09190000  1.0 -0.5869351099
O  O6  1  0.18630000  0.62040000  0.40810000  1.0 -0.5869351099
O  O7  1  0.18630000  0.87960000  0.90810000  1.0 -0.5869351099
O  O8  1  0.81370000  0.37960000  0.59190000  1.0 -0.5869351099
O  O9  1  0.66110000  0.27030000  0.14520000  1.0 -0.6466681431
O  O10  1  0.33890000  0.77030000  0.35480000  1.0 -0.6466681431
O  O11  1  0.33890000  0.72970000  0.85480000  1.0 -0.6402128647
O  O12  1  0.66110000  0.22970000  0.64520000  1.0 -0.6466681431
O  O13  1  0.59850000  0.29670000  0.33930000  1.0 -0.6103231977
O  O14  1  0.40150000  0.79670000  0.16070000  1.0 -0.6103231977
O  O15  1  0.40150000  0.70330000  0.66070000  1.0 -0.6103231977
O  O16  1  0.59850000  0.20330000  0.83930000  1.0 -0.6103231977
O  O17  1  0.02350000  0.30520000  0.92380000  1.0 -0.6402128647
O  O18  1  0.97650000  0.80520000  0.57620000  1.0 -0.6402128647
O  O19  1  0.97650000  0.69480000  0.07620000  1.0 -0.6402128647
O  O20  1  0.02350000  0.19480000  0.42380000  1.0 -0.6402128647
O  O21  1  0.08980000  0.26950000  0.73490000  1.0 -0.6207886409
O  O22  1  0.91020000  0.76950000  0.76510000  1.0 -0.6207886409
O  O23  1  0.91020000  0.73050000  0.26510000  1.0 -0.6207886409
O  O24  1  0.08980000  0.23050000  0.23490000  1.0 -0.6207886409
O  O25  1  0.92810000  0.37890000  0.16770000  1.0 0.0302715688
O  O26  1  0.07190000  0.87890000  0.33230000  1.0 0.0302715688
O  O27  1  0.07190000  0.62110000  0.83230000  1.0 0.0302715688
O  O28  1  0.92810000  0.12110000  0.66770000  1.0 0.0302715688
O  O29  1  0.69050000  0.36420000  0.86760000  1.0 -0.129720002
O  O30  1  0.30950000  0.86420000  0.63240000  1.0 -0.129720002
O  O31  1  0.30950000  0.63580000  0.13240000  1.0 -0.129720002
O  O32  1  0.69050000  0.13580000  0.36760000  1.0 -0.129720002
