# DDEC6 charges by PACMAN v1.1 (https://github.com/mtap-research/PACMAN-charge/)
data_PIZPIX01_FSR_pacman
_symmetry_space_group_name_H-M   'P 1'
_cell_length_a   8.45700000
_cell_length_b   17.22500000
_cell_length_c   9.69000000
_cell_angle_alpha   90.00000000
_cell_angle_beta   112.22000000
_cell_angle_gamma   90.00000000
_symmetry_Int_Tables_number   1
_chemical_formula_structural   ErH8(C3O4)2
_chemical_formula_sum   'Er4 H32 C24 O32'
_cell_volume   1306.73561599
_cell_formula_units_Z   4
loop_
 _symmetry_equiv_pos_site_id
 _symmetry_equiv_pos_as_xyz
  1  'x, y, z'
loop_
 _atom_site_type_symbol
 _atom_site_label
 _atom_site_symmetry_multiplicity
 _atom_site_fract_x
 _atom_site_fract_y
 _atom_site_fract_z
 _atom_site_occupancy
 _atom_site_charge
Er  Er1  1  0.34414000  0.25740000  0.02392000  1.0 2.0392268122
Er  Er2  1  0.65586000  0.75740000  0.47608000  1.0 2.0392268122
Er  Er3  1  0.65586000  0.74260000  0.97608000  1.0 2.0392268122
Er  Er4  1  0.34414000  0.24260000  0.52392000  1.0 2.0392268122
H  H1  1  0.39100000  0.98000000  0.08300000  1.0 0.1232035429
H  H2  1  0.60900000  0.48000000  0.41700000  1.0 0.1232035429
H  H3  1  0.60900000  0.02000000  0.91700000  1.0 0.1232035429
H  H4  1  0.39100000  0.52000000  0.58300000  1.0 0.1232035429
H  H5  1  0.80600000  0.31800000  0.15600000  1.0 0.1454813675
H  H6  1  0.19400000  0.81800000  0.34400000  1.0 0.1454813675
H  H7  1  0.19400000  0.68200000  0.84400000  1.0 0.1454813675
H  H8  1  0.80600000  0.18200000  0.65600000  1.0 0.1454813675
H  H9  1  0.85900000  0.27000000  0.90400000  1.0 0.139844668
H  H10  1  0.14100000  0.77000000  0.59600000  1.0 0.139844668
H  H11  1  0.14100000  0.73000000  0.09600000  1.0 0.139844668
H  H12  1  0.85900000  0.23000000  0.40400000  1.0 0.139844668
H  H13  1  0.34320000  0.41480000  0.17370000  1.0 0.2142563657
H  H14  1  0.65680000  0.91480000  0.32630000  1.0 0.2142563657
H  H15  1  0.65680000  0.58520000  0.82630000  1.0 0.2142563657
H  H16  1  0.34320000  0.08520000  0.67370000  1.0 0.2142563657
H  H17  1  0.45410000  0.36610000  0.24720000  1.0 0.2923847855
H  H18  1  0.54590000  0.86610000  0.25280000  1.0 0.2923847855
H  H19  1  0.54590000  0.63390000  0.75280000  1.0 0.2923847855
H  H20  1  0.45410000  0.13390000  0.74720000  1.0 0.2923847855
H  H21  1  0.21430000  0.40590000  0.89400000  1.0 0.2653967858
H  H22  1  0.78570000  0.90590000  0.60600000  1.0 0.2653967858
H  H23  1  0.78570000  0.59410000  0.10600000  1.0 0.2653967858
H  H24  1  0.21430000  0.09410000  0.39400000  1.0 0.2653967858
H  H25  1  0.10310000  0.36730000  0.80030000  1.0 0.2923847855
H  H26  1  0.89690000  0.86730000  0.69970000  1.0 0.2923847855
H  H27  1  0.89690000  0.63270000  0.19970000  1.0 0.2923847855
H  H28  1  0.10310000  0.13270000  0.30030000  1.0 0.2923847855
H  H29  1  0.48310000  0.43890000  0.13220000  1.0 0.3376245917
H  H30  1  0.51690000  0.93890000  0.36780000  1.0 0.3376245917
H  H31  1  0.51690000  0.56110000  0.86780000  1.0 0.3376245917
H  H32  1  0.48310000  0.06110000  0.63220000  1.0 0.3376245917
C  C1  1  0.06110000  0.28920000  0.19860000  1.0 0.6814803004
C  C2  1  0.93890000  0.78920000  0.30140000  1.0 0.6814803004
C  C3  1  0.93890000  0.71080000  0.80140000  1.0 0.6814803004
C  C4  1  0.06110000  0.21080000  0.69860000  1.0 0.6814803004
C  C5  1  0.87650000  0.30100000  0.10270000  1.0 -0.179487507
C  C6  1  0.12350000  0.80100000  0.39730000  1.0 -0.179487507
C  C7  1  0.12350000  0.69900000  0.89730000  1.0 -0.179487507
C  C8  1  0.87650000  0.19900000  0.60270000  1.0 -0.179487507
C  C9  1  0.81290000  0.28330000  0.96200000  1.0 -0.179487507
C  C10  1  0.18710000  0.78330000  0.53800000  1.0 -0.179487507
C  C11  1  0.18710000  0.71670000  0.03800000  1.0 -0.179487507
C  C12  1  0.81290000  0.21670000  0.46200000  1.0 -0.179487507
C  C13  1  0.62890000  0.28620000  0.86740000  1.0 0.6894297421
C  C14  1  0.37110000  0.78620000  0.63260000  1.0 0.6894297421
C  C15  1  0.37110000  0.71380000  0.13260000  1.0 0.6894297421
C  C16  1  0.62890000  0.21380000  0.36740000  1.0 0.6894297421
C  C17  1  0.40530000  0.09850000  0.02560000  1.0 0.6059954584
C  C18  1  0.59470000  0.59850000  0.47440000  1.0 0.6059954584
C  C19  1  0.59470000  0.90150000  0.97440000  1.0 0.6059954584
C  C20  1  0.40530000  0.40150000  0.52560000  1.0 0.6059954584
C  C21  1  0.44590000  0.01450000  0.02870000  1.0 -0.179487507
C  C22  1  0.55410000  0.51450000  0.47130000  1.0 -0.179487507
C  C23  1  0.55410000  0.98550000  0.97130000  1.0 -0.179487507
C  C24  1  0.44590000  0.48550000  0.52870000  1.0 -0.179487507
O  O1  1  0.16340000  0.27000000  0.13900000  1.0 -0.7090019166
O  O2  1  0.83660000  0.77000000  0.36100000  1.0 -0.7090019166
O  O3  1  0.83660000  0.73000000  0.86100000  1.0 -0.7090019166
O  O4  1  0.16340000  0.23000000  0.63900000  1.0 -0.7090019166
O  O5  1  0.10320000  0.29640000  0.33630000  1.0 -0.6484924435
O  O6  1  0.89680000  0.79640000  0.16370000  1.0 -0.6484924435
O  O7  1  0.89680000  0.70360000  0.66370000  1.0 -0.6484924435
O  O8  1  0.10320000  0.20360000  0.83630000  1.0 -0.6484924435
O  O9  1  0.52390000  0.30540000  0.92400000  1.0 -0.6679562111
O  O10  1  0.47610000  0.80540000  0.57600000  1.0 -0.6679562111
O  O11  1  0.47610000  0.69460000  0.07600000  1.0 -0.6679562111
O  O12  1  0.52390000  0.19460000  0.42400000  1.0 -0.6679562111
O  O13  1  0.58820000  0.26870000  0.73160000  1.0 -0.6679562111
O  O14  1  0.41180000  0.76870000  0.76840000  1.0 -0.6679562111
O  O15  1  0.41180000  0.73130000  0.26840000  1.0 -0.6679562111
O  O16  1  0.58820000  0.23130000  0.23160000  1.0 -0.6679562111
O  O17  1  0.31420000  0.12210000  0.09160000  1.0 -0.5874957024
O  O18  1  0.68580000  0.62210000  0.40840000  1.0 -0.5874957024
O  O19  1  0.68580000  0.87790000  0.90840000  1.0 -0.5874957024
O  O20  1  0.31420000  0.37790000  0.59160000  1.0 -0.5874957024
O  O21  1  0.46440000  0.14520000  0.95460000  1.0 -0.6578480183
O  O22  1  0.53560000  0.64520000  0.54540000  1.0 -0.6578480183
O  O23  1  0.53560000  0.85480000  0.04540000  1.0 -0.6578480183
O  O24  1  0.46440000  0.35480000  0.45460000  1.0 -0.6578480183
O  O25  1  0.42650000  0.37820000  0.16170000  1.0 -0.6679562111
O  O26  1  0.57350000  0.87820000  0.33830000  1.0 -0.6679562111
O  O27  1  0.57350000  0.62180000  0.83830000  1.0 -0.6679562111
O  O28  1  0.42650000  0.12180000  0.66170000  1.0 -0.6679562111
O  O29  1  0.19730000  0.36290000  0.86620000  1.0 -0.6815399706
O  O30  1  0.80270000  0.86290000  0.63380000  1.0 -0.6815399706
O  O31  1  0.80270000  0.63710000  0.13380000  1.0 -0.6815399706
O  O32  1  0.19730000  0.13710000  0.36620000  1.0 -0.6815399706
