# DDEC6 charges by PACMAN v1.1 (https://github.com/mtap-research/PACMAN-charge/)
data_PIZPIX_FSR_pacman
_symmetry_space_group_name_H-M   'P 1'
_cell_length_a   8.47800000
_cell_length_b   17.24300000
_cell_length_c   9.69500000
_cell_angle_alpha   90.00000000
_cell_angle_beta   112.28000000
_cell_angle_gamma   90.00000000
_symmetry_Int_Tables_number   1
_chemical_formula_structural   Er(C3O4)2
_chemical_formula_sum   'Er4 C24 O32'
_cell_volume   1311.46402988
_cell_formula_units_Z   4
loop_
 _symmetry_equiv_pos_site_id
 _symmetry_equiv_pos_as_xyz
  1  'x, y, z'
loop_
 _atom_site_type_symbol
 _atom_site_label
 _atom_site_symmetry_multiplicity
 _atom_site_fract_x
 _atom_site_fract_y
 _atom_site_fract_z
 _atom_site_occupancy
 _atom_site_charge
Er  Er1  1  0.84330000  0.25740000  0.02350000  1.0 2.0228464502
Er  Er2  1  0.15670000  0.75740000  0.47650000  1.0 2.0228464502
Er  Er3  1  0.15670000  0.74260000  0.97650000  1.0 2.0228464502
Er  Er4  1  0.84330000  0.24260000  0.52350000  1.0 2.0250131983
C  C1  1  0.90440000  0.09790000  0.02430000  1.0 0.5939437646
C  C2  1  0.09560000  0.59790000  0.47570000  1.0 0.5939437646
C  C3  1  0.09560000  0.90210000  0.97570000  1.0 0.5960678357
C  C4  1  0.90440000  0.40210000  0.52430000  1.0 0.5960678357
C  C5  1  0.94570000  0.01450000  0.03010000  1.0 -0.0583961139
C  C6  1  0.05430000  0.51450000  0.46990000  1.0 -0.0583961139
C  C7  1  0.05430000  0.98550000  0.96990000  1.0 -0.0583961139
C  C8  1  0.94570000  0.48550000  0.53010000  1.0 -0.0583961139
C  C9  1  0.56250000  0.28860000  0.19940000  1.0 0.7008866666
C  C10  1  0.43750000  0.78860000  0.30060000  1.0 0.7008866666
C  C11  1  0.43750000  0.71140000  0.80060000  1.0 0.6948190826
C  C12  1  0.56250000  0.21140000  0.69940000  1.0 0.6948190826
C  C13  1  0.37670000  0.30110000  0.10310000  1.0 -0.0692244124
C  C14  1  0.62330000  0.80110000  0.39690000  1.0 -0.0692244124
C  C15  1  0.62330000  0.69890000  0.89690000  1.0 -0.0692244124
C  C16  1  0.37670000  0.19890000  0.60310000  1.0 -0.0692244124
C  C17  1  0.31230000  0.28310000  0.96060000  1.0 -0.1135099855
C  C18  1  0.68770000  0.78310000  0.53940000  1.0 -0.1135099855
C  C19  1  0.68770000  0.71690000  0.03940000  1.0 -0.1135099855
C  C20  1  0.31230000  0.21690000  0.46060000  1.0 -0.1135099855
C  C21  1  0.12880000  0.21330000  0.36700000  1.0 0.7008866666
C  C22  1  0.87120000  0.71330000  0.13300000  1.0 0.7008866666
C  C23  1  0.87120000  0.78670000  0.63300000  1.0 0.7008866666
C  C24  1  0.12880000  0.28670000  0.86700000  1.0 0.7008866666
O  O1  1  0.96310000  0.14510000  0.95450000  1.0 -0.6062621724
O  O2  1  0.03690000  0.64510000  0.54550000  1.0 -0.6062621724
O  O3  1  0.03690000  0.85490000  0.04550000  1.0 -0.6062621724
O  O4  1  0.96310000  0.35490000  0.45450000  1.0 -0.6062621724
O  O5  1  0.81400000  0.12170000  0.09070000  1.0 -0.5488514703
O  O6  1  0.18600000  0.62170000  0.40930000  1.0 -0.5488514703
O  O7  1  0.18600000  0.87830000  0.90930000  1.0 -0.5488514703
O  O8  1  0.81400000  0.37830000  0.59070000  1.0 -0.5488514703
O  O9  1  0.66440000  0.26990000  0.13740000  1.0 -0.652006517
O  O10  1  0.33560000  0.76990000  0.36260000  1.0 -0.652006517
O  O11  1  0.33560000  0.73010000  0.86260000  1.0 -0.652006517
O  O12  1  0.66440000  0.23010000  0.63740000  1.0 -0.652006517
O  O13  1  0.60200000  0.29650000  0.33690000  1.0 -0.5958660942
O  O14  1  0.39800000  0.79650000  0.16310000  1.0 -0.5958660942
O  O15  1  0.39800000  0.70350000  0.66310000  1.0 -0.5958660942
O  O16  1  0.60200000  0.20350000  0.83690000  1.0 -0.5958660942
O  O17  1  0.02460000  0.19240000  0.42440000  1.0 -0.6225226367
O  O18  1  0.97540000  0.69240000  0.07560000  1.0 -0.6225226367
O  O19  1  0.97540000  0.80760000  0.57560000  1.0 -0.6225226367
O  O20  1  0.02460000  0.30760000  0.92440000  1.0 -0.6225226367
O  O21  1  0.08260000  0.23160000  0.23140000  1.0 -0.6225226367
O  O22  1  0.91740000  0.73160000  0.26860000  1.0 -0.6225226367
O  O23  1  0.91740000  0.76840000  0.76860000  1.0 -0.625776599
O  O24  1  0.08260000  0.26840000  0.73140000  1.0 -0.6225226367
O  O25  1  0.92420000  0.37750000  0.16250000  1.0 0.0209973446
O  O26  1  0.07580000  0.87750000  0.33750000  1.0 0.0125795744
O  O27  1  0.07580000  0.62250000  0.83750000  1.0 0.0209973446
O  O28  1  0.92420000  0.12250000  0.66250000  1.0 0.0209973446
O  O29  1  0.69440000  0.36240000  0.86790000  1.0 -0.1475601695
O  O30  1  0.30560000  0.86240000  0.63210000  1.0 -0.1475601695
O  O31  1  0.30560000  0.63760000  0.13210000  1.0 -0.1475601695
O  O32  1  0.69440000  0.13760000  0.36790000  1.0 -0.1415228945
