# DDEC6 charges by PACMAN v1.1 (https://github.com/mtap-research/PACMAN-charge/)
data_POBJIB_FSR_pacman
_symmetry_space_group_name_H-M   'P 1'
_cell_length_a   8.75273000
_cell_length_b   8.75273000
_cell_length_c   13.08510000
_cell_angle_alpha   84.42680000
_cell_angle_beta   95.57320000
_cell_angle_gamma   59.86600000
_symmetry_Int_Tables_number   1
_chemical_formula_structural   Be3P4(H2O7)2
_chemical_formula_sum   'Be6 P8 H8 O28'
_cell_volume   850.39608683
_cell_formula_units_Z   2
loop_
 _symmetry_equiv_pos_site_id
 _symmetry_equiv_pos_as_xyz
  1  'x, y, z'
loop_
 _atom_site_type_symbol
 _atom_site_label
 _atom_site_symmetry_multiplicity
 _atom_site_fract_x
 _atom_site_fract_y
 _atom_site_fract_z
 _atom_site_occupancy
 _atom_site_charge
Be  Be1  1  0.86140000  0.97380000  0.10320000  1.0 0.979284807
Be  Be2  1  0.97380000  0.86140000  0.39680000  1.0 0.979284807
Be  Be3  1  0.13860000  0.02620000  0.89680000  1.0 0.9864115555
Be  Be4  1  0.02620000  0.13860000  0.60320000  1.0 0.9864115555
Be  Be5  1  0.75730000  0.75730000  0.75000000  1.0 0.517261221
Be  Be6  1  0.24270000  0.24270000  0.25000000  1.0 0.517261221
P  P1  1  0.84284000  0.96228000  0.88071000  1.0 1.0116954585
P  P2  1  0.96228000  0.84284000  0.61929000  1.0 1.0116954585
P  P3  1  0.15716000  0.03772000  0.11929000  1.0 1.0116954585
P  P4  1  0.03772000  0.15716000  0.38071000  1.0 1.0116954585
P  P5  1  0.37030000  0.91630000  0.73761000  1.0 0.815821274
P  P6  1  0.91630000  0.37030000  0.76239000  1.0 0.8093957742
P  P7  1  0.62970000  0.08370000  0.26239000  1.0 0.8093957742
P  P8  1  0.08370000  0.62970000  0.23761000  1.0 0.815821274
H  H1  1  0.71840000  0.12420000  0.79700000  1.0 -0.2081298988
H  H2  1  0.12420000  0.71840000  0.70300000  1.0 -0.2081298988
H  H3  1  0.28160000  0.87580000  0.20300000  1.0 -0.2081298988
H  H4  1  0.87580000  0.28160000  0.29700000  1.0 -0.2081298988
H  H5  1  0.39350000  0.72250000  0.73910000  1.0 -0.0566204312
H  H6  1  0.72250000  0.39350000  0.76090000  1.0 -0.0566204312
H  H7  1  0.60650000  0.27750000  0.26090000  1.0 -0.0566204312
H  H8  1  0.27750000  0.60650000  0.23910000  1.0 -0.0566204312
O  O1  1  0.77105000  0.01565000  0.98102000  1.0 -0.5233220022
O  O2  1  0.01565000  0.77105000  0.51898000  1.0 -0.5275746982
O  O3  1  0.22895000  0.98435000  0.01898000  1.0 -0.5275746982
O  O4  1  0.98435000  0.22895000  0.48102000  1.0 -0.5275746982
O  O5  1  0.03200000  0.92240000  0.88120000  1.0 -0.5275746982
O  O6  1  0.92240000  0.03200000  0.61880000  1.0 -0.5275746982
O  O7  1  0.96800000  0.07760000  0.11880000  1.0 -0.5233220022
O  O8  1  0.07760000  0.96800000  0.38120000  1.0 -0.5275746982
O  O9  1  0.82798000  0.80298000  0.85540000  1.0 -0.5275746982
O  O10  1  0.80298000  0.82798000  0.64460000  1.0 -0.5275746982
O  O11  1  0.17202000  0.19702000  0.14460000  1.0 -0.5275746982
O  O12  1  0.19702000  0.17202000  0.35540000  1.0 -0.5275746982
O  O13  1  0.30950000  0.94810000  0.83690000  1.0 -0.5510179262
O  O14  1  0.94810000  0.30950000  0.66310000  1.0 -0.5510179262
O  O15  1  0.69050000  0.05190000  0.16310000  1.0 -0.5510179262
O  O16  1  0.05190000  0.69050000  0.33690000  1.0 -0.5510179262
O  O17  1  0.24160000  0.01060000  0.63900000  1.0 -0.5760336678
O  O18  1  0.01060000  0.24160000  0.86100000  1.0 -0.5745777647
O  O19  1  0.75840000  0.98940000  0.36100000  1.0 -0.5760336678
O  O20  1  0.98940000  0.75840000  0.13900000  1.0 -0.5745777647
O  O21  1  0.56040000  0.79300000  0.73410000  1.0 0.0020333117
O  O22  1  0.79300000  0.56040000  0.76590000  1.0 0.0020333117
O  O23  1  0.43960000  0.20700000  0.26590000  1.0 0.0020333117
O  O24  1  0.20700000  0.43960000  0.23410000  1.0 0.0020333117
O  O25  1  0.53940000  0.90580000  0.72490000  1.0 -0.0973125942
O  O26  1  0.90580000  0.53940000  0.77510000  1.0 -0.0926396857
O  O27  1  0.46060000  0.09420000  0.27510000  1.0 -0.0973125942
O  O28  1  0.09420000  0.46060000  0.22490000  1.0 -0.0973125942
