# DDEC6 charges by PACMAN v1.1 (https://github.com/mtap-research/PACMAN-charge/)
data_POBJIB_ASR_pacman
_symmetry_space_group_name_H-M   'P 1'
_cell_length_a   8.73500000
_cell_length_b   15.17040000
_cell_length_c   13.08510000
_cell_angle_alpha   90.00000000
_cell_angle_beta   101.22300000
_cell_angle_gamma   90.00000000
_symmetry_Int_Tables_number   1
_chemical_formula_structural   Be3P4(HO3)4
_chemical_formula_sum   'Be12 P16 H16 O48'
_cell_volume   1700.79349156
_cell_formula_units_Z   4
loop_
 _symmetry_equiv_pos_site_id
 _symmetry_equiv_pos_as_xyz
  1  'x, y, z'
loop_
 _atom_site_type_symbol
 _atom_site_label
 _atom_site_symmetry_multiplicity
 _atom_site_fract_x
 _atom_site_fract_y
 _atom_site_fract_z
 _atom_site_occupancy
 _atom_site_charge
Be  Be1  1  0.06145000  0.08477000  0.89990000  1.0 0.9418404069
Be  Be2  1  0.93855000  0.91523000  0.10010000  1.0 0.9418404069
Be  Be3  1  0.93855000  0.08478000  0.60010000  1.0 0.9218127013
Be  Be4  1  0.06145000  0.91522000  0.39990000  1.0 0.9494178432
Be  Be5  1  0.56145000  0.58477000  0.89990000  1.0 0.9275756559
Be  Be6  1  0.43855000  0.41523000  0.10010000  1.0 0.9275756559
Be  Be7  1  0.43855000  0.58478000  0.60010000  1.0 0.9275756559
Be  Be8  1  0.56145000  0.41522000  0.39990000  1.0 0.9418404069
Be  Be9  1  0.00000000  0.24212000  0.25000000  1.0 0.9620650292
Be  Be10  1  0.00000000  0.75788000  0.75000000  1.0 0.9620650292
Be  Be11  1  0.50000000  0.74212000  0.25000000  1.0 0.9494178432
Be  Be12  1  0.50000000  0.25788000  0.75000000  1.0 0.9494178432
P  P1  1  0.06428000  0.09695000  0.12165000  1.0 0.9418404069
P  P2  1  0.93572000  0.90305000  0.87835000  1.0 0.9418404069
P  P3  1  0.93573000  0.09695000  0.37835000  1.0 0.9494178432
P  P4  1  0.06427000  0.90305000  0.62165000  1.0 0.9494178432
P  P5  1  0.56428000  0.59695000  0.12165000  1.0 0.9494178432
P  P6  1  0.43572000  0.40305000  0.87835000  1.0 0.9418404069
P  P7  1  0.43573000  0.59695000  0.37835000  1.0 0.9494178432
P  P8  1  0.56427000  0.40305000  0.62165000  1.0 0.9418404069
P  P9  1  0.26051000  0.37578000  0.26366000  1.0 0.9085255147
P  P10  1  0.73949000  0.62422000  0.73634000  1.0 0.9085255147
P  P11  1  0.73949000  0.37578000  0.23633000  1.0 0.9085255147
P  P12  1  0.26051000  0.62422000  0.76367000  1.0 0.9085255147
P  P13  1  0.76051000  0.87578000  0.26366000  1.0 0.9085255147
P  P14  1  0.23949000  0.12422000  0.73634000  1.0 0.9036763788
P  P15  1  0.23949000  0.87578000  0.23633000  1.0 0.9085255147
P  P16  1  0.76051000  0.12422000  0.76367000  1.0 0.9085255147
H  H1  1  0.19625000  0.08025000  0.20003000  1.0 -0.1520746795
H  H2  1  0.80375000  0.91975000  0.79997000  1.0 -0.1520746795
H  H3  1  0.80375000  0.08025000  0.29997000  1.0 -0.1520746795
H  H4  1  0.19625000  0.91975000  0.70003000  1.0 -0.1520746795
H  H5  1  0.69625000  0.58025000  0.20003000  1.0 -0.1520746795
H  H6  1  0.30375000  0.41975000  0.79997000  1.0 -0.1520746795
H  H7  1  0.30375000  0.58025000  0.29997000  1.0 -0.1520746795
H  H8  1  0.69625000  0.41975000  0.70003000  1.0 -0.1520746795
H  H9  1  0.17589000  0.45508000  0.26163000  1.0 -0.1520746795
H  H10  1  0.82411000  0.54492000  0.73837000  1.0 -0.1520746795
H  H11  1  0.82411000  0.45508000  0.23837000  1.0 -0.1520746795
H  H12  1  0.17589000  0.54492000  0.76163000  1.0 -0.1520746795
H  H13  1  0.67589000  0.95508000  0.26163000  1.0 -0.1520746795
H  H14  1  0.32411000  0.04492000  0.73837000  1.0 -0.1520746795
H  H15  1  0.32411000  0.95508000  0.23837000  1.0 -0.1520746795
H  H16  1  0.67589000  0.04492000  0.76163000  1.0 -0.1520746795
O  O1  1  0.12434000  0.10439000  0.02010000  1.0 -0.4762360205
O  O2  1  0.87566000  0.89561000  0.97990000  1.0 -0.4762360205
O  O3  1  0.87566000  0.10439000  0.47990000  1.0 -0.472898664
O  O4  1  0.12434000  0.89561000  0.52010000  1.0 -0.4762360205
O  O5  1  0.62434000  0.60439000  0.02010000  1.0 -0.4762360205
O  O6  1  0.37566000  0.39561000  0.97990000  1.0 -0.4762360205
O  O7  1  0.37566000  0.60439000  0.47990000  1.0 -0.4762360205
O  O8  1  0.62434000  0.39561000  0.52010000  1.0 -0.4762360205
O  O9  1  0.94607000  0.02181000  0.11889000  1.0 -0.5158733247
O  O10  1  0.05393000  0.97819000  0.88111000  1.0 -0.5158733247
O  O11  1  0.05393000  0.02181000  0.38111000  1.0 -0.5102260123
O  O12  1  0.94607000  0.97819000  0.61889000  1.0 -0.5102260123
O  O13  1  0.44607000  0.52181000  0.11889000  1.0 -0.5158733247
O  O14  1  0.55393000  0.47819000  0.88111000  1.0 -0.5102260123
O  O15  1  0.55393000  0.52181000  0.38111000  1.0 -0.5158733247
O  O16  1  0.44607000  0.47819000  0.61889000  1.0 -0.5158733247
O  O17  1  0.99206000  0.18374000  0.14719000  1.0 -0.4901192737
O  O18  1  0.00794000  0.81626000  0.85281000  1.0 -0.4901192737
O  O19  1  0.00794000  0.18374000  0.35281000  1.0 -0.4901192737
O  O20  1  0.99206000  0.81626000  0.64719000  1.0 -0.4901192737
O  O21  1  0.49206000  0.68374000  0.14719000  1.0 -0.4901192737
O  O22  1  0.50794000  0.31626000  0.85281000  1.0 -0.4901192737
O  O23  1  0.50794000  0.68374000  0.35281000  1.0 -0.4901192737
O  O24  1  0.49206000  0.31626000  0.64719000  1.0 -0.4901192737
O  O25  1  0.15257000  0.29927000  0.27039000  1.0 -0.4762360205
O  O26  1  0.84743000  0.70073000  0.72961000  1.0 -0.4762360205
O  O27  1  0.84743000  0.29927000  0.22961000  1.0 -0.472898664
O  O28  1  0.15257000  0.70073000  0.77039000  1.0 -0.4762360205
O  O29  1  0.65257000  0.79927000  0.27039000  1.0 -0.472898664
O  O30  1  0.34743000  0.20073000  0.72961000  1.0 -0.4762360205
O  O31  1  0.34743000  0.79927000  0.22961000  1.0 -0.4762360205
O  O32  1  0.65257000  0.20073000  0.77039000  1.0 -0.4762360205
O  O33  1  0.32492000  0.36938000  0.16408000  1.0 -0.4978495869
O  O34  1  0.67508000  0.63062000  0.83592000  1.0 -0.4978495869
O  O35  1  0.67508000  0.36938000  0.33592000  1.0 -0.4978495869
O  O36  1  0.32492000  0.63062000  0.66408000  1.0 -0.4978495869
O  O37  1  0.82492000  0.86938000  0.16408000  1.0 -0.4978495869
O  O38  1  0.17508000  0.13062000  0.83592000  1.0 -0.4978495869
O  O39  1  0.17508000  0.86938000  0.33592000  1.0 -0.4978495869
O  O40  1  0.82492000  0.13062000  0.66408000  1.0 -0.4901192737
O  O41  1  0.39053000  0.37563000  0.36041000  1.0 -0.5102260123
O  O42  1  0.60947000  0.62437000  0.63959000  1.0 -0.5102260123
O  O43  1  0.60947000  0.37563000  0.13959000  1.0 -0.5102260123
O  O44  1  0.39053000  0.62437000  0.86041000  1.0 -0.5102260123
O  O45  1  0.89053000  0.87563000  0.36041000  1.0 -0.5102260123
O  O46  1  0.10947000  0.12437000  0.63959000  1.0 -0.5102260123
O  O47  1  0.10947000  0.87563000  0.13959000  1.0 -0.5102260123
O  O48  1  0.89053000  0.12437000  0.86041000  1.0 -0.5102260123
