# DDEC6 charges by PACMAN v1.1 (https://github.com/mtap-research/PACMAN-charge/)
data_POBNEA_ion_pacman
_symmetry_space_group_name_H-M   'P 1'
_cell_length_a   18.65800000
_cell_length_b   18.65800000
_cell_length_c   14.84000000
_cell_angle_alpha   90.00000000
_cell_angle_beta   90.00000000
_cell_angle_gamma   120.00000000
_symmetry_Int_Tables_number   1
_chemical_formula_structural   Li2CoC15(NO3)3
_chemical_formula_sum   'Li8 Co4 C60 N12 O36'
_cell_volume   4473.98692046
_cell_formula_units_Z   4
loop_
 _symmetry_equiv_pos_site_id
 _symmetry_equiv_pos_as_xyz
  1  'x, y, z'
loop_
 _atom_site_type_symbol
 _atom_site_label
 _atom_site_symmetry_multiplicity
 _atom_site_fract_x
 _atom_site_fract_y
 _atom_site_fract_z
 _atom_site_occupancy
 _atom_site_charge
Li  Li1  1  0.50000000  0.50000000  0.00000000  1.0 1.0144722925
Li  Li2  1  0.50000000  0.00000000  0.00000000  1.0 1.0144722925
Li  Li3  1  0.00000000  0.50000000  0.00000000  1.0 0.988614069
Li  Li4  1  0.00000000  0.50000000  0.50000000  1.0 0.988614069
Li  Li5  1  0.50000000  0.00000000  0.50000000  1.0 0.9827556179
Li  Li6  1  0.50000000  0.50000000  0.50000000  1.0 0.9827556179
Li  Li7  1  0.00000000  0.00000000  0.75000000  1.0 1.1216706501
Li  Li8  1  0.00000000  0.00000000  0.25000000  1.0 0.2645161317
Co  Co1  1  0.33333333  0.66666667  0.01918000  1.0 0.8109644817
Co  Co2  1  0.66666667  0.33333333  0.51918000  1.0 0.8109644817
Co  Co3  1  0.66666667  0.33333333  0.98082000  1.0 0.8109644817
Co  Co4  1  0.33333333  0.66666667  0.48082000  1.0 0.8109644817
C  C1  1  0.30440000  0.53510000  0.16820000  1.0 0.2100043934
C  C2  1  0.46490000  0.76930000  0.16820000  1.0 0.2100043934
C  C3  1  0.23070000  0.69560000  0.16820000  1.0 0.2100043934
C  C4  1  0.76930000  0.30440000  0.66820000  1.0 0.2100043934
C  C5  1  0.53510000  0.23070000  0.66820000  1.0 0.2100043934
C  C6  1  0.69560000  0.46490000  0.66820000  1.0 0.2100043934
C  C7  1  0.69560000  0.46490000  0.83180000  1.0 0.2100043934
C  C8  1  0.53510000  0.23070000  0.83180000  1.0 0.2100043934
C  C9  1  0.76930000  0.30440000  0.83180000  1.0 0.2100043934
C  C10  1  0.23070000  0.69560000  0.33180000  1.0 0.2100043934
C  C11  1  0.46490000  0.76930000  0.33180000  1.0 0.2100043934
C  C12  1  0.30440000  0.53510000  0.33180000  1.0 0.2100043934
C  C13  1  0.34650000  0.56660000  0.25000000  1.0 -0.1095482356
C  C14  1  0.43340000  0.77990000  0.25000000  1.0 -0.1095482356
C  C15  1  0.22010000  0.65350000  0.25000000  1.0 -0.1095482356
C  C16  1  0.77990000  0.34650000  0.75000000  1.0 -0.1095482356
C  C17  1  0.56660000  0.22010000  0.75000000  1.0 -0.1095482356
C  C18  1  0.65350000  0.43340000  0.75000000  1.0 -0.1095482356
C  C19  1  0.22320000  0.47000000  0.16930000  1.0 -0.0380374049
C  C20  1  0.53000000  0.75320000  0.16930000  1.0 -0.0380374049
C  C21  1  0.24680000  0.77680000  0.16930000  1.0 -0.0380374049
C  C22  1  0.75320000  0.22320000  0.66930000  1.0 -0.0380374049
C  C23  1  0.47000000  0.24680000  0.66930000  1.0 -0.0380374049
C  C24  1  0.77680000  0.53000000  0.66930000  1.0 -0.0380374049
C  C25  1  0.77680000  0.53000000  0.83070000  1.0 -0.0380374049
C  C26  1  0.47000000  0.24680000  0.83070000  1.0 -0.0380374049
C  C27  1  0.75320000  0.22320000  0.83070000  1.0 -0.0380374049
C  C28  1  0.24680000  0.77680000  0.33070000  1.0 -0.0380374049
C  C29  1  0.53000000  0.75320000  0.33070000  1.0 -0.0380374049
C  C30  1  0.22320000  0.47000000  0.33070000  1.0 -0.0380374049
C  C31  1  0.18430000  0.43870000  0.25000000  1.0 0.0373651476
C  C32  1  0.56130000  0.74560000  0.25000000  1.0 0.0373651476
C  C33  1  0.25440000  0.81570000  0.25000000  1.0 0.0373651476
C  C34  1  0.74560000  0.18430000  0.75000000  1.0 0.034339031
C  C35  1  0.43870000  0.25440000  0.75000000  1.0 0.034339031
C  C36  1  0.81570000  0.56130000  0.75000000  1.0 0.034339031
C  C37  1  0.39800000  0.55650000  0.05300000  1.0 0.4093684198
C  C38  1  0.44350000  0.84150000  0.05300000  1.0 0.4093684198
C  C39  1  0.15850000  0.60200000  0.05300000  1.0 0.4093684198
C  C40  1  0.84150000  0.39800000  0.55300000  1.0 0.4093684198
C  C41  1  0.55650000  0.15850000  0.55300000  1.0 0.4093684198
C  C42  1  0.60200000  0.44350000  0.55300000  1.0 0.4093684198
C  C43  1  0.60200000  0.44350000  0.94700000  1.0 0.4093684198
C  C44  1  0.55650000  0.15850000  0.94700000  1.0 0.4093684198
C  C45  1  0.84150000  0.39800000  0.94700000  1.0 0.4093684198
C  C46  1  0.15850000  0.60200000  0.44700000  1.0 0.4093684198
C  C47  1  0.44350000  0.84150000  0.44700000  1.0 0.4093684198
C  C48  1  0.39800000  0.55650000  0.44700000  1.0 0.4093684198
C  C49  1  0.43840000  0.60350000  0.96580000  1.0 0.495329255
C  C50  1  0.39650000  0.83490000  0.96580000  1.0 0.495329255
C  C51  1  0.16510000  0.56160000  0.96580000  1.0 0.4945758448
C  C52  1  0.83490000  0.43840000  0.46580000  1.0 0.495329255
C  C53  1  0.60350000  0.16510000  0.46580000  1.0 0.4945758448
C  C54  1  0.56160000  0.39650000  0.46580000  1.0 0.4945758448
C  C55  1  0.56160000  0.39650000  0.03420000  1.0 0.495329255
C  C56  1  0.60350000  0.16510000  0.03420000  1.0 0.495329255
C  C57  1  0.83490000  0.43840000  0.03420000  1.0 0.4945758448
C  C58  1  0.16510000  0.56160000  0.53420000  1.0 0.495329255
C  C59  1  0.39650000  0.83490000  0.53420000  1.0 0.495329255
C  C60  1  0.43840000  0.60350000  0.53420000  1.0 0.495329255
N  N1  1  0.34440000  0.57340000  0.08680000  1.0 -0.3879034031
N  N2  1  0.42660000  0.77100000  0.08680000  1.0 -0.3879034031
N  N3  1  0.22900000  0.65560000  0.08680000  1.0 -0.3879034031
N  N4  1  0.77100000  0.34440000  0.58680000  1.0 -0.3879034031
N  N5  1  0.57340000  0.22900000  0.58680000  1.0 -0.3879034031
N  N6  1  0.65560000  0.42660000  0.58680000  1.0 -0.3879034031
N  N7  1  0.65560000  0.42660000  0.91320000  1.0 -0.3879034031
N  N8  1  0.57340000  0.22900000  0.91320000  1.0 -0.3879034031
N  N9  1  0.77100000  0.34440000  0.91320000  1.0 -0.3879034031
N  N10  1  0.22900000  0.65560000  0.41320000  1.0 -0.3879034031
N  N11  1  0.42660000  0.77100000  0.41320000  1.0 -0.3879034031
N  N12  1  0.34440000  0.57340000  0.41320000  1.0 -0.3879034031
O  O1  1  0.42070000  0.50580000  0.08210000  1.0 -0.5292408351
O  O2  1  0.49420000  0.91490000  0.08210000  1.0 -0.5292408351
O  O3  1  0.08510000  0.57930000  0.08210000  1.0 -0.5292408351
O  O4  1  0.91490000  0.42070000  0.58210000  1.0 -0.5292408351
O  O5  1  0.50580000  0.08510000  0.58210000  1.0 -0.5292408351
O  O6  1  0.57930000  0.49420000  0.58210000  1.0 -0.5292408351
O  O7  1  0.57930000  0.49420000  0.91790000  1.0 -0.5292408351
O  O8  1  0.50580000  0.08510000  0.91790000  1.0 -0.5292408351
O  O9  1  0.91490000  0.42070000  0.91790000  1.0 -0.5292408351
O  O10  1  0.08510000  0.57930000  0.41790000  1.0 -0.5292408351
O  O11  1  0.49420000  0.91490000  0.41790000  1.0 -0.5292408351
O  O12  1  0.42070000  0.50580000  0.41790000  1.0 -0.5292408351
O  O13  1  0.49320000  0.59070000  0.93040000  1.0 -0.556217933
O  O14  1  0.40930000  0.90250000  0.93040000  1.0 -0.556217933
O  O15  1  0.09750000  0.50680000  0.93040000  1.0 -0.5547099842
O  O16  1  0.90250000  0.49320000  0.43040000  1.0 -0.556217933
O  O17  1  0.59070000  0.09750000  0.43040000  1.0 -0.556217933
O  O18  1  0.50680000  0.40930000  0.43040000  1.0 -0.556217933
O  O19  1  0.50680000  0.40930000  0.06960000  1.0 -0.556217933
O  O20  1  0.59070000  0.09750000  0.06960000  1.0 -0.556217933
O  O21  1  0.90250000  0.49320000  0.06960000  1.0 -0.556217933
O  O22  1  0.09750000  0.50680000  0.56960000  1.0 -0.556217933
O  O23  1  0.40930000  0.90250000  0.56960000  1.0 -0.556217933
O  O24  1  0.49320000  0.59070000  0.56960000  1.0 -0.556217933
O  O25  1  0.41990000  0.65390000  0.93630000  1.0 -0.4498063335
O  O26  1  0.34610000  0.76600000  0.93630000  1.0 -0.4498063335
O  O27  1  0.23400000  0.58010000  0.93630000  1.0 -0.4498063335
O  O28  1  0.76600000  0.41990000  0.43630000  1.0 -0.4498063335
O  O29  1  0.65390000  0.23400000  0.43630000  1.0 -0.4498063335
O  O30  1  0.58010000  0.34610000  0.43630000  1.0 -0.4498063335
O  O31  1  0.58010000  0.34610000  0.06370000  1.0 -0.4498063335
O  O32  1  0.65390000  0.23400000  0.06370000  1.0 -0.4498063335
O  O33  1  0.76600000  0.41990000  0.06370000  1.0 -0.4498063335
O  O34  1  0.23400000  0.58010000  0.56370000  1.0 -0.4498063335
O  O35  1  0.34610000  0.76600000  0.56370000  1.0 -0.4498063335
O  O36  1  0.41990000  0.65390000  0.56370000  1.0 -0.4498063335
