# DDEC6 charges by PACMAN v1.1 (https://github.com/mtap-research/PACMAN-charge/)
data_POBYAH_FSR_pacman
_symmetry_space_group_name_H-M   'P 1'
_cell_length_a   15.54190000
_cell_length_b   15.54190000
_cell_length_c   26.48930000
_cell_angle_alpha   90.00000000
_cell_angle_beta   90.00000000
_cell_angle_gamma   90.00000000
_symmetry_Int_Tables_number   1
_chemical_formula_structural   Ni6PH7W9(C3O16)3
_chemical_formula_sum   'Ni24 P4 H28 W36 C36 O192'
_cell_volume   6398.50778165
_cell_formula_units_Z   4
loop_
 _symmetry_equiv_pos_site_id
 _symmetry_equiv_pos_as_xyz
  1  'x, y, z'
loop_
 _atom_site_type_symbol
 _atom_site_label
 _atom_site_symmetry_multiplicity
 _atom_site_fract_x
 _atom_site_fract_y
 _atom_site_fract_z
 _atom_site_occupancy
 _atom_site_charge
Ni  Ni1  1  0.62964000  0.84501000  0.74741000  1.0 1.1666611388
Ni  Ni2  1  0.37036000  0.15499000  0.24741000  1.0 1.1666611388
Ni  Ni3  1  0.15499000  0.62964000  0.99741000  1.0 1.1666611388
Ni  Ni4  1  0.84501000  0.37036000  0.49741000  1.0 1.1666611388
Ni  Ni5  1  0.80220000  0.84440000  0.68707000  1.0 1.1542269662
Ni  Ni6  1  0.19780000  0.15560000  0.18707000  1.0 1.1570766325
Ni  Ni7  1  0.15560000  0.80220000  0.93707000  1.0 1.1542269662
Ni  Ni8  1  0.84440000  0.19780000  0.43707000  1.0 1.1570766325
Ni  Ni9  1  0.65397000  0.71260000  0.66830000  1.0 1.0711880083
Ni  Ni10  1  0.34603000  0.28740000  0.16830000  1.0 1.0711880083
Ni  Ni11  1  0.28740000  0.65397000  0.91830000  1.0 1.0711880083
Ni  Ni12  1  0.71260000  0.34603000  0.41830000  1.0 1.0711880083
Ni  Ni13  1  0.95840000  0.83675000  0.61428000  1.0 1.1570766325
Ni  Ni14  1  0.04160000  0.16325000  0.11428000  1.0 1.1542269662
Ni  Ni15  1  0.16325000  0.95840000  0.86428000  1.0 1.1542269662
Ni  Ni16  1  0.83675000  0.04160000  0.36428000  1.0 1.1542269662
Ni  Ni17  1  0.81478000  0.70523000  0.60101000  1.0 1.0711880083
Ni  Ni18  1  0.18522000  0.29477000  0.10101000  1.0 1.0760839537
Ni  Ni19  1  0.29477000  0.81478000  0.85101000  1.0 1.0711880083
Ni  Ni20  1  0.70523000  0.18522000  0.35101000  1.0 1.0760839537
Ni  Ni21  1  0.41397000  0.67190000  0.82941000  1.0 1.1869941309
Ni  Ni22  1  0.58603000  0.32810000  0.32941000  1.0 1.1869941309
Ni  Ni23  1  0.32810000  0.41397000  0.07941000  1.0 1.1869941309
Ni  Ni24  1  0.67190000  0.58603000  0.57941000  1.0 1.1869941309
P  P1  1  0.83050000  0.63892000  0.71847000  1.0 1.4671988443
P  P2  1  0.16950000  0.36108000  0.21847000  1.0 1.4617328599
P  P3  1  0.36108000  0.83050000  0.96847000  1.0 1.4617328599
P  P4  1  0.63892000  0.16950000  0.46847000  1.0 1.4671988443
H  H1  1  0.65230000  0.87720000  0.65240000  1.0 0.4231978163
H  H2  1  0.34770000  0.12280000  0.15240000  1.0 0.4231978163
H  H3  1  0.12280000  0.65230000  0.90240000  1.0 0.4231978163
H  H4  1  0.87720000  0.34770000  0.40240000  1.0 0.4231978163
H  H5  1  0.80020000  0.87160000  0.58870000  1.0 0.4275327727
H  H6  1  0.19980000  0.12840000  0.08870000  1.0 0.4275327727
H  H7  1  0.12840000  0.80020000  0.83870000  1.0 0.4275327727
H  H8  1  0.87160000  0.19980000  0.33870000  1.0 0.4275327727
H  H9  1  0.66000000  0.75170000  0.57440000  1.0 0.4275327727
H  H10  1  0.34000000  0.24830000  0.07440000  1.0 0.4275327727
H  H11  1  0.24830000  0.66000000  0.82440000  1.0 0.4275327727
H  H12  1  0.75170000  0.34000000  0.32440000  1.0 0.4275327727
H  H13  1  0.08970000  0.85360000  0.54290000  1.0 0.359471406
H  H14  1  0.91030000  0.14640000  0.04290000  1.0 0.359471406
H  H15  1  0.14640000  0.08970000  0.79290000  1.0 0.359471406
H  H16  1  0.85360000  0.91030000  0.29290000  1.0 0.359471406
H  H17  1  0.43320000  0.83210000  0.58810000  1.0 0.1530408554
H  H18  1  0.56680000  0.16790000  0.08810000  1.0 0.1530408554
H  H19  1  0.16790000  0.43320000  0.83810000  1.0 0.1530408554
H  H20  1  0.83210000  0.56680000  0.33810000  1.0 0.1530408554
H  H21  1  0.30170000  0.85440000  0.55630000  1.0 0.1658463284
H  H22  1  0.69830000  0.14560000  0.05630000  1.0 0.1658463284
H  H23  1  0.14560000  0.30170000  0.80630000  1.0 0.1658463284
H  H24  1  0.85440000  0.69830000  0.30630000  1.0 0.1658463284
H  H25  1  0.19460000  0.79770000  0.69020000  1.0 0.1530408554
H  H26  1  0.80540000  0.20230000  0.19020000  1.0 0.1530408554
H  H27  1  0.20230000  0.19460000  0.94020000  1.0 0.1530408554
H  H28  1  0.79770000  0.80540000  0.44020000  1.0 0.1530408554
W  W1  1  0.64017000  0.63483000  0.79341000  1.0 2.4296104068
W  W2  1  0.35983000  0.36517000  0.29341000  1.0 2.4296104068
W  W3  1  0.36517000  0.64017000  0.04341000  1.0 2.4296104068
W  W4  1  0.63483000  0.35983000  0.54341000  1.0 2.4296104068
W  W5  1  0.85895000  0.48135000  0.62115000  1.0 2.4528733447
W  W6  1  0.14105000  0.51865000  0.12115000  1.0 2.4528733447
W  W7  1  0.51865000  0.85895000  0.87115000  1.0 2.4528733447
W  W8  1  0.48135000  0.14105000  0.37115000  1.0 2.4528733447
W  W9  1  0.98118000  0.46072000  0.72890000  1.0 2.4064266637
W  W10  1  0.01882000  0.53928000  0.22890000  1.0 2.4184438183
W  W11  1  0.53928000  0.98118000  0.97890000  1.0 2.4064266637
W  W12  1  0.46072000  0.01882000  0.47890000  1.0 2.4184438183
W  W13  1  0.02040000  0.62651000  0.64548000  1.0 2.4296104068
W  W14  1  0.97960000  0.37349000  0.14548000  1.0 2.4296104068
W  W15  1  0.37349000  0.02040000  0.89548000  1.0 2.4296104068
W  W16  1  0.62651000  0.97960000  0.39548000  1.0 2.4296104068
W  W17  1  0.96190000  0.62405000  0.83100000  1.0 2.4296104068
W  W18  1  0.03810000  0.37595000  0.33100000  1.0 2.4296104068
W  W19  1  0.37595000  0.96190000  0.08100000  1.0 2.4296104068
W  W20  1  0.62405000  0.03810000  0.58100000  1.0 2.4296104068
W  W21  1  0.66302000  0.48630000  0.69893000  1.0 2.3941832736
W  W22  1  0.33698000  0.51370000  0.19893000  1.0 2.3941832736
W  W23  1  0.51370000  0.66302000  0.94893000  1.0 2.3941832736
W  W24  1  0.48630000  0.33698000  0.44893000  1.0 2.3941832736
W  W25  1  0.78374000  0.46844000  0.80849000  1.0 2.2725471213
W  W26  1  0.21626000  0.53156000  0.30849000  1.0 2.2542903378
W  W27  1  0.53156000  0.78374000  0.05849000  1.0 2.2725471213
W  W28  1  0.46844000  0.21626000  0.55849000  1.0 2.2542903378
W  W29  1  0.99623000  0.78807000  0.74577000  1.0 2.4184438183
W  W30  1  0.00377000  0.21193000  0.24577000  1.0 2.4184438183
W  W31  1  0.21193000  0.99623000  0.99577000  1.0 2.4184438183
W  W32  1  0.78807000  0.00377000  0.49577000  1.0 2.4184438183
W  W33  1  0.81404000  0.79022000  0.81956000  1.0 2.4184438183
W  W34  1  0.18596000  0.20978000  0.31956000  1.0 2.4184438183
W  W35  1  0.20978000  0.81404000  0.06956000  1.0 2.4184438183
W  W36  1  0.79022000  0.18596000  0.56956000  1.0 2.4184438183
C  C1  1  0.39710000  0.80380000  0.65930000  1.0 -0.013962264
C  C2  1  0.60290000  0.19620000  0.15930000  1.0 -0.013962264
C  C3  1  0.19620000  0.39710000  0.90930000  1.0 -0.013962264
C  C4  1  0.80380000  0.60290000  0.40930000  1.0 -0.013962264
C  C5  1  0.38540000  0.82580000  0.60890000  1.0 -0.0623372242
C  C6  1  0.61460000  0.17420000  0.10890000  1.0 -0.0623372242
C  C7  1  0.17420000  0.38540000  0.85890000  1.0 -0.0623372242
C  C8  1  0.82580000  0.61460000  0.35890000  1.0 -0.0623372242
C  C9  1  0.30780000  0.83810000  0.58990000  1.0 -0.0904266953
C  C10  1  0.69220000  0.16190000  0.08990000  1.0 -0.0904266953
C  C11  1  0.16190000  0.30780000  0.83990000  1.0 -0.0904266953
C  C12  1  0.83810000  0.69220000  0.33990000  1.0 -0.0904266953
C  C13  1  0.23490000  0.82680000  0.61990000  1.0 0.0140032911
C  C14  1  0.76510000  0.17320000  0.11990000  1.0 0.0140032911
C  C15  1  0.17320000  0.23490000  0.86990000  1.0 0.0140032911
C  C16  1  0.82680000  0.76510000  0.36990000  1.0 0.0140032911
C  C17  1  0.24320000  0.80530000  0.67020000  1.0 -0.0904266953
C  C18  1  0.75680000  0.19470000  0.17020000  1.0 -0.0904266953
C  C19  1  0.19470000  0.24320000  0.92020000  1.0 -0.0904266953
C  C20  1  0.80530000  0.75680000  0.42020000  1.0 -0.0904266953
C  C21  1  0.32500000  0.79520000  0.69080000  1.0 -0.0240192402
C  C22  1  0.67500000  0.20480000  0.19080000  1.0 -0.0240192402
C  C23  1  0.20480000  0.32500000  0.94080000  1.0 -0.0240192402
C  C24  1  0.79520000  0.67500000  0.44080000  1.0 -0.0240192402
C  C25  1  0.48580000  0.79030000  0.68070000  1.0 0.6266526982
C  C26  1  0.51420000  0.20970000  0.18070000  1.0 0.6266526982
C  C27  1  0.20970000  0.48580000  0.93070000  1.0 0.6266526982
C  C28  1  0.79030000  0.51420000  0.43070000  1.0 0.6266526982
C  C29  1  0.33710000  0.77480000  0.74580000  1.0 0.6221537545
C  C30  1  0.66290000  0.22520000  0.24580000  1.0 0.6221537545
C  C31  1  0.22520000  0.33710000  0.99580000  1.0 0.6221537545
C  C32  1  0.77480000  0.66290000  0.49580000  1.0 0.6221537545
C  C33  1  0.14640000  0.83740000  0.59710000  1.0 0.593981341
C  C34  1  0.85360000  0.16260000  0.09710000  1.0 0.593981341
C  C35  1  0.16260000  0.14640000  0.84710000  1.0 0.593981341
C  C36  1  0.83740000  0.85360000  0.34710000  1.0 0.5953793481
O  O1  1  0.76470000  0.83710000  0.76390000  1.0 -0.8597811733
O  O2  1  0.23530000  0.16290000  0.26390000  1.0 -0.8597811733
O  O3  1  0.16290000  0.76470000  0.01390000  1.0 -0.8597811733
O  O4  1  0.83710000  0.23530000  0.51390000  1.0 -0.8597811733
O  O5  1  0.67730000  0.83820000  0.67750000  1.0 -0.8597811733
O  O6  1  0.32270000  0.16180000  0.17750000  1.0 -0.8597811733
O  O7  1  0.16180000  0.67730000  0.92750000  1.0 -0.8597811733
O  O8  1  0.83820000  0.32270000  0.42750000  1.0 -0.8597811733
O  O9  1  0.63580000  0.71270000  0.74390000  1.0 -0.8293776184
O  O10  1  0.36420000  0.28730000  0.24390000  1.0 -0.8293776184
O  O11  1  0.28730000  0.63580000  0.99390000  1.0 -0.8293776184
O  O12  1  0.71270000  0.36420000  0.49390000  1.0 -0.8293776184
O  O13  1  0.93070000  0.83200000  0.69560000  1.0 -0.8597811733
O  O14  1  0.06930000  0.16800000  0.19560000  1.0 -0.8597811733
O  O15  1  0.16800000  0.93070000  0.94560000  1.0 -0.8597811733
O  O16  1  0.83200000  0.06930000  0.44560000  1.0 -0.8597811733
O  O17  1  0.82960000  0.83250000  0.61210000  1.0 -0.8293776184
O  O18  1  0.17040000  0.16750000  0.11210000  1.0 -0.8293776184
O  O19  1  0.16750000  0.82960000  0.86210000  1.0 -0.8293776184
O  O20  1  0.83250000  0.17040000  0.36210000  1.0 -0.8293776184
O  O21  1  0.68610000  0.70900000  0.59700000  1.0 -0.8509822473
O  O22  1  0.31390000  0.29100000  0.09700000  1.0 -0.8509822473
O  O23  1  0.29100000  0.68610000  0.84700000  1.0 -0.8509822473
O  O24  1  0.70900000  0.31390000  0.34700000  1.0 -0.8509822473
O  O25  1  0.64620000  0.57770000  0.65790000  1.0 -0.8293776184
O  O26  1  0.35380000  0.42230000  0.15790000  1.0 -0.8293776184
O  O27  1  0.42230000  0.64620000  0.90790000  1.0 -0.8293776184
O  O28  1  0.57770000  0.35380000  0.40790000  1.0 -0.8293776184
O  O29  1  0.94470000  0.70110000  0.61740000  1.0 -0.8415775791
O  O30  1  0.05530000  0.29890000  0.11740000  1.0 -0.8415775791
O  O31  1  0.29890000  0.94470000  0.86740000  1.0 -0.8415775791
O  O32  1  0.70110000  0.05530000  0.36740000  1.0 -0.8415775791
O  O33  1  0.42580000  0.79970000  0.85000000  1.0 -0.8415775791
O  O34  1  0.57420000  0.20030000  0.35000000  1.0 -0.8415775791
O  O35  1  0.20030000  0.42580000  0.10000000  1.0 -0.8415775791
O  O36  1  0.79970000  0.57420000  0.60000000  1.0 -0.8415775791
O  O37  1  0.79050000  0.70330000  0.68090000  1.0 -0.785427992
O  O38  1  0.20950000  0.29670000  0.18090000  1.0 -0.785427992
O  O39  1  0.29670000  0.79050000  0.93090000  1.0 -0.785427992
O  O40  1  0.70330000  0.20950000  0.43090000  1.0 -0.785427992
O  O41  1  0.50920000  0.83950000  0.71560000  1.0 -0.5270942495
O  O42  1  0.49080000  0.16050000  0.21560000  1.0 -0.5270942495
O  O43  1  0.16050000  0.50920000  0.96560000  1.0 -0.5270942495
O  O44  1  0.83950000  0.49080000  0.46560000  1.0 -0.5270942495
O  O45  1  0.52890000  0.73490000  0.65860000  1.0 -0.4998001799
O  O46  1  0.47110000  0.26510000  0.15860000  1.0 -0.4998001799
O  O47  1  0.26510000  0.52890000  0.90860000  1.0 -0.4998001799
O  O48  1  0.73490000  0.47110000  0.40860000  1.0 -0.4998001799
O  O49  1  0.38530000  0.71060000  0.75720000  1.0 -0.5582735285
O  O50  1  0.61470000  0.28940000  0.25720000  1.0 -0.5582735285
O  O51  1  0.28940000  0.38530000  0.00720000  1.0 -0.5582735285
O  O52  1  0.71060000  0.61470000  0.50720000  1.0 -0.5582735285
O  O53  1  0.29550000  0.82280000  0.77570000  1.0 -0.5054951355
O  O54  1  0.70450000  0.17720000  0.27570000  1.0 -0.5054951355
O  O55  1  0.17720000  0.29550000  0.02570000  1.0 -0.5054951355
O  O56  1  0.82280000  0.70450000  0.52570000  1.0 -0.5054951355
O  O57  1  0.08310000  0.83790000  0.62830000  1.0 -0.5677524031
O  O58  1  0.91690000  0.16210000  0.12830000  1.0 -0.5677524031
O  O59  1  0.16210000  0.08310000  0.87830000  1.0 -0.5677524031
O  O60  1  0.83790000  0.91690000  0.37830000  1.0 -0.5677524031
O  O61  1  0.14050000  0.84890000  0.55070000  1.0 -0.3928062886
O  O62  1  0.85950000  0.15110000  0.05070000  1.0 -0.3928062886
O  O63  1  0.15110000  0.14050000  0.80070000  1.0 -0.3928062886
O  O64  1  0.84890000  0.85950000  0.30070000  1.0 -0.3928062886
O  O65  1  0.54480000  0.65520000  0.82580000  1.0 -0.7462486371
O  O66  1  0.45520000  0.34480000  0.32580000  1.0 -0.7462486371
O  O67  1  0.34480000  0.54480000  0.07580000  1.0 -0.7462486371
O  O68  1  0.65520000  0.45520000  0.57580000  1.0 -0.7462486371
O  O69  1  0.71000000  0.42350000  0.75820000  1.0 -0.8778068816
O  O70  1  0.29000000  0.57650000  0.25820000  1.0 -0.8778068816
O  O71  1  0.57650000  0.71000000  0.00820000  1.0 -0.8778068816
O  O72  1  0.42350000  0.29000000  0.50820000  1.0 -0.8778068816
O  O73  1  0.88910000  0.71010000  0.85820000  1.0 -0.8597811733
O  O74  1  0.11090000  0.28990000  0.35820000  1.0 -0.8597811733
O  O75  1  0.28990000  0.88910000  0.10820000  1.0 -0.8597811733
O  O76  1  0.71010000  0.11090000  0.60820000  1.0 -0.8597811733
O  O77  1  0.72710000  0.70570000  0.82550000  1.0 -0.8597811733
O  O78  1  0.27290000  0.29430000  0.32550000  1.0 -0.8597811733
O  O79  1  0.29430000  0.72710000  0.07550000  1.0 -0.8597811733
O  O80  1  0.70570000  0.27290000  0.57550000  1.0 -0.8597811733
O  O81  1  0.04730000  0.37780000  0.74580000  1.0 -0.6078862593
O  O82  1  0.95270000  0.62220000  0.24580000  1.0 -0.6042486474
O  O83  1  0.62220000  0.04730000  0.99580000  1.0 -0.6078862593
O  O84  1  0.37780000  0.95270000  0.49580000  1.0 -0.6042486474
O  O85  1  0.78690000  0.86010000  0.86740000  1.0 -0.5872621581
O  O86  1  0.21310000  0.13990000  0.36740000  1.0 -0.5872621581
O  O87  1  0.13990000  0.78690000  0.11740000  1.0 -0.5872621581
O  O88  1  0.86010000  0.21310000  0.61740000  1.0 -0.5872621581
O  O89  1  0.92780000  0.41520000  0.67060000  1.0 -0.8691146269
O  O90  1  0.07220000  0.58480000  0.17060000  1.0 -0.8691146269
O  O91  1  0.58480000  0.92780000  0.92060000  1.0 -0.8691146269
O  O92  1  0.41520000  0.07220000  0.42060000  1.0 -0.8691146269
O  O93  1  0.76350000  0.45090000  0.66450000  1.0 -0.8415775791
O  O94  1  0.23650000  0.54910000  0.16450000  1.0 -0.8415775791
O  O95  1  0.54910000  0.76350000  0.91450000  1.0 -0.8415775791
O  O96  1  0.45090000  0.23650000  0.41450000  1.0 -0.8415775791
O  O97  1  0.08310000  0.85540000  0.74830000  1.0 -0.5539929017
O  O98  1  0.91690000  0.14460000  0.24830000  1.0 -0.5539929017
O  O99  1  0.14460000  0.08310000  0.99830000  1.0 -0.5539929017
O  O100  1  0.85540000  0.91690000  0.49830000  1.0 -0.5539929017
O  O101  1  0.89360000  0.57840000  0.69120000  1.0 -0.8895913109
O  O102  1  0.10640000  0.42160000  0.19120000  1.0 -0.8895913109
O  O103  1  0.42160000  0.89360000  0.94120000  1.0 -0.8895913109
O  O104  1  0.57840000  0.10640000  0.44120000  1.0 -0.8895913109
O  O105  1  0.92450000  0.83700000  0.79760000  1.0 -0.8597811733
O  O106  1  0.07550000  0.16300000  0.29760000  1.0 -0.8597811733
O  O107  1  0.16300000  0.92450000  0.04760000  1.0 -0.8597811733
O  O108  1  0.83700000  0.07550000  0.54760000  1.0 -0.8597811733
O  O109  1  0.11310000  0.63910000  0.61210000  1.0 -0.6078862593
O  O110  1  0.88690000  0.36090000  0.11210000  1.0 -0.6078862593
O  O111  1  0.36090000  0.11310000  0.86210000  1.0 -0.6078862593
O  O112  1  0.63910000  0.88690000  0.36210000  1.0 -0.6078862593
O  O113  1  0.96430000  0.53420000  0.60380000  1.0 -0.8509822473
O  O114  1  0.03570000  0.46580000  0.10380000  1.0 -0.8509822473
O  O115  1  0.46580000  0.96430000  0.85380000  1.0 -0.8509822473
O  O116  1  0.53420000  0.03570000  0.35380000  1.0 -0.8509822473
O  O117  1  0.87830000  0.43530000  0.76510000  1.0 -0.8895913109
O  O118  1  0.12170000  0.56470000  0.26510000  1.0 -0.8895913109
O  O119  1  0.56470000  0.87830000  0.01510000  1.0 -0.8895913109
O  O120  1  0.43530000  0.12170000  0.51510000  1.0 -0.8895913109
O  O121  1  0.59150000  0.84950000  0.82150000  1.0 -0.7377381668
O  O122  1  0.40850000  0.15050000  0.32150000  1.0 -0.7377381668
O  O123  1  0.15050000  0.59150000  0.07150000  1.0 -0.7377381668
O  O124  1  0.84950000  0.40850000  0.57150000  1.0 -0.7377381668
O  O125  1  0.76170000  0.58220000  0.74330000  1.0 -0.8778068816
O  O126  1  0.23830000  0.41780000  0.24330000  1.0 -0.8778068816
O  O127  1  0.41780000  0.76170000  0.99330000  1.0 -0.8778068816
O  O128  1  0.58220000  0.23830000  0.49330000  1.0 -0.8778068816
O  O129  1  0.03310000  0.70900000  0.80210000  1.0 -0.8597811733
O  O130  1  0.96690000  0.29100000  0.30210000  1.0 -0.8597811733
O  O131  1  0.29100000  0.03310000  0.05210000  1.0 -0.8597811733
O  O132  1  0.70900000  0.96690000  0.55210000  1.0 -0.8597811733
O  O133  1  0.99970000  0.54460000  0.78100000  1.0 -0.8691146269
O  O134  1  0.00030000  0.45540000  0.28100000  1.0 -0.8691146269
O  O135  1  0.45540000  0.99970000  0.03100000  1.0 -0.8691146269
O  O136  1  0.54460000  0.00030000  0.53100000  1.0 -0.8691146269
O  O137  1  0.69150000  0.53960000  0.83140000  1.0 -0.8597811733
O  O138  1  0.30850000  0.46040000  0.33140000  1.0 -0.8597811733
O  O139  1  0.46040000  0.69150000  0.08140000  1.0 -0.8597811733
O  O140  1  0.53960000  0.30850000  0.58140000  1.0 -0.8597811733
O  O141  1  0.86310000  0.54870000  0.83510000  1.0 -0.8778068816
O  O142  1  0.13690000  0.45130000  0.33510000  1.0 -0.8778068816
O  O143  1  0.45130000  0.86310000  0.08510000  1.0 -0.8778068816
O  O144  1  0.54870000  0.13690000  0.58510000  1.0 -0.8778068816
O  O145  1  0.02000000  0.59220000  0.88230000  1.0 -0.6259838387
O  O146  1  0.98000000  0.40780000  0.38230000  1.0 -0.6239441976
O  O147  1  0.40780000  0.02000000  0.13230000  1.0 -0.6259838387
O  O148  1  0.59220000  0.98000000  0.63230000  1.0 -0.6239441976
O  O149  1  0.88050000  0.68810000  0.76000000  1.0 -0.9043627724
O  O150  1  0.11950000  0.31190000  0.26000000  1.0 -0.9043627724
O  O151  1  0.31190000  0.88050000  0.01000000  1.0 -0.9043627724
O  O152  1  0.68810000  0.11950000  0.51000000  1.0 -0.9043627724
O  O153  1  0.58820000  0.41170000  0.67990000  1.0 -0.581068863
O  O154  1  0.41180000  0.58830000  0.17990000  1.0 -0.581068863
O  O155  1  0.58830000  0.58820000  0.92990000  1.0 -0.581068863
O  O156  1  0.41170000  0.41180000  0.42990000  1.0 -0.581068863
O  O157  1  0.03720000  0.69610000  0.70310000  1.0 -0.8597811733
O  O158  1  0.96280000  0.30390000  0.20310000  1.0 -0.8509822473
O  O159  1  0.30390000  0.03720000  0.95310000  1.0 -0.8597811733
O  O160  1  0.69610000  0.96280000  0.45310000  1.0 -0.8509822473
O  O161  1  0.59770000  0.54690000  0.75060000  1.0 -0.8293776184
O  O162  1  0.40230000  0.45310000  0.25060000  1.0 -0.8293776184
O  O163  1  0.45310000  0.59770000  0.00060000  1.0 -0.8293776184
O  O164  1  0.54690000  0.40230000  0.50060000  1.0 -0.8293776184
O  O165  1  0.05490000  0.52670000  0.68780000  1.0 -0.8691146269
O  O166  1  0.94510000  0.47330000  0.18780000  1.0 -0.8691146269
O  O167  1  0.47330000  0.05490000  0.93780000  1.0 -0.8691146269
O  O168  1  0.52670000  0.94510000  0.43780000  1.0 -0.8691146269
O  O169  1  0.78350000  0.38820000  0.85240000  1.0 -0.5677524031
O  O170  1  0.21650000  0.61180000  0.35240000  1.0 -0.5677524031
O  O171  1  0.61180000  0.78350000  0.10240000  1.0 -0.5677524031
O  O172  1  0.38820000  0.21650000  0.60240000  1.0 -0.5677524031
O  O173  1  0.62210000  0.97740000  0.74900000  1.0 -0.0689572569
O  O174  1  0.37790000  0.02260000  0.24900000  1.0 -0.0689572569
O  O175  1  0.02260000  0.62210000  0.99900000  1.0 -0.0689572569
O  O176  1  0.97740000  0.37790000  0.49900000  1.0 -0.0689572569
O  O177  1  0.80730000  0.97860000  0.68840000  1.0 -0.2885798559
O  O178  1  0.19270000  0.02140000  0.18840000  1.0 -0.2990062878
O  O179  1  0.02140000  0.80730000  0.93840000  1.0 -0.2885798559
O  O180  1  0.97860000  0.19270000  0.43840000  1.0 -0.2885798559
O  O181  1  0.95620000  0.97160000  0.60950000  1.0 -0.1744684026
O  O182  1  0.04380000  0.02840000  0.10950000  1.0 -0.1795526788
O  O183  1  0.02840000  0.95620000  0.85950000  1.0 -0.1795526788
O  O184  1  0.97160000  0.04380000  0.35950000  1.0 -0.1795526788
O  O185  1  0.97690000  0.81780000  0.53780000  1.0 -0.2548045859
O  O186  1  0.02310000  0.18220000  0.03780000  1.0 -0.2587472841
O  O187  1  0.18220000  0.97690000  0.78780000  1.0 -0.2587472841
O  O188  1  0.81780000  0.02310000  0.28780000  1.0 -0.2587472841
O  O189  1  0.39970000  0.54300000  0.81180000  1.0 -0.1598307125
O  O190  1  0.60030000  0.45700000  0.31180000  1.0 -0.1598307125
O  O191  1  0.45700000  0.39970000  0.06180000  1.0 -0.1598307125
O  O192  1  0.54300000  0.60030000  0.56180000  1.0 -0.1598307125
