# DDEC6 charges by PACMAN v1.1 (https://github.com/mtap-research/PACMAN-charge/)
data_POCCOC_ASR_pacman
_symmetry_space_group_name_H-M   'P 1'
_cell_length_a   23.64610000
_cell_length_b   7.14970000
_cell_length_c   34.40470000
_cell_angle_alpha   90.00000000
_cell_angle_beta   133.11300000
_cell_angle_gamma   90.00000000
_symmetry_Int_Tables_number   1
_chemical_formula_structural   H11PbC20NO4
_chemical_formula_sum   'H88 Pb8 C160 N8 O32'
_cell_volume   4246.12012669
_cell_formula_units_Z   8
loop_
 _symmetry_equiv_pos_site_id
 _symmetry_equiv_pos_as_xyz
  1  'x, y, z'
loop_
 _atom_site_type_symbol
 _atom_site_label
 _atom_site_symmetry_multiplicity
 _atom_site_fract_x
 _atom_site_fract_y
 _atom_site_fract_z
 _atom_site_occupancy
 _atom_site_charge
H  H1  1  0.60286000  0.13773000  0.79408000  1.0 0.1192160032
H  H2  1  0.49762000  0.04294000  0.70784000  1.0 0.111468293
H  H3  1  0.64099000  0.83699000  0.69493000  1.0 0.111468293
H  H4  1  0.74549000  0.93704000  0.77902000  1.0 0.1192160032
H  H5  1  0.41034000  0.87010000  0.64011000  1.0 0.111468293
H  H6  1  0.31984000  0.76054000  0.49286000  1.0 0.1192160032
H  H7  1  0.54718000  0.88054000  0.61046000  1.0 0.1192160032
H  H8  1  0.30862000  0.74578000  0.61660000  1.0 0.1192160032
H  H9  1  0.18778000  0.72962000  0.58795000  1.0 0.1192160032
H  H10  1  0.08963000  0.80064000  0.43671000  1.0 0.1192160032
H  H11  1  0.21096000  0.83273000  0.46649000  1.0 0.1192160032
H  H12  1  0.21041000  0.38775000  0.27660000  1.0 0.1192160032
H  H13  1  0.32183000  0.46491000  0.36187000  1.0 0.1192160032
H  H14  1  0.41731000  0.64531000  0.30708000  1.0 0.111468293
H  H15  1  0.30578000  0.56769000  0.22188000  1.0 0.1192160032
H  H16  1  0.39460000  0.68440000  0.42233000  1.0 0.1192160032
H  H17  1  0.62395000  0.76539000  0.53747000  1.0 0.1192160032
H  H18  1  0.63482000  0.72248000  0.41583000  1.0 0.111468293
H  H19  1  0.75689000  0.74255000  0.44603000  1.0 0.1192160032
H  H20  1  0.85264000  0.65751000  0.59580000  1.0 0.1192160032
H  H21  1  0.73059000  0.63421000  0.56549000  1.0 0.1192160032
H  H22  1  0.53079000  0.59066000  0.39372000  1.0 0.111468293
H  H23  1  0.39714000  0.13773000  0.70592000  1.0 0.1192160032
H  H24  1  0.50238000  0.04294000  0.79216000  1.0 0.111468293
H  H25  1  0.35901000  0.83699000  0.80507000  1.0 0.111468293
H  H26  1  0.25451000  0.93704000  0.72098000  1.0 0.1192160032
H  H27  1  0.58966000  0.87010000  0.85989000  1.0 0.111468293
H  H28  1  0.68016000  0.76054000  0.00714000  1.0 0.1192160032
H  H29  1  0.45282000  0.88054000  0.88954000  1.0 0.1192160032
H  H30  1  0.69138000  0.74578000  0.88340000  1.0 0.1192160032
H  H31  1  0.81222000  0.72962000  0.91205000  1.0 0.1192160032
H  H32  1  0.91037000  0.80064000  0.06329000  1.0 0.1192160032
H  H33  1  0.78904000  0.83273000  0.03351000  1.0 0.1192160032
H  H34  1  0.78959000  0.38775000  0.22340000  1.0 0.1192160032
H  H35  1  0.67817000  0.46491000  0.13813000  1.0 0.1192160032
H  H36  1  0.58269000  0.64531000  0.19292000  1.0 0.111468293
H  H37  1  0.69422000  0.56769000  0.27812000  1.0 0.1192160032
H  H38  1  0.60540000  0.68440000  0.07767000  1.0 0.1192160032
H  H39  1  0.37605000  0.76539000  0.96253000  1.0 0.1192160032
H  H40  1  0.36518000  0.72248000  0.08417000  1.0 0.111468293
H  H41  1  0.24311000  0.74255000  0.05397000  1.0 0.1192160032
H  H42  1  0.14736000  0.65751000  0.90420000  1.0 0.1192160032
H  H43  1  0.26941000  0.63421000  0.93451000  1.0 0.1192160032
H  H44  1  0.46921000  0.59066000  0.10628000  1.0 0.111468293
H  H45  1  0.39714000  0.86227000  0.20592000  1.0 0.1192160032
H  H46  1  0.50238000  0.95706000  0.29216000  1.0 0.111468293
H  H47  1  0.35901000  0.16301000  0.30507000  1.0 0.111468293
H  H48  1  0.25451000  0.06296000  0.22098000  1.0 0.1192160032
H  H49  1  0.58966000  0.12990000  0.35989000  1.0 0.111468293
H  H50  1  0.68016000  0.23946000  0.50714000  1.0 0.1192160032
H  H51  1  0.45282000  0.11946000  0.38954000  1.0 0.1192160032
H  H52  1  0.69138000  0.25422000  0.38340000  1.0 0.1192160032
H  H53  1  0.81222000  0.27038000  0.41205000  1.0 0.1192160032
H  H54  1  0.91037000  0.19936000  0.56329000  1.0 0.1192160032
H  H55  1  0.78904000  0.16727000  0.53351000  1.0 0.1192160032
H  H56  1  0.78959000  0.61225000  0.72340000  1.0 0.1192160032
H  H57  1  0.67817000  0.53509000  0.63813000  1.0 0.1192160032
H  H58  1  0.58269000  0.35469000  0.69292000  1.0 0.111468293
H  H59  1  0.69422000  0.43231000  0.77812000  1.0 0.1192160032
H  H60  1  0.60540000  0.31560000  0.57767000  1.0 0.1192160032
H  H61  1  0.37605000  0.23461000  0.46253000  1.0 0.1192160032
H  H62  1  0.36518000  0.27752000  0.58417000  1.0 0.111468293
H  H63  1  0.24311000  0.25745000  0.55397000  1.0 0.1192160032
H  H64  1  0.14736000  0.34249000  0.40420000  1.0 0.1192160032
H  H65  1  0.26941000  0.36579000  0.43451000  1.0 0.1192160032
H  H66  1  0.46921000  0.40934000  0.60628000  1.0 0.111468293
H  H67  1  0.60286000  0.86227000  0.29408000  1.0 0.1192160032
H  H68  1  0.49762000  0.95706000  0.20784000  1.0 0.111468293
H  H69  1  0.64099000  0.16301000  0.19493000  1.0 0.111468293
H  H70  1  0.74549000  0.06296000  0.27902000  1.0 0.1192160032
H  H71  1  0.41034000  0.12990000  0.14011000  1.0 0.111468293
H  H72  1  0.31984000  0.23946000  0.99286000  1.0 0.1192160032
H  H73  1  0.54718000  0.11946000  0.11046000  1.0 0.1192160032
H  H74  1  0.30862000  0.25422000  0.11660000  1.0 0.1192160032
H  H75  1  0.18778000  0.27038000  0.08795000  1.0 0.1192160032
H  H76  1  0.08963000  0.19936000  0.93671000  1.0 0.1192160032
H  H77  1  0.21096000  0.16727000  0.96649000  1.0 0.1192160032
H  H78  1  0.21041000  0.61225000  0.77660000  1.0 0.1192160032
H  H79  1  0.32183000  0.53509000  0.86187000  1.0 0.1192160032
H  H80  1  0.41731000  0.35469000  0.80708000  1.0 0.111468293
H  H81  1  0.30578000  0.43231000  0.72188000  1.0 0.1192160032
H  H82  1  0.39460000  0.31560000  0.92233000  1.0 0.1192160032
H  H83  1  0.62395000  0.23461000  0.03747000  1.0 0.1192160032
H  H84  1  0.63482000  0.27752000  0.91583000  1.0 0.111468293
H  H85  1  0.75689000  0.25745000  0.94603000  1.0 0.1192160032
H  H86  1  0.85264000  0.34249000  0.09580000  1.0 0.1192160032
H  H87  1  0.73059000  0.36579000  0.06549000  1.0 0.1192160032
H  H88  1  0.53079000  0.40934000  0.89372000  1.0 0.111468293
Pb  Pb1  1  0.88242000  0.35203000  0.93279000  1.0 1.0814491314
Pb  Pb2  1  0.05502000  0.13773000  0.10117000  1.0 1.1065500778
Pb  Pb3  1  0.11758000  0.35203000  0.56721000  1.0 1.0814491314
Pb  Pb4  1  0.94498000  0.13773000  0.39883000  1.0 1.1065500778
Pb  Pb5  1  0.11758000  0.64797000  0.06721000  1.0 1.0814491314
Pb  Pb6  1  0.94498000  0.86227000  0.89883000  1.0 1.1065500778
Pb  Pb7  1  0.88242000  0.64797000  0.43279000  1.0 1.0814491314
Pb  Pb8  1  0.05502000  0.86227000  0.60117000  1.0 1.1065500778
C  C1  1  0.75310000  0.12960000  0.84910000  1.0 0.5514929098
C  C2  1  0.68610000  0.04670000  0.79600000  1.0 -0.0305476898
C  C3  1  0.61070000  0.07860000  0.77400000  1.0 -0.111775172
C  C4  1  0.54740000  0.02150000  0.72200000  1.0 -0.1603878635
C  C5  1  0.55730000  0.93310000  0.69100000  1.0 0.0720859228
C  C6  1  0.63280000  0.90020000  0.71430000  1.0 -0.1285646817
C  C7  1  0.69580000  0.95790000  0.76520000  1.0 -0.0917105305
C  C8  1  0.48940000  0.88320000  0.63440000  1.0 0.0892670336
C  C9  1  0.41630000  0.85740000  0.61620000  1.0 -0.198183288
C  C10  1  0.35160000  0.81290000  0.56330000  1.0 0.0954053504
C  C11  1  0.36190000  0.79060000  0.52830000  1.0 -0.2089107168
C  C12  1  0.43520000  0.81310000  0.54620000  1.0 0.1741039874
C  C13  1  0.49890000  0.86220000  0.59910000  1.0 -0.2089107168
C  C14  1  0.27330000  0.79120000  0.54470000  1.0 0.0768503052
C  C15  1  0.26480000  0.75920000  0.58060000  1.0 -0.1236548769
C  C16  1  0.19230000  0.74720000  0.56340000  1.0 -0.1285646817
C  C17  1  0.12540000  0.76150000  0.50870000  1.0 -0.0415301203
C  C18  1  0.13340000  0.79180000  0.47290000  1.0 -0.0917105305
C  C19  1  0.20650000  0.80890000  0.49090000  1.0 -0.1285646817
C  C20  1  0.04680000  0.74690000  0.48980000  1.0 0.5688843233
C  C21  1  0.17480000  0.40670000  0.18500000  1.0 0.5601891083
C  C22  1  0.24590000  0.46960000  0.24000000  1.0 -0.0305476898
C  C23  1  0.25180000  0.44010000  0.28260000  1.0 -0.1017819243
C  C24  1  0.31860000  0.48770000  0.33380000  1.0 -0.1481943551
C  C25  1  0.38130000  0.56940000  0.34400000  1.0 0.0720859228
C  C26  1  0.37560000  0.59530000  0.30110000  1.0 -0.1429578411
C  C27  1  0.30880000  0.54760000  0.25000000  1.0 -0.0917105305
C  C28  1  0.45040000  0.62610000  0.39850000  1.0 0.0892670336
C  C29  1  0.44330000  0.68140000  0.43370000  1.0 -0.2089107168
C  C30  1  0.50840000  0.73250000  0.48590000  1.0 0.1741039874
C  C31  1  0.58080000  0.73130000  0.50260000  1.0 -0.2089107168
C  C32  1  0.59060000  0.68020000  0.46860000  1.0 0.0892670336
C  C33  1  0.66940000  0.68230000  0.48770000  1.0 0.0720859228
C  C34  1  0.67830000  0.71120000  0.45200000  1.0 -0.1481943551
C  C35  1  0.75170000  0.72340000  0.47020000  1.0 -0.0917105305
C  C36  1  0.81750000  0.70730000  0.52400000  1.0 -0.0415301203
C  C37  1  0.80900000  0.67210000  0.55970000  1.0 -0.0917105305
C  C38  1  0.73570000  0.65900000  0.54150000  1.0 -0.1603878635
C  C39  1  0.89560000  0.73780000  0.54340000  1.0 0.5514929098
C  C40  1  0.52520000  0.62690000  0.41690000  1.0 -0.1840368408
C  C41  1  0.24690000  0.12960000  0.65090000  1.0 0.5514929098
C  C42  1  0.31390000  0.04670000  0.70400000  1.0 -0.0305476898
C  C43  1  0.38930000  0.07860000  0.72600000  1.0 -0.111775172
C  C44  1  0.45260000  0.02150000  0.77800000  1.0 -0.1603878635
C  C45  1  0.44270000  0.93310000  0.80900000  1.0 0.0720859228
C  C46  1  0.36720000  0.90020000  0.78570000  1.0 -0.1285646817
C  C47  1  0.30420000  0.95790000  0.73480000  1.0 -0.0917105305
C  C48  1  0.51060000  0.88320000  0.86560000  1.0 0.0892670336
C  C49  1  0.58370000  0.85740000  0.88380000  1.0 -0.198183288
C  C50  1  0.64840000  0.81290000  0.93670000  1.0 0.0954053504
C  C51  1  0.63810000  0.79060000  0.97170000  1.0 -0.2089107168
C  C52  1  0.56480000  0.81310000  0.95380000  1.0 0.1741039874
C  C53  1  0.50110000  0.86220000  0.90090000  1.0 -0.2089107168
C  C54  1  0.72670000  0.79120000  0.95530000  1.0 0.0768503052
C  C55  1  0.73520000  0.75920000  0.91940000  1.0 -0.1236548769
C  C56  1  0.80770000  0.74720000  0.93660000  1.0 -0.1285646817
C  C57  1  0.87460000  0.76150000  0.99130000  1.0 -0.0415301203
C  C58  1  0.86660000  0.79180000  0.02710000  1.0 -0.0917105305
C  C59  1  0.79350000  0.80890000  0.00910000  1.0 -0.1285646817
C  C60  1  0.95320000  0.74690000  0.01020000  1.0 0.5688843233
C  C61  1  0.82520000  0.40670000  0.31500000  1.0 0.5601891083
C  C62  1  0.75410000  0.46960000  0.26000000  1.0 -0.0305476898
C  C63  1  0.74820000  0.44010000  0.21740000  1.0 -0.1017819243
C  C64  1  0.68140000  0.48770000  0.16620000  1.0 -0.1481943551
C  C65  1  0.61870000  0.56940000  0.15600000  1.0 0.0720859228
C  C66  1  0.62440000  0.59530000  0.19890000  1.0 -0.1429578411
C  C67  1  0.69120000  0.54760000  0.25000000  1.0 -0.0917105305
C  C68  1  0.54960000  0.62610000  0.10150000  1.0 0.0892670336
C  C69  1  0.55670000  0.68140000  0.06630000  1.0 -0.2089107168
C  C70  1  0.49160000  0.73250000  0.01410000  1.0 0.1741039874
C  C71  1  0.41920000  0.73130000  0.99740000  1.0 -0.2089107168
C  C72  1  0.40940000  0.68020000  0.03140000  1.0 0.0892670336
C  C73  1  0.33060000  0.68230000  0.01230000  1.0 0.0720859228
C  C74  1  0.32170000  0.71120000  0.04800000  1.0 -0.1481943551
C  C75  1  0.24830000  0.72340000  0.02980000  1.0 -0.0917105305
C  C76  1  0.18250000  0.70730000  0.97600000  1.0 -0.0415301203
C  C77  1  0.19100000  0.67210000  0.94030000  1.0 -0.0917105305
C  C78  1  0.26430000  0.65900000  0.95850000  1.0 -0.1603878635
C  C79  1  0.10440000  0.73780000  0.95660000  1.0 0.5514929098
C  C80  1  0.47480000  0.62690000  0.08310000  1.0 -0.1840368408
C  C81  1  0.24690000  0.87040000  0.15090000  1.0 0.5514929098
C  C82  1  0.31390000  0.95330000  0.20400000  1.0 -0.0305476898
C  C83  1  0.38930000  0.92140000  0.22600000  1.0 -0.111775172
C  C84  1  0.45260000  0.97850000  0.27800000  1.0 -0.1603878635
C  C85  1  0.44270000  0.06690000  0.30900000  1.0 0.0720859228
C  C86  1  0.36720000  0.09980000  0.28570000  1.0 -0.1285646817
C  C87  1  0.30420000  0.04210000  0.23480000  1.0 -0.0917105305
C  C88  1  0.51060000  0.11680000  0.36560000  1.0 0.0892670336
C  C89  1  0.58370000  0.14260000  0.38380000  1.0 -0.198183288
C  C90  1  0.64840000  0.18710000  0.43670000  1.0 0.0892670336
C  C91  1  0.63810000  0.20940000  0.47170000  1.0 -0.2089107168
C  C92  1  0.56480000  0.18690000  0.45380000  1.0 0.1741039874
C  C93  1  0.50110000  0.13780000  0.40090000  1.0 -0.2089107168
C  C94  1  0.72670000  0.20880000  0.45530000  1.0 0.0768503052
C  C95  1  0.73520000  0.24080000  0.41940000  1.0 -0.1236548769
C  C96  1  0.80770000  0.25280000  0.43660000  1.0 -0.1285646817
C  C97  1  0.87460000  0.23850000  0.49130000  1.0 -0.0415301203
C  C98  1  0.86660000  0.20820000  0.52710000  1.0 -0.0917105305
C  C99  1  0.79350000  0.19110000  0.50910000  1.0 -0.1285646817
C  C100  1  0.95320000  0.25310000  0.51020000  1.0 0.5688843233
C  C101  1  0.82520000  0.59330000  0.81500000  1.0 0.5601891083
C  C102  1  0.75410000  0.53040000  0.76000000  1.0 -0.0305476898
C  C103  1  0.74820000  0.55990000  0.71740000  1.0 -0.1017819243
C  C104  1  0.68140000  0.51230000  0.66620000  1.0 -0.1481943551
C  C105  1  0.61870000  0.43060000  0.65600000  1.0 0.0720859228
C  C106  1  0.62440000  0.40470000  0.69890000  1.0 -0.1429578411
C  C107  1  0.69120000  0.45240000  0.75000000  1.0 -0.0917105305
C  C108  1  0.54960000  0.37390000  0.60150000  1.0 0.0892670336
C  C109  1  0.55670000  0.31860000  0.56630000  1.0 -0.2089107168
C  C110  1  0.49160000  0.26750000  0.51410000  1.0 0.1741039874
C  C111  1  0.41920000  0.26870000  0.49740000  1.0 -0.2089107168
C  C112  1  0.40940000  0.31980000  0.53140000  1.0 0.0892670336
C  C113  1  0.33060000  0.31770000  0.51230000  1.0 0.0720859228
C  C114  1  0.32170000  0.28880000  0.54800000  1.0 -0.1481943551
C  C115  1  0.24830000  0.27660000  0.52980000  1.0 -0.0917105305
C  C116  1  0.18250000  0.29270000  0.47600000  1.0 -0.0415301203
C  C117  1  0.19100000  0.32790000  0.44030000  1.0 -0.0917105305
C  C118  1  0.26430000  0.34100000  0.45850000  1.0 -0.1603878635
C  C119  1  0.10440000  0.26220000  0.45660000  1.0 0.5514929098
C  C120  1  0.47480000  0.37310000  0.58310000  1.0 -0.1840368408
C  C121  1  0.75310000  0.87040000  0.34910000  1.0 0.5514929098
C  C122  1  0.68610000  0.95330000  0.29600000  1.0 -0.0305476898
C  C123  1  0.61070000  0.92140000  0.27400000  1.0 -0.111775172
C  C124  1  0.54740000  0.97850000  0.22200000  1.0 -0.1603878635
C  C125  1  0.55730000  0.06690000  0.19100000  1.0 0.0720859228
C  C126  1  0.63280000  0.09980000  0.21430000  1.0 -0.1285646817
C  C127  1  0.69580000  0.04210000  0.26520000  1.0 -0.0917105305
C  C128  1  0.48940000  0.11680000  0.13440000  1.0 0.0892670336
C  C129  1  0.41630000  0.14260000  0.11620000  1.0 -0.198183288
C  C130  1  0.35160000  0.18710000  0.06330000  1.0 0.0892670336
C  C131  1  0.36190000  0.20940000  0.02830000  1.0 -0.2089107168
C  C132  1  0.43520000  0.18690000  0.04620000  1.0 0.1741039874
C  C133  1  0.49890000  0.13780000  0.09910000  1.0 -0.2089107168
C  C134  1  0.27330000  0.20880000  0.04470000  1.0 0.0768503052
C  C135  1  0.26480000  0.24080000  0.08060000  1.0 -0.1236548769
C  C136  1  0.19230000  0.25280000  0.06340000  1.0 -0.1285646817
C  C137  1  0.12540000  0.23850000  0.00870000  1.0 -0.0415301203
C  C138  1  0.13340000  0.20820000  0.97290000  1.0 -0.0917105305
C  C139  1  0.20650000  0.19110000  0.99090000  1.0 -0.1285646817
C  C140  1  0.04680000  0.25310000  0.98980000  1.0 0.5688843233
C  C141  1  0.17480000  0.59330000  0.68500000  1.0 0.5601891083
C  C142  1  0.24590000  0.53040000  0.74000000  1.0 -0.0305476898
C  C143  1  0.25180000  0.55990000  0.78260000  1.0 -0.1017819243
C  C144  1  0.31860000  0.51230000  0.83380000  1.0 -0.1481943551
C  C145  1  0.38130000  0.43060000  0.84400000  1.0 0.0720859228
C  C146  1  0.37560000  0.40470000  0.80110000  1.0 -0.1429578411
C  C147  1  0.30880000  0.45240000  0.75000000  1.0 -0.0917105305
C  C148  1  0.45040000  0.37390000  0.89850000  1.0 0.0892670336
C  C149  1  0.44330000  0.31860000  0.93370000  1.0 -0.2089107168
C  C150  1  0.50840000  0.26750000  0.98590000  1.0 0.1741039874
C  C151  1  0.58080000  0.26870000  0.00260000  1.0 -0.2089107168
C  C152  1  0.59060000  0.31980000  0.96860000  1.0 0.0892670336
C  C153  1  0.66940000  0.31770000  0.98770000  1.0 0.0720859228
C  C154  1  0.67830000  0.28880000  0.95200000  1.0 -0.1481943551
C  C155  1  0.75170000  0.27660000  0.97020000  1.0 -0.0917105305
C  C156  1  0.81750000  0.29270000  0.02400000  1.0 -0.0415301203
C  C157  1  0.80900000  0.32790000  0.05970000  1.0 -0.0917105305
C  C158  1  0.73570000  0.34100000  0.04150000  1.0 -0.1603878635
C  C159  1  0.89560000  0.26220000  0.04340000  1.0 0.5514929098
C  C160  1  0.52520000  0.37310000  0.91690000  1.0 -0.1840368408
N  N1  1  0.50580000  0.78030000  0.52490000  1.0 -0.1285646817
N  N2  1  0.43806000  0.77710000  0.50686000  1.0 -0.1285646817
N  N3  1  0.49420000  0.78030000  0.97510000  1.0 -0.1285646817
N  N4  1  0.56194000  0.77710000  0.99314000  1.0 -0.1285646817
N  N5  1  0.49420000  0.21970000  0.47510000  1.0 -0.1285646817
N  N6  1  0.56194000  0.22290000  0.49314000  1.0 -0.1285646817
N  N7  1  0.50580000  0.21970000  0.02490000  1.0 -0.1285646817
N  N8  1  0.43806000  0.22290000  0.00686000  1.0 -0.1285646817
O  O1  1  0.82156000  0.08920000  0.87018000  1.0 -0.5788462954
O  O2  1  0.73925000  0.24360000  0.86915000  1.0 -0.533539136
O  O3  1  0.90420000  0.77200000  0.51190000  1.0 -0.5788462954
O  O4  1  0.95336000  0.73190000  0.59250000  1.0 -0.495159437
O  O5  1  0.98769000  0.78450000  0.44192000  1.0 -0.5470622826
O  O6  1  0.04111000  0.69370000  0.52186000  1.0 -0.6136486727
O  O7  1  0.12700000  0.30770000  0.18180000  1.0 -0.5112064081
O  O8  1  0.16602000  0.44260000  0.14552000  1.0 -0.5788462954
O  O9  1  0.17844000  0.08920000  0.62982000  1.0 -0.5788462954
O  O10  1  0.26075000  0.24360000  0.63085000  1.0 -0.533539136
O  O11  1  0.09580000  0.77200000  0.98810000  1.0 -0.5788462954
O  O12  1  0.04664000  0.73190000  0.90750000  1.0 -0.495159437
O  O13  1  0.01231000  0.78450000  0.05808000  1.0 -0.5470622826
O  O14  1  0.95889000  0.69370000  0.97814000  1.0 -0.6136486727
O  O15  1  0.87300000  0.30770000  0.31820000  1.0 -0.5112064081
O  O16  1  0.83398000  0.44260000  0.35448000  1.0 -0.5788462954
O  O17  1  0.17844000  0.91080000  0.12982000  1.0 -0.5788462954
O  O18  1  0.26075000  0.75640000  0.13085000  1.0 -0.533539136
O  O19  1  0.09580000  0.22800000  0.48810000  1.0 -0.5788462954
O  O20  1  0.04664000  0.26810000  0.40750000  1.0 -0.4949471551
O  O21  1  0.01231000  0.21550000  0.55808000  1.0 -0.5470622826
O  O22  1  0.95889000  0.30630000  0.47814000  1.0 -0.6136486727
O  O23  1  0.87300000  0.69230000  0.81820000  1.0 -0.5112064081
O  O24  1  0.83398000  0.55740000  0.85448000  1.0 -0.5788462954
O  O25  1  0.82156000  0.91080000  0.37018000  1.0 -0.5788462954
O  O26  1  0.73925000  0.75640000  0.36915000  1.0 -0.533539136
O  O27  1  0.90420000  0.22800000  0.01190000  1.0 -0.5788462954
O  O28  1  0.95336000  0.26810000  0.09250000  1.0 -0.4949471551
O  O29  1  0.98769000  0.21550000  0.94192000  1.0 -0.5470622826
O  O30  1  0.04111000  0.30630000  0.02186000  1.0 -0.6136486727
O  O31  1  0.12700000  0.69230000  0.68180000  1.0 -0.5112064081
O  O32  1  0.16602000  0.55740000  0.64552000  1.0 -0.5788462954
