# DDEC6 charges by PACMAN v1.1 (https://github.com/mtap-research/PACMAN-charge/)
data_POFGUO_ASR_pacman
_symmetry_space_group_name_H-M   'P 1'
_cell_length_a   18.29810000
_cell_length_b   18.29810000
_cell_length_c   18.29810000
_cell_angle_alpha   109.47100000
_cell_angle_beta   109.47100000
_cell_angle_gamma   109.47100000
_symmetry_Int_Tables_number   1
_chemical_formula_structural   Li2H3(C3O2)3
_chemical_formula_sum   'Li24 H36 C108 O72'
_cell_volume   4716.28071921
_cell_formula_units_Z   12
loop_
 _symmetry_equiv_pos_site_id
 _symmetry_equiv_pos_as_xyz
  1  'x, y, z'
loop_
 _atom_site_type_symbol
 _atom_site_label
 _atom_site_symmetry_multiplicity
 _atom_site_fract_x
 _atom_site_fract_y
 _atom_site_fract_z
 _atom_site_occupancy
 _atom_site_charge
Li  Li1  1  0.46970000  0.65590000  0.87020000  1.0 0.8288941263
Li  Li2  1  0.28570000  0.59950000  0.62980000  1.0 0.8288941263
Li  Li3  1  0.21430000  0.84410000  0.31380000  1.0 0.8359243863
Li  Li4  1  0.03030000  0.90050000  0.18620000  1.0 0.8288941263
Li  Li5  1  0.87020000  0.46970000  0.65590000  1.0 0.8288941263
Li  Li6  1  0.62980000  0.28570000  0.59950000  1.0 0.8288941263
Li  Li7  1  0.31380000  0.21430000  0.84410000  1.0 0.8288941263
Li  Li8  1  0.18620000  0.03030000  0.90050000  1.0 0.8288941263
Li  Li9  1  0.65590000  0.87020000  0.46970000  1.0 0.8288941263
Li  Li10  1  0.59950000  0.62980000  0.28570000  1.0 0.8288941263
Li  Li11  1  0.84410000  0.31380000  0.21430000  1.0 0.8288941263
Li  Li12  1  0.90050000  0.18620000  0.03030000  1.0 0.8288941263
Li  Li13  1  0.15590000  0.96970000  0.37020000  1.0 0.8288941263
Li  Li14  1  0.09950000  0.78570000  0.12980000  1.0 0.8359243863
Li  Li15  1  0.34410000  0.71430000  0.81380000  1.0 0.8288941263
Li  Li16  1  0.40050000  0.53030000  0.68620000  1.0 0.8288941263
Li  Li17  1  0.96970000  0.37020000  0.15590000  1.0 0.8288941263
Li  Li18  1  0.78570000  0.12980000  0.09950000  1.0 0.8288941263
Li  Li19  1  0.71430000  0.81380000  0.34410000  1.0 0.8288941263
Li  Li20  1  0.53030000  0.68620000  0.40050000  1.0 0.8359243863
Li  Li21  1  0.37020000  0.15590000  0.96970000  1.0 0.8288941263
Li  Li22  1  0.12980000  0.09950000  0.78570000  1.0 0.8288941263
Li  Li23  1  0.81380000  0.34410000  0.71430000  1.0 0.8288941263
Li  Li24  1  0.68620000  0.40050000  0.53030000  1.0 0.8288941263
H  H1  1  0.02500000  0.27500000  0.75000000  1.0 0.119842642
H  H2  1  0.47500000  0.22500000  0.25000000  1.0 0.1149654083
H  H3  1  0.75000000  0.02500000  0.27500000  1.0 0.119842642
H  H4  1  0.25000000  0.47500000  0.22500000  1.0 0.119842642
H  H5  1  0.27500000  0.75000000  0.02500000  1.0 0.119842642
H  H6  1  0.22500000  0.25000000  0.47500000  1.0 0.119842642
H  H7  1  0.77500000  0.52500000  0.25000000  1.0 0.119842642
H  H8  1  0.72500000  0.97500000  0.75000000  1.0 0.119842642
H  H9  1  0.52500000  0.25000000  0.77500000  1.0 0.119842642
H  H10  1  0.97500000  0.75000000  0.72500000  1.0 0.119842642
H  H11  1  0.25000000  0.77500000  0.52500000  1.0 0.119842642
H  H12  1  0.75000000  0.72500000  0.97500000  1.0 0.119842642
H  H13  1  0.12000000  0.51300000  0.72500000  1.0 0.119842642
H  H14  1  0.28800000  0.39500000  0.77500000  1.0 0.119842642
H  H15  1  0.21200000  0.98700000  0.10700000  1.0 0.119842642
H  H16  1  0.38000000  0.10500000  0.39300000  1.0 0.119842642
H  H17  1  0.72500000  0.12000000  0.51300000  1.0 0.119842642
H  H18  1  0.77500000  0.28800000  0.39500000  1.0 0.119842642
H  H19  1  0.10700000  0.21200000  0.98700000  1.0 0.119842642
H  H20  1  0.39300000  0.38000000  0.10500000  1.0 0.119842642
H  H21  1  0.51300000  0.72500000  0.12000000  1.0 0.119842642
H  H22  1  0.39500000  0.77500000  0.28800000  1.0 0.119842642
H  H23  1  0.98700000  0.10700000  0.21200000  1.0 0.119842642
H  H24  1  0.10500000  0.39300000  0.38000000  1.0 0.119842642
H  H25  1  0.01300000  0.62000000  0.22500000  1.0 0.119842642
H  H26  1  0.89500000  0.78800000  0.27500000  1.0 0.119842642
H  H27  1  0.48700000  0.71200000  0.60700000  1.0 0.119842642
H  H28  1  0.60500000  0.88000000  0.89300000  1.0 0.119842642
H  H29  1  0.62000000  0.22500000  0.01300000  1.0 0.119842642
H  H30  1  0.78800000  0.27500000  0.89500000  1.0 0.119842642
H  H31  1  0.71200000  0.60700000  0.48700000  1.0 0.119842642
H  H32  1  0.88000000  0.89300000  0.60500000  1.0 0.119842642
H  H33  1  0.22500000  0.01300000  0.62000000  1.0 0.119842642
H  H34  1  0.27500000  0.89500000  0.78800000  1.0 0.119842642
H  H35  1  0.60700000  0.48700000  0.71200000  1.0 0.119842642
H  H36  1  0.89300000  0.60500000  0.88000000  1.0 0.119842642
C  C1  1  0.21060000  0.46060000  0.75000000  1.0 -0.0281643447
C  C2  1  0.28940000  0.03940000  0.25000000  1.0 -0.0281643447
C  C3  1  0.75000000  0.21060000  0.46060000  1.0 -0.0281643447
C  C4  1  0.25000000  0.28940000  0.03940000  1.0 -0.0281643447
C  C5  1  0.46060000  0.75000000  0.21060000  1.0 -0.0281643447
C  C6  1  0.03940000  0.25000000  0.28940000  1.0 -0.0281643447
C  C7  1  0.96060000  0.71060000  0.25000000  1.0 -0.0281643447
C  C8  1  0.53940000  0.78940000  0.75000000  1.0 -0.0281643447
C  C9  1  0.71060000  0.25000000  0.96060000  1.0 -0.0281643447
C  C10  1  0.78940000  0.75000000  0.53940000  1.0 -0.0281643447
C  C11  1  0.25000000  0.96060000  0.71060000  1.0 -0.0281643447
C  C12  1  0.75000000  0.53940000  0.78940000  1.0 -0.0281643447
C  C13  1  0.97890000  0.39770000  0.72240000  1.0 0.6184842057
C  C14  1  0.17530000  0.25650000  0.77760000  1.0 0.6184842057
C  C15  1  0.32470000  0.10230000  0.08120000  1.0 0.6184842057
C  C16  1  0.52110000  0.24350000  0.41880000  1.0 0.6184842057
C  C17  1  0.72240000  0.97890000  0.39770000  1.0 0.6184842057
C  C18  1  0.77760000  0.17530000  0.25650000  1.0 0.6184842057
C  C19  1  0.08120000  0.32470000  0.10230000  1.0 0.6184842057
C  C20  1  0.41880000  0.52110000  0.24350000  1.0 0.6184842057
C  C21  1  0.39770000  0.72240000  0.97890000  1.0 0.6184842057
C  C22  1  0.25650000  0.77760000  0.17530000  1.0 0.6184842057
C  C23  1  0.10230000  0.08120000  0.32470000  1.0 0.6184842057
C  C24  1  0.24350000  0.41880000  0.52110000  1.0 0.6184842057
C  C25  1  0.89770000  0.47890000  0.22240000  1.0 0.6184842057
C  C26  1  0.75650000  0.67530000  0.27760000  1.0 0.6184842057
C  C27  1  0.60230000  0.82470000  0.58120000  1.0 0.6184842057
C  C28  1  0.74350000  0.02110000  0.91880000  1.0 0.6184842057
C  C29  1  0.47890000  0.22240000  0.89770000  1.0 0.6184842057
C  C30  1  0.67530000  0.27760000  0.75650000  1.0 0.6184842057
C  C31  1  0.82470000  0.58120000  0.60230000  1.0 0.6184842057
C  C32  1  0.02110000  0.91880000  0.74350000  1.0 0.6184842057
C  C33  1  0.22240000  0.89770000  0.47890000  1.0 0.6184842057
C  C34  1  0.27760000  0.75650000  0.67530000  1.0 0.6184842057
C  C35  1  0.58120000  0.60230000  0.82470000  1.0 0.6184842057
C  C36  1  0.91880000  0.74350000  0.02110000  1.0 0.6184842057
C  C37  1  0.07990000  0.32990000  0.75000000  1.0 -0.084331692
C  C38  1  0.42010000  0.17010000  0.25000000  1.0 -0.084331692
C  C39  1  0.75000000  0.07990000  0.32990000  1.0 -0.084331692
C  C40  1  0.25000000  0.42010000  0.17010000  1.0 -0.084331692
C  C41  1  0.32990000  0.75000000  0.07990000  1.0 -0.084331692
C  C42  1  0.17010000  0.25000000  0.42010000  1.0 -0.084331692
C  C43  1  0.82990000  0.57990000  0.25000000  1.0 -0.084331692
C  C44  1  0.67010000  0.92010000  0.75000000  1.0 -0.0854484297
C  C45  1  0.57990000  0.25000000  0.82990000  1.0 -0.0854484297
C  C46  1  0.92010000  0.75000000  0.67010000  1.0 -0.084331692
C  C47  1  0.25000000  0.82990000  0.57990000  1.0 -0.084331692
C  C48  1  0.75000000  0.67010000  0.92010000  1.0 -0.0854484297
C  C49  1  0.13200000  0.46060000  0.73740000  1.0 -0.0589034267
C  C50  1  0.22320000  0.39460000  0.76260000  1.0 -0.0589034267
C  C51  1  0.27680000  0.03940000  0.17140000  1.0 -0.0589034267
C  C52  1  0.36800000  0.10540000  0.32860000  1.0 -0.0589034267
C  C53  1  0.73740000  0.13200000  0.46060000  1.0 -0.0589034267
C  C54  1  0.76260000  0.22320000  0.39460000  1.0 -0.0589034267
C  C55  1  0.17140000  0.27680000  0.03940000  1.0 -0.0589034267
C  C56  1  0.32860000  0.36800000  0.10540000  1.0 -0.0589034267
C  C57  1  0.46060000  0.73740000  0.13200000  1.0 -0.0589034267
C  C58  1  0.39460000  0.76260000  0.22320000  1.0 -0.0589034267
C  C59  1  0.03940000  0.17140000  0.27680000  1.0 -0.0589034267
C  C60  1  0.10540000  0.32860000  0.36800000  1.0 -0.0589034267
C  C61  1  0.96060000  0.63200000  0.23740000  1.0 -0.0589034267
C  C62  1  0.89460000  0.72320000  0.26260000  1.0 -0.0589034267
C  C63  1  0.53940000  0.77680000  0.67140000  1.0 -0.0589034267
C  C64  1  0.60540000  0.86800000  0.82860000  1.0 -0.0589034267
C  C65  1  0.63200000  0.23740000  0.96060000  1.0 -0.0589034267
C  C66  1  0.72320000  0.26260000  0.89460000  1.0 -0.0589034267
C  C67  1  0.77680000  0.67140000  0.53940000  1.0 -0.0589034267
C  C68  1  0.86800000  0.82860000  0.60540000  1.0 -0.0589034267
C  C69  1  0.23740000  0.96060000  0.63200000  1.0 -0.0589034267
C  C70  1  0.26260000  0.89460000  0.72320000  1.0 -0.0589034267
C  C71  1  0.67140000  0.53940000  0.77680000  1.0 -0.0589034267
C  C72  1  0.82860000  0.60540000  0.86800000  1.0 -0.0589034267
C  C73  1  0.28180000  0.53180000  0.75000000  1.0 0.6456065668
C  C74  1  0.21820000  0.96820000  0.25000000  1.0 0.6456065668
C  C75  1  0.75000000  0.28180000  0.53180000  1.0 0.6456065668
C  C76  1  0.25000000  0.21820000  0.96820000  1.0 0.6456065668
C  C77  1  0.53180000  0.75000000  0.28180000  1.0 0.6456065668
C  C78  1  0.96820000  0.25000000  0.21820000  1.0 0.6456065668
C  C79  1  0.03180000  0.78180000  0.25000000  1.0 0.6456065668
C  C80  1  0.46820000  0.71820000  0.75000000  1.0 0.6456065668
C  C81  1  0.78180000  0.25000000  0.03180000  1.0 0.6456065668
C  C82  1  0.71820000  0.75000000  0.46820000  1.0 0.6456065668
C  C83  1  0.25000000  0.03180000  0.78180000  1.0 0.6456065668
C  C84  1  0.75000000  0.46820000  0.71820000  1.0 0.6456065668
C  C85  1  0.06510000  0.39500000  0.73750000  1.0 -0.0281643447
C  C86  1  0.15750000  0.32760000  0.76250000  1.0 -0.0281643447
C  C87  1  0.34250000  0.10500000  0.17010000  1.0 -0.0281643447
C  C88  1  0.43490000  0.17240000  0.32990000  1.0 -0.0281643447
C  C89  1  0.73750000  0.06510000  0.39500000  1.0 -0.0281643447
C  C90  1  0.76250000  0.15750000  0.32760000  1.0 -0.0281643447
C  C91  1  0.17010000  0.34250000  0.10500000  1.0 -0.0281643447
C  C92  1  0.32990000  0.43490000  0.17240000  1.0 -0.0281643447
C  C93  1  0.39500000  0.73750000  0.06510000  1.0 -0.0281643447
C  C94  1  0.32760000  0.76250000  0.15750000  1.0 -0.0281643447
C  C95  1  0.10500000  0.17010000  0.34250000  1.0 -0.0281643447
C  C96  1  0.17240000  0.32990000  0.43490000  1.0 -0.0281643447
C  C97  1  0.89500000  0.56510000  0.23750000  1.0 -0.0281643447
C  C98  1  0.82760000  0.65750000  0.26250000  1.0 -0.0281643447
C  C99  1  0.60500000  0.84250000  0.67010000  1.0 -0.0281643447
C  C100  1  0.67240000  0.93490000  0.82990000  1.0 -0.0281643447
C  C101  1  0.56510000  0.23750000  0.89500000  1.0 -0.0281643447
C  C102  1  0.65750000  0.26250000  0.82760000  1.0 -0.0247107267
C  C103  1  0.84250000  0.67010000  0.60500000  1.0 -0.0281643447
C  C104  1  0.93490000  0.82990000  0.67240000  1.0 -0.0281643447
C  C105  1  0.23750000  0.89500000  0.56510000  1.0 -0.0281643447
C  C106  1  0.26250000  0.82760000  0.65750000  1.0 -0.0281643447
C  C107  1  0.67010000  0.60500000  0.84250000  1.0 -0.0281643447
C  C108  1  0.82990000  0.67240000  0.93490000  1.0 -0.0247107267
O  O1  1  0.35715000  0.53705000  0.77520000  1.0 -0.6570816792
O  O2  1  0.26185000  0.58195000  0.72480000  1.0 -0.6570816792
O  O3  1  0.23815000  0.96295000  0.32010000  1.0 -0.6570816792
O  O4  1  0.14285000  0.91805000  0.17990000  1.0 -0.6570816792
O  O5  1  0.77520000  0.35715000  0.53705000  1.0 -0.6570816792
O  O6  1  0.72480000  0.26185000  0.58195000  1.0 -0.6570816792
O  O7  1  0.32010000  0.23815000  0.96295000  1.0 -0.6570816792
O  O8  1  0.17990000  0.14285000  0.91805000  1.0 -0.6570816792
O  O9  1  0.53705000  0.77520000  0.35715000  1.0 -0.6570816792
O  O10  1  0.58195000  0.72480000  0.26185000  1.0 -0.6570816792
O  O11  1  0.96295000  0.32010000  0.23815000  1.0 -0.6570816792
O  O12  1  0.91805000  0.17990000  0.14285000  1.0 -0.6570816792
O  O13  1  0.03705000  0.85715000  0.27520000  1.0 -0.6570816792
O  O14  1  0.08195000  0.76185000  0.22480000  1.0 -0.6570816792
O  O15  1  0.46295000  0.73815000  0.82010000  1.0 -0.6570816792
O  O16  1  0.41805000  0.64285000  0.67990000  1.0 -0.6570816792
O  O17  1  0.85715000  0.27520000  0.03705000  1.0 -0.6570816792
O  O18  1  0.76185000  0.22480000  0.08195000  1.0 -0.6570816792
O  O19  1  0.73815000  0.82010000  0.46295000  1.0 -0.6570816792
O  O20  1  0.64285000  0.67990000  0.41805000  1.0 -0.6570816792
O  O21  1  0.27520000  0.03705000  0.85715000  1.0 -0.6570816792
O  O22  1  0.22480000  0.08195000  0.76185000  1.0 -0.6570816792
O  O23  1  0.82010000  0.46295000  0.73815000  1.0 -0.6570816792
O  O24  1  0.67990000  0.41805000  0.64285000  1.0 -0.6570816792
O  O25  1  0.96897000  0.45230000  0.70027000  1.0 -0.579622406
O  O26  1  0.25203000  0.26870000  0.79973000  1.0 -0.579622406
O  O27  1  0.24797000  0.04770000  0.01667000  1.0 -0.579622406
O  O28  1  0.53103000  0.23130000  0.48333000  1.0 -0.579622406
O  O29  1  0.70027000  0.96897000  0.45230000  1.0 -0.579622406
O  O30  1  0.79973000  0.25203000  0.26870000  1.0 -0.579622406
O  O31  1  0.01667000  0.24797000  0.04770000  1.0 -0.579622406
O  O32  1  0.48333000  0.53103000  0.23130000  1.0 -0.579622406
O  O33  1  0.45230000  0.70027000  0.96897000  1.0 -0.579622406
O  O34  1  0.26870000  0.79973000  0.25203000  1.0 -0.579622406
O  O35  1  0.04770000  0.01667000  0.24797000  1.0 -0.579622406
O  O36  1  0.23130000  0.48333000  0.53103000  1.0 -0.579622406
O  O37  1  0.95230000  0.46897000  0.20027000  1.0 -0.579622406
O  O38  1  0.76870000  0.75203000  0.29973000  1.0 -0.579622406
O  O39  1  0.54770000  0.74797000  0.51667000  1.0 -0.579622406
O  O40  1  0.73130000  0.03103000  0.98333000  1.0 -0.579622406
O  O41  1  0.46897000  0.20027000  0.95230000  1.0 -0.579622406
O  O42  1  0.75203000  0.29973000  0.76870000  1.0 -0.579622406
O  O43  1  0.74797000  0.51667000  0.54770000  1.0 -0.579622406
O  O44  1  0.03103000  0.98333000  0.73130000  1.0 -0.579622406
O  O45  1  0.20027000  0.95230000  0.46897000  1.0 -0.579622406
O  O46  1  0.29973000  0.76870000  0.75203000  1.0 -0.579622406
O  O47  1  0.51667000  0.54770000  0.74797000  1.0 -0.579622406
O  O48  1  0.98333000  0.73130000  0.03103000  1.0 -0.579622406
O  O49  1  0.92599000  0.34632000  0.73547000  1.0 -0.5707494773
O  O50  1  0.11085000  0.19052000  0.76453000  1.0 -0.5707494773
O  O51  1  0.38915000  0.15368000  0.07967000  1.0 -0.5707494773
O  O52  1  0.57401000  0.30948000  0.42033000  1.0 -0.5707494773
O  O53  1  0.73547000  0.92599000  0.34632000  1.0 -0.5707494773
O  O54  1  0.76453000  0.11085000  0.19052000  1.0 -0.5707494773
O  O55  1  0.07967000  0.38915000  0.15368000  1.0 -0.5707494773
O  O56  1  0.42033000  0.57401000  0.30948000  1.0 -0.5707494773
O  O57  1  0.34632000  0.73547000  0.92599000  1.0 -0.5707494773
O  O58  1  0.19052000  0.76453000  0.11085000  1.0 -0.5707494773
O  O59  1  0.15368000  0.07967000  0.38915000  1.0 -0.5707494773
O  O60  1  0.30948000  0.42033000  0.57401000  1.0 -0.5707494773
O  O61  1  0.84632000  0.42599000  0.23547000  1.0 -0.5707494773
O  O62  1  0.69052000  0.61085000  0.26453000  1.0 -0.5707494773
O  O63  1  0.65368000  0.88915000  0.57967000  1.0 -0.5707494773
O  O64  1  0.80948000  0.07401000  0.92033000  1.0 -0.5707494773
O  O65  1  0.42599000  0.23547000  0.84632000  1.0 -0.5707494773
O  O66  1  0.61085000  0.26453000  0.69052000  1.0 -0.5707494773
O  O67  1  0.88915000  0.57967000  0.65368000  1.0 -0.5707494773
O  O68  1  0.07401000  0.92033000  0.80948000  1.0 -0.5707494773
O  O69  1  0.23547000  0.84632000  0.42599000  1.0 -0.5707494773
O  O70  1  0.26453000  0.69052000  0.61085000  1.0 -0.5707494773
O  O71  1  0.57967000  0.65368000  0.88915000  1.0 -0.5707494773
O  O72  1  0.92033000  0.80948000  0.07401000  1.0 -0.5707494773
