# DDEC6 charges by PACMAN v1.1 (https://github.com/mtap-research/PACMAN-charge/)
data_POHWIU_ASR_pacman
_symmetry_space_group_name_H-M   'P 1'
_cell_length_a   21.87290000
_cell_length_b   21.87290000
_cell_length_c   28.68040000
_cell_angle_alpha   90.00000000
_cell_angle_beta   90.00000000
_cell_angle_gamma   90.00000000
_symmetry_Int_Tables_number   1
_chemical_formula_structural   Co5H52C101(N2O9)2
_chemical_formula_sum   'Co10 H104 C202 N8 O36'
_cell_volume   13721.38464598
_cell_formula_units_Z   2
loop_
 _symmetry_equiv_pos_site_id
 _symmetry_equiv_pos_as_xyz
  1  'x, y, z'
loop_
 _atom_site_type_symbol
 _atom_site_label
 _atom_site_symmetry_multiplicity
 _atom_site_fract_x
 _atom_site_fract_y
 _atom_site_fract_z
 _atom_site_occupancy
 _atom_site_charge
Co  Co1  1  0.00000000  0.00000000  0.25000000  1.0 0.6708006196
Co  Co2  1  0.00000000  0.00000000  0.75000000  1.0 0.6708006196
Co  Co3  1  0.50000000  0.13862000  0.50000000  1.0 0.9990469448
Co  Co4  1  0.50000000  0.86138000  0.50000000  1.0 0.9990469448
Co  Co5  1  0.86138000  0.50000000  0.00000000  1.0 0.9990469448
Co  Co6  1  0.13862000  0.50000000  0.00000000  1.0 0.9990469448
Co  Co7  1  0.50000000  0.27216000  0.50000000  1.0 0.9990469448
Co  Co8  1  0.50000000  0.72784000  0.50000000  1.0 0.9990469448
Co  Co9  1  0.72784000  0.50000000  0.00000000  1.0 0.9990469448
Co  Co10  1  0.27216000  0.50000000  0.00000000  1.0 0.9990469448
H  H1  1  0.22420000  0.05570000  0.23480000  1.0 0.1279305563
H  H2  1  0.77580000  0.94430000  0.23480000  1.0 0.1279305563
H  H3  1  0.94430000  0.22420000  0.73480000  1.0 0.1279305563
H  H4  1  0.05570000  0.77580000  0.73480000  1.0 0.1279305563
H  H5  1  0.77580000  0.05570000  0.76520000  1.0 0.1279305563
H  H6  1  0.22420000  0.94430000  0.76520000  1.0 0.1279305563
H  H7  1  0.05570000  0.22420000  0.26520000  1.0 0.1279305563
H  H8  1  0.94430000  0.77580000  0.26520000  1.0 0.1279305563
H  H9  1  0.77580000  0.94430000  0.76520000  1.0 0.1279305563
H  H10  1  0.22420000  0.05570000  0.76520000  1.0 0.1279305563
H  H11  1  0.05570000  0.77580000  0.26520000  1.0 0.1279305563
H  H12  1  0.94430000  0.22420000  0.26520000  1.0 0.1279305563
H  H13  1  0.22420000  0.94430000  0.23480000  1.0 0.1279305563
H  H14  1  0.77580000  0.05570000  0.23480000  1.0 0.1279305563
H  H15  1  0.94430000  0.77580000  0.73480000  1.0 0.1279305563
H  H16  1  0.05570000  0.22420000  0.73480000  1.0 0.1279305563
H  H17  1  0.19690000  0.13410000  0.31220000  1.0 0.1175585062
H  H18  1  0.80310000  0.86590000  0.31220000  1.0 0.1175585062
H  H19  1  0.86590000  0.19690000  0.81220000  1.0 0.1175585062
H  H20  1  0.13410000  0.80310000  0.81220000  1.0 0.1175585062
H  H21  1  0.80310000  0.13410000  0.68780000  1.0 0.1175585062
H  H22  1  0.19690000  0.86590000  0.68780000  1.0 0.1175585062
H  H23  1  0.13410000  0.19690000  0.18780000  1.0 0.1175585062
H  H24  1  0.86590000  0.80310000  0.18780000  1.0 0.1175585062
H  H25  1  0.80310000  0.86590000  0.68780000  1.0 0.1175585062
H  H26  1  0.19690000  0.13410000  0.68780000  1.0 0.1175585062
H  H27  1  0.13410000  0.80310000  0.18780000  1.0 0.1175585062
H  H28  1  0.86590000  0.19690000  0.18780000  1.0 0.1175585062
H  H29  1  0.19690000  0.86590000  0.31220000  1.0 0.1175585062
H  H30  1  0.80310000  0.13410000  0.31220000  1.0 0.1175585062
H  H31  1  0.86590000  0.80310000  0.81220000  1.0 0.1175585062
H  H32  1  0.13410000  0.19690000  0.81220000  1.0 0.1175585062
H  H33  1  0.27860000  0.27860000  0.25000000  1.0 0.1115688878
H  H34  1  0.72140000  0.72140000  0.25000000  1.0 0.1115688878
H  H35  1  0.72140000  0.27860000  0.75000000  1.0 0.1115688878
H  H36  1  0.27860000  0.72140000  0.75000000  1.0 0.1115688878
H  H37  1  0.72140000  0.72140000  0.75000000  1.0 0.1115688878
H  H38  1  0.27860000  0.27860000  0.75000000  1.0 0.1115688878
H  H39  1  0.27860000  0.72140000  0.25000000  1.0 0.1115688878
H  H40  1  0.72140000  0.27860000  0.25000000  1.0 0.1115688878
H  H41  1  0.30050000  0.11170000  0.32840000  1.0 0.1115688878
H  H42  1  0.69950000  0.88830000  0.32840000  1.0 0.1115688878
H  H43  1  0.88830000  0.30050000  0.82840000  1.0 0.1115688878
H  H44  1  0.11170000  0.69950000  0.82840000  1.0 0.1115688878
H  H45  1  0.69950000  0.11170000  0.67160000  1.0 0.1115688878
H  H46  1  0.30050000  0.88830000  0.67160000  1.0 0.1115688878
H  H47  1  0.11170000  0.30050000  0.17160000  1.0 0.1115688878
H  H48  1  0.88830000  0.69950000  0.17160000  1.0 0.1115688878
H  H49  1  0.69950000  0.88830000  0.67160000  1.0 0.1115688878
H  H50  1  0.30050000  0.11170000  0.67160000  1.0 0.1115688878
H  H51  1  0.11170000  0.69950000  0.17160000  1.0 0.1115688878
H  H52  1  0.88830000  0.30050000  0.17160000  1.0 0.1115688878
H  H53  1  0.30050000  0.88830000  0.32840000  1.0 0.1115688878
H  H54  1  0.69950000  0.11170000  0.32840000  1.0 0.1115688878
H  H55  1  0.88830000  0.69950000  0.82840000  1.0 0.1115688878
H  H56  1  0.11170000  0.30050000  0.82840000  1.0 0.1115688878
H  H57  1  0.36640000  0.11220000  0.39290000  1.0 0.1279305563
H  H58  1  0.63360000  0.88780000  0.39290000  1.0 0.1279305563
H  H59  1  0.88780000  0.36640000  0.89290000  1.0 0.1279305563
H  H60  1  0.11220000  0.63360000  0.89290000  1.0 0.1279305563
H  H61  1  0.63360000  0.11220000  0.60710000  1.0 0.1279305563
H  H62  1  0.36640000  0.88780000  0.60710000  1.0 0.1279305563
H  H63  1  0.11220000  0.36640000  0.10710000  1.0 0.1279305563
H  H64  1  0.88780000  0.63360000  0.10710000  1.0 0.1279305563
H  H65  1  0.63360000  0.88780000  0.60710000  1.0 0.1279305563
H  H66  1  0.36640000  0.11220000  0.60710000  1.0 0.1279305563
H  H67  1  0.11220000  0.63360000  0.10710000  1.0 0.1279305563
H  H68  1  0.88780000  0.36640000  0.10710000  1.0 0.1279305563
H  H69  1  0.36640000  0.88780000  0.39290000  1.0 0.1279305563
H  H70  1  0.63360000  0.11220000  0.39290000  1.0 0.1279305563
H  H71  1  0.88780000  0.63360000  0.89290000  1.0 0.1279305563
H  H72  1  0.11220000  0.36640000  0.89290000  1.0 0.1279305563
H  H73  1  0.36930000  0.29980000  0.39010000  1.0 0.1279305563
H  H74  1  0.63070000  0.70020000  0.39010000  1.0 0.1279305563
H  H75  1  0.70020000  0.36930000  0.89010000  1.0 0.1279305563
H  H76  1  0.29980000  0.63070000  0.89010000  1.0 0.1279305563
H  H77  1  0.63070000  0.29980000  0.60990000  1.0 0.1279305563
H  H78  1  0.36930000  0.70020000  0.60990000  1.0 0.1279305563
H  H79  1  0.29980000  0.36930000  0.10990000  1.0 0.1279305563
H  H80  1  0.70020000  0.63070000  0.10990000  1.0 0.1279305563
H  H81  1  0.63070000  0.70020000  0.60990000  1.0 0.1279305563
H  H82  1  0.36930000  0.29980000  0.60990000  1.0 0.1279305563
H  H83  1  0.29980000  0.63070000  0.10990000  1.0 0.1279305563
H  H84  1  0.70020000  0.36930000  0.10990000  1.0 0.1279305563
H  H85  1  0.36930000  0.70020000  0.39010000  1.0 0.1279305563
H  H86  1  0.63070000  0.29980000  0.39010000  1.0 0.1279305563
H  H87  1  0.70020000  0.63070000  0.89010000  1.0 0.1279305563
H  H88  1  0.29980000  0.36930000  0.89010000  1.0 0.1279305563
H  H89  1  0.30040000  0.29910000  0.32950000  1.0 0.1175585062
H  H90  1  0.69960000  0.70090000  0.32950000  1.0 0.1175585062
H  H91  1  0.70090000  0.30040000  0.82950000  1.0 0.1175585062
H  H92  1  0.29910000  0.69960000  0.82950000  1.0 0.1175585062
H  H93  1  0.69960000  0.29910000  0.67050000  1.0 0.1175585062
H  H94  1  0.30040000  0.70090000  0.67050000  1.0 0.1175585062
H  H95  1  0.29910000  0.30040000  0.17050000  1.0 0.1175585062
H  H96  1  0.70090000  0.69960000  0.17050000  1.0 0.1175585062
H  H97  1  0.69960000  0.70090000  0.67050000  1.0 0.1175585062
H  H98  1  0.30040000  0.29910000  0.67050000  1.0 0.1175585062
H  H99  1  0.29910000  0.69960000  0.17050000  1.0 0.1175585062
H  H100  1  0.70090000  0.30040000  0.17050000  1.0 0.1175585062
H  H101  1  0.30040000  0.70090000  0.32950000  1.0 0.1175585062
H  H102  1  0.69960000  0.29910000  0.32950000  1.0 0.1175585062
H  H103  1  0.70090000  0.69960000  0.82950000  1.0 0.1175585062
H  H104  1  0.29910000  0.30040000  0.82950000  1.0 0.1175585062
C  C1  1  0.12760000  0.04930000  0.24640000  1.0 0.1791516373
C  C2  1  0.87240000  0.95070000  0.24640000  1.0 0.1791516373
C  C3  1  0.95070000  0.12760000  0.74640000  1.0 0.1791516373
C  C4  1  0.04930000  0.87240000  0.74640000  1.0 0.1791516373
C  C5  1  0.87240000  0.04930000  0.75360000  1.0 0.1791516373
C  C6  1  0.12760000  0.95070000  0.75360000  1.0 0.1791516373
C  C7  1  0.04930000  0.12760000  0.25360000  1.0 0.1791516373
C  C8  1  0.95070000  0.87240000  0.25360000  1.0 0.1791516373
C  C9  1  0.87240000  0.95070000  0.75360000  1.0 0.1791516373
C  C10  1  0.12760000  0.04930000  0.75360000  1.0 0.1791516373
C  C11  1  0.04930000  0.87240000  0.25360000  1.0 0.1791516373
C  C12  1  0.95070000  0.12760000  0.25360000  1.0 0.1791516373
C  C13  1  0.12760000  0.95070000  0.24640000  1.0 0.1791516373
C  C14  1  0.87240000  0.04930000  0.24640000  1.0 0.1791516373
C  C15  1  0.95070000  0.87240000  0.74640000  1.0 0.1791516373
C  C16  1  0.04930000  0.12760000  0.74640000  1.0 0.1791516373
C  C17  1  0.50000000  0.00000000  0.50000000  1.0 0.5741548769
C  C18  1  0.00000000  0.50000000  0.00000000  1.0 0.5568754904
C  C19  1  0.18970000  0.02990000  0.23890000  1.0 -0.1843449205
C  C20  1  0.81030000  0.97010000  0.23890000  1.0 -0.1843449205
C  C21  1  0.97010000  0.18970000  0.73890000  1.0 -0.1843449205
C  C22  1  0.02990000  0.81030000  0.73890000  1.0 -0.1856053837
C  C23  1  0.81030000  0.02990000  0.76110000  1.0 -0.1843449205
C  C24  1  0.18970000  0.97010000  0.76110000  1.0 -0.1843449205
C  C25  1  0.02990000  0.18970000  0.26110000  1.0 -0.1843449205
C  C26  1  0.97010000  0.81030000  0.26110000  1.0 -0.1843449205
C  C27  1  0.81030000  0.97010000  0.76110000  1.0 -0.1843449205
C  C28  1  0.18970000  0.02990000  0.76110000  1.0 -0.1843449205
C  C29  1  0.02990000  0.81030000  0.26110000  1.0 -0.1856053837
C  C30  1  0.97010000  0.18970000  0.26110000  1.0 -0.1843449205
C  C31  1  0.18970000  0.97010000  0.23890000  1.0 -0.1843449205
C  C32  1  0.81030000  0.02990000  0.23890000  1.0 -0.1843449205
C  C33  1  0.97010000  0.81030000  0.73890000  1.0 -0.1856053837
C  C34  1  0.02990000  0.18970000  0.73890000  1.0 -0.1856053837
C  C35  1  0.10890000  0.10890000  0.25000000  1.0 -0.0919302522
C  C36  1  0.89110000  0.89110000  0.25000000  1.0 -0.0919302522
C  C37  1  0.89110000  0.10890000  0.75000000  1.0 -0.0919302522
C  C38  1  0.10890000  0.89110000  0.75000000  1.0 -0.095401413
C  C39  1  0.89110000  0.89110000  0.75000000  1.0 -0.095401413
C  C40  1  0.10890000  0.10890000  0.75000000  1.0 -0.0919302522
C  C41  1  0.10890000  0.89110000  0.25000000  1.0 -0.0919302522
C  C42  1  0.89110000  0.10890000  0.25000000  1.0 -0.0919302522
C  C43  1  0.15840000  0.15840000  0.25000000  1.0 0.1115688878
C  C44  1  0.84160000  0.84160000  0.25000000  1.0 0.1115688878
C  C45  1  0.84160000  0.15840000  0.75000000  1.0 0.1115688878
C  C46  1  0.15840000  0.84160000  0.75000000  1.0 0.1046438672
C  C47  1  0.84160000  0.84160000  0.75000000  1.0 0.1115688878
C  C48  1  0.15840000  0.15840000  0.75000000  1.0 0.1046438672
C  C49  1  0.15840000  0.84160000  0.25000000  1.0 0.1115688878
C  C50  1  0.84160000  0.15840000  0.25000000  1.0 0.1115688878
C  C51  1  0.20000000  0.16180000  0.28680000  1.0 -0.2012887068
C  C52  1  0.80000000  0.83820000  0.28680000  1.0 -0.2012887068
C  C53  1  0.83820000  0.20000000  0.78680000  1.0 -0.2012887068
C  C54  1  0.16180000  0.80000000  0.78680000  1.0 -0.2012887068
C  C55  1  0.80000000  0.16180000  0.71320000  1.0 -0.2012887068
C  C56  1  0.20000000  0.83820000  0.71320000  1.0 -0.2012887068
C  C57  1  0.16180000  0.20000000  0.21320000  1.0 -0.2012887068
C  C58  1  0.83820000  0.80000000  0.21320000  1.0 -0.2012887068
C  C59  1  0.80000000  0.83820000  0.71320000  1.0 -0.2012887068
C  C60  1  0.20000000  0.16180000  0.71320000  1.0 -0.2012887068
C  C61  1  0.16180000  0.80000000  0.21320000  1.0 -0.2012887068
C  C62  1  0.83820000  0.20000000  0.21320000  1.0 -0.2012887068
C  C63  1  0.20000000  0.83820000  0.28680000  1.0 -0.2012887068
C  C64  1  0.80000000  0.16180000  0.28680000  1.0 -0.2012887068
C  C65  1  0.83820000  0.80000000  0.78680000  1.0 -0.2012887068
C  C66  1  0.16180000  0.20000000  0.78680000  1.0 -0.2012887068
C  C67  1  0.24550000  0.20520000  0.28630000  1.0 0.0781843086
C  C68  1  0.75450000  0.79480000  0.28630000  1.0 0.0781843086
C  C69  1  0.79480000  0.24550000  0.78630000  1.0 0.0741739504
C  C70  1  0.20520000  0.75450000  0.78630000  1.0 0.0741739504
C  C71  1  0.75450000  0.20520000  0.71370000  1.0 0.0741739504
C  C72  1  0.24550000  0.79480000  0.71370000  1.0 0.0741739504
C  C73  1  0.20520000  0.24550000  0.21370000  1.0 0.0781843086
C  C74  1  0.79480000  0.75450000  0.21370000  1.0 0.0741739504
C  C75  1  0.75450000  0.79480000  0.71370000  1.0 0.0741739504
C  C76  1  0.24550000  0.20520000  0.71370000  1.0 0.0741739504
C  C77  1  0.20520000  0.75450000  0.21370000  1.0 0.0781843086
C  C78  1  0.79480000  0.24550000  0.21370000  1.0 0.0781843086
C  C79  1  0.24550000  0.79480000  0.28630000  1.0 0.0781843086
C  C80  1  0.75450000  0.20520000  0.28630000  1.0 0.0781843086
C  C81  1  0.79480000  0.75450000  0.78630000  1.0 0.0741739504
C  C82  1  0.20520000  0.24550000  0.78630000  1.0 0.0741739504
C  C83  1  0.24790000  0.24790000  0.25000000  1.0 -0.2012887068
C  C84  1  0.75210000  0.75210000  0.25000000  1.0 -0.2012887068
C  C85  1  0.75210000  0.24790000  0.75000000  1.0 -0.2012887068
C  C86  1  0.24790000  0.75210000  0.75000000  1.0 -0.2012887068
C  C87  1  0.75210000  0.75210000  0.75000000  1.0 -0.2012887068
C  C88  1  0.24790000  0.24790000  0.75000000  1.0 -0.2012887068
C  C89  1  0.24790000  0.75210000  0.25000000  1.0 -0.2012887068
C  C90  1  0.75210000  0.24790000  0.25000000  1.0 -0.2012887068
C  C91  1  0.29040000  0.20620000  0.32460000  1.0 0.0781843086
C  C92  1  0.70960000  0.79380000  0.32460000  1.0 0.0781843086
C  C93  1  0.79380000  0.29040000  0.82460000  1.0 0.0781843086
C  C94  1  0.20620000  0.70960000  0.82460000  1.0 0.0781843086
C  C95  1  0.70960000  0.20620000  0.67540000  1.0 0.0781843086
C  C96  1  0.29040000  0.79380000  0.67540000  1.0 0.0781843086
C  C97  1  0.20620000  0.29040000  0.17540000  1.0 0.0781843086
C  C98  1  0.79380000  0.70960000  0.17540000  1.0 0.0781843086
C  C99  1  0.70960000  0.79380000  0.67540000  1.0 0.0781843086
C  C100  1  0.29040000  0.20620000  0.67540000  1.0 0.0781843086
C  C101  1  0.20620000  0.70960000  0.17540000  1.0 0.0781843086
C  C102  1  0.79380000  0.29040000  0.17540000  1.0 0.0781843086
C  C103  1  0.29040000  0.79380000  0.32460000  1.0 0.0781843086
C  C104  1  0.70960000  0.20620000  0.32460000  1.0 0.0781843086
C  C105  1  0.79380000  0.70960000  0.82460000  1.0 0.0781843086
C  C106  1  0.20620000  0.29040000  0.82460000  1.0 0.0781843086
C  C107  1  0.31310000  0.14930000  0.34210000  1.0 -0.1670048528
C  C108  1  0.68690000  0.85070000  0.34210000  1.0 -0.1670048528
C  C109  1  0.85070000  0.31310000  0.84210000  1.0 -0.1670048528
C  C110  1  0.14930000  0.68690000  0.84210000  1.0 -0.1670048528
C  C111  1  0.68690000  0.14930000  0.65790000  1.0 -0.1670048528
C  C112  1  0.31310000  0.85070000  0.65790000  1.0 -0.1670048528
C  C113  1  0.14930000  0.31310000  0.15790000  1.0 -0.1670048528
C  C114  1  0.85070000  0.68690000  0.15790000  1.0 -0.1670048528
C  C115  1  0.68690000  0.85070000  0.65790000  1.0 -0.1670048528
C  C116  1  0.31310000  0.14930000  0.65790000  1.0 -0.1670048528
C  C117  1  0.14930000  0.68690000  0.15790000  1.0 -0.1670048528
C  C118  1  0.85070000  0.31310000  0.15790000  1.0 -0.1670048528
C  C119  1  0.31310000  0.85070000  0.34210000  1.0 -0.1670048528
C  C120  1  0.68690000  0.14930000  0.34210000  1.0 -0.1670048528
C  C121  1  0.85070000  0.68690000  0.84210000  1.0 -0.1670048528
C  C122  1  0.14930000  0.31310000  0.84210000  1.0 -0.1670048528
C  C123  1  0.35350000  0.14960000  0.37930000  1.0 -0.095401413
C  C124  1  0.64650000  0.85040000  0.37930000  1.0 -0.0919302522
C  C125  1  0.85040000  0.35350000  0.87930000  1.0 -0.0919302522
C  C126  1  0.14960000  0.64650000  0.87930000  1.0 -0.0919302522
C  C127  1  0.64650000  0.14960000  0.62070000  1.0 -0.0919302522
C  C128  1  0.35350000  0.85040000  0.62070000  1.0 -0.0919302522
C  C129  1  0.14960000  0.35350000  0.12070000  1.0 -0.095401413
C  C130  1  0.85040000  0.64650000  0.12070000  1.0 -0.095401413
C  C131  1  0.64650000  0.85040000  0.62070000  1.0 -0.0919302522
C  C132  1  0.35350000  0.14960000  0.62070000  1.0 -0.0919302522
C  C133  1  0.14960000  0.64650000  0.12070000  1.0 -0.095401413
C  C134  1  0.85040000  0.35350000  0.12070000  1.0 -0.095401413
C  C135  1  0.35350000  0.85040000  0.37930000  1.0 -0.0919302522
C  C136  1  0.64650000  0.14960000  0.37930000  1.0 -0.095401413
C  C137  1  0.85040000  0.64650000  0.87930000  1.0 -0.0919302522
C  C138  1  0.14960000  0.35350000  0.87930000  1.0 -0.0919302522
C  C139  1  0.37470000  0.20450000  0.39620000  1.0 -0.0145845904
C  C140  1  0.62530000  0.79550000  0.39620000  1.0 -0.0145845904
C  C141  1  0.79550000  0.37470000  0.89620000  1.0 -0.0145845904
C  C142  1  0.20450000  0.62530000  0.89620000  1.0 -0.0145845904
C  C143  1  0.62530000  0.20450000  0.60380000  1.0 -0.0145845904
C  C144  1  0.37470000  0.79550000  0.60380000  1.0 -0.0145845904
C  C145  1  0.20450000  0.37470000  0.10380000  1.0 -0.0155780978
C  C146  1  0.79550000  0.62530000  0.10380000  1.0 -0.0145845904
C  C147  1  0.62530000  0.79550000  0.60380000  1.0 -0.0145845904
C  C148  1  0.37470000  0.20450000  0.60380000  1.0 -0.0145845904
C  C149  1  0.20450000  0.62530000  0.10380000  1.0 -0.0155780978
C  C150  1  0.79550000  0.37470000  0.10380000  1.0 -0.0145845904
C  C151  1  0.37470000  0.79550000  0.39620000  1.0 -0.0145845904
C  C152  1  0.62530000  0.20450000  0.39620000  1.0 -0.0145845904
C  C153  1  0.79550000  0.62530000  0.89620000  1.0 -0.0145845904
C  C154  1  0.20450000  0.37470000  0.89620000  1.0 -0.0145845904
C  C155  1  0.35440000  0.26230000  0.37780000  1.0 -0.0919302522
C  C156  1  0.64560000  0.73770000  0.37780000  1.0 -0.0919302522
C  C157  1  0.73770000  0.35440000  0.87780000  1.0 -0.0919302522
C  C158  1  0.26230000  0.64560000  0.87780000  1.0 -0.0919302522
C  C159  1  0.64560000  0.26230000  0.62220000  1.0 -0.0919302522
C  C160  1  0.35440000  0.73770000  0.62220000  1.0 -0.0919302522
C  C161  1  0.26230000  0.35440000  0.12220000  1.0 -0.0919302522
C  C162  1  0.73770000  0.64560000  0.12220000  1.0 -0.0919302522
C  C163  1  0.64560000  0.73770000  0.62220000  1.0 -0.0919302522
C  C164  1  0.35440000  0.26230000  0.62220000  1.0 -0.0919302522
C  C165  1  0.26230000  0.64560000  0.12220000  1.0 -0.0919302522
C  C166  1  0.73770000  0.35440000  0.12220000  1.0 -0.0919302522
C  C167  1  0.35440000  0.73770000  0.37780000  1.0 -0.0919302522
C  C168  1  0.64560000  0.26230000  0.37780000  1.0 -0.0919302522
C  C169  1  0.73770000  0.64560000  0.87780000  1.0 -0.0919302522
C  C170  1  0.26230000  0.35440000  0.87780000  1.0 -0.0919302522
C  C171  1  0.31370000  0.26150000  0.34260000  1.0 -0.14884072
C  C172  1  0.68630000  0.73850000  0.34260000  1.0 -0.14884072
C  C173  1  0.73850000  0.31370000  0.84260000  1.0 -0.14884072
C  C174  1  0.26150000  0.68630000  0.84260000  1.0 -0.14884072
C  C175  1  0.68630000  0.26150000  0.65740000  1.0 -0.14884072
C  C176  1  0.31370000  0.73850000  0.65740000  1.0 -0.14884072
C  C177  1  0.26150000  0.31370000  0.15740000  1.0 -0.14884072
C  C178  1  0.73850000  0.68630000  0.15740000  1.0 -0.14884072
C  C179  1  0.68630000  0.73850000  0.65740000  1.0 -0.14884072
C  C180  1  0.31370000  0.26150000  0.65740000  1.0 -0.14884072
C  C181  1  0.26150000  0.68630000  0.15740000  1.0 -0.14884072
C  C182  1  0.73850000  0.31370000  0.15740000  1.0 -0.14884072
C  C183  1  0.31370000  0.73850000  0.34260000  1.0 -0.14884072
C  C184  1  0.68630000  0.26150000  0.34260000  1.0 -0.14884072
C  C185  1  0.73850000  0.68630000  0.84260000  1.0 -0.14884072
C  C186  1  0.26150000  0.31370000  0.84260000  1.0 -0.14884072
C  C187  1  0.41920000  0.20630000  0.43660000  1.0 0.5928252869
C  C188  1  0.58080000  0.79370000  0.43660000  1.0 0.5928252869
C  C189  1  0.79370000  0.41920000  0.93660000  1.0 0.5928252869
C  C190  1  0.20630000  0.58080000  0.93660000  1.0 0.5928252869
C  C191  1  0.58080000  0.20630000  0.56340000  1.0 0.5928252869
C  C192  1  0.41920000  0.79370000  0.56340000  1.0 0.5928252869
C  C193  1  0.20630000  0.41920000  0.06340000  1.0 0.5928252869
C  C194  1  0.79370000  0.58080000  0.06340000  1.0 0.5928252869
C  C195  1  0.58080000  0.79370000  0.56340000  1.0 0.5928252869
C  C196  1  0.41920000  0.20630000  0.56340000  1.0 0.5928252869
C  C197  1  0.20630000  0.58080000  0.06340000  1.0 0.5928252869
C  C198  1  0.79370000  0.41920000  0.06340000  1.0 0.5928252869
C  C199  1  0.41920000  0.79370000  0.43660000  1.0 0.5928252869
C  C200  1  0.58080000  0.20630000  0.43660000  1.0 0.5928252869
C  C201  1  0.79370000  0.58080000  0.93660000  1.0 0.5928252869
C  C202  1  0.20630000  0.41920000  0.93660000  1.0 0.5928252869
N  N1  1  0.09040000  0.00000000  0.24870000  1.0 -0.3405445657
N  N2  1  0.90960000  0.00000000  0.24870000  1.0 -0.3405445657
N  N3  1  0.00000000  0.09040000  0.74870000  1.0 -0.3405445657
N  N4  1  0.00000000  0.90960000  0.74870000  1.0 -0.3405445657
N  N5  1  0.90960000  0.00000000  0.75130000  1.0 -0.3405445657
N  N6  1  0.09040000  0.00000000  0.75130000  1.0 -0.3405445657
N  N7  1  0.00000000  0.09040000  0.25130000  1.0 -0.3405445657
N  N8  1  0.00000000  0.90960000  0.25130000  1.0 -0.3405445657
O  O1  1  0.43590000  0.15490000  0.45100000  1.0 -0.5670942831
O  O2  1  0.56410000  0.84510000  0.45100000  1.0 -0.5670942831
O  O3  1  0.84510000  0.43590000  0.95100000  1.0 -0.5670942831
O  O4  1  0.15490000  0.56410000  0.95100000  1.0 -0.5670942831
O  O5  1  0.56410000  0.15490000  0.54900000  1.0 -0.5670942831
O  O6  1  0.43590000  0.84510000  0.54900000  1.0 -0.5670942831
O  O7  1  0.15490000  0.43590000  0.04900000  1.0 -0.5587289222
O  O8  1  0.84510000  0.56410000  0.04900000  1.0 -0.5587289222
O  O9  1  0.56410000  0.84510000  0.54900000  1.0 -0.5670942831
O  O10  1  0.43590000  0.15490000  0.54900000  1.0 -0.5670942831
O  O11  1  0.15490000  0.56410000  0.04900000  1.0 -0.5587289222
O  O12  1  0.84510000  0.43590000  0.04900000  1.0 -0.5587289222
O  O13  1  0.43590000  0.84510000  0.45100000  1.0 -0.5670942831
O  O14  1  0.56410000  0.15490000  0.45100000  1.0 -0.5670942831
O  O15  1  0.84510000  0.56410000  0.95100000  1.0 -0.5670942831
O  O16  1  0.15490000  0.43590000  0.95100000  1.0 -0.5670942831
O  O17  1  0.43580000  0.25810000  0.45110000  1.0 -0.5587289222
O  O18  1  0.56420000  0.74190000  0.45110000  1.0 -0.5587289222
O  O19  1  0.74190000  0.43580000  0.95110000  1.0 -0.5587289222
O  O20  1  0.25810000  0.56420000  0.95110000  1.0 -0.5587289222
O  O21  1  0.56420000  0.25810000  0.54890000  1.0 -0.5587289222
O  O22  1  0.43580000  0.74190000  0.54890000  1.0 -0.5587289222
O  O23  1  0.25810000  0.43580000  0.04890000  1.0 -0.5587289222
O  O24  1  0.74190000  0.56420000  0.04890000  1.0 -0.5587289222
O  O25  1  0.56420000  0.74190000  0.54890000  1.0 -0.5587289222
O  O26  1  0.43580000  0.25810000  0.54890000  1.0 -0.5587289222
O  O27  1  0.25810000  0.56420000  0.04890000  1.0 -0.5587289222
O  O28  1  0.74190000  0.43580000  0.04890000  1.0 -0.5587289222
O  O29  1  0.43580000  0.74190000  0.45110000  1.0 -0.5587289222
O  O30  1  0.56420000  0.25810000  0.45110000  1.0 -0.5587289222
O  O31  1  0.74190000  0.56420000  0.95110000  1.0 -0.5587289222
O  O32  1  0.25810000  0.43580000  0.95110000  1.0 -0.5587289222
O  O33  1  0.50000000  0.04810000  0.50000000  1.0 -0.3167233385
O  O34  1  0.50000000  0.95190000  0.50000000  1.0 -0.3167233385
O  O35  1  0.95190000  0.50000000  0.00000000  1.0 -0.3122421421
O  O36  1  0.04810000  0.50000000  0.00000000  1.0 -0.3122421421
