# DDEC6 charges by PACMAN v1.1 (https://github.com/mtap-research/PACMAN-charge/)
data_POKGEC_FSR_pacman
_symmetry_space_group_name_H-M   'P 1'
_cell_length_a   14.49620000
_cell_length_b   14.49620000
_cell_length_c   16.11400000
_cell_angle_alpha   88.93020000
_cell_angle_beta   91.06980000
_cell_angle_gamma   85.23630000
_symmetry_Int_Tables_number   1
_chemical_formula_structural   Ni3H36C54(N6O7)2
_chemical_formula_sum   'Ni6 H72 C108 N24 O28'
_cell_volume   3373.21287489
_cell_formula_units_Z   2
loop_
 _symmetry_equiv_pos_site_id
 _symmetry_equiv_pos_as_xyz
  1  'x, y, z'
loop_
 _atom_site_type_symbol
 _atom_site_label
 _atom_site_symmetry_multiplicity
 _atom_site_fract_x
 _atom_site_fract_y
 _atom_site_fract_z
 _atom_site_occupancy
 _atom_site_charge
Ni  Ni1  1  0.18683000  0.52031000  0.38572000  1.0 0.8053442152
Ni  Ni2  1  0.52031000  0.18683000  0.11428000  1.0 0.8053442152
Ni  Ni3  1  0.81317000  0.47969000  0.61428000  1.0 0.8053442152
Ni  Ni4  1  0.47969000  0.81317000  0.88572000  1.0 0.8053442152
Ni  Ni5  1  0.11660000  0.11660000  0.25000000  1.0 0.738644919
Ni  Ni6  1  0.88340000  0.88340000  0.75000000  1.0 0.738644919
H  H1  1  0.03920000  0.63060000  0.28470000  1.0 0.1217342554
H  H2  1  0.63060000  0.03920000  0.21530000  1.0 0.1217342554
H  H3  1  0.96080000  0.36940000  0.71530000  1.0 0.1217342554
H  H4  1  0.36940000  0.96080000  0.78470000  1.0 0.1217342554
H  H5  1  0.99560000  0.28020000  0.14370000  1.0 0.1217342554
H  H6  1  0.28020000  0.99560000  0.35630000  1.0 0.1217342554
H  H7  1  0.00440000  0.71980000  0.85630000  1.0 0.1217342554
H  H8  1  0.71980000  0.00440000  0.64370000  1.0 0.1113111579
H  H9  1  0.26200000  0.92780000  0.06790000  1.0 0.1217342554
H  H10  1  0.92780000  0.26200000  0.43210000  1.0 0.1217342554
H  H11  1  0.73800000  0.07220000  0.93210000  1.0 0.1217342554
H  H12  1  0.07220000  0.73800000  0.56790000  1.0 0.1217342554
H  H13  1  0.26460000  0.23880000  0.16850000  1.0 0.1314050725
H  H14  1  0.23880000  0.26460000  0.33150000  1.0 0.1314050725
H  H15  1  0.73540000  0.76120000  0.83150000  1.0 0.1314050725
H  H16  1  0.76120000  0.73540000  0.66850000  1.0 0.1314050725
H  H17  1  0.16960000  0.78520000  0.25950000  1.0 0.1217342554
H  H18  1  0.78520000  0.16960000  0.24050000  1.0 0.1217342554
H  H19  1  0.83040000  0.21480000  0.74050000  1.0 0.1217342554
H  H20  1  0.21480000  0.83040000  0.75950000  1.0 0.1217342554
H  H21  1  0.33030000  0.65470000  0.09080000  1.0 0.1314050725
H  H22  1  0.65470000  0.33030000  0.40920000  1.0 0.1314050725
H  H23  1  0.66970000  0.34530000  0.90920000  1.0 0.1314050725
H  H24  1  0.34530000  0.66970000  0.59080000  1.0 0.1314050725
H  H25  1  0.61190000  0.69830000  0.00560000  1.0 0.1113111579
H  H26  1  0.69830000  0.61190000  0.49440000  1.0 0.1113111579
H  H27  1  0.38810000  0.30170000  0.99440000  1.0 0.1113111579
H  H28  1  0.30170000  0.38810000  0.50560000  1.0 0.1113111579
H  H29  1  0.59390000  0.96750000  0.99250000  1.0 0.1410832914
H  H30  1  0.96750000  0.59390000  0.50750000  1.0 0.1410832914
H  H31  1  0.40610000  0.03250000  0.00750000  1.0 0.1410832914
H  H32  1  0.03250000  0.40610000  0.49250000  1.0 0.1410832914
H  H33  1  0.71710000  0.91930000  0.09420000  1.0 0.1314050725
H  H34  1  0.91930000  0.71710000  0.40580000  1.0 0.1314050725
H  H35  1  0.28290000  0.08070000  0.90580000  1.0 0.1314050725
H  H36  1  0.08070000  0.28290000  0.59420000  1.0 0.1314050725
H  H37  1  0.03860000  0.36420000  0.32340000  1.0 0.1314050725
H  H38  1  0.36420000  0.03860000  0.17660000  1.0 0.1314050725
H  H39  1  0.96140000  0.63580000  0.67660000  1.0 0.1314050725
H  H40  1  0.63580000  0.96140000  0.82340000  1.0 0.1314050725
H  H41  1  0.94140000  0.35680000  0.00530000  1.0 0.1410832914
H  H42  1  0.35680000  0.94140000  0.49470000  1.0 0.1410832914
H  H43  1  0.05860000  0.64320000  0.99470000  1.0 0.1410832914
H  H44  1  0.64320000  0.05860000  0.50530000  1.0 0.1410832914
H  H45  1  0.89660000  0.41400000  0.24440000  1.0 0.1314050725
H  H46  1  0.41400000  0.89660000  0.25560000  1.0 0.1314050725
H  H47  1  0.10340000  0.58600000  0.75560000  1.0 0.1314050725
H  H48  1  0.58600000  0.10340000  0.74440000  1.0 0.1314050725
H  H49  1  0.13450000  0.52390000  0.07210000  1.0 0.1482629167
H  H50  1  0.52390000  0.13450000  0.42790000  1.0 0.1482629167
H  H51  1  0.86550000  0.47610000  0.92790000  1.0 0.1482629167
H  H52  1  0.47610000  0.86550000  0.57210000  1.0 0.1482629167
H  H53  1  0.23310000  0.37470000  0.07680000  1.0 0.1314050725
H  H54  1  0.37470000  0.23310000  0.42320000  1.0 0.1314050725
H  H55  1  0.76690000  0.62530000  0.92320000  1.0 0.1217342554
H  H56  1  0.62530000  0.76690000  0.57680000  1.0 0.1217342554
H  H57  1  0.96060000  0.70440000  0.18330000  1.0 0.1482629167
H  H58  1  0.70440000  0.96060000  0.31670000  1.0 0.1482629167
H  H59  1  0.03940000  0.29560000  0.81670000  1.0 0.1482629167
H  H60  1  0.29560000  0.03940000  0.68330000  1.0 0.1482629167
H  H61  1  0.66650000  0.62830000  0.13820000  1.0 0.1410832914
H  H62  1  0.62830000  0.66650000  0.36180000  1.0 0.1410832914
H  H63  1  0.33350000  0.37170000  0.86180000  1.0 0.1410832914
H  H64  1  0.37170000  0.33350000  0.63820000  1.0 0.1410832914
H  H65  1  0.77020000  0.52940000  0.21400000  1.0 0.1482629167
H  H66  1  0.52940000  0.77020000  0.28600000  1.0 0.1482629167
H  H67  1  0.22980000  0.47060000  0.78600000  1.0 0.1482629167
H  H68  1  0.47060000  0.22980000  0.71400000  1.0 0.1482629167
H  H69  1  0.85520000  0.80440000  0.11000000  1.0 0.1410832914
H  H70  1  0.80440000  0.85520000  0.39000000  1.0 0.1410832914
H  H71  1  0.14480000  0.19560000  0.89000000  1.0 0.1410832914
H  H72  1  0.19560000  0.14480000  0.61000000  1.0 0.1410832914
C  C1  1  0.02170000  0.57030000  0.28450000  1.0 0.1113111579
C  C2  1  0.57030000  0.02170000  0.21550000  1.0 0.1113111579
C  C3  1  0.97830000  0.42970000  0.71550000  1.0 0.1113111579
C  C4  1  0.42970000  0.97830000  0.78450000  1.0 0.1113111579
C  C5  1  0.16500000  0.95900000  0.20130000  1.0 0.5356300386
C  C6  1  0.95900000  0.16500000  0.29870000  1.0 0.5356300386
C  C7  1  0.83500000  0.04100000  0.79870000  1.0 0.5356300386
C  C8  1  0.04100000  0.83500000  0.70130000  1.0 0.5356300386
C  C9  1  0.36770000  0.79730000  0.99540000  1.0 0.5346301111
C  C10  1  0.79730000  0.36770000  0.50460000  1.0 0.5346301111
C  C11  1  0.63230000  0.20270000  0.00460000  1.0 0.5346301111
C  C12  1  0.20270000  0.63230000  0.49540000  1.0 0.5346301111
C  C13  1  0.05870000  0.28710000  0.13950000  1.0 0.1026702343
C  C14  1  0.28710000  0.05870000  0.36050000  1.0 0.1026702343
C  C15  1  0.94130000  0.71290000  0.86050000  1.0 0.1026702343
C  C16  1  0.71290000  0.94130000  0.63950000  1.0 0.1026702343
C  C17  1  0.87600000  0.60700000  0.20420000  1.0 0.1410832914
C  C18  1  0.60700000  0.87600000  0.29580000  1.0 0.1410832914
C  C19  1  0.12400000  0.39300000  0.79580000  1.0 0.1410832914
C  C20  1  0.39300000  0.12400000  0.70420000  1.0 0.1410832914
C  C21  1  0.25950000  0.87230000  0.09730000  1.0 -0.117493072
C  C22  1  0.87230000  0.25950000  0.40270000  1.0 -0.117493072
C  C23  1  0.74050000  0.12770000  0.90270000  1.0 -0.117493072
C  C24  1  0.12770000  0.74050000  0.59730000  1.0 -0.117493072
C  C25  1  0.20860000  0.87040000  0.16860000  1.0 -0.0286939697
C  C26  1  0.87040000  0.20860000  0.33140000  1.0 -0.0286939697
C  C27  1  0.79140000  0.12960000  0.83140000  1.0 -0.0286939697
C  C28  1  0.12960000  0.79140000  0.66860000  1.0 -0.0286939697
C  C29  1  0.20620000  0.26500000  0.15240000  1.0 -0.0360695956
C  C30  1  0.26500000  0.20620000  0.34760000  1.0 -0.0360695956
C  C31  1  0.79380000  0.73500000  0.84760000  1.0 -0.0360695956
C  C32  1  0.73500000  0.79380000  0.65240000  1.0 -0.0360695956
C  C33  1  0.75120000  0.72520000  0.11640000  1.0 0.1410832914
C  C34  1  0.72520000  0.75120000  0.38360000  1.0 0.1410832914
C  C35  1  0.24880000  0.27480000  0.88360000  1.0 0.1410832914
C  C36  1  0.27480000  0.24880000  0.61640000  1.0 0.1410832914
C  C37  1  0.30710000  0.79230000  0.06860000  1.0 -0.0201063428
C  C38  1  0.79230000  0.30710000  0.43140000  1.0 -0.0201063428
C  C39  1  0.69290000  0.20770000  0.93140000  1.0 -0.0201063428
C  C40  1  0.20770000  0.69290000  0.56860000  1.0 -0.0201063428
C  C41  1  0.20360000  0.78700000  0.21120000  1.0 -0.1120263072
C  C42  1  0.78700000  0.20360000  0.28880000  1.0 -0.1120263072
C  C43  1  0.79640000  0.21300000  0.78880000  1.0 -0.1120263072
C  C44  1  0.21300000  0.79640000  0.71120000  1.0 -0.1120263072
C  C45  1  0.24870000  0.70690000  0.18260000  1.0 -0.0201063428
C  C46  1  0.70690000  0.24870000  0.31740000  1.0 -0.0201063428
C  C47  1  0.75130000  0.29310000  0.81740000  1.0 -0.0201063428
C  C48  1  0.29310000  0.75130000  0.68260000  1.0 -0.0201063428
C  C49  1  0.30050000  0.70890000  0.11060000  1.0 -0.1120263072
C  C50  1  0.70890000  0.30050000  0.38940000  1.0 -0.1120263072
C  C51  1  0.69950000  0.29110000  0.88940000  1.0 -0.1120263072
C  C52  1  0.29110000  0.69950000  0.61060000  1.0 -0.1120263072
C  C53  1  0.62270000  0.75970000  0.01480000  1.0 0.1026702343
C  C54  1  0.75970000  0.62270000  0.48520000  1.0 0.1026702343
C  C55  1  0.37730000  0.24030000  0.98520000  1.0 0.1026702343
C  C56  1  0.24030000  0.37730000  0.51480000  1.0 0.1026702343
C  C57  1  0.61310000  0.90670000  0.00770000  1.0 -0.0201063428
C  C58  1  0.90670000  0.61310000  0.49230000  1.0 -0.0201063428
C  C59  1  0.38690000  0.09330000  0.99230000  1.0 -0.0201063428
C  C60  1  0.09330000  0.38690000  0.50770000  1.0 -0.0201063428
C  C61  1  0.68130000  0.88070000  0.06430000  1.0 -0.1002374528
C  C62  1  0.88070000  0.68130000  0.43570000  1.0 -0.1002374528
C  C63  1  0.31870000  0.11930000  0.93570000  1.0 -0.1002374528
C  C64  1  0.11930000  0.31870000  0.56430000  1.0 -0.1002374528
C  C65  1  0.04580000  0.42860000  0.04680000  1.0 0.1482629167
C  C66  1  0.42860000  0.04580000  0.45320000  1.0 0.1482629167
C  C67  1  0.95420000  0.57140000  0.95320000  1.0 0.1482629167
C  C68  1  0.57140000  0.95420000  0.54680000  1.0 0.1482629167
C  C69  1  0.24670000  0.61730000  0.23170000  1.0 0.5346301111
C  C70  1  0.61730000  0.24670000  0.26830000  1.0 0.5346301111
C  C71  1  0.75330000  0.38270000  0.76830000  1.0 0.5346301111
C  C72  1  0.38270000  0.75330000  0.73170000  1.0 0.5346301111
C  C73  1  0.02090000  0.42450000  0.30540000  1.0 -0.0201063428
C  C74  1  0.42450000  0.02090000  0.19460000  1.0 -0.0201063428
C  C75  1  0.97910000  0.57550000  0.69460000  1.0 -0.0201063428
C  C76  1  0.57550000  0.97910000  0.80540000  1.0 -0.0201063428
C  C77  1  0.96510000  0.41450000  0.00330000  1.0 -0.1591517864
C  C78  1  0.41450000  0.96510000  0.49670000  1.0 -0.1591517864
C  C79  1  0.03490000  0.58550000  0.99670000  1.0 -0.1591517864
C  C80  1  0.58550000  0.03490000  0.50330000  1.0 -0.1591517864
C  C81  1  0.94210000  0.45130000  0.26190000  1.0 -0.1002374528
C  C82  1  0.45130000  0.94210000  0.23810000  1.0 -0.1002374528
C  C83  1  0.05790000  0.54870000  0.73810000  1.0 -0.1002374528
C  C84  1  0.54870000  0.05790000  0.76190000  1.0 -0.1002374528
C  C85  1  0.08030000  0.51410000  0.04310000  1.0 -0.1488080335
C  C86  1  0.51410000  0.08030000  0.45690000  1.0 -0.1488080335
C  C87  1  0.91970000  0.48590000  0.95690000  1.0 -0.1488080335
C  C88  1  0.48590000  0.91970000  0.54310000  1.0 -0.1488080335
C  C89  1  0.18930000  0.34010000  0.10140000  1.0 -0.1002374528
C  C90  1  0.34010000  0.18930000  0.39860000  1.0 -0.1002374528
C  C91  1  0.81070000  0.65990000  0.89860000  1.0 -0.1002374528
C  C92  1  0.65990000  0.81070000  0.60140000  1.0 -0.1002374528
C  C93  1  0.90060000  0.68820000  0.17430000  1.0 -0.1591517864
C  C94  1  0.68820000  0.90060000  0.32570000  1.0 -0.1591517864
C  C95  1  0.09940000  0.31180000  0.82570000  1.0 -0.1591517864
C  C96  1  0.31180000  0.09940000  0.67430000  1.0 -0.1591517864
C  C97  1  0.72660000  0.64440000  0.14730000  1.0 -0.1688786199
C  C98  1  0.64440000  0.72660000  0.35270000  1.0 -0.1688786199
C  C99  1  0.27340000  0.35560000  0.85270000  1.0 -0.1688786199
C  C100  1  0.35560000  0.27340000  0.64730000  1.0 -0.1688786199
C  C101  1  0.78870000  0.58470000  0.19220000  1.0 -0.1488080335
C  C102  1  0.58470000  0.78870000  0.30780000  1.0 -0.1488080335
C  C103  1  0.21130000  0.41530000  0.80780000  1.0 -0.1488080335
C  C104  1  0.41530000  0.21130000  0.69220000  1.0 -0.1488080335
C  C105  1  0.83740000  0.74820000  0.13010000  1.0 -0.1591517864
C  C106  1  0.74820000  0.83740000  0.36990000  1.0 -0.1591517864
C  C107  1  0.16260000  0.25180000  0.86990000  1.0 -0.1591517864
C  C108  1  0.25180000  0.16260000  0.63010000  1.0 -0.1591517864
N  N1  1  0.12370000  0.23310000  0.17690000  1.0 -0.2701062498
N  N2  1  0.23310000  0.12370000  0.32310000  1.0 -0.2701062498
N  N3  1  0.87630000  0.76690000  0.82310000  1.0 -0.2701062498
N  N4  1  0.76690000  0.87630000  0.67690000  1.0 -0.2701062498
N  N5  1  0.09470000  0.35470000  0.09340000  1.0 -0.0078231698
N  N6  1  0.35470000  0.09470000  0.40660000  1.0 -0.0078231698
N  N7  1  0.90530000  0.64530000  0.90660000  1.0 -0.0078231698
N  N8  1  0.64530000  0.90530000  0.59340000  1.0 -0.0078231698
N  N9  1  0.57730000  0.83030000  0.97650000  1.0 -0.2701062498
N  N10  1  0.83030000  0.57730000  0.52350000  1.0 -0.2701062498
N  N11  1  0.42270000  0.16970000  0.02350000  1.0 -0.2701062498
N  N12  1  0.16970000  0.42270000  0.47650000  1.0 -0.2701062498
N  N13  1  0.68660000  0.78580000  0.06860000  1.0 -0.0012874043
N  N14  1  0.78580000  0.68660000  0.43140000  1.0 -0.0012874043
N  N15  1  0.31340000  0.21420000  0.93140000  1.0 -0.0012874043
N  N16  1  0.21420000  0.31340000  0.56860000  1.0 -0.0012874043
N  N17  1  0.07030000  0.49850000  0.31870000  1.0 -0.2590965716
N  N18  1  0.49850000  0.07030000  0.18130000  1.0 -0.2590965716
N  N19  1  0.92970000  0.50150000  0.68130000  1.0 -0.2590965716
N  N20  1  0.50150000  0.92970000  0.81870000  1.0 -0.2590965716
N  N21  1  0.94300000  0.54500000  0.24910000  1.0 0.0015709192
N  N22  1  0.54500000  0.94300000  0.25090000  1.0 0.0015709192
N  N23  1  0.05700000  0.45500000  0.75090000  1.0 0.0015709192
N  N24  1  0.45500000  0.05700000  0.74910000  1.0 0.0015709192
O  O1  1  0.17203000  0.03327000  0.16020000  1.0 -0.5208829778
O  O2  1  0.03327000  0.17203000  0.33980000  1.0 -0.5208829778
O  O3  1  0.82797000  0.96673000  0.83980000  1.0 -0.5208829778
O  O4  1  0.96673000  0.82797000  0.66020000  1.0 -0.5208829778
O  O5  1  0.12590000  0.96196000  0.27040000  1.0 -0.5208829778
O  O6  1  0.96196000  0.12590000  0.22960000  1.0 -0.5208829778
O  O7  1  0.87410000  0.03804000  0.72960000  1.0 -0.5208829778
O  O8  1  0.03804000  0.87410000  0.77040000  1.0 -0.5208829778
O  O9  1  0.37432000  0.87336000  0.95940000  1.0 -0.529700735
O  O10  1  0.87336000  0.37432000  0.54060000  1.0 -0.529700735
O  O11  1  0.62568000  0.12664000  0.04060000  1.0 -0.529700735
O  O12  1  0.12664000  0.62568000  0.45940000  1.0 -0.529700735
O  O13  1  0.41578000  0.72524000  0.97220000  1.0 -0.5095817236
O  O14  1  0.72524000  0.41578000  0.52780000  1.0 -0.5095817236
O  O15  1  0.58422000  0.27476000  0.02780000  1.0 -0.5095817236
O  O16  1  0.27476000  0.58422000  0.47220000  1.0 -0.5095817236
O  O17  1  0.27948000  0.42738000  0.32660000  1.0 -0.2472959844
O  O18  1  0.42738000  0.27948000  0.17340000  1.0 -0.2443940429
O  O19  1  0.72052000  0.57262000  0.67340000  1.0 -0.2443940429
O  O20  1  0.57262000  0.72052000  0.82660000  1.0 -0.2443940429
O  O21  1  0.27610000  0.54290000  0.19870000  1.0 -0.5208829778
O  O22  1  0.54290000  0.27610000  0.30130000  1.0 -0.5208829778
O  O23  1  0.72390000  0.45710000  0.80130000  1.0 -0.5208829778
O  O24  1  0.45710000  0.72390000  0.69870000  1.0 -0.5208829778
O  O25  1  0.21399000  0.62269000  0.30230000  1.0 -0.529700735
O  O26  1  0.62269000  0.21399000  0.19770000  1.0 -0.529700735
O  O27  1  0.78601000  0.37731000  0.69770000  1.0 -0.529700735
O  O28  1  0.37731000  0.78601000  0.80230000  1.0 -0.529700735
