# DDEC6 charges by PACMAN v1.1 (https://github.com/mtap-research/PACMAN-charge/)
data_POLBIB_FSR_pacman
_symmetry_space_group_name_H-M   'P 1'
_cell_length_a   8.41300000
_cell_length_b   10.56700000
_cell_length_c   16.97000000
_cell_angle_alpha   90.00000000
_cell_angle_beta   90.00000000
_cell_angle_gamma   90.00000000
_symmetry_Int_Tables_number   1
_chemical_formula_structural   V3P2O15
_chemical_formula_sum   'V12 P8 O60'
_cell_volume   1508.63590187
_cell_formula_units_Z   4
loop_
 _symmetry_equiv_pos_site_id
 _symmetry_equiv_pos_as_xyz
  1  'x, y, z'
loop_
 _atom_site_type_symbol
 _atom_site_label
 _atom_site_symmetry_multiplicity
 _atom_site_fract_x
 _atom_site_fract_y
 _atom_site_fract_z
 _atom_site_occupancy
 _atom_site_charge
V  V1  1  0.77980000  0.14060000  0.56430000  1.0 1.9928426748
V  V2  1  0.27980000  0.35940000  0.43570000  1.0 1.9928426748
V  V3  1  0.72020000  0.64060000  0.93570000  1.0 1.9928426748
V  V4  1  0.22020000  0.85940000  0.06430000  1.0 1.9928426748
V  V5  1  0.22020000  0.85940000  0.43570000  1.0 1.9928426748
V  V6  1  0.72020000  0.64060000  0.56430000  1.0 1.9928426748
V  V7  1  0.27980000  0.35940000  0.06430000  1.0 1.9928426748
V  V8  1  0.77980000  0.14060000  0.93570000  1.0 1.9928426748
V  V9  1  0.82610000  0.77910000  0.75000000  1.0 1.9172710484
V  V10  1  0.32610000  0.72090000  0.25000000  1.0 1.9172710484
V  V11  1  0.67390000  0.27910000  0.75000000  1.0 1.9172710484
V  V12  1  0.17390000  0.22090000  0.25000000  1.0 1.9172710484
P  P1  1  0.97090000  0.87070000  0.58680000  1.0 1.6486971831
P  P2  1  0.47090000  0.62930000  0.41320000  1.0 1.6486971831
P  P3  1  0.52910000  0.37070000  0.91320000  1.0 1.6486971831
P  P4  1  0.02910000  0.12930000  0.08680000  1.0 1.6486971831
P  P5  1  0.02910000  0.12930000  0.41320000  1.0 1.6486971831
P  P6  1  0.52910000  0.37070000  0.58680000  1.0 1.6486971831
P  P7  1  0.47090000  0.62930000  0.08680000  1.0 1.6486971831
P  P8  1  0.97090000  0.87070000  0.91320000  1.0 1.6486971831
O  O1  1  0.94920000  0.01590000  0.58530000  1.0 -0.8003810519
O  O2  1  0.44920000  0.48410000  0.41470000  1.0 -0.8003810519
O  O3  1  0.55080000  0.51590000  0.91470000  1.0 -0.8003810519
O  O4  1  0.05080000  0.98410000  0.08530000  1.0 -0.8003810519
O  O5  1  0.05080000  0.98410000  0.41470000  1.0 -0.8003810519
O  O6  1  0.55080000  0.51590000  0.58530000  1.0 -0.8003810519
O  O7  1  0.44920000  0.48410000  0.08530000  1.0 -0.8003810519
O  O8  1  0.94920000  0.01590000  0.91470000  1.0 -0.8003810519
O  O9  1  0.12830000  0.83590000  0.54540000  1.0 -0.7677640015
O  O10  1  0.62830000  0.66410000  0.45460000  1.0 -0.7677640015
O  O11  1  0.37170000  0.33590000  0.95460000  1.0 -0.7677640015
O  O12  1  0.87170000  0.16410000  0.04540000  1.0 -0.7677640015
O  O13  1  0.87170000  0.16410000  0.45460000  1.0 -0.7677640015
O  O14  1  0.37170000  0.33590000  0.54540000  1.0 -0.7677640015
O  O15  1  0.62830000  0.66410000  0.04540000  1.0 -0.7677640015
O  O16  1  0.12830000  0.83590000  0.95460000  1.0 -0.7677640015
O  O17  1  0.82960000  0.80600000  0.54570000  1.0 -0.8154165739
O  O18  1  0.32960000  0.69400000  0.45430000  1.0 -0.8147711152
O  O19  1  0.67040000  0.30600000  0.95430000  1.0 -0.8147711152
O  O20  1  0.17040000  0.19400000  0.04570000  1.0 -0.8147711152
O  O21  1  0.17040000  0.19400000  0.45430000  1.0 -0.8147711152
O  O22  1  0.67040000  0.30600000  0.54570000  1.0 -0.8147711152
O  O23  1  0.32960000  0.69400000  0.04570000  1.0 -0.8147711152
O  O24  1  0.82960000  0.80600000  0.95430000  1.0 -0.8154165739
O  O25  1  0.98920000  0.82600000  0.67300000  1.0 -0.7944519216
O  O26  1  0.48920000  0.67400000  0.32700000  1.0 -0.8003810519
O  O27  1  0.51080000  0.32600000  0.82700000  1.0 -0.7944519216
O  O28  1  0.01080000  0.17400000  0.17300000  1.0 -0.8003810519
O  O29  1  0.01080000  0.17400000  0.32700000  1.0 -0.7944519216
O  O30  1  0.51080000  0.32600000  0.67300000  1.0 -0.7944519216
O  O31  1  0.48920000  0.67400000  0.17300000  1.0 -0.7944519216
O  O32  1  0.98920000  0.82600000  0.82700000  1.0 -0.7944519216
O  O33  1  0.75860000  0.65920000  0.82610000  1.0 -0.9229833563
O  O34  1  0.25860000  0.84080000  0.17390000  1.0 -0.9229833563
O  O35  1  0.74140000  0.15920000  0.67390000  1.0 -0.9229833563
O  O36  1  0.24140000  0.34080000  0.32610000  1.0 -0.9274685973
O  O37  1  0.24140000  0.34080000  0.17390000  1.0 -0.9229833563
O  O38  1  0.74140000  0.15920000  0.82610000  1.0 -0.9229833563
O  O39  1  0.25860000  0.84080000  0.32610000  1.0 -0.9229833563
O  O40  1  0.75860000  0.65920000  0.67390000  1.0 -0.9229833563
O  O41  1  0.69610000  0.89010000  0.75000000  1.0 -0.5467803026
O  O42  1  0.19610000  0.60990000  0.25000000  1.0 -0.5467803026
O  O43  1  0.80390000  0.39010000  0.75000000  1.0 -0.5467803026
O  O44  1  0.30390000  0.10990000  0.25000000  1.0 -0.5467803026
O  O45  1  0.63540000  0.04800000  0.54080000  1.0 -0.4615213344
O  O46  1  0.13540000  0.45200000  0.45920000  1.0 -0.4615213344
O  O47  1  0.86460000  0.54800000  0.95920000  1.0 -0.4615213344
O  O48  1  0.36460000  0.95200000  0.04080000  1.0 -0.4615213344
O  O49  1  0.36460000  0.95200000  0.45920000  1.0 -0.4615213344
O  O50  1  0.86460000  0.54800000  0.54080000  1.0 -0.4615213344
O  O51  1  0.13540000  0.45200000  0.04080000  1.0 -0.4615213344
O  O52  1  0.63540000  0.04800000  0.95920000  1.0 -0.4615213344
O  O53  1  0.98620000  0.28290000  0.59490000  1.0 0.2325932836
O  O54  1  0.48620000  0.21710000  0.40510000  1.0 0.2325932836
O  O55  1  0.51380000  0.78290000  0.90510000  1.0 0.2325932836
O  O56  1  0.01380000  0.71710000  0.09490000  1.0 0.2351459568
O  O57  1  0.01380000  0.71710000  0.40510000  1.0 0.2351459568
O  O58  1  0.51380000  0.78290000  0.59490000  1.0 0.2488348862
O  O59  1  0.48620000  0.21710000  0.09490000  1.0 0.2488348862
O  O60  1  0.98620000  0.28290000  0.90510000  1.0 0.2325932836
