# DDEC6 charges by PACMAN v1.1 (https://github.com/mtap-research/PACMAN-charge/)
data_POLBUN_ASR_pacman
_symmetry_space_group_name_H-M   'P 1'
_cell_length_a   10.15400000
_cell_length_b   15.77300000
_cell_length_c   18.39300000
_cell_angle_alpha   90.00000000
_cell_angle_beta   90.00000000
_cell_angle_gamma   90.00000000
_symmetry_Int_Tables_number   1
_chemical_formula_structural   Ga3P3(O6F)2
_chemical_formula_sum   'Ga24 P24 O96 F16'
_cell_volume   2945.80525951
_cell_formula_units_Z   8
loop_
 _symmetry_equiv_pos_site_id
 _symmetry_equiv_pos_as_xyz
  1  'x, y, z'
loop_
 _atom_site_type_symbol
 _atom_site_label
 _atom_site_symmetry_multiplicity
 _atom_site_fract_x
 _atom_site_fract_y
 _atom_site_fract_z
 _atom_site_occupancy
 _atom_site_charge
Ga  Ga1  1  0.18010000  0.53810000  0.71790000  1.0 1.4694935705
Ga  Ga2  1  0.31990000  0.03810000  0.28210000  1.0 1.4694935705
Ga  Ga3  1  0.68010000  0.46190000  0.78210000  1.0 1.4694935705
Ga  Ga4  1  0.81990000  0.96190000  0.21790000  1.0 1.4694935705
Ga  Ga5  1  0.81990000  0.46190000  0.28210000  1.0 1.4694935705
Ga  Ga6  1  0.68010000  0.96190000  0.71790000  1.0 1.4694935705
Ga  Ga7  1  0.31990000  0.53810000  0.21790000  1.0 1.4694935705
Ga  Ga8  1  0.18010000  0.03810000  0.78210000  1.0 1.4694935705
Ga  Ga9  1  0.33660000  0.35120000  0.67400000  1.0 1.536637321
Ga  Ga10  1  0.16340000  0.85120000  0.32600000  1.0 1.536637321
Ga  Ga11  1  0.83660000  0.64880000  0.82600000  1.0 1.5346242663
Ga  Ga12  1  0.66340000  0.14880000  0.17400000  1.0 1.5346242663
Ga  Ga13  1  0.66340000  0.64880000  0.32600000  1.0 1.5346242663
Ga  Ga14  1  0.83660000  0.14880000  0.67400000  1.0 1.5346242663
Ga  Ga15  1  0.16340000  0.35120000  0.17400000  1.0 1.536637321
Ga  Ga16  1  0.33660000  0.85120000  0.82600000  1.0 1.536637321
Ga  Ga17  1  0.14900000  0.50360000  0.90570000  1.0 1.5059781309
Ga  Ga18  1  0.35100000  0.00360000  0.09430000  1.0 1.5045636173
Ga  Ga19  1  0.64900000  0.49640000  0.59430000  1.0 1.5059781309
Ga  Ga20  1  0.85100000  0.99640000  0.40570000  1.0 1.5045636173
Ga  Ga21  1  0.85100000  0.49640000  0.09430000  1.0 1.5045636173
Ga  Ga22  1  0.64900000  0.99640000  0.90570000  1.0 1.5059781309
Ga  Ga23  1  0.35100000  0.50360000  0.40570000  1.0 1.5059781309
Ga  Ga24  1  0.14900000  0.00360000  0.59430000  1.0 1.5059781309
P  P1  1  0.35950000  0.51640000  0.57590000  1.0 1.5576670751
P  P2  1  0.14050000  0.01640000  0.42410000  1.0 1.5576670751
P  P3  1  0.85950000  0.48360000  0.92410000  1.0 1.5537535425
P  P4  1  0.64050000  0.98360000  0.07590000  1.0 1.5537535425
P  P5  1  0.64050000  0.48360000  0.42410000  1.0 1.5537535425
P  P6  1  0.85950000  0.98360000  0.57590000  1.0 1.5537535425
P  P7  1  0.14050000  0.51640000  0.07590000  1.0 1.5576670751
P  P8  1  0.35950000  0.01640000  0.92410000  1.0 1.5576670751
P  P9  1  0.15050000  0.68450000  0.83170000  1.0 1.5576670751
P  P10  1  0.34950000  0.18450000  0.16830000  1.0 1.5576670751
P  P11  1  0.65050000  0.31550000  0.66830000  1.0 1.5576670751
P  P12  1  0.84950000  0.81550000  0.33170000  1.0 1.5537535425
P  P13  1  0.84950000  0.31550000  0.16830000  1.0 1.5576670751
P  P14  1  0.65050000  0.81550000  0.83170000  1.0 1.5576670751
P  P15  1  0.34950000  0.68450000  0.33170000  1.0 1.5576670751
P  P16  1  0.15050000  0.18450000  0.66830000  1.0 1.5576670751
P  P17  1  0.37960000  0.43720000  0.81700000  1.0 1.536637321
P  P18  1  0.12040000  0.93720000  0.18300000  1.0 1.536637321
P  P19  1  0.87960000  0.56280000  0.68300000  1.0 1.5346242663
P  P20  1  0.62040000  0.06280000  0.31700000  1.0 1.536637321
P  P21  1  0.62040000  0.56280000  0.18300000  1.0 1.536637321
P  P22  1  0.87960000  0.06280000  0.81700000  1.0 1.536637321
P  P23  1  0.12040000  0.43720000  0.31700000  1.0 1.536637321
P  P24  1  0.37960000  0.93720000  0.68300000  1.0 1.536637321
O  O1  1  0.49890000  0.55550000  0.56660000  1.0 -0.6928774837
O  O2  1  0.00110000  0.05550000  0.43340000  1.0 -0.6928774837
O  O3  1  0.99890000  0.44450000  0.93340000  1.0 -0.6928774837
O  O4  1  0.50110000  0.94450000  0.06660000  1.0 -0.6928774837
O  O5  1  0.50110000  0.44450000  0.43340000  1.0 -0.6928774837
O  O6  1  0.99890000  0.94450000  0.56660000  1.0 -0.6928774837
O  O7  1  0.00110000  0.55550000  0.06660000  1.0 -0.6928774837
O  O8  1  0.49890000  0.05550000  0.93340000  1.0 -0.6928774837
O  O9  1  0.28600000  0.51980000  0.50370000  1.0 -0.6412865121
O  O10  1  0.21400000  0.01980000  0.49630000  1.0 -0.6412865121
O  O11  1  0.78600000  0.48020000  0.99630000  1.0 -0.6412865121
O  O12  1  0.71400000  0.98020000  0.00370000  1.0 -0.6412865121
O  O13  1  0.71400000  0.48020000  0.49630000  1.0 -0.6412865121
O  O14  1  0.78600000  0.98020000  0.50370000  1.0 -0.6412865121
O  O15  1  0.21400000  0.51980000  0.00370000  1.0 -0.6412865121
O  O16  1  0.28600000  0.01980000  0.99630000  1.0 -0.6412865121
O  O17  1  0.37920000  0.42320000  0.59900000  1.0 -0.7458503965
O  O18  1  0.12080000  0.92320000  0.40100000  1.0 -0.7458503965
O  O19  1  0.87920000  0.57680000  0.90100000  1.0 -0.7458503965
O  O20  1  0.62080000  0.07680000  0.09900000  1.0 -0.7458503965
O  O21  1  0.62080000  0.57680000  0.40100000  1.0 -0.7458503965
O  O22  1  0.87920000  0.07680000  0.59900000  1.0 -0.7458503965
O  O23  1  0.12080000  0.42320000  0.09900000  1.0 -0.7458503965
O  O24  1  0.37920000  0.92320000  0.90100000  1.0 -0.7458503965
O  O25  1  0.28460000  0.56860000  0.63320000  1.0 -0.6515780512
O  O26  1  0.21540000  0.06860000  0.36680000  1.0 -0.6515780512
O  O27  1  0.78460000  0.43140000  0.86680000  1.0 -0.6515780512
O  O28  1  0.71540000  0.93140000  0.13320000  1.0 -0.6515780512
O  O29  1  0.71540000  0.43140000  0.36680000  1.0 -0.6515780512
O  O30  1  0.78460000  0.93140000  0.63320000  1.0 -0.6515780512
O  O31  1  0.21540000  0.56860000  0.13320000  1.0 -0.6515780512
O  O32  1  0.28460000  0.06860000  0.86680000  1.0 -0.6515780512
O  O33  1  0.23520000  0.76060000  0.85380000  1.0 -0.6592857985
O  O34  1  0.26480000  0.26060000  0.14620000  1.0 -0.6592857985
O  O35  1  0.73520000  0.23940000  0.64620000  1.0 -0.6592857985
O  O36  1  0.76480000  0.73940000  0.35380000  1.0 -0.6592857985
O  O37  1  0.76480000  0.23940000  0.14620000  1.0 -0.6592857985
O  O38  1  0.73520000  0.73940000  0.85380000  1.0 -0.6592857985
O  O39  1  0.26480000  0.76060000  0.35380000  1.0 -0.6592857985
O  O40  1  0.23520000  0.26060000  0.64620000  1.0 -0.6592857985
O  O41  1  0.18360000  0.65460000  0.75460000  1.0 -0.7180396441
O  O42  1  0.31640000  0.15460000  0.24540000  1.0 -0.7180396441
O  O43  1  0.68360000  0.34540000  0.74540000  1.0 -0.7180396441
O  O44  1  0.81640000  0.84540000  0.25460000  1.0 -0.7180396441
O  O45  1  0.81640000  0.34540000  0.24540000  1.0 -0.7180396441
O  O46  1  0.68360000  0.84540000  0.75460000  1.0 -0.7180396441
O  O47  1  0.31640000  0.65460000  0.25460000  1.0 -0.7180396441
O  O48  1  0.18360000  0.15460000  0.74540000  1.0 -0.7180396441
O  O49  1  0.18610000  0.61800000  0.89000000  1.0 -0.7079146479
O  O50  1  0.31390000  0.11800000  0.11000000  1.0 -0.7079146479
O  O51  1  0.68610000  0.38200000  0.61000000  1.0 -0.7079146479
O  O52  1  0.81390000  0.88200000  0.39000000  1.0 -0.7079146479
O  O53  1  0.81390000  0.38200000  0.11000000  1.0 -0.7079146479
O  O54  1  0.68610000  0.88200000  0.89000000  1.0 -0.7079146479
O  O55  1  0.31390000  0.61800000  0.39000000  1.0 -0.7079146479
O  O56  1  0.18610000  0.11800000  0.61000000  1.0 -0.7079146479
O  O57  1  0.00500000  0.71050000  0.83820000  1.0 -0.6748513703
O  O58  1  0.49500000  0.21050000  0.16180000  1.0 -0.6748513703
O  O59  1  0.50500000  0.28950000  0.66180000  1.0 -0.6748513703
O  O60  1  0.99500000  0.78950000  0.33820000  1.0 -0.6748513703
O  O61  1  0.99500000  0.28950000  0.16180000  1.0 -0.6748513703
O  O62  1  0.50500000  0.78950000  0.83820000  1.0 -0.6748513703
O  O63  1  0.49500000  0.71050000  0.33820000  1.0 -0.6748513703
O  O64  1  0.00500000  0.21050000  0.66180000  1.0 -0.6748513703
O  O65  1  0.29140000  0.43140000  0.88550000  1.0 -0.6592857985
O  O66  1  0.20860000  0.93140000  0.11450000  1.0 -0.6592857985
O  O67  1  0.79140000  0.56860000  0.61450000  1.0 -0.6592857985
O  O68  1  0.70860000  0.06860000  0.38550000  1.0 -0.6592857985
O  O69  1  0.70860000  0.56860000  0.11450000  1.0 -0.6592857985
O  O70  1  0.79140000  0.06860000  0.88550000  1.0 -0.6592857985
O  O71  1  0.20860000  0.43140000  0.38550000  1.0 -0.6592857985
O  O72  1  0.29140000  0.93140000  0.61450000  1.0 -0.6592857985
O  O73  1  0.35970000  0.35380000  0.77420000  1.0 -0.7079146479
O  O74  1  0.14030000  0.85380000  0.22580000  1.0 -0.7079146479
O  O75  1  0.85970000  0.64620000  0.72580000  1.0 -0.7079146479
O  O76  1  0.64030000  0.14620000  0.27420000  1.0 -0.7079146479
O  O77  1  0.64030000  0.64620000  0.22580000  1.0 -0.7079146479
O  O78  1  0.85970000  0.14620000  0.77420000  1.0 -0.7079146479
O  O79  1  0.14030000  0.35380000  0.27420000  1.0 -0.7079146479
O  O80  1  0.35970000  0.85380000  0.72580000  1.0 -0.7079146479
O  O81  1  0.34310000  0.51420000  0.77080000  1.0 -0.7035063331
O  O82  1  0.15690000  0.01420000  0.22920000  1.0 -0.7035063331
O  O83  1  0.84310000  0.48580000  0.72920000  1.0 -0.7035063331
O  O84  1  0.65690000  0.98580000  0.27080000  1.0 -0.7035063331
O  O85  1  0.65690000  0.48580000  0.22920000  1.0 -0.7035063331
O  O86  1  0.84310000  0.98580000  0.77080000  1.0 -0.7035063331
O  O87  1  0.15690000  0.51420000  0.27080000  1.0 -0.7035063331
O  O88  1  0.34310000  0.01420000  0.72920000  1.0 -0.7035063331
O  O89  1  0.52300000  0.44420000  0.84180000  1.0 -0.6592857985
O  O90  1  0.97700000  0.94420000  0.15820000  1.0 -0.6592857985
O  O91  1  0.02300000  0.55580000  0.65820000  1.0 -0.6592857985
O  O92  1  0.47700000  0.05580000  0.34180000  1.0 -0.6592857985
O  O93  1  0.47700000  0.55580000  0.15820000  1.0 -0.6592857985
O  O94  1  0.02300000  0.05580000  0.84180000  1.0 -0.6592857985
O  O95  1  0.97700000  0.44420000  0.34180000  1.0 -0.6592857985
O  O96  1  0.52300000  0.94420000  0.65820000  1.0 -0.6592857985
F  F1  1  0.17330000  0.41930000  0.68580000  1.0 -0.4558269334
F  F2  1  0.32670000  0.91930000  0.31420000  1.0 -0.4542020682
F  F3  1  0.67330000  0.58070000  0.81420000  1.0 -0.4558269334
F  F4  1  0.82670000  0.08070000  0.18580000  1.0 -0.4558269334
F  F5  1  0.82670000  0.58070000  0.31420000  1.0 -0.4558269334
F  F6  1  0.67330000  0.08070000  0.68580000  1.0 -0.4558269334
F  F7  1  0.32670000  0.41930000  0.18580000  1.0 -0.4558269334
F  F8  1  0.17330000  0.91930000  0.81420000  1.0 -0.4558269334
F  F9  1  0.08440000  0.50140000  0.80390000  1.0 -0.4825456266
F  F10  1  0.41560000  0.00140000  0.19610000  1.0 -0.4825456266
F  F11  1  0.58440000  0.49860000  0.69610000  1.0 -0.4825456266
F  F12  1  0.91560000  0.99860000  0.30390000  1.0 -0.4825456266
F  F13  1  0.91560000  0.49860000  0.19610000  1.0 -0.4825456266
F  F14  1  0.58440000  0.99860000  0.80390000  1.0 -0.4825456266
F  F15  1  0.41560000  0.50140000  0.30390000  1.0 -0.4825456266
F  F16  1  0.08440000  0.00140000  0.69610000  1.0 -0.4825456266
