# DDEC6 charges by PACMAN v1.1 (https://github.com/mtap-research/PACMAN-charge/)
data_POLBAT_ASR_pacman
_symmetry_space_group_name_H-M   'P 1'
_cell_length_a   8.78700000
_cell_length_b   17.78300000
_cell_length_c   10.38130000
_cell_angle_alpha   90.00000000
_cell_angle_beta   123.33900000
_cell_angle_gamma   90.00000000
_symmetry_Int_Tables_number   1
_chemical_formula_structural   Ga3P3HO13
_chemical_formula_sum   'Ga12 P12 H4 O52'
_cell_volume   1355.21831270
_cell_formula_units_Z   4
loop_
 _symmetry_equiv_pos_site_id
 _symmetry_equiv_pos_as_xyz
  1  'x, y, z'
loop_
 _atom_site_type_symbol
 _atom_site_label
 _atom_site_symmetry_multiplicity
 _atom_site_fract_x
 _atom_site_fract_y
 _atom_site_fract_z
 _atom_site_occupancy
 _atom_site_charge
Ga  Ga1  1  0.76430000  0.29490000  0.69640000  1.0 1.5401259571
Ga  Ga2  1  0.23570000  0.79490000  0.80360000  1.0 1.5476071298
Ga  Ga3  1  0.23570000  0.70510000  0.30360000  1.0 1.5401259571
Ga  Ga4  1  0.76430000  0.20510000  0.19640000  1.0 1.5401259571
Ga  Ga5  1  0.96970000  0.11000000  0.83420000  1.0 1.5232684225
Ga  Ga6  1  0.03030000  0.61000000  0.66580000  1.0 1.5232684225
Ga  Ga7  1  0.03030000  0.89000000  0.16580000  1.0 1.5253425449
Ga  Ga8  1  0.96970000  0.39000000  0.33420000  1.0 1.5232684225
Ga  Ga9  1  0.31730000  0.32910000  0.80380000  1.0 1.5401259571
Ga  Ga10  1  0.68270000  0.82910000  0.69620000  1.0 1.5476071298
Ga  Ga11  1  0.68270000  0.67090000  0.19620000  1.0 1.5476071298
Ga  Ga12  1  0.31730000  0.17090000  0.30380000  1.0 1.5476071298
P  P1  1  0.97140000  0.42940000  0.63020000  1.0 1.5902305057
P  P2  1  0.02860000  0.92940000  0.86980000  1.0 1.5902305057
P  P3  1  0.02860000  0.57060000  0.36980000  1.0 1.5902305057
P  P4  1  0.97140000  0.07060000  0.13020000  1.0 1.5820364088
P  P5  1  0.31960000  0.28870000  0.51690000  1.0 1.5820364088
P  P6  1  0.68040000  0.78870000  0.98310000  1.0 1.5820364088
P  P7  1  0.68040000  0.71130000  0.48310000  1.0 1.5820364088
P  P8  1  0.31960000  0.21130000  0.01690000  1.0 1.5820364088
P  P9  1  0.73940000  0.16130000  0.49110000  1.0 1.5476071298
P  P10  1  0.26060000  0.66130000  0.00890000  1.0 1.5476071298
P  P11  1  0.26060000  0.83870000  0.50890000  1.0 1.5476071298
P  P12  1  0.73940000  0.33870000  0.99110000  1.0 1.5476071298
H  H1  1  0.82600000  0.21100000  0.90500000  1.0 0.4112405389
H  H2  1  0.17400000  0.71100000  0.59500000  1.0 0.4112405389
H  H3  1  0.17400000  0.78900000  0.09500000  1.0 0.4112405389
H  H4  1  0.82600000  0.28900000  0.40500000  1.0 0.4112405389
O  O1  1  0.85660000  0.20950000  0.82170000  1.0 -0.8586064369
O  O2  1  0.14340000  0.70950000  0.67830000  1.0 -0.8586064369
O  O3  1  0.14340000  0.79050000  0.17830000  1.0 -0.8586064369
O  O4  1  0.85660000  0.29050000  0.32170000  1.0 -0.8586064369
O  O5  1  0.88030000  0.37820000  0.68540000  1.0 -0.7234544801
O  O6  1  0.11970000  0.87820000  0.81460000  1.0 -0.7234544801
O  O7  1  0.11970000  0.62180000  0.31460000  1.0 -0.7234544801
O  O8  1  0.88030000  0.12180000  0.18540000  1.0 -0.7234544801
O  O9  1  0.78000000  0.24420000  0.53800000  1.0 -0.7701559901
O  O10  1  0.22000000  0.74420000  0.96200000  1.0 -0.7701559901
O  O11  1  0.22000000  0.75580000  0.46200000  1.0 -0.7701559901
O  O12  1  0.78000000  0.25580000  0.03800000  1.0 -0.7701559901
O  O13  1  0.51110000  0.30320000  0.56090000  1.0 -0.7597619571
O  O14  1  0.48890000  0.80320000  0.93910000  1.0 -0.7597619571
O  O15  1  0.48890000  0.69680000  0.43910000  1.0 -0.7597619571
O  O16  1  0.51110000  0.19680000  0.06090000  1.0 -0.7597619571
O  O17  1  0.76080000  0.14680000  0.35750000  1.0 -0.7234544801
O  O18  1  0.23920000  0.64680000  0.14250000  1.0 -0.7234544801
O  O19  1  0.23920000  0.85320000  0.64250000  1.0 -0.7234544801
O  O20  1  0.76080000  0.35320000  0.85750000  1.0 -0.731339712
O  O21  1  0.17820000  0.41250000  0.71980000  1.0 -0.7597619571
O  O22  1  0.82180000  0.91250000  0.78020000  1.0 -0.7597619571
O  O23  1  0.82180000  0.58750000  0.28020000  1.0 -0.7597619571
O  O24  1  0.17820000  0.08750000  0.21980000  1.0 -0.7597619571
O  O25  1  0.23660000  0.22070000  0.40740000  1.0 -0.7455007821
O  O26  1  0.76340000  0.72070000  0.09260000  1.0 -0.7436713169
O  O27  1  0.76340000  0.77930000  0.59260000  1.0 -0.7436713169
O  O28  1  0.23660000  0.27930000  0.90740000  1.0 -0.7436713169
O  O29  1  0.54570000  0.13840000  0.44450000  1.0 -0.731339712
O  O30  1  0.45430000  0.63840000  0.05550000  1.0 -0.731339712
O  O31  1  0.45430000  0.86160000  0.55550000  1.0 -0.731339712
O  O32  1  0.54570000  0.36160000  0.94450000  1.0 -0.731339712
O  O33  1  0.31120000  0.26960000  0.65720000  1.0 -0.7597619571
O  O34  1  0.68880000  0.76960000  0.84280000  1.0 -0.7597619571
O  O35  1  0.68880000  0.73040000  0.34280000  1.0 -0.7597619571
O  O36  1  0.31120000  0.23040000  0.15720000  1.0 -0.7597619571
O  O37  1  0.86850000  0.10880000  0.62380000  1.0 -0.7139383942
O  O38  1  0.13150000  0.60880000  0.87620000  1.0 -0.7139383942
O  O39  1  0.13150000  0.89120000  0.37620000  1.0 -0.7139383942
O  O40  1  0.86850000  0.39120000  0.12380000  1.0 -0.7139383942
O  O41  1  0.88640000  0.41900000  0.45740000  1.0 -0.7597619571
O  O42  1  0.11360000  0.91900000  0.04260000  1.0 -0.7597619571
O  O43  1  0.11360000  0.58100000  0.54260000  1.0 -0.7597619571
O  O44  1  0.88640000  0.08100000  0.95740000  1.0 -0.7597619571
O  O45  1  0.94260000  0.50920000  0.66440000  1.0 -0.7031490743
O  O46  1  0.05740000  0.00920000  0.83560000  1.0 -0.7031490743
O  O47  1  0.05740000  0.49080000  0.33560000  1.0 -0.7031490743
O  O48  1  0.94260000  0.99080000  0.16440000  1.0 -0.7031490743
O  O49  1  0.21050000  0.35930000  0.43730000  1.0 -0.731339712
O  O50  1  0.78950000  0.85930000  0.06270000  1.0 -0.731339712
O  O51  1  0.78950000  0.64070000  0.56270000  1.0 -0.731339712
O  O52  1  0.21050000  0.14070000  0.93730000  1.0 -0.731339712
