# DDEC6 charges by PACMAN v1.1 (https://github.com/mtap-research/PACMAN-charge/)
data_POLBEX_ASR_pacman
_symmetry_space_group_name_H-M   'P 1'
_cell_length_a   10.25200000
_cell_length_b   18.40900000
_cell_length_c   24.63900000
_cell_angle_alpha   90.00000000
_cell_angle_beta   90.00000000
_cell_angle_gamma   90.00000000
_symmetry_Int_Tables_number   1
_chemical_formula_structural   Ga16P16O66F7
_chemical_formula_sum   'Ga32 P32 O132 F14'
_cell_volume   4650.09550645
_cell_formula_units_Z   2
loop_
 _symmetry_equiv_pos_site_id
 _symmetry_equiv_pos_as_xyz
  1  'x, y, z'
loop_
 _atom_site_type_symbol
 _atom_site_label
 _atom_site_symmetry_multiplicity
 _atom_site_fract_x
 _atom_site_fract_y
 _atom_site_fract_z
 _atom_site_occupancy
 _atom_site_charge
Ga  Ga1  1  0.11420000  0.08600000  0.43280000  1.0 1.5783813119
Ga  Ga2  1  0.11420000  0.91400000  0.56720000  1.0 1.5783813119
Ga  Ga3  1  0.88580000  0.58600000  0.06720000  1.0 1.5783813119
Ga  Ga4  1  0.88580000  0.41400000  0.93280000  1.0 1.5783813119
Ga  Ga5  1  0.92280000  0.85070000  0.33980000  1.0 1.4616595179
Ga  Ga6  1  0.92280000  0.14930000  0.66020000  1.0 1.4616595179
Ga  Ga7  1  0.07720000  0.35070000  0.16020000  1.0 1.4616595179
Ga  Ga8  1  0.07720000  0.64930000  0.83980000  1.0 1.4616595179
Ga  Ga9  1  0.38070000  0.06690000  0.55830000  1.0 1.5019825021
Ga  Ga10  1  0.38070000  0.93310000  0.44170000  1.0 1.4915230989
Ga  Ga11  1  0.61930000  0.56690000  0.94170000  1.0 1.4915230989
Ga  Ga12  1  0.61930000  0.43310000  0.05830000  1.0 1.5019825021
Ga  Ga13  1  0.60220000  0.92050000  0.23470000  1.0 1.5091146112
Ga  Ga14  1  0.60220000  0.07950000  0.76530000  1.0 1.5091146112
Ga  Ga15  1  0.39780000  0.42050000  0.26530000  1.0 1.5091146112
Ga  Ga16  1  0.39780000  0.57950000  0.73470000  1.0 1.5091146112
Ga  Ga17  1  0.59290000  0.17450000  0.34590000  1.0 1.5267165899
Ga  Ga18  1  0.59290000  0.82550000  0.65410000  1.0 1.5267165899
Ga  Ga19  1  0.40710000  0.67450000  0.15410000  1.0 1.5231966836
Ga  Ga20  1  0.40710000  0.32550000  0.84590000  1.0 1.5267165899
Ga  Ga21  1  0.89650000  0.10950000  0.23990000  1.0 1.5019825021
Ga  Ga22  1  0.89650000  0.89050000  0.76010000  1.0 1.5019825021
Ga  Ga23  1  0.10350000  0.60950000  0.26010000  1.0 1.5091146112
Ga  Ga24  1  0.10350000  0.39050000  0.73990000  1.0 1.5091146112
Ga  Ga25  1  0.91770000  0.30000000  0.27590000  1.0 1.4130921483
Ga  Ga26  1  0.91770000  0.70000000  0.72410000  1.0 1.4130921483
Ga  Ga27  1  0.08230000  0.80000000  0.22410000  1.0 1.4165253162
Ga  Ga28  1  0.08230000  0.20000000  0.77590000  1.0 1.4165253162
Ga  Ga29  1  0.42240000  0.23070000  0.23110000  1.0 1.4616595179
Ga  Ga30  1  0.42240000  0.76930000  0.76890000  1.0 1.4616595179
Ga  Ga31  1  0.57760000  0.73070000  0.26890000  1.0 1.4616595179
Ga  Ga32  1  0.57760000  0.26930000  0.73110000  1.0 1.4616595179
P  P1  1  0.89770000  0.93760000  0.23220000  1.0 1.5231966836
P  P2  1  0.89770000  0.06240000  0.76780000  1.0 1.5231966836
P  P3  1  0.10230000  0.43760000  0.26780000  1.0 1.5267165899
P  P4  1  0.10230000  0.56240000  0.73220000  1.0 1.5267165899
P  P5  1  0.41580000  0.09800000  0.43830000  1.0 1.5091146112
P  P6  1  0.41580000  0.90200000  0.56170000  1.0 1.5091146112
P  P7  1  0.58420000  0.59800000  0.06170000  1.0 1.5091146112
P  P8  1  0.58420000  0.40200000  0.93830000  1.0 1.5091146112
P  P9  1  0.08360000  0.91590000  0.43770000  1.0 1.5231966836
P  P10  1  0.08360000  0.08410000  0.56230000  1.0 1.5231966836
P  P11  1  0.91640000  0.41590000  0.06230000  1.0 1.5231966836
P  P12  1  0.91640000  0.58410000  0.93770000  1.0 1.5231966836
P  P13  1  0.60560000  0.09280000  0.23260000  1.0 1.5424176932
P  P14  1  0.60560000  0.90720000  0.76740000  1.0 1.5424176932
P  P15  1  0.39440000  0.59280000  0.26740000  1.0 1.5424176932
P  P16  1  0.39440000  0.40720000  0.73260000  1.0 1.5424176932
P  P17  1  0.90080000  0.17030000  0.36010000  1.0 1.5484904528
P  P18  1  0.90080000  0.82970000  0.63990000  1.0 1.5484904528
P  P19  1  0.09920000  0.67030000  0.13990000  1.0 1.5552404046
P  P20  1  0.09920000  0.32970000  0.86010000  1.0 1.5552404046
P  P21  1  0.58180000  0.14100000  0.64510000  1.0 1.5484904528
P  P22  1  0.58180000  0.85900000  0.35490000  1.0 1.5484904528
P  P23  1  0.41820000  0.64100000  0.85490000  1.0 1.5424176932
P  P24  1  0.41820000  0.35900000  0.14510000  1.0 1.5484904528
P  P25  1  0.62240000  0.32290000  0.29870000  1.0 1.5019825021
P  P26  1  0.62240000  0.67710000  0.70130000  1.0 1.5019825021
P  P27  1  0.37760000  0.82290000  0.20130000  1.0 1.5019825021
P  P28  1  0.37760000  0.17710000  0.79870000  1.0 1.5019825021
P  P29  1  0.87520000  0.70780000  0.29150000  1.0 1.5019825021
P  P30  1  0.87520000  0.29220000  0.70850000  1.0 1.5019825021
P  P31  1  0.12480000  0.20780000  0.20850000  1.0 1.5019825021
P  P32  1  0.12480000  0.79220000  0.79150000  1.0 1.5019825021
O  O1  1  0.86900000  0.91710000  0.29240000  1.0 -0.6992924591
O  O2  1  0.86900000  0.08290000  0.70760000  1.0 -0.6992924591
O  O3  1  0.13100000  0.41710000  0.20760000  1.0 -0.6992924591
O  O4  1  0.13100000  0.58290000  0.79240000  1.0 -0.6992924591
O  O5  1  0.76210000  0.93720000  0.20440000  1.0 -0.6889013968
O  O6  1  0.76210000  0.06280000  0.79560000  1.0 -0.6889013968
O  O7  1  0.23790000  0.43720000  0.29560000  1.0 -0.6889013968
O  O8  1  0.23790000  0.56280000  0.70440000  1.0 -0.6889013968
O  O9  1  0.95750000  0.01330000  0.23180000  1.0 -0.650972568
O  O10  1  0.95750000  0.98670000  0.76820000  1.0 -0.650972568
O  O11  1  0.04250000  0.51330000  0.26820000  1.0 -0.650972568
O  O12  1  0.04250000  0.48670000  0.73180000  1.0 -0.650972568
O  O13  1  0.98230000  0.88340000  0.20320000  1.0 -0.6591642529
O  O14  1  0.98230000  0.11660000  0.79680000  1.0 -0.6591642529
O  O15  1  0.01770000  0.38340000  0.29680000  1.0 -0.6591642529
O  O16  1  0.01770000  0.61660000  0.70320000  1.0 -0.6591642529
O  O17  1  0.46860000  0.09630000  0.49690000  1.0 -0.6992924591
O  O18  1  0.46860000  0.90370000  0.50310000  1.0 -0.6992924591
O  O19  1  0.53140000  0.59630000  0.00310000  1.0 -0.6992924591
O  O20  1  0.53140000  0.40370000  0.99690000  1.0 -0.6992924591
O  O21  1  0.41790000  0.02280000  0.41150000  1.0 -0.7405943339
O  O22  1  0.41790000  0.97720000  0.58850000  1.0 -0.7405943339
O  O23  1  0.58210000  0.52280000  0.08850000  1.0 -0.7405943339
O  O24  1  0.58210000  0.47720000  0.91150000  1.0 -0.7405943339
O  O25  1  0.27850000  0.12770000  0.43850000  1.0 -0.7405943339
O  O26  1  0.27850000  0.87230000  0.56150000  1.0 -0.7405943339
O  O27  1  0.72150000  0.62770000  0.06150000  1.0 -0.7405943339
O  O28  1  0.72150000  0.37230000  0.93850000  1.0 -0.7405943339
O  O29  1  0.50210000  0.15030000  0.40770000  1.0 -0.6379460424
O  O30  1  0.50210000  0.84970000  0.59230000  1.0 -0.6379460424
O  O31  1  0.49790000  0.65030000  0.09230000  1.0 -0.6379460424
O  O32  1  0.49790000  0.34970000  0.90770000  1.0 -0.6379460424
O  O33  1  0.98740000  0.86810000  0.40670000  1.0 -0.6025696874
O  O34  1  0.98740000  0.13190000  0.59330000  1.0 -0.6025696874
O  O35  1  0.01260000  0.36810000  0.09330000  1.0 -0.6025696874
O  O36  1  0.01260000  0.63190000  0.90670000  1.0 -0.6025696874
O  O37  1  0.22440000  0.88950000  0.42770000  1.0 -0.6889013968
O  O38  1  0.22440000  0.11050000  0.57230000  1.0 -0.6889013968
O  O39  1  0.77560000  0.38950000  0.07230000  1.0 -0.6889013968
O  O40  1  0.77560000  0.61050000  0.92770000  1.0 -0.6889013968
O  O41  1  0.06860000  0.99240000  0.41560000  1.0 -0.7328690768
O  O42  1  0.06860000  0.00760000  0.58440000  1.0 -0.7328690768
O  O43  1  0.93140000  0.49240000  0.08440000  1.0 -0.7328690768
O  O44  1  0.93140000  0.50760000  0.91560000  1.0 -0.7328690768
O  O45  1  0.04330000  0.90650000  0.49790000  1.0 -0.7139643113
O  O46  1  0.04330000  0.09350000  0.50210000  1.0 -0.7139643113
O  O47  1  0.95670000  0.40650000  0.00210000  1.0 -0.7188635813
O  O48  1  0.95670000  0.59350000  0.99790000  1.0 -0.7139643113
O  O49  1  0.51830000  0.14960000  0.20510000  1.0 -0.681482146
O  O50  1  0.51830000  0.85040000  0.79490000  1.0 -0.681482146
O  O51  1  0.48170000  0.64960000  0.29490000  1.0 -0.681482146
O  O52  1  0.48170000  0.35040000  0.70510000  1.0 -0.681482146
O  O53  1  0.63120000  0.10780000  0.29330000  1.0 -0.7500368408
O  O54  1  0.63120000  0.89220000  0.70670000  1.0 -0.7500368408
O  O55  1  0.36880000  0.60780000  0.20670000  1.0 -0.7500368408
O  O56  1  0.36880000  0.39220000  0.79330000  1.0 -0.7500368408
O  O57  1  0.54160000  0.01860000  0.22690000  1.0 -0.6591642529
O  O58  1  0.54160000  0.98140000  0.77310000  1.0 -0.6591642529
O  O59  1  0.45840000  0.51860000  0.27310000  1.0 -0.6591642529
O  O60  1  0.45840000  0.48140000  0.72690000  1.0 -0.6591642529
O  O61  1  0.74050000  0.09440000  0.20360000  1.0 -0.6992924591
O  O62  1  0.74050000  0.90560000  0.79640000  1.0 -0.6992924591
O  O63  1  0.25950000  0.59440000  0.29640000  1.0 -0.6992924591
O  O64  1  0.25950000  0.40560000  0.70360000  1.0 -0.6992924591
O  O65  1  0.92710000  0.24870000  0.34450000  1.0 -0.7328690768
O  O66  1  0.92710000  0.75130000  0.65550000  1.0 -0.7328690768
O  O67  1  0.07290000  0.74870000  0.15550000  1.0 -0.7328690768
O  O68  1  0.07290000  0.25130000  0.84450000  1.0 -0.7328690768
O  O69  1  0.99270000  0.15220000  0.40720000  1.0 -0.681482146
O  O70  1  0.99270000  0.84780000  0.59280000  1.0 -0.6889013968
O  O71  1  0.00730000  0.65220000  0.09280000  1.0 -0.6889013968
O  O72  1  0.00730000  0.34780000  0.90720000  1.0 -0.6889013968
O  O73  1  0.76370000  0.15740000  0.38060000  1.0 -0.6889013968
O  O74  1  0.76370000  0.84260000  0.61940000  1.0 -0.6889013968
O  O75  1  0.23630000  0.65740000  0.11940000  1.0 -0.6889013968
O  O76  1  0.23630000  0.34260000  0.88060000  1.0 -0.6889013968
O  O77  1  0.93620000  0.11510000  0.31290000  1.0 -0.7405943339
O  O78  1  0.93620000  0.88490000  0.68710000  1.0 -0.7500368408
O  O79  1  0.06380000  0.61510000  0.18710000  1.0 -0.7500368408
O  O80  1  0.06380000  0.38490000  0.81290000  1.0 -0.7500368408
O  O81  1  0.56120000  0.08700000  0.69210000  1.0 -0.7405943339
O  O82  1  0.56120000  0.91300000  0.30790000  1.0 -0.7405943339
O  O83  1  0.43880000  0.58700000  0.80790000  1.0 -0.7405943339
O  O84  1  0.43880000  0.41300000  0.19210000  1.0 -0.7405943339
O  O85  1  0.57770000  0.22010000  0.66090000  1.0 -0.7328690768
O  O86  1  0.57770000  0.77990000  0.33910000  1.0 -0.7328690768
O  O87  1  0.42230000  0.72010000  0.83910000  1.0 -0.7328690768
O  O88  1  0.42230000  0.27990000  0.16090000  1.0 -0.7328690768
O  O89  1  0.71740000  0.12520000  0.61710000  1.0 -0.628921775
O  O90  1  0.71740000  0.87480000  0.38290000  1.0 -0.628921775
O  O91  1  0.28260000  0.62520000  0.88290000  1.0 -0.6221615553
O  O92  1  0.28260000  0.37480000  0.11710000  1.0 -0.6221615553
O  O93  1  0.47350000  0.12960000  0.60340000  1.0 -0.650972568
O  O94  1  0.47350000  0.87040000  0.39660000  1.0 -0.650972568
O  O95  1  0.52650000  0.62960000  0.89660000  1.0 -0.650972568
O  O96  1  0.52650000  0.37040000  0.10340000  1.0 -0.650972568
O  O97  1  0.61000000  0.27420000  0.34930000  1.0 -0.7188635813
O  O98  1  0.61000000  0.72580000  0.65070000  1.0 -0.7188635813
O  O99  1  0.39000000  0.77420000  0.15070000  1.0 -0.7188635813
O  O100  1  0.39000000  0.22580000  0.84930000  1.0 -0.7188635813
O  O101  1  0.58280000  0.28130000  0.24740000  1.0 -0.7188635813
O  O102  1  0.58280000  0.71870000  0.75260000  1.0 -0.7188635813
O  O103  1  0.41720000  0.78130000  0.25260000  1.0 -0.7188635813
O  O104  1  0.41720000  0.21870000  0.74740000  1.0 -0.7188635813
O  O105  1  0.53290000  0.39040000  0.30920000  1.0 -0.6715503812
O  O106  1  0.53290000  0.60960000  0.69080000  1.0 -0.6715503812
O  O107  1  0.46710000  0.89040000  0.19080000  1.0 -0.6715503812
O  O108  1  0.46710000  0.10960000  0.80920000  1.0 -0.6715503812
O  O109  1  0.75780000  0.35040000  0.29200000  1.0 -0.628921775
O  O110  1  0.75780000  0.64960000  0.70800000  1.0 -0.628921775
O  O111  1  0.24220000  0.85040000  0.20800000  1.0 -0.628921775
O  O112  1  0.24220000  0.14960000  0.79200000  1.0 -0.628921775
O  O113  1  0.73790000  0.67860000  0.28240000  1.0 -0.650972568
O  O114  1  0.73790000  0.32140000  0.71760000  1.0 -0.650972568
O  O115  1  0.26210000  0.17860000  0.21760000  1.0 -0.650972568
O  O116  1  0.26210000  0.82140000  0.78240000  1.0 -0.650972568
O  O117  1  0.88110000  0.75560000  0.34250000  1.0 -0.6889013968
O  O118  1  0.88110000  0.24440000  0.65750000  1.0 -0.681482146
O  O119  1  0.11890000  0.25560000  0.15750000  1.0 -0.6889013968
O  O120  1  0.11890000  0.74440000  0.84250000  1.0 -0.6889013968
O  O121  1  0.96320000  0.64190000  0.30160000  1.0 -0.681482146
O  O122  1  0.96320000  0.35810000  0.69840000  1.0 -0.6715503812
O  O123  1  0.03680000  0.14190000  0.19840000  1.0 -0.6715503812
O  O124  1  0.03680000  0.85810000  0.80160000  1.0 -0.681482146
O  O125  1  0.91990000  0.75280000  0.24310000  1.0 -0.681482146
O  O126  1  0.91990000  0.24720000  0.75690000  1.0 -0.681482146
O  O127  1  0.08010000  0.25280000  0.25690000  1.0 -0.681482146
O  O128  1  0.08010000  0.74720000  0.74310000  1.0 -0.6889013968
O  O129  1  0.09070000  0.83700000  0.30110000  1.0 -0.4725254357
O  O130  1  0.09070000  0.16300000  0.69890000  1.0 -0.4725254357
O  O131  1  0.90930000  0.33700000  0.19890000  1.0 -0.4780929684
O  O132  1  0.90930000  0.66300000  0.80110000  1.0 -0.4725254357
F  F1  1  0.83230000  0.21400000  0.24600000  1.0 -0.4273578406
F  F2  1  0.83230000  0.78600000  0.75400000  1.0 -0.4273578406
F  F3  1  0.16770000  0.71400000  0.25400000  1.0 -0.4273578406
F  F4  1  0.16770000  0.28600000  0.74600000  1.0 -0.4273578406
F  F5  1  0.66790000  0.81530000  0.23700000  1.0 -0.4587176074
F  F6  1  0.66790000  0.18470000  0.76300000  1.0 -0.4587176074
F  F7  1  0.33210000  0.31530000  0.26300000  1.0 -0.4587176074
F  F8  1  0.33210000  0.68470000  0.73700000  1.0 -0.4587176074
F  F9  1  0.42270000  0.19120000  0.30670000  1.0 -0.4780929684
F  F10  1  0.42270000  0.80880000  0.69330000  1.0 -0.4780929684
F  F11  1  0.57730000  0.69120000  0.19330000  1.0 -0.4780929684
F  F12  1  0.57730000  0.30880000  0.80670000  1.0 -0.4780929684
F  F13  1  0.26990000  0.00000000  0.50000000  1.0 -0.4587176074
F  F14  1  0.73010000  0.50000000  0.00000000  1.0 -0.4587176074
