# DDEC6 charges by PACMAN v1.1 (https://github.com/mtap-research/PACMAN-charge/)
data_PONPOX_ASR_pacman
_symmetry_space_group_name_H-M   'P 1'
_cell_length_a   10.06200000
_cell_length_b   16.02300000
_cell_length_c   18.48600000
_cell_angle_alpha   90.00000000
_cell_angle_beta   90.00000000
_cell_angle_gamma   90.00000000
_symmetry_Int_Tables_number   1
_chemical_formula_structural   Ga3P3(O6F)2
_chemical_formula_sum   'Ga24 P24 O96 F16'
_cell_volume   2980.37625304
_cell_formula_units_Z   8
loop_
 _symmetry_equiv_pos_site_id
 _symmetry_equiv_pos_as_xyz
  1  'x, y, z'
loop_
 _atom_site_type_symbol
 _atom_site_label
 _atom_site_symmetry_multiplicity
 _atom_site_fract_x
 _atom_site_fract_y
 _atom_site_fract_z
 _atom_site_occupancy
 _atom_site_charge
Ga  Ga1  1  0.68253000  0.53998000  0.21794000  1.0 1.4541323502
Ga  Ga2  1  0.31747000  0.96002000  0.71794000  1.0 1.4578612486
Ga  Ga3  1  0.81747000  0.03998000  0.78206000  1.0 1.4578612486
Ga  Ga4  1  0.18253000  0.46002000  0.28206000  1.0 1.4578612486
Ga  Ga5  1  0.31747000  0.46002000  0.78206000  1.0 1.4578612486
Ga  Ga6  1  0.68253000  0.03998000  0.28206000  1.0 1.4541323502
Ga  Ga7  1  0.18253000  0.96002000  0.21794000  1.0 1.4578612486
Ga  Ga8  1  0.81747000  0.53998000  0.71794000  1.0 1.4541323502
Ga  Ga9  1  0.83620000  0.35061000  0.17667000  1.0 1.5215901815
Ga  Ga10  1  0.16380000  0.14939000  0.67667000  1.0 1.5215901815
Ga  Ga11  1  0.66380000  0.85061000  0.82333000  1.0 1.5266473383
Ga  Ga12  1  0.33620000  0.64939000  0.32333000  1.0 1.5266473383
Ga  Ga13  1  0.16380000  0.64939000  0.82333000  1.0 1.5266473383
Ga  Ga14  1  0.83620000  0.85061000  0.32333000  1.0 1.5266473383
Ga  Ga15  1  0.33620000  0.14939000  0.17667000  1.0 1.5266473383
Ga  Ga16  1  0.66380000  0.35061000  0.67667000  1.0 1.5215901815
Ga  Ga17  1  0.65370000  0.51047000  0.40851000  1.0 1.5119018673
Ga  Ga18  1  0.34630000  0.98953000  0.90851000  1.0 1.5119018673
Ga  Ga19  1  0.84630000  0.01047000  0.59149000  1.0 1.5119018673
Ga  Ga20  1  0.15370000  0.48953000  0.09149000  1.0 1.5215901815
Ga  Ga21  1  0.34630000  0.48953000  0.59149000  1.0 1.5119018673
Ga  Ga22  1  0.65370000  0.01047000  0.09149000  1.0 1.5119018673
Ga  Ga23  1  0.15370000  0.98953000  0.40851000  1.0 1.5215901815
Ga  Ga24  1  0.84630000  0.51047000  0.90851000  1.0 1.5119018673
P  P1  1  0.85760000  0.51190000  0.07730000  1.0 1.5397142986
P  P2  1  0.14240000  0.98810000  0.57730000  1.0 1.5397142986
P  P3  1  0.64240000  0.01190000  0.92270000  1.0 1.5397142986
P  P4  1  0.35760000  0.48810000  0.42270000  1.0 1.5397142986
P  P5  1  0.14240000  0.48810000  0.92270000  1.0 1.5397142986
P  P6  1  0.85760000  0.01190000  0.42270000  1.0 1.5397142986
P  P7  1  0.35760000  0.98810000  0.07730000  1.0 1.5397142986
P  P8  1  0.64240000  0.51190000  0.57730000  1.0 1.5397142986
P  P9  1  0.88170000  0.44200000  0.31640000  1.0 1.5215901815
P  P10  1  0.11830000  0.05800000  0.81640000  1.0 1.5266473383
P  P11  1  0.61830000  0.94200000  0.68360000  1.0 1.5215901815
P  P12  1  0.38170000  0.55800000  0.18360000  1.0 1.5215901815
P  P13  1  0.11830000  0.55800000  0.68360000  1.0 1.5266473383
P  P14  1  0.88170000  0.94200000  0.18360000  1.0 1.5215901815
P  P15  1  0.38170000  0.05800000  0.31640000  1.0 1.5215901815
P  P16  1  0.61830000  0.44200000  0.81640000  1.0 1.5215901815
P  P17  1  0.65040000  0.68440000  0.33080000  1.0 1.5635803857
P  P18  1  0.34960000  0.81560000  0.83080000  1.0 1.5672989408
P  P19  1  0.84960000  0.18440000  0.66920000  1.0 1.5635803857
P  P20  1  0.15040000  0.31560000  0.16920000  1.0 1.5672989408
P  P21  1  0.34960000  0.31560000  0.66920000  1.0 1.5672989408
P  P22  1  0.65040000  0.18440000  0.16920000  1.0 1.5672989408
P  P23  1  0.15040000  0.81560000  0.33080000  1.0 1.5672989408
P  P24  1  0.84960000  0.68440000  0.83080000  1.0 1.5672989408
O  O1  1  0.78880000  0.56560000  0.13410000  1.0 -0.6608574188
O  O2  1  0.21120000  0.93440000  0.63410000  1.0 -0.6608574188
O  O3  1  0.71120000  0.06560000  0.86590000  1.0 -0.6476094079
O  O4  1  0.28880000  0.43440000  0.36590000  1.0 -0.6608574188
O  O5  1  0.21120000  0.43440000  0.86590000  1.0 -0.6476094079
O  O6  1  0.78880000  0.06560000  0.36590000  1.0 -0.6608574188
O  O7  1  0.28880000  0.93440000  0.13410000  1.0 -0.6608574188
O  O8  1  0.71120000  0.56560000  0.63410000  1.0 -0.6476094079
O  O9  1  0.02660000  0.44700000  0.33950000  1.0 -0.6608574188
O  O10  1  0.97340000  0.05300000  0.83950000  1.0 -0.6608574188
O  O11  1  0.47340000  0.94700000  0.66050000  1.0 -0.6677763543
O  O12  1  0.52660000  0.55300000  0.16050000  1.0 -0.6608574188
O  O13  1  0.97340000  0.55300000  0.66050000  1.0 -0.6677763543
O  O14  1  0.02660000  0.94700000  0.16050000  1.0 -0.6608574188
O  O15  1  0.52660000  0.05300000  0.33950000  1.0 -0.6608574188
O  O16  1  0.47340000  0.44700000  0.83950000  1.0 -0.6608574188
O  O17  1  0.68810000  0.65210000  0.25600000  1.0 -0.7167283648
O  O18  1  0.31190000  0.84790000  0.75600000  1.0 -0.7167283648
O  O19  1  0.81190000  0.15210000  0.74400000  1.0 -0.7167283648
O  O20  1  0.18810000  0.34790000  0.24400000  1.0 -0.7167283648
O  O21  1  0.31190000  0.34790000  0.74400000  1.0 -0.7167283648
O  O22  1  0.68810000  0.15210000  0.24400000  1.0 -0.7167283648
O  O23  1  0.18810000  0.84790000  0.25600000  1.0 -0.7167283648
O  O24  1  0.81190000  0.65210000  0.75600000  1.0 -0.7167283648
O  O25  1  0.84580000  0.51500000  0.26810000  1.0 -0.6902357053
O  O26  1  0.15420000  0.98500000  0.76810000  1.0 -0.6902357053
O  O27  1  0.65420000  0.01500000  0.73190000  1.0 -0.6902357053
O  O28  1  0.34580000  0.48500000  0.23190000  1.0 -0.6902357053
O  O29  1  0.15420000  0.48500000  0.73190000  1.0 -0.6902357053
O  O30  1  0.84580000  0.01500000  0.23190000  1.0 -0.6902357053
O  O31  1  0.34580000  0.98500000  0.26810000  1.0 -0.6902357053
O  O32  1  0.65420000  0.51500000  0.76810000  1.0 -0.6902357053
O  O33  1  0.86880000  0.41980000  0.09980000  1.0 -0.7469905198
O  O34  1  0.13120000  0.08020000  0.59980000  1.0 -0.7469905198
O  O35  1  0.63120000  0.91980000  0.90020000  1.0 -0.7440446695
O  O36  1  0.36880000  0.58020000  0.40020000  1.0 -0.7469905198
O  O37  1  0.13120000  0.58020000  0.90020000  1.0 -0.7440446695
O  O38  1  0.86880000  0.91980000  0.40020000  1.0 -0.7469905198
O  O39  1  0.36880000  0.08020000  0.09980000  1.0 -0.7469905198
O  O40  1  0.63120000  0.41980000  0.59980000  1.0 -0.7469905198
O  O41  1  0.85770000  0.35980000  0.27590000  1.0 -0.7134438971
O  O42  1  0.14230000  0.14020000  0.77590000  1.0 -0.7134438971
O  O43  1  0.64230000  0.85980000  0.72410000  1.0 -0.7167283648
O  O44  1  0.35770000  0.64020000  0.22410000  1.0 -0.7134438971
O  O45  1  0.14230000  0.64020000  0.72410000  1.0 -0.7167283648
O  O46  1  0.85770000  0.85980000  0.22410000  1.0 -0.7167283648
O  O47  1  0.35770000  0.14020000  0.27590000  1.0 -0.7134438971
O  O48  1  0.64230000  0.35980000  0.77590000  1.0 -0.7134438971
O  O49  1  0.50240000  0.70900000  0.33350000  1.0 -0.6830868801
O  O50  1  0.49760000  0.79100000  0.83350000  1.0 -0.6902357053
O  O51  1  0.99760000  0.20900000  0.66650000  1.0 -0.6830868801
O  O52  1  0.00240000  0.29100000  0.16650000  1.0 -0.6902357053
O  O53  1  0.49760000  0.29100000  0.66650000  1.0 -0.6830868801
O  O54  1  0.50240000  0.20900000  0.16650000  1.0 -0.6902357053
O  O55  1  0.00240000  0.79100000  0.33350000  1.0 -0.6902357053
O  O56  1  0.99760000  0.70900000  0.83350000  1.0 -0.6902357053
O  O57  1  0.73110000  0.76260000  0.34890000  1.0 -0.6476094079
O  O58  1  0.26890000  0.73740000  0.84890000  1.0 -0.6476094079
O  O59  1  0.76890000  0.26260000  0.65110000  1.0 -0.6441556057
O  O60  1  0.23110000  0.23740000  0.15110000  1.0 -0.6476094079
O  O61  1  0.26890000  0.23740000  0.65110000  1.0 -0.6441556057
O  O62  1  0.73110000  0.26260000  0.15110000  1.0 -0.6476094079
O  O63  1  0.23110000  0.73740000  0.34890000  1.0 -0.6476094079
O  O64  1  0.76890000  0.76260000  0.84890000  1.0 -0.6476094079
O  O65  1  0.79770000  0.44210000  0.38640000  1.0 -0.6608574188
O  O66  1  0.20230000  0.05790000  0.88640000  1.0 -0.6608574188
O  O67  1  0.70230000  0.94210000  0.61360000  1.0 -0.6608574188
O  O68  1  0.29770000  0.55790000  0.11360000  1.0 -0.6608574188
O  O69  1  0.20230000  0.55790000  0.61360000  1.0 -0.6608574188
O  O70  1  0.79770000  0.94210000  0.11360000  1.0 -0.6608574188
O  O71  1  0.29770000  0.05790000  0.38640000  1.0 -0.6608574188
O  O72  1  0.70230000  0.44210000  0.88640000  1.0 -0.6608574188
O  O73  1  0.68430000  0.62120000  0.39130000  1.0 -0.7134438971
O  O74  1  0.31570000  0.87880000  0.89130000  1.0 -0.7134438971
O  O75  1  0.81570000  0.12120000  0.60870000  1.0 -0.7134438971
O  O76  1  0.18430000  0.37880000  0.10870000  1.0 -0.7134438971
O  O77  1  0.31570000  0.37880000  0.60870000  1.0 -0.7134438971
O  O78  1  0.68430000  0.12120000  0.10870000  1.0 -0.7134438971
O  O79  1  0.18430000  0.87880000  0.39130000  1.0 -0.7134438971
O  O80  1  0.81570000  0.62120000  0.89130000  1.0 -0.7134438971
O  O81  1  0.78190000  0.51980000  0.00630000  1.0 -0.6476094079
O  O82  1  0.21810000  0.98020000  0.50630000  1.0 -0.6476094079
O  O83  1  0.71810000  0.01980000  0.99370000  1.0 -0.6441556057
O  O84  1  0.28190000  0.48020000  0.49370000  1.0 -0.6476094079
O  O85  1  0.21810000  0.48020000  0.99370000  1.0 -0.6441556057
O  O86  1  0.78190000  0.01980000  0.49370000  1.0 -0.6476094079
O  O87  1  0.28190000  0.98020000  0.00630000  1.0 -0.6476094079
O  O88  1  0.71810000  0.51980000  0.50630000  1.0 -0.6441556057
O  O89  1  0.99960000  0.54580000  0.06780000  1.0 -0.6985403528
O  O90  1  0.00040000  0.95420000  0.56780000  1.0 -0.6985403528
O  O91  1  0.50040000  0.04580000  0.93220000  1.0 -0.6985403528
O  O92  1  0.49960000  0.45420000  0.43220000  1.0 -0.6985403528
O  O93  1  0.00040000  0.45420000  0.93220000  1.0 -0.6985403528
O  O94  1  0.99960000  0.04580000  0.43220000  1.0 -0.6985403528
O  O95  1  0.49960000  0.95420000  0.06780000  1.0 -0.6985403528
O  O96  1  0.50040000  0.54580000  0.56780000  1.0 -0.6985403528
F  F1  1  0.67010000  0.41950000  0.19120000  1.0 -0.4240282854
F  F2  1  0.32990000  0.08050000  0.69120000  1.0 -0.4255777379
F  F3  1  0.82990000  0.91950000  0.80880000  1.0 -0.4255777379
F  F4  1  0.17010000  0.58050000  0.30880000  1.0 -0.4255777379
F  F5  1  0.32990000  0.58050000  0.80880000  1.0 -0.4255777379
F  F6  1  0.67010000  0.91950000  0.30880000  1.0 -0.4255777379
F  F7  1  0.17010000  0.08050000  0.19120000  1.0 -0.4255777379
F  F8  1  0.82990000  0.41950000  0.69120000  1.0 -0.4240282854
F  F9  1  0.58970000  0.50270000  0.30490000  1.0 -0.4594584374
F  F10  1  0.41030000  0.99730000  0.80490000  1.0 -0.4594584374
F  F11  1  0.91030000  0.00270000  0.69510000  1.0 -0.4594584374
F  F12  1  0.08970000  0.49730000  0.19510000  1.0 -0.4594584374
F  F13  1  0.41030000  0.49730000  0.69510000  1.0 -0.4594584374
F  F14  1  0.58970000  0.00270000  0.19510000  1.0 -0.4594584374
F  F15  1  0.08970000  0.99730000  0.30490000  1.0 -0.4594584374
F  F16  1  0.91030000  0.50270000  0.80490000  1.0 -0.4594584374
