# DDEC6 charges by PACMAN v1.1 (https://github.com/mtap-research/PACMAN-charge/)
data_PONRES_ASR_pacman
_symmetry_space_group_name_H-M   'P 1'
_cell_length_a   28.15400000
_cell_length_b   28.15400000
_cell_length_c   15.45500000
_cell_angle_alpha   90.00000000
_cell_angle_beta   90.00000000
_cell_angle_gamma   90.00000000
_symmetry_Int_Tables_number   1
_chemical_formula_structural   Zr3H20C40S(NO7)2
_chemical_formula_sum   'Zr12 H80 C160 S4 N8 O56'
_cell_volume   12250.37045078
_cell_formula_units_Z   4
loop_
 _symmetry_equiv_pos_site_id
 _symmetry_equiv_pos_as_xyz
  1  'x, y, z'
loop_
 _atom_site_type_symbol
 _atom_site_label
 _atom_site_symmetry_multiplicity
 _atom_site_fract_x
 _atom_site_fract_y
 _atom_site_fract_z
 _atom_site_occupancy
 _atom_site_charge
Zr  Zr1  1  0.50000000  0.91370000  0.50000000  1.0 2.2691328832
Zr  Zr2  1  0.50000000  0.08630000  0.50000000  1.0 2.2691328832
Zr  Zr3  1  0.91370000  0.50000000  0.50000000  1.0 2.2691328832
Zr  Zr4  1  0.08630000  0.50000000  0.50000000  1.0 2.2691328832
Zr  Zr5  1  0.56190000  0.00000000  0.61434000  1.0 2.4182595321
Zr  Zr6  1  0.43810000  0.00000000  0.61434000  1.0 2.414285452
Zr  Zr7  1  0.00000000  0.43810000  0.61434000  1.0 2.414285452
Zr  Zr8  1  0.00000000  0.56190000  0.61434000  1.0 2.4182595321
Zr  Zr9  1  0.56190000  0.00000000  0.38566000  1.0 2.4182595321
Zr  Zr10  1  0.43810000  0.00000000  0.38566000  1.0 2.414285452
Zr  Zr11  1  0.00000000  0.56190000  0.38566000  1.0 2.4182595321
Zr  Zr12  1  0.00000000  0.43810000  0.38566000  1.0 2.414285452
H  H1  1  0.38020000  0.72290000  0.09690000  1.0 0.1294902907
H  H2  1  0.44320000  0.79540000  0.36240000  1.0 0.114440022
H  H3  1  0.34830000  0.88870000  0.25450000  1.0 0.1015279158
H  H4  1  0.40480000  0.73070000  0.29030000  1.0 0.1201942451
H  H5  1  0.30720000  0.82290000  0.18610000  1.0 0.1201942451
H  H6  1  0.61980000  0.27710000  0.09690000  1.0 0.1294902907
H  H7  1  0.55680000  0.20460000  0.36240000  1.0 0.114440022
H  H8  1  0.65170000  0.11130000  0.25450000  1.0 0.1015279158
H  H9  1  0.59520000  0.26930000  0.29030000  1.0 0.1201942451
H  H10  1  0.69280000  0.17710000  0.18610000  1.0 0.1201942451
H  H11  1  0.72290000  0.61980000  0.09690000  1.0 0.1294902907
H  H12  1  0.79540000  0.55680000  0.36240000  1.0 0.114440022
H  H13  1  0.88870000  0.65170000  0.25450000  1.0 0.1015279158
H  H14  1  0.73070000  0.59520000  0.29030000  1.0 0.1201942451
H  H15  1  0.82290000  0.69280000  0.18610000  1.0 0.1201942451
H  H16  1  0.27710000  0.38020000  0.09690000  1.0 0.1294902907
H  H17  1  0.20460000  0.44320000  0.36240000  1.0 0.114440022
H  H18  1  0.11130000  0.34830000  0.25450000  1.0 0.1015279158
H  H19  1  0.26930000  0.40480000  0.29030000  1.0 0.1201942451
H  H20  1  0.17710000  0.30720000  0.18610000  1.0 0.1201942451
H  H21  1  0.38020000  0.27710000  0.90310000  1.0 0.1294902907
H  H22  1  0.44320000  0.20460000  0.63760000  1.0 0.114440022
H  H23  1  0.34830000  0.11130000  0.74550000  1.0 0.1015279158
H  H24  1  0.40480000  0.26930000  0.70970000  1.0 0.1201942451
H  H25  1  0.30720000  0.17710000  0.81390000  1.0 0.1201942451
H  H26  1  0.61980000  0.72290000  0.90310000  1.0 0.1294902907
H  H27  1  0.55680000  0.79540000  0.63760000  1.0 0.114440022
H  H28  1  0.65170000  0.88870000  0.74550000  1.0 0.1015279158
H  H29  1  0.59520000  0.73070000  0.70970000  1.0 0.1201942451
H  H30  1  0.69280000  0.82290000  0.81390000  1.0 0.1201942451
H  H31  1  0.72290000  0.38020000  0.90310000  1.0 0.1294902907
H  H32  1  0.79540000  0.44320000  0.63760000  1.0 0.114440022
H  H33  1  0.88870000  0.34830000  0.74550000  1.0 0.1015279158
H  H34  1  0.73070000  0.40480000  0.70970000  1.0 0.1201942451
H  H35  1  0.82290000  0.30720000  0.81390000  1.0 0.1201942451
H  H36  1  0.27710000  0.61980000  0.90310000  1.0 0.1294902907
H  H37  1  0.20460000  0.55680000  0.63760000  1.0 0.114440022
H  H38  1  0.11130000  0.65170000  0.74550000  1.0 0.1015279158
H  H39  1  0.26930000  0.59520000  0.70970000  1.0 0.1201942451
H  H40  1  0.17710000  0.69280000  0.81390000  1.0 0.1201942451
H  H41  1  0.61980000  0.27710000  0.90310000  1.0 0.1294902907
H  H42  1  0.55680000  0.20460000  0.63760000  1.0 0.114440022
H  H43  1  0.65170000  0.11130000  0.74550000  1.0 0.1015279158
H  H44  1  0.59520000  0.26930000  0.70970000  1.0 0.1201942451
H  H45  1  0.69280000  0.17710000  0.81390000  1.0 0.1201942451
H  H46  1  0.38020000  0.72290000  0.90310000  1.0 0.1294902907
H  H47  1  0.44320000  0.79540000  0.63760000  1.0 0.114440022
H  H48  1  0.34830000  0.88870000  0.74550000  1.0 0.1015279158
H  H49  1  0.40480000  0.73070000  0.70970000  1.0 0.1201942451
H  H50  1  0.30720000  0.82290000  0.81390000  1.0 0.1201942451
H  H51  1  0.27710000  0.38020000  0.90310000  1.0 0.1294902907
H  H52  1  0.20460000  0.44320000  0.63760000  1.0 0.114440022
H  H53  1  0.11130000  0.34830000  0.74550000  1.0 0.1015279158
H  H54  1  0.26930000  0.40480000  0.70970000  1.0 0.1201942451
H  H55  1  0.17710000  0.30720000  0.81390000  1.0 0.1201942451
H  H56  1  0.72290000  0.61980000  0.90310000  1.0 0.1294902907
H  H57  1  0.79540000  0.55680000  0.63760000  1.0 0.114440022
H  H58  1  0.88870000  0.65170000  0.74550000  1.0 0.1015279158
H  H59  1  0.73070000  0.59520000  0.70970000  1.0 0.1201942451
H  H60  1  0.82290000  0.69280000  0.81390000  1.0 0.1201942451
H  H61  1  0.61980000  0.72290000  0.09690000  1.0 0.1294902907
H  H62  1  0.55680000  0.79540000  0.36240000  1.0 0.114440022
H  H63  1  0.65170000  0.88870000  0.25450000  1.0 0.1015279158
H  H64  1  0.59520000  0.73070000  0.29030000  1.0 0.1201942451
H  H65  1  0.69280000  0.82290000  0.18610000  1.0 0.1201942451
H  H66  1  0.38020000  0.27710000  0.09690000  1.0 0.1294902907
H  H67  1  0.44320000  0.20460000  0.36240000  1.0 0.114440022
H  H68  1  0.34830000  0.11130000  0.25450000  1.0 0.1015279158
H  H69  1  0.40480000  0.26930000  0.29030000  1.0 0.1201942451
H  H70  1  0.30720000  0.17710000  0.18610000  1.0 0.1201942451
H  H71  1  0.27710000  0.61980000  0.09690000  1.0 0.1294902907
H  H72  1  0.20460000  0.55680000  0.36240000  1.0 0.114440022
H  H73  1  0.11130000  0.65170000  0.25450000  1.0 0.1015279158
H  H74  1  0.26930000  0.59520000  0.29030000  1.0 0.1201942451
H  H75  1  0.17710000  0.69280000  0.18610000  1.0 0.1201942451
H  H76  1  0.72290000  0.38020000  0.09690000  1.0 0.1294902907
H  H77  1  0.79540000  0.44320000  0.36240000  1.0 0.114440022
H  H78  1  0.88870000  0.34830000  0.25450000  1.0 0.1015279158
H  H79  1  0.73070000  0.40480000  0.29030000  1.0 0.1201942451
H  H80  1  0.82290000  0.30720000  0.18610000  1.0 0.1201942451
C  C1  1  0.35210000  0.70960000  0.12080000  1.0 -0.1416718658
C  C2  1  0.32980000  0.73150000  0.19220000  1.0 0.0042054845
C  C3  1  0.35220000  0.77140000  0.23270000  1.0 0.0916735911
C  C4  1  0.41620000  0.80070000  0.32700000  1.0 -0.0921741774
C  C5  1  0.42240000  0.88560000  0.36040000  1.0 0.6265059197
C  C6  1  0.35880000  0.85700000  0.26270000  1.0 -0.0958079687
C  C7  1  0.39310000  0.76210000  0.28430000  1.0 -0.1416718658
C  C8  1  0.33450000  0.81750000  0.22080000  1.0 -0.1297504856
C  C9  1  0.39770000  0.84680000  0.31530000  1.0 -0.0712918714
C  C10  1  0.64790000  0.29040000  0.12080000  1.0 -0.1416718658
C  C11  1  0.67020000  0.26850000  0.19220000  1.0 0.0042054845
C  C12  1  0.64780000  0.22860000  0.23270000  1.0 0.0916735911
C  C13  1  0.58380000  0.19930000  0.32700000  1.0 -0.0921741774
C  C14  1  0.57760000  0.11440000  0.36040000  1.0 0.6265059197
C  C15  1  0.64120000  0.14300000  0.26270000  1.0 -0.0921741774
C  C16  1  0.60690000  0.23790000  0.28430000  1.0 -0.1416718658
C  C17  1  0.66550000  0.18250000  0.22080000  1.0 -0.1297504856
C  C18  1  0.60230000  0.15320000  0.31530000  1.0 -0.0712918714
C  C19  1  0.70960000  0.64790000  0.12080000  1.0 -0.1416718658
C  C20  1  0.73150000  0.67020000  0.19220000  1.0 0.0050415675
C  C21  1  0.77140000  0.64780000  0.23270000  1.0 0.0916735911
C  C22  1  0.80070000  0.58380000  0.32700000  1.0 -0.0921741774
C  C23  1  0.88560000  0.57760000  0.36040000  1.0 0.6265059197
C  C24  1  0.85700000  0.64120000  0.26270000  1.0 -0.0958079687
C  C25  1  0.76210000  0.60690000  0.28430000  1.0 -0.1416718658
C  C26  1  0.81750000  0.66550000  0.22080000  1.0 -0.1297504856
C  C27  1  0.84680000  0.60230000  0.31530000  1.0 -0.0712918714
C  C28  1  0.29040000  0.35210000  0.12080000  1.0 -0.1416718658
C  C29  1  0.26850000  0.32980000  0.19220000  1.0 0.0042054845
C  C30  1  0.22860000  0.35220000  0.23270000  1.0 0.0916735911
C  C31  1  0.19930000  0.41620000  0.32700000  1.0 -0.0921741774
C  C32  1  0.11440000  0.42240000  0.36040000  1.0 0.6265059197
C  C33  1  0.14300000  0.35880000  0.26270000  1.0 -0.0958079687
C  C34  1  0.23790000  0.39310000  0.28430000  1.0 -0.1416718658
C  C35  1  0.18250000  0.33450000  0.22080000  1.0 -0.1297504856
C  C36  1  0.15320000  0.39770000  0.31530000  1.0 -0.0712918714
C  C37  1  0.35210000  0.29040000  0.87920000  1.0 -0.1416718658
C  C38  1  0.32980000  0.26850000  0.80780000  1.0 0.0042054845
C  C39  1  0.35220000  0.22860000  0.76730000  1.0 0.0916735911
C  C40  1  0.41620000  0.19930000  0.67300000  1.0 -0.0921741774
C  C41  1  0.42240000  0.11440000  0.63960000  1.0 0.6265059197
C  C42  1  0.35880000  0.14300000  0.73730000  1.0 -0.0958079687
C  C43  1  0.39310000  0.23790000  0.71570000  1.0 -0.1416718658
C  C44  1  0.33450000  0.18250000  0.77920000  1.0 -0.1297504856
C  C45  1  0.39770000  0.15320000  0.68470000  1.0 -0.0712918714
C  C46  1  0.64790000  0.70960000  0.87920000  1.0 -0.1416718658
C  C47  1  0.67020000  0.73150000  0.80780000  1.0 0.0042054845
C  C48  1  0.64780000  0.77140000  0.76730000  1.0 0.0916735911
C  C49  1  0.58380000  0.80070000  0.67300000  1.0 -0.0921741774
C  C50  1  0.57760000  0.88560000  0.63960000  1.0 0.6265059197
C  C51  1  0.64120000  0.85700000  0.73730000  1.0 -0.0958079687
C  C52  1  0.60690000  0.76210000  0.71570000  1.0 -0.1416718658
C  C53  1  0.66550000  0.81750000  0.77920000  1.0 -0.1297504856
C  C54  1  0.60230000  0.84680000  0.68470000  1.0 -0.0712918714
C  C55  1  0.70960000  0.35210000  0.87920000  1.0 -0.1416718658
C  C56  1  0.73150000  0.32980000  0.80780000  1.0 0.0042054845
C  C57  1  0.77140000  0.35220000  0.76730000  1.0 0.0916735911
C  C58  1  0.80070000  0.41620000  0.67300000  1.0 -0.0921741774
C  C59  1  0.88560000  0.42240000  0.63960000  1.0 0.6265059197
C  C60  1  0.85700000  0.35880000  0.73730000  1.0 -0.0958079687
C  C61  1  0.76210000  0.39310000  0.71570000  1.0 -0.1416718658
C  C62  1  0.81750000  0.33450000  0.77920000  1.0 -0.1297504856
C  C63  1  0.84680000  0.39770000  0.68470000  1.0 -0.0712918714
C  C64  1  0.29040000  0.64790000  0.87920000  1.0 -0.1416718658
C  C65  1  0.26850000  0.67020000  0.80780000  1.0 0.0042054845
C  C66  1  0.22860000  0.64780000  0.76730000  1.0 0.0916735911
C  C67  1  0.19930000  0.58380000  0.67300000  1.0 -0.0921741774
C  C68  1  0.11440000  0.57760000  0.63960000  1.0 0.6265059197
C  C69  1  0.14300000  0.64120000  0.73730000  1.0 -0.0921741774
C  C70  1  0.23790000  0.60690000  0.71570000  1.0 -0.1416718658
C  C71  1  0.18250000  0.66550000  0.77920000  1.0 -0.1297504856
C  C72  1  0.15320000  0.60230000  0.68470000  1.0 -0.0712918714
C  C73  1  0.64790000  0.29040000  0.87920000  1.0 -0.1416718658
C  C74  1  0.67020000  0.26850000  0.80780000  1.0 0.0042054845
C  C75  1  0.64780000  0.22860000  0.76730000  1.0 0.0916735911
C  C76  1  0.58380000  0.19930000  0.67300000  1.0 -0.0921741774
C  C77  1  0.57760000  0.11440000  0.63960000  1.0 0.6265059197
C  C78  1  0.64120000  0.14300000  0.73730000  1.0 -0.0921741774
C  C79  1  0.60690000  0.23790000  0.71570000  1.0 -0.1416718658
C  C80  1  0.66550000  0.18250000  0.77920000  1.0 -0.1297504856
C  C81  1  0.60230000  0.15320000  0.68470000  1.0 -0.0712918714
C  C82  1  0.35210000  0.70960000  0.87920000  1.0 -0.1416718658
C  C83  1  0.32980000  0.73150000  0.80780000  1.0 0.0042054845
C  C84  1  0.35220000  0.77140000  0.76730000  1.0 0.0916735911
C  C85  1  0.41620000  0.80070000  0.67300000  1.0 -0.0921741774
C  C86  1  0.42240000  0.88560000  0.63960000  1.0 0.6265059197
C  C87  1  0.35880000  0.85700000  0.73730000  1.0 -0.0958079687
C  C88  1  0.39310000  0.76210000  0.71570000  1.0 -0.1416718658
C  C89  1  0.33450000  0.81750000  0.77920000  1.0 -0.1297504856
C  C90  1  0.39770000  0.84680000  0.68470000  1.0 -0.0712918714
C  C91  1  0.29040000  0.35210000  0.87920000  1.0 -0.1416718658
C  C92  1  0.26850000  0.32980000  0.80780000  1.0 0.0042054845
C  C93  1  0.22860000  0.35220000  0.76730000  1.0 0.0916735911
C  C94  1  0.19930000  0.41620000  0.67300000  1.0 -0.0921741774
C  C95  1  0.11440000  0.42240000  0.63960000  1.0 0.6265059197
C  C96  1  0.14300000  0.35880000  0.73730000  1.0 -0.0958079687
C  C97  1  0.23790000  0.39310000  0.71570000  1.0 -0.1416718658
C  C98  1  0.18250000  0.33450000  0.77920000  1.0 -0.1297504856
C  C99  1  0.15320000  0.39770000  0.68470000  1.0 -0.0712918714
C  C100  1  0.70960000  0.64790000  0.87920000  1.0 -0.1416718658
C  C101  1  0.73150000  0.67020000  0.80780000  1.0 0.0042054845
C  C102  1  0.77140000  0.64780000  0.76730000  1.0 0.0916735911
C  C103  1  0.80070000  0.58380000  0.67300000  1.0 -0.0921741774
C  C104  1  0.88560000  0.57760000  0.63960000  1.0 0.6265059197
C  C105  1  0.85700000  0.64120000  0.73730000  1.0 -0.0958079687
C  C106  1  0.76210000  0.60690000  0.71570000  1.0 -0.1416718658
C  C107  1  0.81750000  0.66550000  0.77920000  1.0 -0.1297504856
C  C108  1  0.84680000  0.60230000  0.68470000  1.0 -0.0712918714
C  C109  1  0.64790000  0.70960000  0.12080000  1.0 -0.1416718658
C  C110  1  0.67020000  0.73150000  0.19220000  1.0 0.0050415675
C  C111  1  0.64780000  0.77140000  0.23270000  1.0 0.0916735911
C  C112  1  0.58380000  0.80070000  0.32700000  1.0 -0.0921741774
C  C113  1  0.57760000  0.88560000  0.36040000  1.0 0.6265059197
C  C114  1  0.64120000  0.85700000  0.26270000  1.0 -0.0958079687
C  C115  1  0.60690000  0.76210000  0.28430000  1.0 -0.1416718658
C  C116  1  0.66550000  0.81750000  0.22080000  1.0 -0.1297504856
C  C117  1  0.60230000  0.84680000  0.31530000  1.0 -0.0712918714
C  C118  1  0.35210000  0.29040000  0.12080000  1.0 -0.1416718658
C  C119  1  0.32980000  0.26850000  0.19220000  1.0 0.0042054845
C  C120  1  0.35220000  0.22860000  0.23270000  1.0 0.0916735911
C  C121  1  0.41620000  0.19930000  0.32700000  1.0 -0.0921741774
C  C122  1  0.42240000  0.11440000  0.36040000  1.0 0.6265059197
C  C123  1  0.35880000  0.14300000  0.26270000  1.0 -0.0958079687
C  C124  1  0.39310000  0.23790000  0.28430000  1.0 -0.1416718658
C  C125  1  0.33450000  0.18250000  0.22080000  1.0 -0.1297504856
C  C126  1  0.39770000  0.15320000  0.31530000  1.0 -0.0712918714
C  C127  1  0.29040000  0.64790000  0.12080000  1.0 -0.1416718658
C  C128  1  0.26850000  0.67020000  0.19220000  1.0 0.0042054845
C  C129  1  0.22860000  0.64780000  0.23270000  1.0 0.0916735911
C  C130  1  0.19930000  0.58380000  0.32700000  1.0 -0.0921741774
C  C131  1  0.11440000  0.57760000  0.36040000  1.0 0.6265059197
C  C132  1  0.14300000  0.64120000  0.26270000  1.0 -0.0921741774
C  C133  1  0.23790000  0.60690000  0.28430000  1.0 -0.1416718658
C  C134  1  0.18250000  0.66550000  0.22080000  1.0 -0.1297504856
C  C135  1  0.15320000  0.60230000  0.31530000  1.0 -0.0712918714
C  C136  1  0.70960000  0.35210000  0.12080000  1.0 -0.1416718658
C  C137  1  0.73150000  0.32980000  0.19220000  1.0 0.0042054845
C  C138  1  0.77140000  0.35220000  0.23270000  1.0 0.0916735911
C  C139  1  0.80070000  0.41620000  0.32700000  1.0 -0.0921741774
C  C140  1  0.88560000  0.42240000  0.36040000  1.0 0.6265059197
C  C141  1  0.85700000  0.35880000  0.26270000  1.0 -0.0958079687
C  C142  1  0.76210000  0.39310000  0.28430000  1.0 -0.1416718658
C  C143  1  0.81750000  0.33450000  0.22080000  1.0 -0.1297504856
C  C144  1  0.84680000  0.39770000  0.31530000  1.0 -0.0712918714
C  C145  1  0.28780000  0.71220000  0.22780000  1.0 0.1515407795
C  C146  1  0.33250000  0.66750000  0.08460000  1.0 -0.0921741774
C  C147  1  0.71220000  0.28780000  0.22780000  1.0 0.1515407795
C  C148  1  0.66750000  0.33250000  0.08460000  1.0 -0.0921741774
C  C149  1  0.71220000  0.71220000  0.22780000  1.0 0.1515407795
C  C150  1  0.66750000  0.66750000  0.08460000  1.0 -0.0921741774
C  C151  1  0.28780000  0.28780000  0.22780000  1.0 0.1515407795
C  C152  1  0.33250000  0.33250000  0.08460000  1.0 -0.0921741774
C  C153  1  0.28780000  0.28780000  0.77220000  1.0 0.1515407795
C  C154  1  0.33250000  0.33250000  0.91540000  1.0 -0.0921741774
C  C155  1  0.71220000  0.71220000  0.77220000  1.0 0.1515407795
C  C156  1  0.66750000  0.66750000  0.91540000  1.0 -0.0921741774
C  C157  1  0.71220000  0.28780000  0.77220000  1.0 0.1515407795
C  C158  1  0.66750000  0.33250000  0.91540000  1.0 -0.0921741774
C  C159  1  0.28780000  0.71220000  0.77220000  1.0 0.1515407795
C  C160  1  0.33250000  0.66750000  0.91540000  1.0 -0.0921741774
S  S1  1  0.35780000  0.64220000  0.00000000  1.0 0.9393705884
S  S2  1  0.64220000  0.35780000  0.00000000  1.0 0.9393705884
S  S3  1  0.64220000  0.64220000  0.00000000  1.0 0.9393705884
S  S4  1  0.35780000  0.35780000  0.00000000  1.0 0.9393705884
N  N1  1  0.26430000  0.73570000  0.29800000  1.0 -0.4064639463
N  N2  1  0.73570000  0.26430000  0.29800000  1.0 -0.4064639463
N  N3  1  0.73570000  0.73570000  0.29800000  1.0 -0.4064639463
N  N4  1  0.26430000  0.26430000  0.29800000  1.0 -0.4064639463
N  N5  1  0.26430000  0.26430000  0.70200000  1.0 -0.4064639463
N  N6  1  0.73570000  0.73570000  0.70200000  1.0 -0.4064639463
N  N7  1  0.73570000  0.26430000  0.70200000  1.0 -0.4064639463
N  N8  1  0.26430000  0.73570000  0.70200000  1.0 -0.4064639463
O  O1  1  0.41440000  0.92920000  0.34400000  1.0 -0.5833546287
O  O2  1  0.45560000  0.87680000  0.41650000  1.0 -0.5702056578
O  O3  1  0.58560000  0.07080000  0.34400000  1.0 -0.5833546287
O  O4  1  0.54440000  0.12320000  0.41650000  1.0 -0.5702056578
O  O5  1  0.92920000  0.58560000  0.34400000  1.0 -0.5833546287
O  O6  1  0.87680000  0.54440000  0.41650000  1.0 -0.5702056578
O  O7  1  0.07080000  0.41440000  0.34400000  1.0 -0.5833546287
O  O8  1  0.12320000  0.45560000  0.41650000  1.0 -0.5702056578
O  O9  1  0.41440000  0.07080000  0.65600000  1.0 -0.5833546287
O  O10  1  0.45560000  0.12320000  0.58350000  1.0 -0.5702056578
O  O11  1  0.58560000  0.92920000  0.65600000  1.0 -0.5833546287
O  O12  1  0.54440000  0.87680000  0.58350000  1.0 -0.5702056578
O  O13  1  0.92920000  0.41440000  0.65600000  1.0 -0.5833546287
O  O14  1  0.87680000  0.45560000  0.58350000  1.0 -0.5702056578
O  O15  1  0.07080000  0.58560000  0.65600000  1.0 -0.5833546287
O  O16  1  0.12320000  0.54440000  0.58350000  1.0 -0.5702056578
O  O17  1  0.58560000  0.07080000  0.65600000  1.0 -0.5833546287
O  O18  1  0.54440000  0.12320000  0.58350000  1.0 -0.5702056578
O  O19  1  0.41440000  0.92920000  0.65600000  1.0 -0.5833546287
O  O20  1  0.45560000  0.87680000  0.58350000  1.0 -0.5702056578
O  O21  1  0.07080000  0.41440000  0.65600000  1.0 -0.5833546287
O  O22  1  0.12320000  0.45560000  0.58350000  1.0 -0.5702056578
O  O23  1  0.92920000  0.58560000  0.65600000  1.0 -0.5833546287
O  O24  1  0.87680000  0.54440000  0.58350000  1.0 -0.5702056578
O  O25  1  0.58560000  0.92920000  0.34400000  1.0 -0.5833546287
O  O26  1  0.54440000  0.87680000  0.41650000  1.0 -0.5702056578
O  O27  1  0.41440000  0.07080000  0.34400000  1.0 -0.5833546287
O  O28  1  0.45560000  0.12320000  0.41650000  1.0 -0.5702056578
O  O29  1  0.07080000  0.58560000  0.34400000  1.0 -0.5833546287
O  O30  1  0.12320000  0.54440000  0.41650000  1.0 -0.5702056578
O  O31  1  0.92920000  0.41440000  0.34400000  1.0 -0.5833546287
O  O32  1  0.87680000  0.45560000  0.41650000  1.0 -0.5702056578
O  O33  1  0.56180000  0.96090000  0.50000000  1.0 -1.0756604365
O  O34  1  0.43820000  0.03910000  0.50000000  1.0 -1.0738550118
O  O35  1  0.96090000  0.43820000  0.50000000  1.0 -1.0738550118
O  O36  1  0.03910000  0.56180000  0.50000000  1.0 -1.0738550118
O  O37  1  0.56180000  0.03910000  0.50000000  1.0 -1.0738550118
O  O38  1  0.43820000  0.96090000  0.50000000  1.0 -1.0738550118
O  O39  1  0.96090000  0.56180000  0.50000000  1.0 -1.0756604365
O  O40  1  0.03910000  0.43820000  0.50000000  1.0 -1.0738550118
O  O41  1  0.50000000  0.95980000  0.61420000  1.0 -1.0910947612
O  O42  1  0.50000000  0.04020000  0.61420000  1.0 -1.0910947612
O  O43  1  0.95980000  0.50000000  0.61420000  1.0 -1.0910947612
O  O44  1  0.04020000  0.50000000  0.61420000  1.0 -1.0910947612
O  O45  1  0.50000000  0.04020000  0.38580000  1.0 -1.0910947612
O  O46  1  0.50000000  0.95980000  0.38580000  1.0 -1.0910947612
O  O47  1  0.95980000  0.50000000  0.38580000  1.0 -1.0910947612
O  O48  1  0.04020000  0.50000000  0.38580000  1.0 -1.0910947612
O  O49  1  0.34890000  0.59480000  0.00000000  1.0 -0.4746580562
O  O50  1  0.65110000  0.40520000  0.00000000  1.0 -0.4746580562
O  O51  1  0.59480000  0.65110000  0.00000000  1.0 -0.4746580562
O  O52  1  0.40520000  0.34890000  0.00000000  1.0 -0.4746580562
O  O53  1  0.34890000  0.40520000  0.00000000  1.0 -0.4746580562
O  O54  1  0.65110000  0.59480000  0.00000000  1.0 -0.4746580562
O  O55  1  0.59480000  0.34890000  0.00000000  1.0 -0.4746580562
O  O56  1  0.40520000  0.65110000  0.00000000  1.0 -0.4746580562
