# DDEC6 charges by PACMAN v1.1 (https://github.com/mtap-research/PACMAN-charge/)
data_POPNUG_ASR_pacman
_symmetry_space_group_name_H-M   'P 1'
_cell_length_a   12.54250000
_cell_length_b   12.54250000
_cell_length_c   28.19100000
_cell_angle_alpha   74.20940000
_cell_angle_beta   105.79100000
_cell_angle_gamma   112.81000000
_symmetry_Int_Tables_number   1
_chemical_formula_structural   U3P10H32(C25O22)2
_chemical_formula_sum   'U6 P20 H64 C100 O88'
_cell_volume   3863.71415295
_cell_formula_units_Z   2
loop_
 _symmetry_equiv_pos_site_id
 _symmetry_equiv_pos_as_xyz
  1  'x, y, z'
loop_
 _atom_site_type_symbol
 _atom_site_label
 _atom_site_symmetry_multiplicity
 _atom_site_fract_x
 _atom_site_fract_y
 _atom_site_fract_z
 _atom_site_occupancy
 _atom_site_charge
U  U1  1  0.75572000  0.45818000  0.46627000  1.0 1.760699023
U  U2  1  0.45818000  0.75572000  0.03373000  1.0 1.760699023
U  U3  1  0.24428000  0.54182000  0.53373000  1.0 1.760699023
U  U4  1  0.54182000  0.24428000  0.96627000  1.0 1.760699023
U  U5  1  0.33864000  0.33864000  0.75000000  1.0 1.8218380999
U  U6  1  0.66136000  0.66136000  0.25000000  1.0 1.8218380999
P  P1  1  0.54360000  0.37440000  0.54860000  1.0 1.0644170038
P  P2  1  0.46800000  0.56760000  0.64930000  1.0 1.0655778241
P  P3  1  0.42620000  0.95300000  0.91820000  1.0 0.4239050638
P  P4  1  0.15980000  0.13300000  0.84180000  1.0 0.7455653739
P  P5  1  0.46430000  0.99970000  0.92160000  1.0 0.3669351331
P  P6  1  0.37440000  0.54360000  0.95140000  1.0 1.0655778241
P  P7  1  0.56760000  0.46800000  0.85070000  1.0 1.0655778241
P  P8  1  0.95300000  0.42620000  0.58180000  1.0 0.4239050638
P  P9  1  0.13300000  0.15980000  0.65820000  1.0 0.7455653739
P  P10  1  0.99970000  0.46430000  0.57840000  1.0 0.3669351331
P  P11  1  0.45640000  0.62560000  0.45140000  1.0 1.0655778241
P  P12  1  0.53200000  0.43240000  0.35070000  1.0 1.0655778241
P  P13  1  0.57380000  0.04700000  0.08180000  1.0 0.4239050638
P  P14  1  0.84020000  0.86700000  0.15820000  1.0 0.7444130074
P  P15  1  0.53570000  0.00030000  0.07840000  1.0 0.3647081148
P  P16  1  0.62560000  0.45640000  0.04860000  1.0 1.0644170038
P  P17  1  0.43240000  0.53200000  0.14930000  1.0 1.0644170038
P  P18  1  0.04700000  0.57380000  0.41820000  1.0 0.4239050638
P  P19  1  0.86700000  0.84020000  0.34180000  1.0 0.7444130074
P  P20  1  0.00030000  0.53570000  0.42160000  1.0 0.3669351331
H  H1  1  0.69126000  0.23826000  0.58355000  1.0 0.1195057065
H  H2  1  0.73368000  0.11286000  0.65595000  1.0 0.1195057065
H  H3  1  0.47740000  0.12360000  0.70602000  1.0 0.1090160644
H  H4  1  0.44613000  0.26401000  0.63573000  1.0 0.1090160644
H  H5  1  0.68674000  0.75024000  0.67098000  1.0 0.1090160644
H  H6  1  0.75389000  0.89603000  0.71338000  1.0 0.1195057065
H  H7  1  0.42767000  0.86895000  0.70679000  1.0 0.1195057065
H  H8  1  0.36443000  0.69943000  0.67590000  1.0 0.1195057065
H  H9  1  0.54868000  0.15728000  0.84647000  1.0 0.1032436946
H  H10  1  0.63214000  0.17268000  0.77969000  1.0 0.1090160644
H  H11  1  0.52561000  0.82797000  0.80002000  1.0 0.1090160644
H  H12  1  0.45537000  0.81073000  0.86878000  1.0 0.1032436946
H  H13  1  0.76388000  0.89412000  0.80466000  1.0 0.1090160644
H  H14  1  0.95554000  0.93620000  0.84340000  1.0 0.1032436946
H  H15  1  0.02008000  0.26466000  0.76603000  1.0 0.1032436946
H  H16  1  0.82789000  0.22235000  0.72905000  1.0 0.1256569069
H  H17  1  0.23826000  0.69126000  0.91645000  1.0 0.1195057065
H  H18  1  0.11286000  0.73368000  0.84405000  1.0 0.1195057065
H  H19  1  0.12360000  0.47740000  0.79398000  1.0 0.1090160644
H  H20  1  0.26400000  0.44612000  0.86427000  1.0 0.1090160644
H  H21  1  0.75024000  0.68674000  0.82902000  1.0 0.1090160644
H  H22  1  0.89603000  0.75389000  0.78662000  1.0 0.1195057065
H  H23  1  0.86895000  0.42767000  0.79321000  1.0 0.1195057065
H  H24  1  0.69943000  0.36443000  0.82410000  1.0 0.1195057065
H  H25  1  0.15728000  0.54868000  0.65353000  1.0 0.1032436946
H  H26  1  0.17268000  0.63214000  0.72031000  1.0 0.1090160644
H  H27  1  0.82797000  0.52561000  0.69998000  1.0 0.1090160644
H  H28  1  0.81073000  0.45537000  0.63122000  1.0 0.1032436946
H  H29  1  0.89412000  0.76388000  0.69534000  1.0 0.1090160644
H  H30  1  0.93620000  0.95554000  0.65660000  1.0 0.1032436946
H  H31  1  0.26466000  0.02008000  0.73397000  1.0 0.1032436946
H  H32  1  0.22235000  0.82789000  0.77095000  1.0 0.1256569069
H  H33  1  0.30874000  0.76174000  0.41645000  1.0 0.1195057065
H  H34  1  0.26632000  0.88714000  0.34405000  1.0 0.1195057065
H  H35  1  0.52260000  0.87640000  0.29398000  1.0 0.1090160644
H  H36  1  0.55388000  0.73600000  0.36427000  1.0 0.1090160644
H  H37  1  0.31326000  0.24976000  0.32902000  1.0 0.1090160644
H  H38  1  0.24611000  0.10397000  0.28662000  1.0 0.1195057065
H  H39  1  0.57233000  0.13105000  0.29321000  1.0 0.1195057065
H  H40  1  0.63557000  0.30057000  0.32410000  1.0 0.1195057065
H  H41  1  0.45132000  0.84272000  0.15353000  1.0 0.1032436946
H  H42  1  0.36786000  0.82732000  0.22031000  1.0 0.1090160644
H  H43  1  0.47439000  0.17203000  0.19998000  1.0 0.1090160644
H  H44  1  0.54463000  0.18927000  0.13122000  1.0 0.1032436946
H  H45  1  0.23612000  0.10588000  0.19534000  1.0 0.1090160644
H  H46  1  0.04446000  0.06380000  0.15660000  1.0 0.1032436946
H  H47  1  0.97992000  0.73534000  0.23397000  1.0 0.1032436946
H  H48  1  0.17211000  0.77765000  0.27095000  1.0 0.1256569069
H  H49  1  0.76174000  0.30874000  0.08355000  1.0 0.1195057065
H  H50  1  0.88714000  0.26632000  0.15595000  1.0 0.1195057065
H  H51  1  0.87640000  0.52260000  0.20602000  1.0 0.1090160644
H  H52  1  0.73599000  0.55388000  0.13573000  1.0 0.1090160644
H  H53  1  0.24976000  0.31326000  0.17098000  1.0 0.1090160644
H  H54  1  0.10397000  0.24611000  0.21338000  1.0 0.1195057065
H  H55  1  0.13105000  0.57233000  0.20679000  1.0 0.1195057065
H  H56  1  0.30057000  0.63557000  0.17590000  1.0 0.1195057065
H  H57  1  0.84272000  0.45132000  0.34647000  1.0 0.1032436946
H  H58  1  0.82732000  0.36786000  0.27969000  1.0 0.1090160644
H  H59  1  0.17203000  0.47439000  0.30002000  1.0 0.1090160644
H  H60  1  0.18927000  0.54463000  0.36878000  1.0 0.1032436946
H  H61  1  0.10588000  0.23612000  0.30466000  1.0 0.1090160644
H  H62  1  0.06380000  0.04446000  0.34340000  1.0 0.1032436946
H  H63  1  0.73534000  0.97992000  0.26603000  1.0 0.1032436946
H  H64  1  0.77765000  0.17211000  0.22905000  1.0 0.1256569069
C  C1  1  0.56970000  0.26570000  0.60430000  1.0 -0.1689409746
C  C2  1  0.65010000  0.21930000  0.60930000  1.0 -0.0491881031
C  C3  1  0.67410000  0.14270000  0.65250000  1.0 -0.1325462326
C  C4  1  0.61320000  0.10900000  0.69050000  1.0 0.0513088168
C  C5  1  0.52600000  0.15020000  0.68250000  1.0 -0.1485890602
C  C6  1  0.50480000  0.23260000  0.63960000  1.0 -0.0696547433
C  C7  1  0.51700000  0.69920000  0.67470000  1.0 -0.1584764143
C  C8  1  0.63360000  0.76820000  0.68220000  1.0 -0.099149584
C  C9  1  0.67290000  0.85930000  0.70490000  1.0 -0.1584764143
C  C10  1  0.59910000  0.90230000  0.71650000  1.0 0.0612657074
C  C11  1  0.48330000  0.84170000  0.70290000  1.0 -0.1485890602
C  C12  1  0.44490000  0.73990000  0.68320000  1.0 -0.0696547433
C  C13  1  0.49520000  0.98420000  0.86500000  1.0 -0.2015647413
C  C14  1  0.54550000  0.08930000  0.83800000  1.0 -0.0696547433
C  C15  1  0.59370000  0.09850000  0.79680000  1.0 -0.1485890602
C  C16  1  0.58520000  0.00020000  0.78140000  1.0 0.0612657074
C  C17  1  0.53270000  0.89630000  0.80940000  1.0 -0.1584764143
C  C18  1  0.48900000  0.88500000  0.85050000  1.0 -0.0390642877
C  C19  1  0.81680000  0.96940000  0.79620000  1.0 -0.1485890602
C  C20  1  0.93140000  0.99460000  0.82000000  1.0 -0.0614476609
C  C21  1  0.01110000  0.10490000  0.80990000  1.0 -0.2375990167
C  C22  1  0.96750000  0.18850000  0.77410000  1.0 -0.0696547433
C  C23  1  0.85390000  0.16350000  0.75110000  1.0 -0.1421600222
C  C24  1  0.77650000  0.05090000  0.76030000  1.0 0.069930498
C  C25  1  0.64350000  0.01610000  0.73690000  1.0 0.0057582142
C  C26  1  0.26570000  0.56970000  0.89570000  1.0 -0.1689409746
C  C27  1  0.21930000  0.65010000  0.89070000  1.0 -0.0491881031
C  C28  1  0.14270000  0.67410000  0.84750000  1.0 -0.1325462326
C  C29  1  0.10900000  0.61320000  0.80950000  1.0 0.0513088168
C  C30  1  0.15020000  0.52600000  0.81750000  1.0 -0.1485890602
C  C31  1  0.23260000  0.50480000  0.86040000  1.0 -0.0696547433
C  C32  1  0.69920000  0.51700000  0.82530000  1.0 -0.1584764143
C  C33  1  0.76820000  0.63360000  0.81780000  1.0 -0.099149584
C  C34  1  0.85930000  0.67290000  0.79510000  1.0 -0.1584764143
C  C35  1  0.90230000  0.59910000  0.78350000  1.0 0.0612657074
C  C36  1  0.84170000  0.48330000  0.79710000  1.0 -0.1485890602
C  C37  1  0.73990000  0.44490000  0.81680000  1.0 -0.0696547433
C  C38  1  0.98420000  0.49520000  0.63500000  1.0 -0.2015647413
C  C39  1  0.08930000  0.54550000  0.66200000  1.0 -0.0696547433
C  C40  1  0.09850000  0.59370000  0.70320000  1.0 -0.1485890602
C  C41  1  0.00020000  0.58520000  0.71860000  1.0 0.0612657074
C  C42  1  0.89630000  0.53270000  0.69060000  1.0 -0.1584764143
C  C43  1  0.88500000  0.48900000  0.64950000  1.0 -0.0390642877
C  C44  1  0.96940000  0.81680000  0.70380000  1.0 -0.1421600222
C  C45  1  0.99460000  0.93140000  0.68000000  1.0 -0.0614476609
C  C46  1  0.10490000  0.01110000  0.69010000  1.0 -0.2375990167
C  C47  1  0.18850000  0.96750000  0.72590000  1.0 -0.0696547433
C  C48  1  0.16350000  0.85390000  0.74890000  1.0 -0.1421600222
C  C49  1  0.05090000  0.77650000  0.73970000  1.0 0.069930498
C  C50  1  0.01610000  0.64350000  0.76310000  1.0 0.0057582142
C  C51  1  0.43030000  0.73430000  0.39570000  1.0 -0.1689409746
C  C52  1  0.34990000  0.78070000  0.39070000  1.0 -0.0491881031
C  C53  1  0.32590000  0.85730000  0.34750000  1.0 -0.1325462326
C  C54  1  0.38680000  0.89100000  0.30950000  1.0 0.0513088168
C  C55  1  0.47400000  0.84980000  0.31750000  1.0 -0.1485890602
C  C56  1  0.49520000  0.76740000  0.36040000  1.0 -0.0696547433
C  C57  1  0.48300000  0.30080000  0.32530000  1.0 -0.1584764143
C  C58  1  0.36640000  0.23180000  0.31780000  1.0 -0.099149584
C  C59  1  0.32710000  0.14070000  0.29510000  1.0 -0.1584764143
C  C60  1  0.40090000  0.09770000  0.28350000  1.0 0.0612657074
C  C61  1  0.51670000  0.15830000  0.29710000  1.0 -0.1485890602
C  C62  1  0.55510000  0.26010000  0.31680000  1.0 -0.0696547433
C  C63  1  0.50480000  0.01580000  0.13500000  1.0 -0.2015647413
C  C64  1  0.45450000  0.91070000  0.16200000  1.0 -0.0696547433
C  C65  1  0.40630000  0.90150000  0.20320000  1.0 -0.1485890602
C  C66  1  0.41480000  0.99980000  0.21860000  1.0 0.0612657074
C  C67  1  0.46730000  0.10370000  0.19060000  1.0 -0.1584764143
C  C68  1  0.51100000  0.11500000  0.14950000  1.0 -0.0390642877
C  C69  1  0.18320000  0.03060000  0.20380000  1.0 -0.1421600222
C  C70  1  0.06860000  0.00540000  0.18000000  1.0 -0.0614476609
C  C71  1  0.98890000  0.89510000  0.19010000  1.0 -0.2375990167
C  C72  1  0.03250000  0.81150000  0.22590000  1.0 -0.0696547433
C  C73  1  0.14610000  0.83650000  0.24890000  1.0 -0.1421600222
C  C74  1  0.22350000  0.94910000  0.23970000  1.0 0.069930498
C  C75  1  0.35650000  0.98390000  0.26310000  1.0 0.0057582142
C  C76  1  0.73430000  0.43030000  0.10430000  1.0 -0.1689409746
C  C77  1  0.78070000  0.34990000  0.10930000  1.0 -0.0491881031
C  C78  1  0.85730000  0.32590000  0.15250000  1.0 -0.1325462326
C  C79  1  0.89100000  0.38680000  0.19050000  1.0 0.0513088168
C  C80  1  0.84980000  0.47400000  0.18250000  1.0 -0.1421600222
C  C81  1  0.76740000  0.49520000  0.13960000  1.0 -0.0696547433
C  C82  1  0.30080000  0.48300000  0.17470000  1.0 -0.1584764143
C  C83  1  0.23180000  0.36640000  0.18220000  1.0 -0.099149584
C  C84  1  0.14070000  0.32710000  0.20490000  1.0 -0.1584764143
C  C85  1  0.09770000  0.40090000  0.21650000  1.0 0.0612657074
C  C86  1  0.15830000  0.51670000  0.20290000  1.0 -0.1485890602
C  C87  1  0.26010000  0.55510000  0.18320000  1.0 -0.0696547433
C  C88  1  0.01580000  0.50480000  0.36500000  1.0 -0.2015647413
C  C89  1  0.91070000  0.45450000  0.33800000  1.0 -0.0696547433
C  C90  1  0.90150000  0.40630000  0.29680000  1.0 -0.1485890602
C  C91  1  0.99980000  0.41480000  0.28140000  1.0 0.0612657074
C  C92  1  0.10370000  0.46730000  0.30940000  1.0 -0.1584764143
C  C93  1  0.11500000  0.51100000  0.35050000  1.0 -0.0390642877
C  C94  1  0.03060000  0.18320000  0.29620000  1.0 -0.1421600222
C  C95  1  0.00540000  0.06860000  0.32000000  1.0 -0.0614476609
C  C96  1  0.89510000  0.98890000  0.30990000  1.0 -0.2375990167
C  C97  1  0.81150000  0.03250000  0.27410000  1.0 -0.0696547433
C  C98  1  0.83650000  0.14610000  0.25110000  1.0 -0.1421600222
C  C99  1  0.94910000  0.22350000  0.26030000  1.0 0.069930498
C  C100  1  0.98390000  0.35650000  0.23690000  1.0 0.0057582142
O  O1  1  0.45800000  0.07200000  0.92820000  1.0 -0.2121128895
O  O2  1  0.46590000  0.86810000  0.95930000  1.0 -0.2553154636
O  O3  1  0.29100000  0.89500000  0.90300000  1.0 -0.2698544173
O  O4  1  0.61590000  0.37150000  0.51160000  1.0 -0.7421332706
O  O5  1  0.42010000  0.31830000  0.52440000  1.0 -0.656141575
O  O6  1  0.55100000  0.48100000  0.55940000  1.0 -0.0696547433
O  O7  1  0.43950000  0.47070000  0.68620000  1.0 -0.609922688
O  O8  1  0.57980000  0.58620000  0.62360000  1.0 -0.1798331324
O  O9  1  0.36990000  0.57130000  0.60690000  1.0 -0.7219129759
O  O10  1  0.16580000  0.02020000  0.88520000  1.0 -0.099149584
O  O11  1  0.17800000  0.21600000  0.87580000  1.0 -0.1179672643
O  O12  1  0.24300000  0.17300000  0.81420000  1.0 -0.2375990167
O  O13  1  0.39800000  0.23600000  0.74610000  1.0 -0.2015647413
O  O14  1  0.51100000  0.91300000  0.96270000  1.0 -0.2162680535
O  O15  1  0.51200000  0.11800000  0.93250000  1.0 -0.2295649308
O  O16  1  0.31500000  0.92700000  0.90900000  1.0 -0.2698544173
O  O17  1  0.60900000  0.49700000  0.55710000  1.0 -0.0229050359
O  O18  1  0.56700000  0.54300000  0.64830000  1.0 -0.099149584
O  O19  1  0.18800000  0.03200000  0.84900000  1.0 -0.1485890602
O  O20  1  0.16500000  0.16900000  0.88500000  1.0 -0.0287091779
O  O21  1  0.22200000  0.24000000  0.80530000  1.0 -0.3180051256
O  O22  1  0.45200000  0.27400000  0.77110000  1.0 -0.2121128895
O  O23  1  0.07200000  0.45800000  0.57180000  1.0 -0.2015647413
O  O24  1  0.86810000  0.46590000  0.54070000  1.0 -0.2532361158
O  O25  1  0.89500000  0.29100000  0.59700000  1.0 -0.2698544173
O  O26  1  0.37150000  0.61590000  0.98840000  1.0 -0.7421332706
O  O27  1  0.31830000  0.42010000  0.97560000  1.0 -0.656141575
O  O28  1  0.48100000  0.55100000  0.94060000  1.0 -0.0696547433
O  O29  1  0.47070000  0.43950000  0.81380000  1.0 -0.609922688
O  O30  1  0.58620000  0.57980000  0.87640000  1.0 -0.1689409746
O  O31  1  0.57130000  0.36990000  0.89310000  1.0 -0.7219129759
O  O32  1  0.02020000  0.16580000  0.61480000  1.0 -0.099149584
O  O33  1  0.21600000  0.17800000  0.62420000  1.0 -0.1179672643
O  O34  1  0.17300000  0.24300000  0.68580000  1.0 -0.2375990167
O  O35  1  0.23600000  0.39800000  0.75390000  1.0 -0.2015647413
O  O36  1  0.91300000  0.51100000  0.53730000  1.0 -0.2121128895
O  O37  1  0.11800000  0.51200000  0.56750000  1.0 -0.2295649308
O  O38  1  0.92700000  0.31500000  0.59100000  1.0 -0.2751966226
O  O39  1  0.49700000  0.60900000  0.94290000  1.0 -0.0229050359
O  O40  1  0.54300000  0.56700000  0.85170000  1.0 -0.099149584
O  O41  1  0.03200000  0.18800000  0.65100000  1.0 -0.1485890602
O  O42  1  0.16900000  0.16500000  0.61500000  1.0 -0.0287091779
O  O43  1  0.24000000  0.22200000  0.69470000  1.0 -0.3180051256
O  O44  1  0.27400000  0.45200000  0.72890000  1.0 -0.2121128895
O  O45  1  0.54200000  0.92800000  0.07180000  1.0 -0.2015647413
O  O46  1  0.53410000  0.13190000  0.04070000  1.0 -0.2532361158
O  O47  1  0.70900000  0.10500000  0.09700000  1.0 -0.2698544173
O  O48  1  0.38410000  0.62850000  0.48840000  1.0 -0.7421332706
O  O49  1  0.57990000  0.68170000  0.47560000  1.0 -0.656141575
O  O50  1  0.44900000  0.51900000  0.44060000  1.0 -0.0696547433
O  O51  1  0.56050000  0.52930000  0.31380000  1.0 -0.609922688
O  O52  1  0.42020000  0.41380000  0.37640000  1.0 -0.1798331324
O  O53  1  0.63010000  0.42870000  0.39310000  1.0 -0.7219129759
O  O54  1  0.83420000  0.97980000  0.11480000  1.0 -0.099149584
O  O55  1  0.82200000  0.78400000  0.12420000  1.0 -0.1179672643
O  O56  1  0.75700000  0.82700000  0.18580000  1.0 -0.2375990167
O  O57  1  0.60200000  0.76400000  0.25390000  1.0 -0.2015647413
O  O58  1  0.48900000  0.08700000  0.03730000  1.0 -0.2162680535
O  O59  1  0.48800000  0.88200000  0.06750000  1.0 -0.2295649308
O  O60  1  0.68500000  0.07300000  0.09100000  1.0 -0.2698544173
O  O61  1  0.39100000  0.50300000  0.44290000  1.0 -0.0229050359
O  O62  1  0.43300000  0.45700000  0.35170000  1.0 -0.099149584
O  O63  1  0.81200000  0.96800000  0.15100000  1.0 -0.1485890602
O  O64  1  0.83500000  0.83100000  0.11500000  1.0 -0.0287091779
O  O65  1  0.77800000  0.76000000  0.19470000  1.0 -0.3180051256
O  O66  1  0.54800000  0.72600000  0.22890000  1.0 -0.2121128895
O  O67  1  0.92800000  0.54200000  0.42820000  1.0 -0.2015647413
O  O68  1  0.13190000  0.53410000  0.45930000  1.0 -0.2532361158
O  O69  1  0.10500000  0.70900000  0.40300000  1.0 -0.2698544173
O  O70  1  0.62850000  0.38410000  0.01160000  1.0 -0.7421332706
O  O71  1  0.68170000  0.57990000  0.02440000  1.0 -0.656141575
O  O72  1  0.51900000  0.44900000  0.05940000  1.0 -0.0696547433
O  O73  1  0.52930000  0.56050000  0.18620000  1.0 -0.609922688
O  O74  1  0.41380000  0.42020000  0.12360000  1.0 -0.1689409746
O  O75  1  0.42870000  0.63010000  0.10690000  1.0 -0.7219129759
O  O76  1  0.97980000  0.83420000  0.38520000  1.0 -0.099149584
O  O77  1  0.78400000  0.82200000  0.37580000  1.0 -0.1179672643
O  O78  1  0.82700000  0.75700000  0.31420000  1.0 -0.2375990167
O  O79  1  0.76400000  0.60200000  0.24610000  1.0 -0.2015647413
O  O80  1  0.08700000  0.48900000  0.46270000  1.0 -0.2162680535
O  O81  1  0.88200000  0.48800000  0.43250000  1.0 -0.2295649308
O  O82  1  0.07300000  0.68500000  0.40900000  1.0 -0.2751966226
O  O83  1  0.50300000  0.39100000  0.05710000  1.0 -0.0229050359
O  O84  1  0.45700000  0.43300000  0.14830000  1.0 -0.0923079732
O  O85  1  0.96800000  0.81200000  0.34900000  1.0 -0.1485890602
O  O86  1  0.83100000  0.83500000  0.38500000  1.0 -0.0287091779
O  O87  1  0.76000000  0.77800000  0.30530000  1.0 -0.3180051256
O  O88  1  0.72600000  0.54800000  0.27110000  1.0 -0.2121128895
