# DDEC6 charges by PACMAN v1.1 (https://github.com/mtap-research/PACMAN-charge/)
data_POPPES_ASR_pacman
_symmetry_space_group_name_H-M   'P 1'
_cell_length_a   13.15230000
_cell_length_b   13.15230000
_cell_length_c   15.95270000
_cell_angle_alpha   65.43470000
_cell_angle_beta   114.56500000
_cell_angle_gamma   102.74900000
_symmetry_Int_Tables_number   1
_chemical_formula_structural   UP4H20C25O12
_chemical_formula_sum   'U2 P8 H40 C50 O24'
_cell_volume   2278.79232182
_cell_formula_units_Z   2
loop_
 _symmetry_equiv_pos_site_id
 _symmetry_equiv_pos_as_xyz
  1  'x, y, z'
loop_
 _atom_site_type_symbol
 _atom_site_label
 _atom_site_symmetry_multiplicity
 _atom_site_fract_x
 _atom_site_fract_y
 _atom_site_fract_z
 _atom_site_occupancy
 _atom_site_charge
U  U1  1  0.50000000  0.00000000  0.00000000  1.0 2.1737830873
U  U2  1  0.00000000  0.50000000  0.50000000  1.0 2.1833236452
P  P1  1  0.28099000  0.79847000  0.91988000  1.0 1.2802825805
P  P2  1  0.33478000  0.92892000  0.14788000  1.0 1.2747109171
P  P3  1  0.79847000  0.28099000  0.58012000  1.0 1.2852638002
P  P4  1  0.92892000  0.33478000  0.35212000  1.0 1.2747109171
P  P5  1  0.71901000  0.20153000  0.08012000  1.0 1.2802825805
P  P6  1  0.66522000  0.07108000  0.85212000  1.0 1.2802825805
P  P7  1  0.20153000  0.71901000  0.41988000  1.0 1.2852638002
P  P8  1  0.07108000  0.66522000  0.64788000  1.0 1.2802825805
H  H1  1  0.20980000  0.85920000  0.97660000  1.0 0.3947781857
H  H2  1  0.29720000  0.81500000  0.26080000  1.0 0.3835862365
H  H3  1  0.22300000  0.39720000  0.05170000  1.0 0.1215475957
H  H4  1  0.20150000  0.57150000  0.92820000  1.0 0.1269586929
H  H5  1  0.39140000  0.70900000  0.12820000  1.0 0.1269586929
H  H6  1  0.40920000  0.53620000  0.25050000  1.0 0.1215475957
H  H7  1  0.25460000  0.11660000  0.31300000  1.0 0.1215475957
H  H8  1  0.26000000  0.96580000  0.27870000  1.0 0.1215475957
H  H9  1  0.41270000  0.15970000  0.09090000  1.0 0.1269586929
H  H10  1  0.40520000  0.31100000  0.12420000  1.0 0.1215475957
H  H11  1  0.85920000  0.20980000  0.52340000  1.0 0.3947781857
H  H12  1  0.81500000  0.29720000  0.23920000  1.0 0.3835862365
H  H13  1  0.39720000  0.22300000  0.44830000  1.0 0.1215475957
H  H14  1  0.57150000  0.20150000  0.57180000  1.0 0.1269586929
H  H15  1  0.70900000  0.39140000  0.37180000  1.0 0.1269586929
H  H16  1  0.53620000  0.40920000  0.24950000  1.0 0.1215475957
H  H17  1  0.11660000  0.25460000  0.18700000  1.0 0.1215475957
H  H18  1  0.96580000  0.26000000  0.22130000  1.0 0.1215475957
H  H19  1  0.15970000  0.41270000  0.40910000  1.0 0.1269586929
H  H20  1  0.31100000  0.40520000  0.37580000  1.0 0.1215475957
H  H21  1  0.79020000  0.14080000  0.02340000  1.0 0.3947781857
H  H22  1  0.70280000  0.18500000  0.73920000  1.0 0.3835862365
H  H23  1  0.77700000  0.60280000  0.94830000  1.0 0.1215475957
H  H24  1  0.79850000  0.42850000  0.07180000  1.0 0.1269586929
H  H25  1  0.60860000  0.29100000  0.87180000  1.0 0.1269586929
H  H26  1  0.59080000  0.46380000  0.74950000  1.0 0.1215475957
H  H27  1  0.74540000  0.88340000  0.68700000  1.0 0.1215475957
H  H28  1  0.74000000  0.03420000  0.72130000  1.0 0.1215475957
H  H29  1  0.58730000  0.84030000  0.90910000  1.0 0.1269586929
H  H30  1  0.59480000  0.68900000  0.87580000  1.0 0.1215475957
H  H31  1  0.14080000  0.79020000  0.47660000  1.0 0.3947781857
H  H32  1  0.18500000  0.70280000  0.76080000  1.0 0.3835862365
H  H33  1  0.60280000  0.77700000  0.55170000  1.0 0.1215475957
H  H34  1  0.42850000  0.79850000  0.42820000  1.0 0.1269586929
H  H35  1  0.29100000  0.60860000  0.62820000  1.0 0.1269586929
H  H36  1  0.46380000  0.59080000  0.75050000  1.0 0.1215475957
H  H37  1  0.88340000  0.74540000  0.81300000  1.0 0.1215475957
H  H38  1  0.03420000  0.74000000  0.77870000  1.0 0.1215475957
H  H39  1  0.84030000  0.58730000  0.59090000  1.0 0.1269586929
H  H40  1  0.68900000  0.59480000  0.62420000  1.0 0.1215475957
C  C1  1  0.32180000  0.44600000  0.16500000  1.0 0.0790775317
C  C2  1  0.25800000  0.45980000  0.06770000  1.0 -0.1468246195
C  C3  1  0.24500000  0.56500000  0.99320000  1.0 -0.0602191036
C  C4  1  0.29500000  0.66020000  0.01340000  1.0 -0.2169103909
C  C5  1  0.35710000  0.64650000  0.11180000  1.0 -0.0673272003
C  C6  1  0.36850000  0.54230000  0.18510000  1.0 -0.1425681551
C  C7  1  0.32560000  0.23200000  0.21990000  1.0 0.0790775317
C  C8  1  0.28510000  0.12650000  0.26670000  1.0 -0.1425681551
C  C9  1  0.28880000  0.03540000  0.24640000  1.0 -0.0602191036
C  C10  1  0.33460000  0.04540000  0.17850000  1.0 -0.2012351368
C  C11  1  0.37900000  0.15020000  0.13490000  1.0 -0.0602191036
C  C12  1  0.37460000  0.24160000  0.15510000  1.0 -0.1468246195
C  C13  1  0.44600000  0.32180000  0.33500000  1.0 0.0790775317
C  C14  1  0.45980000  0.25800000  0.43230000  1.0 -0.1468246195
C  C15  1  0.56500000  0.24500000  0.50680000  1.0 -0.0602191036
C  C16  1  0.66020000  0.29500000  0.48660000  1.0 -0.2169103909
C  C17  1  0.64650000  0.35710000  0.38820000  1.0 -0.0673272003
C  C18  1  0.54230000  0.36850000  0.31490000  1.0 -0.1425681551
C  C19  1  0.23200000  0.32560000  0.28010000  1.0 0.0790775317
C  C20  1  0.12650000  0.28510000  0.23330000  1.0 -0.1425681551
C  C21  1  0.03540000  0.28880000  0.25360000  1.0 -0.0602191036
C  C22  1  0.04540000  0.33460000  0.32150000  1.0 -0.2012351368
C  C23  1  0.15020000  0.37900000  0.36510000  1.0 -0.0602191036
C  C24  1  0.24160000  0.37460000  0.34490000  1.0 -0.1468246195
C  C25  1  0.67820000  0.55400000  0.83500000  1.0 0.0790775317
C  C26  1  0.74200000  0.54020000  0.93230000  1.0 -0.1468246195
C  C27  1  0.75500000  0.43500000  0.00680000  1.0 -0.0602191036
C  C28  1  0.70500000  0.33980000  0.98660000  1.0 -0.2169103909
C  C29  1  0.64290000  0.35350000  0.88820000  1.0 -0.0673272003
C  C30  1  0.63150000  0.45770000  0.81490000  1.0 -0.1425681551
C  C31  1  0.67440000  0.76800000  0.78010000  1.0 0.0790775317
C  C32  1  0.71490000  0.87350000  0.73330000  1.0 -0.1425681551
C  C33  1  0.71120000  0.96460000  0.75360000  1.0 -0.0602191036
C  C34  1  0.66540000  0.95460000  0.82150000  1.0 -0.2012351368
C  C35  1  0.62100000  0.84980000  0.86510000  1.0 -0.0602191036
C  C36  1  0.62540000  0.75840000  0.84490000  1.0 -0.1468246195
C  C37  1  0.55400000  0.67820000  0.66500000  1.0 0.0790775317
C  C38  1  0.54020000  0.74200000  0.56770000  1.0 -0.1468246195
C  C39  1  0.43500000  0.75500000  0.49320000  1.0 -0.0602191036
C  C40  1  0.33980000  0.70500000  0.51340000  1.0 -0.2169103909
C  C41  1  0.35350000  0.64290000  0.61180000  1.0 -0.0673272003
C  C42  1  0.45770000  0.63150000  0.68510000  1.0 -0.1425681551
C  C43  1  0.76800000  0.67440000  0.71990000  1.0 0.0790775317
C  C44  1  0.87350000  0.71490000  0.76670000  1.0 -0.1425681551
C  C45  1  0.96460000  0.71120000  0.74640000  1.0 -0.0602191036
C  C46  1  0.95460000  0.66540000  0.67850000  1.0 -0.2012351368
C  C47  1  0.84980000  0.62100000  0.63490000  1.0 -0.0602191036
C  C48  1  0.75840000  0.62540000  0.65510000  1.0 -0.1468246195
C  C49  1  0.33080000  0.33080000  0.25000000  1.0 -0.0047656785
C  C50  1  0.66920000  0.66920000  0.75000000  1.0 -0.0052242133
O  O1  1  0.39210000  0.86090000  0.95180000  1.0 -0.8732425421
O  O2  1  0.18830000  0.85170000  0.92320000  1.0 -0.58952812
O  O3  1  0.24400000  0.79460000  0.82030000  1.0 -0.6835991208
O  O4  1  0.23030000  0.92310000  0.06330000  1.0 -0.7098448638
O  O5  1  0.44190000  0.94190000  0.12950000  1.0 -0.8732425421
O  O6  1  0.34970000  0.82350000  0.24310000  1.0 -0.5969885652
O  O7  1  0.86090000  0.39210000  0.54820000  1.0 -0.8732425421
O  O8  1  0.85170000  0.18830000  0.57680000  1.0 -0.58952812
O  O9  1  0.79460000  0.24400000  0.67970000  1.0 -0.6835991208
O  O10  1  0.92310000  0.23030000  0.43670000  1.0 -0.7098448638
O  O11  1  0.94190000  0.44190000  0.37050000  1.0 -0.8732425421
O  O12  1  0.82350000  0.34970000  0.25690000  1.0 -0.5969885652
O  O13  1  0.60790000  0.13910000  0.04820000  1.0 -0.8732425421
O  O14  1  0.81170000  0.14830000  0.07680000  1.0 -0.58952812
O  O15  1  0.75600000  0.20540000  0.17970000  1.0 -0.6835991208
O  O16  1  0.76970000  0.07690000  0.93670000  1.0 -0.7098448638
O  O17  1  0.55810000  0.05810000  0.87050000  1.0 -0.8732425421
O  O18  1  0.65030000  0.17650000  0.75690000  1.0 -0.5969885652
O  O19  1  0.13910000  0.60790000  0.45180000  1.0 -0.8732425421
O  O20  1  0.14830000  0.81170000  0.42320000  1.0 -0.58952812
O  O21  1  0.20540000  0.75600000  0.32030000  1.0 -0.6835991208
O  O22  1  0.07690000  0.76970000  0.56330000  1.0 -0.7098448638
O  O23  1  0.05810000  0.55810000  0.62950000  1.0 -0.8765279416
O  O24  1  0.17650000  0.65030000  0.74310000  1.0 -0.5969885652
