# DDEC6 charges by PACMAN v1.1 (https://github.com/mtap-research/PACMAN-charge/)
data_POQQES_ASR_pacman
_symmetry_space_group_name_H-M   'P 1'
_cell_length_a   16.10370000
_cell_length_b   17.80230000
_cell_length_c   19.12320000
_cell_angle_alpha   90.00000000
_cell_angle_beta   90.00000000
_cell_angle_gamma   90.00000000
_symmetry_Int_Tables_number   1
_chemical_formula_structural   Fe3B3P6HO26
_chemical_formula_sum   'Fe24 B24 P48 H8 O208'
_cell_volume   5482.29440479
_cell_formula_units_Z   8
loop_
 _symmetry_equiv_pos_site_id
 _symmetry_equiv_pos_as_xyz
  1  'x, y, z'
loop_
 _atom_site_type_symbol
 _atom_site_label
 _atom_site_symmetry_multiplicity
 _atom_site_fract_x
 _atom_site_fract_y
 _atom_site_fract_z
 _atom_site_occupancy
 _atom_site_charge
Fe  Fe1  1  0.33504000  0.76643000  0.54241000  1.0 1.4776469772
Fe  Fe2  1  0.66496000  0.73357000  0.04241000  1.0 1.4776469772
Fe  Fe3  1  0.16496000  0.26643000  0.45759000  1.0 1.4776469772
Fe  Fe4  1  0.83504000  0.23357000  0.95759000  1.0 1.4776469772
Fe  Fe5  1  0.66496000  0.23357000  0.45759000  1.0 1.4776469772
Fe  Fe6  1  0.33504000  0.26643000  0.95759000  1.0 1.4710983966
Fe  Fe7  1  0.83504000  0.73357000  0.54241000  1.0 1.4776469772
Fe  Fe8  1  0.16496000  0.76643000  0.04241000  1.0 1.4776469772
Fe  Fe9  1  0.16435000  0.54222000  0.55121000  1.0 1.5671863348
Fe  Fe10  1  0.83565000  0.95778000  0.05121000  1.0 1.5671863348
Fe  Fe11  1  0.33565000  0.04222000  0.44879000  1.0 1.5671863348
Fe  Fe12  1  0.66435000  0.45778000  0.94879000  1.0 1.5671863348
Fe  Fe13  1  0.83565000  0.45778000  0.44879000  1.0 1.5606140561
Fe  Fe14  1  0.16435000  0.04222000  0.94879000  1.0 1.5671863348
Fe  Fe15  1  0.66435000  0.95778000  0.55121000  1.0 1.5671863348
Fe  Fe16  1  0.33565000  0.54222000  0.05121000  1.0 1.5671863348
Fe  Fe17  1  0.24399000  0.05396000  0.70677000  1.0 1.4710983966
Fe  Fe18  1  0.75601000  0.44604000  0.20677000  1.0 1.4710983966
Fe  Fe19  1  0.25601000  0.55396000  0.29323000  1.0 1.4710983966
Fe  Fe20  1  0.74399000  0.94604000  0.79323000  1.0 1.4710983966
Fe  Fe21  1  0.75601000  0.94604000  0.29323000  1.0 1.4710983966
Fe  Fe22  1  0.24399000  0.55396000  0.79323000  1.0 1.4710983966
Fe  Fe23  1  0.74399000  0.44604000  0.70677000  1.0 1.4710983966
Fe  Fe24  1  0.25601000  0.05396000  0.20677000  1.0 1.4710983966
B  B1  1  0.16210000  0.76040000  0.61220000  1.0 0.977251543
B  B2  1  0.83790000  0.73960000  0.11220000  1.0 0.9874144329
B  B3  1  0.33790000  0.26040000  0.38780000  1.0 0.9874144329
B  B4  1  0.66210000  0.23960000  0.88780000  1.0 0.977251543
B  B5  1  0.83790000  0.23960000  0.38780000  1.0 0.9874144329
B  B6  1  0.16210000  0.26040000  0.88780000  1.0 0.9874144329
B  B7  1  0.66210000  0.73960000  0.61220000  1.0 0.9874144329
B  B8  1  0.33790000  0.76040000  0.11220000  1.0 0.9874144329
B  B9  1  0.16470000  0.76110000  0.47730000  1.0 0.9626413269
B  B10  1  0.83530000  0.73890000  0.97730000  1.0 0.9626413269
B  B11  1  0.33530000  0.26110000  0.52270000  1.0 0.9626413269
B  B12  1  0.66470000  0.23890000  0.02270000  1.0 0.9626413269
B  B13  1  0.83530000  0.23890000  0.52270000  1.0 0.9626413269
B  B14  1  0.16470000  0.26110000  0.02270000  1.0 0.9626413269
B  B15  1  0.66470000  0.73890000  0.47730000  1.0 0.9626413269
B  B16  1  0.33530000  0.76110000  0.97730000  1.0 0.9626413269
B  B17  1  0.23390000  0.90460000  0.78617000  1.0 0.9461375012
B  B18  1  0.76610000  0.59540000  0.28617000  1.0 0.9461375012
B  B19  1  0.26610000  0.40460000  0.21383000  1.0 0.9461375012
B  B20  1  0.73390000  0.09540000  0.71383000  1.0 0.9461375012
B  B21  1  0.76610000  0.09540000  0.21383000  1.0 0.9461375012
B  B22  1  0.23390000  0.40460000  0.71383000  1.0 0.9461375012
B  B23  1  0.73390000  0.59540000  0.78617000  1.0 0.9461375012
B  B24  1  0.26610000  0.90460000  0.28617000  1.0 0.9461375012
P  P1  1  0.24076000  0.88360000  0.65008000  1.0 1.5091064705
P  P2  1  0.75924000  0.61640000  0.15008000  1.0 1.5012667709
P  P3  1  0.25924000  0.38360000  0.34992000  1.0 1.5091064705
P  P4  1  0.74076000  0.11640000  0.84992000  1.0 1.5012667709
P  P5  1  0.75924000  0.11640000  0.34992000  1.0 1.5012667709
P  P6  1  0.24076000  0.38360000  0.84992000  1.0 1.5091064705
P  P7  1  0.74076000  0.61640000  0.65008000  1.0 1.5012667709
P  P8  1  0.25924000  0.88360000  0.15008000  1.0 1.5091064705
P  P9  1  0.04104000  0.69554000  0.54181000  1.0 1.5179176861
P  P10  1  0.95896000  0.80446000  0.04181000  1.0 1.5091064705
P  P11  1  0.45896000  0.19554000  0.45819000  1.0 1.5179176861
P  P12  1  0.54104000  0.30446000  0.95819000  1.0 1.5091064705
P  P13  1  0.95896000  0.30446000  0.45819000  1.0 1.5179176861
P  P14  1  0.04104000  0.19554000  0.95819000  1.0 1.5179176861
P  P15  1  0.54104000  0.80446000  0.54181000  1.0 1.5179176861
P  P16  1  0.45896000  0.69554000  0.04181000  1.0 1.5179176861
P  P17  1  0.27235000  0.65833000  0.65893000  1.0 1.5500963314
P  P18  1  0.72765000  0.84167000  0.15893000  1.0 1.5500963314
P  P19  1  0.22765000  0.15833000  0.34107000  1.0 1.5500963314
P  P20  1  0.77235000  0.34167000  0.84107000  1.0 1.5500963314
P  P21  1  0.72765000  0.34167000  0.34107000  1.0 1.5500963314
P  P22  1  0.27235000  0.15833000  0.84107000  1.0 1.5500963314
P  P23  1  0.77235000  0.84167000  0.65893000  1.0 1.5500963314
P  P24  1  0.22765000  0.65833000  0.15893000  1.0 1.5500963314
P  P25  1  0.26608000  0.64742000  0.43509000  1.0 1.5606140561
P  P26  1  0.73392000  0.85258000  0.93509000  1.0 1.5606140561
P  P27  1  0.23392000  0.14742000  0.56491000  1.0 1.5606140561
P  P28  1  0.76608000  0.35258000  0.06491000  1.0 1.5606140561
P  P29  1  0.73392000  0.35258000  0.56491000  1.0 1.5606140561
P  P30  1  0.26608000  0.14742000  0.06491000  1.0 1.5606140561
P  P31  1  0.76608000  0.85258000  0.43509000  1.0 1.5606140561
P  P32  1  0.23392000  0.64742000  0.93509000  1.0 1.5606140561
P  P33  1  0.09289000  0.98801000  0.79496000  1.0 1.5012667709
P  P34  1  0.90711000  0.51199000  0.29496000  1.0 1.4917248024
P  P35  1  0.40711000  0.48801000  0.20504000  1.0 1.4917248024
P  P36  1  0.59289000  0.01199000  0.70504000  1.0 1.4917248024
P  P37  1  0.90711000  0.01199000  0.20504000  1.0 1.4917248024
P  P38  1  0.09289000  0.48801000  0.70504000  1.0 1.5012667709
P  P39  1  0.59289000  0.51199000  0.79496000  1.0 1.4917248024
P  P40  1  0.40711000  0.98801000  0.29496000  1.0 1.4917248024
P  P41  1  0.24858000  0.87365000  0.92706000  1.0 1.5258722438
P  P42  1  0.75142000  0.62635000  0.42706000  1.0 1.5258722438
P  P43  1  0.25142000  0.37365000  0.07294000  1.0 1.5258722438
P  P44  1  0.74858000  0.12635000  0.57294000  1.0 1.5258722438
P  P45  1  0.75142000  0.12635000  0.07294000  1.0 1.5258722438
P  P46  1  0.24858000  0.37365000  0.57294000  1.0 1.5258722438
P  P47  1  0.74858000  0.62635000  0.92706000  1.0 1.5258722438
P  P48  1  0.25142000  0.87365000  0.42706000  1.0 1.5258722438
H  H1  1  0.27400000  0.99800000  0.81800000  1.0 0.4191731384
H  H2  1  0.72600000  0.50200000  0.31800000  1.0 0.4191731384
H  H3  1  0.22600000  0.49800000  0.18200000  1.0 0.4191731384
H  H4  1  0.77400000  0.00200000  0.68200000  1.0 0.4191731384
H  H5  1  0.72600000  0.00200000  0.18200000  1.0 0.4191731384
H  H6  1  0.27400000  0.49800000  0.68200000  1.0 0.4191731384
H  H7  1  0.77400000  0.50200000  0.81800000  1.0 0.4191731384
H  H8  1  0.22600000  0.99800000  0.31800000  1.0 0.4191731384
O  O1  1  0.22198000  0.96682000  0.64574000  1.0 -0.7086560212
O  O2  1  0.77802000  0.53318000  0.14574000  1.0 -0.7086560212
O  O3  1  0.27802000  0.46682000  0.35426000  1.0 -0.7086560212
O  O4  1  0.72198000  0.03318000  0.85426000  1.0 -0.7086560212
O  O5  1  0.77802000  0.03318000  0.35426000  1.0 -0.7086560212
O  O6  1  0.22198000  0.46682000  0.85426000  1.0 -0.7086560212
O  O7  1  0.72198000  0.53318000  0.64574000  1.0 -0.7086560212
O  O8  1  0.27802000  0.96682000  0.14574000  1.0 -0.7086560212
O  O9  1  0.31033000  0.85860000  0.60198000  1.0 -0.6960033344
O  O10  1  0.68967000  0.64140000  0.10198000  1.0 -0.6960033344
O  O11  1  0.18967000  0.35860000  0.39802000  1.0 -0.6960033344
O  O12  1  0.81033000  0.14140000  0.89802000  1.0 -0.6932797299
O  O13  1  0.68967000  0.14140000  0.39802000  1.0 -0.6960033344
O  O14  1  0.31033000  0.35860000  0.89802000  1.0 -0.6932797299
O  O15  1  0.81033000  0.64140000  0.60198000  1.0 -0.6932797299
O  O16  1  0.18967000  0.85860000  0.10198000  1.0 -0.6960033344
O  O17  1  0.26593000  0.86317000  0.72622000  1.0 -0.540783325
O  O18  1  0.73407000  0.63683000  0.22622000  1.0 -0.540783325
O  O19  1  0.23407000  0.36317000  0.27378000  1.0 -0.540783325
O  O20  1  0.76593000  0.13683000  0.77378000  1.0 -0.540783325
O  O21  1  0.73407000  0.13683000  0.27378000  1.0 -0.540783325
O  O22  1  0.26593000  0.36317000  0.77378000  1.0 -0.540783325
O  O23  1  0.76593000  0.63683000  0.72622000  1.0 -0.540783325
O  O24  1  0.23407000  0.86317000  0.22622000  1.0 -0.540783325
O  O25  1  0.15986000  0.84006000  0.63144000  1.0 -0.5669809261
O  O26  1  0.84014000  0.65994000  0.13144000  1.0 -0.5669809261
O  O27  1  0.34014000  0.34006000  0.36856000  1.0 -0.5669809261
O  O28  1  0.65986000  0.15994000  0.86856000  1.0 -0.5669809261
O  O29  1  0.84014000  0.15994000  0.36856000  1.0 -0.5669809261
O  O30  1  0.15986000  0.34006000  0.86856000  1.0 -0.5669809261
O  O31  1  0.65986000  0.65994000  0.63144000  1.0 -0.5669809261
O  O32  1  0.34014000  0.84006000  0.13144000  1.0 -0.5669809261
O  O33  1  0.94919000  0.70349000  0.54298000  1.0 -0.6306059377
O  O34  1  0.05081000  0.79651000  0.04298000  1.0 -0.6306059377
O  O35  1  0.55081000  0.20349000  0.45702000  1.0 -0.6306059377
O  O36  1  0.44919000  0.29651000  0.95702000  1.0 -0.6306059377
O  O37  1  0.05081000  0.29651000  0.45702000  1.0 -0.6306059377
O  O38  1  0.94919000  0.20349000  0.95702000  1.0 -0.6306059377
O  O39  1  0.44919000  0.79651000  0.54298000  1.0 -0.6306059377
O  O40  1  0.55081000  0.70349000  0.04298000  1.0 -0.6306059377
O  O41  1  0.06893000  0.61490000  0.53585000  1.0 -0.7181150651
O  O42  1  0.93107000  0.88510000  0.03585000  1.0 -0.7181150651
O  O43  1  0.43107000  0.11490000  0.46415000  1.0 -0.7181150651
O  O44  1  0.56893000  0.38510000  0.96415000  1.0 -0.7086560212
O  O45  1  0.93107000  0.38510000  0.46415000  1.0 -0.7181150651
O  O46  1  0.06893000  0.11490000  0.96415000  1.0 -0.7181150651
O  O47  1  0.56893000  0.88510000  0.53585000  1.0 -0.7181150651
O  O48  1  0.43107000  0.61490000  0.03585000  1.0 -0.7181150651
O  O49  1  0.07614000  0.73439000  0.60844000  1.0 -0.5876455499
O  O50  1  0.92386000  0.76561000  0.10844000  1.0 -0.5876455499
O  O51  1  0.42386000  0.23439000  0.39156000  1.0 -0.5876455499
O  O52  1  0.57614000  0.26561000  0.89156000  1.0 -0.5876455499
O  O53  1  0.92386000  0.26561000  0.39156000  1.0 -0.5876455499
O  O54  1  0.07614000  0.23439000  0.89156000  1.0 -0.5876455499
O  O55  1  0.57614000  0.76561000  0.60844000  1.0 -0.5876455499
O  O56  1  0.42386000  0.73439000  0.10844000  1.0 -0.5876455499
O  O57  1  0.07573000  0.74314000  0.47996000  1.0 -0.580937567
O  O58  1  0.92427000  0.75686000  0.97996000  1.0 -0.580937567
O  O59  1  0.42427000  0.24314000  0.52004000  1.0 -0.580937567
O  O60  1  0.57573000  0.25686000  0.02004000  1.0 -0.580937567
O  O61  1  0.92427000  0.25686000  0.52004000  1.0 -0.580937567
O  O62  1  0.07573000  0.24314000  0.02004000  1.0 -0.580937567
O  O63  1  0.57573000  0.75686000  0.47996000  1.0 -0.580937567
O  O64  1  0.42427000  0.74314000  0.97996000  1.0 -0.580937567
O  O65  1  0.34523000  0.69748000  0.62375000  1.0 -0.6932797299
O  O66  1  0.65477000  0.80252000  0.12375000  1.0 -0.6960033344
O  O67  1  0.15477000  0.19748000  0.37625000  1.0 -0.6960033344
O  O68  1  0.84523000  0.30252000  0.87625000  1.0 -0.6960033344
O  O69  1  0.65477000  0.30252000  0.37625000  1.0 -0.6960033344
O  O70  1  0.34523000  0.19748000  0.87625000  1.0 -0.6960033344
O  O71  1  0.84523000  0.80252000  0.62375000  1.0 -0.6960033344
O  O72  1  0.15477000  0.69748000  0.12375000  1.0 -0.6960033344
O  O73  1  0.24118000  0.59215000  0.61566000  1.0 -0.7302768247
O  O74  1  0.75882000  0.90785000  0.11566000  1.0 -0.7302768247
O  O75  1  0.25882000  0.09215000  0.38434000  1.0 -0.7302768247
O  O76  1  0.74118000  0.40785000  0.88434000  1.0 -0.7302768247
O  O77  1  0.75882000  0.40785000  0.38434000  1.0 -0.7302768247
O  O78  1  0.24118000  0.09215000  0.88434000  1.0 -0.7302768247
O  O79  1  0.74118000  0.90785000  0.61566000  1.0 -0.7302768247
O  O80  1  0.25882000  0.59215000  0.11566000  1.0 -0.7302768247
O  O81  1  0.29609000  0.63153000  0.73193000  1.0 -0.6828434483
O  O82  1  0.70391000  0.86847000  0.23193000  1.0 -0.6828434483
O  O83  1  0.20391000  0.13153000  0.26807000  1.0 -0.6828434483
O  O84  1  0.79609000  0.36847000  0.76807000  1.0 -0.6828434483
O  O85  1  0.70391000  0.36847000  0.26807000  1.0 -0.6828434483
O  O86  1  0.29609000  0.13153000  0.76807000  1.0 -0.6828434483
O  O87  1  0.79609000  0.86847000  0.73193000  1.0 -0.6828434483
O  O88  1  0.20391000  0.63153000  0.23193000  1.0 -0.6828434483
O  O89  1  0.20166000  0.71721000  0.66844000  1.0 -0.5876455499
O  O90  1  0.79834000  0.78279000  0.16844000  1.0 -0.5950071083
O  O91  1  0.29834000  0.21721000  0.33156000  1.0 -0.5950071083
O  O92  1  0.70166000  0.28279000  0.83156000  1.0 -0.5876455499
O  O93  1  0.79834000  0.28279000  0.33156000  1.0 -0.5950071083
O  O94  1  0.20166000  0.21721000  0.83156000  1.0 -0.5950071083
O  O95  1  0.70166000  0.78279000  0.66844000  1.0 -0.5950071083
O  O96  1  0.29834000  0.71721000  0.16844000  1.0 -0.5950071083
O  O97  1  0.22247000  0.58162000  0.46925000  1.0 -0.7302768247
O  O98  1  0.77753000  0.91838000  0.96925000  1.0 -0.7302768247
O  O99  1  0.27753000  0.08162000  0.53075000  1.0 -0.7302768247
O  O100  1  0.72247000  0.41838000  0.03075000  1.0 -0.7302768247
O  O101  1  0.77753000  0.41838000  0.53075000  1.0 -0.7302768247
O  O102  1  0.22247000  0.08162000  0.03075000  1.0 -0.7302768247
O  O103  1  0.72247000  0.91838000  0.46925000  1.0 -0.7302768247
O  O104  1  0.27753000  0.58162000  0.96925000  1.0 -0.7302768247
O  O105  1  0.29667000  0.62536000  0.36220000  1.0 -0.6597319858
O  O106  1  0.70333000  0.87464000  0.86220000  1.0 -0.6597319858
O  O107  1  0.20333000  0.12536000  0.63780000  1.0 -0.6597319858
O  O108  1  0.79667000  0.37464000  0.13780000  1.0 -0.6597319858
O  O109  1  0.70333000  0.37464000  0.63780000  1.0 -0.6597319858
O  O110  1  0.29667000  0.12536000  0.13780000  1.0 -0.6597319858
O  O111  1  0.79667000  0.87464000  0.36220000  1.0 -0.6597319858
O  O112  1  0.20333000  0.62536000  0.86220000  1.0 -0.6597319858
O  O113  1  0.33940000  0.67589000  0.47894000  1.0 -0.6932797299
O  O114  1  0.66060000  0.82411000  0.97894000  1.0 -0.6932797299
O  O115  1  0.16060000  0.17589000  0.52106000  1.0 -0.6932797299
O  O116  1  0.83940000  0.32411000  0.02106000  1.0 -0.6932797299
O  O117  1  0.66060000  0.32411000  0.52106000  1.0 -0.6932797299
O  O118  1  0.33940000  0.17589000  0.02106000  1.0 -0.6932797299
O  O119  1  0.83940000  0.82411000  0.47894000  1.0 -0.6932797299
O  O120  1  0.16060000  0.67589000  0.97894000  1.0 -0.6932797299
O  O121  1  0.20315000  0.71325000  0.42349000  1.0 -0.612475367
O  O122  1  0.79685000  0.78675000  0.92349000  1.0 -0.612475367
O  O123  1  0.29685000  0.21325000  0.57651000  1.0 -0.612475367
O  O124  1  0.70315000  0.28675000  0.07651000  1.0 -0.612475367
O  O125  1  0.79685000  0.28675000  0.57651000  1.0 -0.612475367
O  O126  1  0.20315000  0.21325000  0.07651000  1.0 -0.612475367
O  O127  1  0.70315000  0.78675000  0.42349000  1.0 -0.612475367
O  O128  1  0.29685000  0.71325000  0.92349000  1.0 -0.612475367
O  O129  1  0.00509000  0.97434000  0.77116000  1.0 -0.580937567
O  O130  1  0.99491000  0.52566000  0.27116000  1.0 -0.580937567
O  O131  1  0.49491000  0.47434000  0.22884000  1.0 -0.580937567
O  O132  1  0.50509000  0.02566000  0.72884000  1.0 -0.580937567
O  O133  1  0.99491000  0.02566000  0.22884000  1.0 -0.580937567
O  O134  1  0.00509000  0.47434000  0.72884000  1.0 -0.580937567
O  O135  1  0.50509000  0.52566000  0.77116000  1.0 -0.580937567
O  O136  1  0.49491000  0.97434000  0.27116000  1.0 -0.5876455499
O  O137  1  0.09666000  0.00211000  0.87363000  1.0 -0.7181150651
O  O138  1  0.90334000  0.49789000  0.37363000  1.0 -0.7181150651
O  O139  1  0.40334000  0.50211000  0.12637000  1.0 -0.7181150651
O  O140  1  0.59666000  0.99789000  0.62637000  1.0 -0.7181150651
O  O141  1  0.90334000  0.99789000  0.12637000  1.0 -0.7181150651
O  O142  1  0.09666000  0.50211000  0.62637000  1.0 -0.7181150651
O  O143  1  0.59666000  0.49789000  0.87363000  1.0 -0.7181150651
O  O144  1  0.40334000  0.00211000  0.37363000  1.0 -0.7181150651
O  O145  1  0.13394000  0.05217000  0.75319000  1.0 -0.7086560212
O  O146  1  0.86606000  0.44783000  0.25319000  1.0 -0.7086560212
O  O147  1  0.36606000  0.55217000  0.24681000  1.0 -0.7086560212
O  O148  1  0.63394000  0.94783000  0.74681000  1.0 -0.7086560212
O  O149  1  0.86606000  0.94783000  0.24681000  1.0 -0.7086560212
O  O150  1  0.13394000  0.55217000  0.74681000  1.0 -0.7086560212
O  O151  1  0.63394000  0.44783000  0.75319000  1.0 -0.7086560212
O  O152  1  0.36606000  0.05217000  0.25319000  1.0 -0.7086560212
O  O153  1  0.14383000  0.91475000  0.77986000  1.0 -0.6220048682
O  O154  1  0.85617000  0.58525000  0.27986000  1.0 -0.6220048682
O  O155  1  0.35617000  0.41475000  0.22014000  1.0 -0.6220048682
O  O156  1  0.64383000  0.08525000  0.72014000  1.0 -0.6220048682
O  O157  1  0.85617000  0.08525000  0.22014000  1.0 -0.6220048682
O  O158  1  0.14383000  0.41475000  0.72014000  1.0 -0.6220048682
O  O159  1  0.64383000  0.58525000  0.77986000  1.0 -0.6220048682
O  O160  1  0.35617000  0.91475000  0.27986000  1.0 -0.6220048682
O  O161  1  0.17604000  0.83096000  0.95757000  1.0 -0.7086560212
O  O162  1  0.82396000  0.66904000  0.45757000  1.0 -0.7086560212
O  O163  1  0.32396000  0.33096000  0.04243000  1.0 -0.7086560212
O  O164  1  0.67604000  0.16904000  0.54243000  1.0 -0.7086560212
O  O165  1  0.82396000  0.16904000  0.04243000  1.0 -0.7086560212
O  O166  1  0.17604000  0.33096000  0.54243000  1.0 -0.7086560212
O  O167  1  0.67604000  0.66904000  0.95757000  1.0 -0.7086560212
O  O168  1  0.32396000  0.83096000  0.45757000  1.0 -0.7086560212
O  O169  1  0.24703000  0.95695000  0.94260000  1.0 -0.7181150651
O  O170  1  0.75297000  0.54305000  0.44260000  1.0 -0.7181150651
O  O171  1  0.25297000  0.45695000  0.05740000  1.0 -0.7181150651
O  O172  1  0.74703000  0.04305000  0.55740000  1.0 -0.7181150651
O  O173  1  0.75297000  0.04305000  0.05740000  1.0 -0.7181150651
O  O174  1  0.24703000  0.45695000  0.55740000  1.0 -0.7181150651
O  O175  1  0.74703000  0.54305000  0.94260000  1.0 -0.7181150651
O  O176  1  0.25297000  0.95695000  0.44260000  1.0 -0.7181150651
O  O177  1  0.25367000  0.85958000  0.84709000  1.0 -0.540783325
O  O178  1  0.74633000  0.64042000  0.34709000  1.0 -0.540783325
O  O179  1  0.24633000  0.35958000  0.15291000  1.0 -0.540783325
O  O180  1  0.75367000  0.14042000  0.65291000  1.0 -0.540783325
O  O181  1  0.74633000  0.14042000  0.15291000  1.0 -0.540783325
O  O182  1  0.25367000  0.35958000  0.65291000  1.0 -0.540783325
O  O183  1  0.75367000  0.64042000  0.84709000  1.0 -0.540783325
O  O184  1  0.24633000  0.85958000  0.34709000  1.0 -0.540783325
O  O185  1  0.33107000  0.84009000  0.95573000  1.0 -0.5669809261
O  O186  1  0.66893000  0.65991000  0.45573000  1.0 -0.5669809261
O  O187  1  0.16893000  0.34009000  0.04427000  1.0 -0.5669809261
O  O188  1  0.83107000  0.15991000  0.54427000  1.0 -0.5669809261
O  O189  1  0.66893000  0.15991000  0.04427000  1.0 -0.5669809261
O  O190  1  0.33107000  0.34009000  0.54427000  1.0 -0.5669809261
O  O191  1  0.83107000  0.65991000  0.95573000  1.0 -0.5669809261
O  O192  1  0.16893000  0.84009000  0.45573000  1.0 -0.5669809261
O  O193  1  0.20581000  0.74854000  0.54494000  1.0 -0.7577806355
O  O194  1  0.79419000  0.75146000  0.04494000  1.0 -0.7577806355
O  O195  1  0.29419000  0.24854000  0.45506000  1.0 -0.7577806355
O  O196  1  0.70581000  0.25146000  0.95506000  1.0 -0.7577806355
O  O197  1  0.79419000  0.25146000  0.45506000  1.0 -0.7577806355
O  O198  1  0.20581000  0.24854000  0.95506000  1.0 -0.7577806355
O  O199  1  0.70581000  0.75146000  0.54494000  1.0 -0.7577806355
O  O200  1  0.29419000  0.74854000  0.04494000  1.0 -0.7577806355
O  O201  1  0.27756000  0.97785000  0.78713000  1.0 -0.6306059377
O  O202  1  0.72244000  0.52215000  0.28713000  1.0 -0.6306059377
O  O203  1  0.22244000  0.47785000  0.21287000  1.0 -0.6306059377
O  O204  1  0.77756000  0.02215000  0.71287000  1.0 -0.6306059377
O  O205  1  0.72244000  0.02215000  0.21287000  1.0 -0.6306059377
O  O206  1  0.27756000  0.47785000  0.71287000  1.0 -0.6306059377
O  O207  1  0.77756000  0.52215000  0.78713000  1.0 -0.6306059377
O  O208  1  0.22244000  0.97785000  0.28713000  1.0 -0.6306059377
