# DDEC6 charges by PACMAN v1.1 (https://github.com/mtap-research/PACMAN-charge/)
data_POQXAV_ion_pacman
_symmetry_space_group_name_H-M   'P 1'
_cell_length_a   7.41060000
_cell_length_b   20.06510000
_cell_length_c   31.18840000
_cell_angle_alpha   90.00000000
_cell_angle_beta   90.00000000
_cell_angle_gamma   90.00000000
_symmetry_Int_Tables_number   1
_chemical_formula_structural   NiH8C10SN2O7
_chemical_formula_sum   'Ni12 H96 C120 S12 N24 O84'
_cell_volume   4637.54136248
_cell_formula_units_Z   12
loop_
 _symmetry_equiv_pos_site_id
 _symmetry_equiv_pos_as_xyz
  1  'x, y, z'
loop_
 _atom_site_type_symbol
 _atom_site_label
 _atom_site_symmetry_multiplicity
 _atom_site_fract_x
 _atom_site_fract_y
 _atom_site_fract_z
 _atom_site_occupancy
 _atom_site_charge
Ni  Ni1  1  0.72255000  0.48365000  0.43188000  1.0 0.9205441139
Ni  Ni2  1  0.27745000  0.51635000  0.93188000  1.0 0.9205441139
Ni  Ni3  1  0.77745000  0.98365000  0.93188000  1.0 0.9205441139
Ni  Ni4  1  0.22255000  0.01635000  0.43188000  1.0 0.9205441139
Ni  Ni5  1  0.42120000  0.01555000  0.76579000  1.0 0.8983773476
Ni  Ni6  1  0.57880000  0.98445000  0.26579000  1.0 0.8983773476
Ni  Ni7  1  0.07880000  0.51555000  0.26579000  1.0 0.8983773476
Ni  Ni8  1  0.92120000  0.48445000  0.76579000  1.0 0.8983773476
Ni  Ni9  1  0.85578000  0.00331000  0.62087000  1.0 0.9205441139
Ni  Ni10  1  0.14422000  0.99669000  0.12087000  1.0 0.9205441139
Ni  Ni11  1  0.64422000  0.50331000  0.12087000  1.0 0.9205441139
Ni  Ni12  1  0.35578000  0.49669000  0.62087000  1.0 0.9205441139
H  H1  1  0.78480000  0.14790000  0.49020000  1.0 0.129903422
H  H2  1  0.21520000  0.85210000  0.99020000  1.0 0.129903422
H  H3  1  0.71520000  0.64790000  0.99020000  1.0 0.129903422
H  H4  1  0.28480000  0.35210000  0.49020000  1.0 0.129903422
H  H5  1  0.89690000  0.33920000  0.55780000  1.0 0.1411781515
H  H6  1  0.10310000  0.66080000  0.05780000  1.0 0.1411781515
H  H7  1  0.60310000  0.83920000  0.05780000  1.0 0.1411781515
H  H8  1  0.39690000  0.16080000  0.55780000  1.0 0.1411781515
H  H9  1  0.41980000  0.56390000  0.70870000  1.0 0.1411781515
H  H10  1  0.58020000  0.43610000  0.20870000  1.0 0.1411781515
H  H11  1  0.08020000  0.06390000  0.20870000  1.0 0.1411781515
H  H12  1  0.91980000  0.93610000  0.70870000  1.0 0.1411781515
H  H13  1  0.35220000  0.84070000  0.65000000  1.0 0.129903422
H  H14  1  0.64780000  0.15930000  0.15000000  1.0 0.129903422
H  H15  1  0.14780000  0.34070000  0.15000000  1.0 0.129903422
H  H16  1  0.85220000  0.65930000  0.65000000  1.0 0.129903422
H  H17  1  0.36980000  0.94430000  0.67980000  1.0 0.1207883845
H  H18  1  0.63020000  0.05570000  0.17980000  1.0 0.1207883845
H  H19  1  0.13020000  0.44430000  0.17980000  1.0 0.1207883845
H  H20  1  0.86980000  0.55570000  0.67980000  1.0 0.1207883845
H  H21  1  0.65690000  0.33200000  0.42410000  1.0 0.1207883845
H  H22  1  0.34310000  0.66800000  0.92410000  1.0 0.1207883845
H  H23  1  0.84310000  0.83200000  0.92410000  1.0 0.1207883845
H  H24  1  0.15690000  0.16800000  0.42410000  1.0 0.1207883845
H  H25  1  0.30720000  0.74560000  0.62490000  1.0 0.129903422
H  H26  1  0.69280000  0.25440000  0.12490000  1.0 0.129903422
H  H27  1  0.19280000  0.24560000  0.12490000  1.0 0.129903422
H  H28  1  0.80720000  0.75440000  0.62490000  1.0 0.129903422
H  H29  1  0.48340000  0.26570000  0.78270000  1.0 0.129903422
H  H30  1  0.51660000  0.73430000  0.28270000  1.0 0.129903422
H  H31  1  0.01660000  0.76570000  0.28270000  1.0 0.129903422
H  H32  1  0.98340000  0.23430000  0.78270000  1.0 0.129903422
H  H33  1  0.36560000  0.35720000  0.80810000  1.0 0.129903422
H  H34  1  0.63440000  0.64280000  0.30810000  1.0 0.129903422
H  H35  1  0.13440000  0.85720000  0.30810000  1.0 0.129903422
H  H36  1  0.86560000  0.14280000  0.80810000  1.0 0.129903422
H  H37  1  0.85740000  0.43310000  0.51890000  1.0 0.129903422
H  H38  1  0.14260000  0.56690000  0.01890000  1.0 0.129903422
H  H39  1  0.64260000  0.93310000  0.01890000  1.0 0.129903422
H  H40  1  0.35740000  0.06690000  0.51890000  1.0 0.129903422
H  H41  1  0.50940000  0.16330000  0.75110000  1.0 0.1207883845
H  H42  1  0.49060000  0.83670000  0.25110000  1.0 0.1207883845
H  H43  1  0.99060000  0.66330000  0.25110000  1.0 0.1207883845
H  H44  1  0.00940000  0.33670000  0.75110000  1.0 0.1207883845
H  H45  1  0.43430000  0.66780000  0.73910000  1.0 0.1411781515
H  H46  1  0.56570000  0.33220000  0.23910000  1.0 0.1411781515
H  H47  1  0.06570000  0.16780000  0.23910000  1.0 0.1411781515
H  H48  1  0.93430000  0.83220000  0.73910000  1.0 0.1411781515
H  H49  1  0.30950000  0.07550000  0.85090000  1.0 0.129903422
H  H50  1  0.69050000  0.92450000  0.35090000  1.0 0.129903422
H  H51  1  0.19050000  0.57550000  0.35090000  1.0 0.129903422
H  H52  1  0.80950000  0.42450000  0.85090000  1.0 0.129903422
H  H53  1  0.29250000  0.64020000  0.59810000  1.0 0.1207883845
H  H54  1  0.70750000  0.35980000  0.09810000  1.0 0.1207883845
H  H55  1  0.20750000  0.14020000  0.09810000  1.0 0.1207883845
H  H56  1  0.79250000  0.85980000  0.59810000  1.0 0.1207883845
H  H57  1  0.29040000  0.17490000  0.88720000  1.0 0.1411781515
H  H58  1  0.70960000  0.82510000  0.38720000  1.0 0.1411781515
H  H59  1  0.20960000  0.67490000  0.38720000  1.0 0.1411781515
H  H60  1  0.79040000  0.32510000  0.88720000  1.0 0.1411781515
H  H61  1  0.81070000  0.05190000  0.52960000  1.0 0.129903422
H  H62  1  0.18930000  0.94810000  0.02960000  1.0 0.129903422
H  H63  1  0.68930000  0.55190000  0.02960000  1.0 0.129903422
H  H64  1  0.31070000  0.44810000  0.52960000  1.0 0.129903422
H  H65  1  0.88280000  0.25260000  0.59670000  1.0 0.1411781515
H  H66  1  0.11720000  0.74740000  0.09670000  1.0 0.1411781515
H  H67  1  0.61720000  0.75260000  0.09670000  1.0 0.1411781515
H  H68  1  0.38280000  0.24740000  0.59670000  1.0 0.1411781515
H  H69  1  0.70160000  0.23510000  0.46040000  1.0 0.129903422
H  H70  1  0.29840000  0.76490000  0.96040000  1.0 0.129903422
H  H71  1  0.79840000  0.73510000  0.96040000  1.0 0.129903422
H  H72  1  0.20160000  0.26490000  0.46040000  1.0 0.129903422
H  H73  1  0.43210000  0.76300000  0.76550000  1.0 0.1411781515
H  H74  1  0.56790000  0.23700000  0.26550000  1.0 0.1411781515
H  H75  1  0.06790000  0.26300000  0.26550000  1.0 0.1411781515
H  H76  1  0.93210000  0.73700000  0.76550000  1.0 0.1411781515
H  H77  1  0.91790000  0.15380000  0.63270000  1.0 0.129903422
H  H78  1  0.08210000  0.84620000  0.13270000  1.0 0.129903422
H  H79  1  0.58210000  0.65380000  0.13270000  1.0 0.129903422
H  H80  1  0.41790000  0.34620000  0.63270000  1.0 0.129903422
H  H81  1  0.34450000  0.26480000  0.92080000  1.0 0.1411781515
H  H82  1  0.65550000  0.73520000  0.42080000  1.0 0.1411781515
H  H83  1  0.15550000  0.76480000  0.42080000  1.0 0.1411781515
H  H84  1  0.84450000  0.23520000  0.92080000  1.0 0.1411781515
H  H85  1  0.32840000  0.45440000  0.84350000  1.0 0.1207883845
H  H86  1  0.67160000  0.54560000  0.34350000  1.0 0.1207883845
H  H87  1  0.17160000  0.95440000  0.34350000  1.0 0.1207883845
H  H88  1  0.82840000  0.04560000  0.84350000  1.0 0.1207883845
H  H89  1  0.46610000  0.86890000  0.79080000  1.0 0.129903422
H  H90  1  0.53390000  0.13110000  0.29080000  1.0 0.129903422
H  H91  1  0.03390000  0.36890000  0.29080000  1.0 0.129903422
H  H92  1  0.96610000  0.63110000  0.79080000  1.0 0.129903422
H  H93  1  0.30280000  0.36660000  0.95210000  1.0 0.1411781515
H  H94  1  0.69720000  0.63340000  0.45210000  1.0 0.1411781515
H  H95  1  0.19720000  0.86660000  0.45210000  1.0 0.1411781515
H  H96  1  0.80280000  0.13340000  0.95210000  1.0 0.1411781515
C  C1  1  0.80850000  0.15053000  0.51942000  1.0 -0.1890594273
C  C2  1  0.19150000  0.84947000  0.01942000  1.0 -0.1890594273
C  C3  1  0.69150000  0.65053000  0.01942000  1.0 -0.1890594273
C  C4  1  0.30850000  0.34947000  0.51942000  1.0 -0.1890594273
C  C5  1  0.84780000  0.33616000  0.53043000  1.0 -0.1890594273
C  C6  1  0.15220000  0.66384000  0.03043000  1.0 -0.1890594273
C  C7  1  0.65220000  0.83616000  0.03043000  1.0 -0.1890594273
C  C8  1  0.34780000  0.16384000  0.53043000  1.0 -0.1890594273
C  C9  1  0.39720000  0.60088000  0.69161000  1.0 0.0998216407
C  C10  1  0.60280000  0.39912000  0.19161000  1.0 0.0998216407
C  C11  1  0.10280000  0.10088000  0.19161000  1.0 0.0998216407
C  C12  1  0.89720000  0.89912000  0.69161000  1.0 0.0998216407
C  C13  1  0.37270000  0.84474000  0.67933000  1.0 -0.1991625634
C  C14  1  0.62730000  0.15526000  0.17933000  1.0 -0.1991625634
C  C15  1  0.12730000  0.34474000  0.17933000  1.0 -0.1991625634
C  C16  1  0.87270000  0.65526000  0.67933000  1.0 -0.1991625634
C  C17  1  0.80140000  0.27576000  0.51464000  1.0 0.0912319809
C  C18  1  0.19860000  0.72424000  0.01464000  1.0 0.0912319809
C  C19  1  0.69860000  0.77576000  0.01464000  1.0 0.0912319809
C  C20  1  0.30140000  0.22424000  0.51464000  1.0 0.0912319809
C  C21  1  0.38500000  0.90735000  0.69745000  1.0 0.0912319809
C  C22  1  0.61500000  0.09265000  0.19745000  1.0 0.0912319809
C  C23  1  0.11500000  0.40735000  0.19745000  1.0 0.0912319809
C  C24  1  0.88500000  0.59265000  0.69745000  1.0 0.0912319809
C  C25  1  0.37650000  0.71953000  0.68548000  1.0 0.0912319809
C  C26  1  0.62350000  0.28047000  0.18548000  1.0 0.0912319809
C  C27  1  0.12350000  0.21953000  0.18548000  1.0 0.0912319809
C  C28  1  0.87650000  0.78047000  0.68548000  1.0 0.0912319809
C  C29  1  0.70790000  0.33390000  0.45128000  1.0 0.0825014831
C  C30  1  0.29210000  0.66610000  0.95128000  1.0 0.0825014831
C  C31  1  0.79210000  0.83390000  0.95128000  1.0 0.0825014831
C  C32  1  0.20790000  0.16610000  0.45128000  1.0 0.0825014831
C  C33  1  0.33150000  0.70943000  0.64266000  1.0 -0.1991625634
C  C34  1  0.66850000  0.29057000  0.14266000  1.0 -0.1991625634
C  C35  1  0.16850000  0.20943000  0.14266000  1.0 -0.1991625634
C  C36  1  0.83150000  0.79057000  0.64266000  1.0 -0.1991625634
C  C37  1  0.44780000  0.22770000  0.79749000  1.0 -0.1991625634
C  C38  1  0.55220000  0.77230000  0.29749000  1.0 -0.1991625634
C  C39  1  0.05220000  0.72770000  0.29749000  1.0 -0.1991625634
C  C40  1  0.94780000  0.27230000  0.79749000  1.0 -0.1991625634
C  C41  1  0.39050000  0.78826000  0.70395000  1.0 0.0912319809
C  C42  1  0.60950000  0.21174000  0.20395000  1.0 0.0912319809
C  C43  1  0.10950000  0.28826000  0.20395000  1.0 0.0912319809
C  C44  1  0.89050000  0.71174000  0.70395000  1.0 0.0912319809
C  C45  1  0.35280000  0.35702000  0.83778000  1.0 -0.1827615612
C  C46  1  0.64720000  0.64298000  0.33778000  1.0 -0.1827615612
C  C47  1  0.14720000  0.85702000  0.33778000  1.0 -0.1827615612
C  C48  1  0.85280000  0.14298000  0.83778000  1.0 -0.1827615612
C  C49  1  0.82840000  0.21229000  0.53875000  1.0 0.0912319809
C  C50  1  0.17160000  0.78771000  0.03875000  1.0 0.0998216407
C  C51  1  0.67160000  0.71229000  0.03875000  1.0 0.0998216407
C  C52  1  0.32840000  0.28771000  0.53875000  1.0 0.0912319809
C  C53  1  0.38070000  0.23255000  0.83863000  1.0 0.0912319809
C  C54  1  0.61930000  0.76745000  0.33863000  1.0 0.0912319809
C  C55  1  0.11930000  0.73255000  0.33863000  1.0 0.0912319809
C  C56  1  0.88070000  0.26745000  0.83863000  1.0 0.0912319809
C  C57  1  0.82360000  0.39263000  0.50674000  1.0 0.0825014831
C  C58  1  0.17640000  0.60737000  0.00674000  1.0 0.0825014831
C  C59  1  0.67640000  0.89263000  0.00674000  1.0 0.0825014831
C  C60  1  0.32360000  0.10737000  0.50674000  1.0 0.0825014831
C  C61  1  0.46150000  0.16566000  0.77865000  1.0 0.0912319809
C  C62  1  0.53850000  0.83434000  0.27865000  1.0 0.0912319809
C  C63  1  0.03850000  0.66566000  0.27865000  1.0 0.0912319809
C  C64  1  0.96150000  0.33434000  0.77865000  1.0 0.0912319809
C  C65  1  0.40710000  0.66349000  0.71014000  1.0 -0.171147544
C  C66  1  0.59290000  0.33651000  0.21014000  1.0 -0.171147544
C  C67  1  0.09290000  0.16349000  0.21014000  1.0 -0.171147544
C  C68  1  0.90710000  0.83651000  0.71014000  1.0 -0.171147544
C  C69  1  0.34660000  0.11420000  0.83709000  1.0 0.0998216407
C  C70  1  0.65340000  0.88580000  0.33709000  1.0 0.0998216407
C  C71  1  0.15340000  0.61420000  0.33709000  1.0 0.0998216407
C  C72  1  0.84660000  0.38580000  0.83709000  1.0 0.0998216407
C  C73  1  0.32320000  0.64579000  0.62679000  1.0 0.0912319809
C  C74  1  0.67680000  0.35421000  0.12679000  1.0 0.0912319809
C  C75  1  0.17680000  0.14579000  0.12679000  1.0 0.0912319809
C  C76  1  0.82320000  0.85421000  0.62679000  1.0 0.0912319809
C  C77  1  0.33220000  0.17412000  0.85905000  1.0 -0.1610187349
C  C78  1  0.66780000  0.82588000  0.35905000  1.0 -0.1610187349
C  C79  1  0.16780000  0.67412000  0.35905000  1.0 -0.1610187349
C  C80  1  0.83220000  0.32588000  0.85905000  1.0 -0.1610187349
C  C81  1  0.82370000  0.09272000  0.54339000  1.0 0.0998216407
C  C82  1  0.17630000  0.90728000  0.04339000  1.0 0.0998216407
C  C83  1  0.67630000  0.59272000  0.04339000  1.0 0.0998216407
C  C84  1  0.32370000  0.40728000  0.54339000  1.0 0.0998216407
C  C85  1  0.35740000  0.29802000  0.86018000  1.0 0.0825014831
C  C86  1  0.64260000  0.70198000  0.36018000  1.0 0.0825014831
C  C87  1  0.14260000  0.79802000  0.36018000  1.0 0.0825014831
C  C88  1  0.85740000  0.20198000  0.86018000  1.0 0.0825014831
C  C89  1  0.86780000  0.21246000  0.58223000  1.0 -0.171147544
C  C90  1  0.13220000  0.78754000  0.08223000  1.0 -0.171147544
C  C91  1  0.63220000  0.71246000  0.08223000  1.0 -0.171147544
C  C92  1  0.36780000  0.28754000  0.58223000  1.0 -0.171147544
C  C93  1  0.73200000  0.27535000  0.47325000  1.0 -0.1991625634
C  C94  1  0.26800000  0.72465000  0.97325000  1.0 -0.1991625634
C  C95  1  0.76800000  0.77535000  0.97325000  1.0 -0.1991625634
C  C96  1  0.23200000  0.22465000  0.47325000  1.0 -0.1991625634
C  C97  1  0.42190000  0.79895000  0.74677000  1.0 -0.171147544
C  C98  1  0.57810000  0.20105000  0.24677000  1.0 -0.171147544
C  C99  1  0.07810000  0.29895000  0.24677000  1.0 -0.171147544
C  C100  1  0.92190000  0.70105000  0.74677000  1.0 -0.171147544
C  C101  1  0.88490000  0.15250000  0.60399000  1.0 0.1117393969
C  C102  1  0.11510000  0.84750000  0.10399000  1.0 0.1117393969
C  C103  1  0.61510000  0.65250000  0.10399000  1.0 0.1117393969
C  C104  1  0.38490000  0.34750000  0.60399000  1.0 0.1117393969
C  C105  1  0.33980000  0.30284000  0.90386000  1.0 -0.1379794114
C  C106  1  0.66020000  0.69716000  0.40386000  1.0 -0.1379794114
C  C107  1  0.16020000  0.80284000  0.40386000  1.0 -0.1379794114
C  C108  1  0.83980000  0.19716000  0.90386000  1.0 -0.1379794114
C  C109  1  0.32930000  0.41535000  0.85958000  1.0 0.0825014831
C  C110  1  0.67070000  0.58465000  0.35958000  1.0 0.0825014831
C  C111  1  0.17070000  0.91535000  0.35958000  1.0 0.0825014831
C  C112  1  0.82930000  0.08465000  0.85958000  1.0 0.0825014831
C  C113  1  0.43820000  0.86335000  0.76192000  1.0 0.0912319809
C  C114  1  0.56180000  0.13665000  0.26192000  1.0 0.0912319809
C  C115  1  0.06180000  0.36335000  0.26192000  1.0 0.0912319809
C  C116  1  0.93820000  0.63665000  0.76192000  1.0 0.0912319809
C  C117  1  0.31520000  0.36478000  0.92246000  1.0 0.0998216407
C  C118  1  0.68480000  0.63522000  0.42246000  1.0 0.0998216407
C  C119  1  0.18480000  0.86478000  0.42246000  1.0 0.0998216407
C  C120  1  0.81520000  0.13522000  0.92246000  1.0 0.0998216407
S  S1  1  0.52022000  0.08309000  0.66918000  1.0 1.3988234586
S  S2  1  0.47978000  0.91691000  0.16918000  1.0 1.3988234586
S  S3  1  0.97978000  0.58309000  0.16918000  1.0 1.3988234586
S  S4  1  0.02022000  0.41691000  0.66918000  1.0 1.3988234586
S  S5  1  0.56787000  0.40589000  0.34284000  1.0 1.3734434134
S  S6  1  0.43213000  0.59411000  0.84284000  1.0 1.3734434134
S  S7  1  0.93213000  0.90589000  0.84284000  1.0 1.3734434134
S  S8  1  0.06787000  0.09411000  0.34284000  1.0 1.3734434134
S  S9  1  0.71442000  0.88942000  0.48807000  1.0 1.3411145992
S  S10  1  0.28558000  0.11058000  0.98807000  1.0 1.3411145992
S  S11  1  0.78558000  0.38942000  0.98807000  1.0 1.3411145992
S  S12  1  0.21442000  0.61058000  0.48807000  1.0 1.3411145992
N  N1  1  0.85670000  0.09337000  0.58606000  1.0 -0.2703184479
N  N2  1  0.14330000  0.90663000  0.08606000  1.0 -0.2703184479
N  N3  1  0.64330000  0.59337000  0.08606000  1.0 -0.2703184479
N  N4  1  0.35670000  0.40663000  0.58606000  1.0 -0.2703184479
N  N5  1  0.35690000  0.59100000  0.65036000  1.0 -0.2613849256
N  N6  1  0.64310000  0.40900000  0.15036000  1.0 -0.2613849256
N  N7  1  0.14310000  0.09100000  0.15036000  1.0 -0.2613849256
N  N8  1  0.85690000  0.90900000  0.65036000  1.0 -0.2613849256
N  N9  1  0.41720000  0.91750000  0.73853000  1.0 -0.2703184479
N  N10  1  0.58280000  0.08250000  0.23853000  1.0 -0.2613849256
N  N11  1  0.08280000  0.41750000  0.23853000  1.0 -0.2613849256
N  N12  1  0.91720000  0.58250000  0.73853000  1.0 -0.2703184479
N  N13  1  0.41070000  0.10883000  0.79723000  1.0 -0.2703184479
N  N14  1  0.58930000  0.89117000  0.29723000  1.0 -0.2703184479
N  N15  1  0.08930000  0.60883000  0.29723000  1.0 -0.2703184479
N  N16  1  0.91070000  0.39117000  0.79723000  1.0 -0.2703184479
N  N17  1  0.75400000  0.39342000  0.46700000  1.0 -0.2520417423
N  N18  1  0.24600000  0.60658000  0.96700000  1.0 -0.2520417423
N  N19  1  0.74600000  0.89342000  0.96700000  1.0 -0.2520417423
N  N20  1  0.25400000  0.10658000  0.46700000  1.0 -0.2520417423
N  N21  1  0.30800000  0.42120000  0.90121000  1.0 -0.2778610476
N  N22  1  0.69200000  0.57880000  0.40121000  1.0 -0.2778610476
N  N23  1  0.19200000  0.92120000  0.40121000  1.0 -0.2778610476
N  N24  1  0.80800000  0.07880000  0.90121000  1.0 -0.2778610476
O  O1  1  0.40880000  0.06341000  0.70626000  1.0 -0.6183460418
O  O2  1  0.59120000  0.93659000  0.20626000  1.0 -0.6183460418
O  O3  1  0.09120000  0.56341000  0.20626000  1.0 -0.6183460418
O  O4  1  0.90880000  0.43659000  0.70626000  1.0 -0.6183460418
O  O5  1  0.70930000  0.43208000  0.37158000  1.0 -0.6563948506
O  O6  1  0.29070000  0.56792000  0.87158000  1.0 -0.6563948506
O  O7  1  0.79070000  0.93208000  0.87158000  1.0 -0.6563948506
O  O8  1  0.20930000  0.06792000  0.37158000  1.0 -0.6563948506
O  O9  1  0.69340000  0.04471000  0.67055000  1.0 -0.6394627505
O  O10  1  0.30660000  0.95529000  0.17055000  1.0 -0.6394627505
O  O11  1  0.80660000  0.54471000  0.17055000  1.0 -0.6394627505
O  O12  1  0.19340000  0.45529000  0.67055000  1.0 -0.6394627505
O  O13  1  0.69810000  0.02012000  0.76068000  1.0 -0.1289122686
O  O14  1  0.30190000  0.97988000  0.26068000  1.0 -0.1289122686
O  O15  1  0.80190000  0.52012000  0.26068000  1.0 -0.1289122686
O  O16  1  0.19810000  0.47988000  0.76068000  1.0 -0.1289122686
O  O17  1  0.44780000  0.47537000  0.43905000  1.0 -0.1531243512
O  O18  1  0.55220000  0.52463000  0.93905000  1.0 -0.1531243512
O  O19  1  0.05220000  0.97537000  0.93905000  1.0 -0.1531243512
O  O20  1  0.94780000  0.02463000  0.43905000  1.0 -0.1531243512
O  O21  1  0.14420000  0.01665000  0.76482000  1.0 -0.0870101465
O  O22  1  0.85580000  0.98335000  0.26482000  1.0 -0.0870101465
O  O23  1  0.35580000  0.51665000  0.26482000  1.0 -0.0870101465
O  O24  1  0.64420000  0.48335000  0.76482000  1.0 -0.0846690648
O  O25  1  0.99230000  0.48459000  0.42059000  1.0 -0.0023853942
O  O26  1  0.00770000  0.51541000  0.92059000  1.0 -0.0023853942
O  O27  1  0.50770000  0.98459000  0.92059000  1.0 -0.0023853942
O  O28  1  0.49230000  0.01541000  0.42059000  1.0 -0.0023853942
O  O29  1  0.43310000  0.96927000  0.82596000  1.0 -0.1610187349
O  O30  1  0.56690000  0.03073000  0.32596000  1.0 -0.1610187349
O  O31  1  0.06690000  0.46927000  0.32596000  1.0 -0.1610187349
O  O32  1  0.93310000  0.53073000  0.82596000  1.0 -0.1610187349
O  O33  1  0.07650000  0.03259000  0.65609000  1.0 -0.2092135736
O  O34  1  0.92350000  0.96741000  0.15609000  1.0 -0.2092135736
O  O35  1  0.42350000  0.53259000  0.15609000  1.0 -0.2092135736
O  O36  1  0.57650000  0.46741000  0.65609000  1.0 -0.2092135736
O  O37  1  0.75040000  0.53431000  0.48959000  1.0 -0.1890594273
O  O38  1  0.24960000  0.46569000  0.98959000  1.0 -0.1890594273
O  O39  1  0.74960000  0.03431000  0.98959000  1.0 -0.1827615612
O  O40  1  0.25040000  0.96569000  0.48959000  1.0 -0.1890594273
O  O41  1  0.62290000  0.97479000  0.58927000  1.0 -0.2249699348
O  O42  1  0.37710000  0.02521000  0.08927000  1.0 -0.2249699348
O  O43  1  0.87710000  0.47479000  0.08927000  1.0 -0.2249699348
O  O44  1  0.12290000  0.52521000  0.58927000  1.0 -0.2249699348
O  O45  1  0.02910000  0.96539000  0.57506000  1.0 -0.1379794114
O  O46  1  0.97090000  0.03461000  0.07506000  1.0 -0.1289122686
O  O47  1  0.47090000  0.46539000  0.07506000  1.0 -0.1289122686
O  O48  1  0.52910000  0.53461000  0.57506000  1.0 -0.1289122686
O  O49  1  0.59070000  0.43326000  0.29981000  1.0 -0.4697840215
O  O50  1  0.40930000  0.56674000  0.79981000  1.0 -0.4697840215
O  O51  1  0.90930000  0.93326000  0.79981000  1.0 -0.4697840215
O  O52  1  0.09070000  0.06674000  0.29981000  1.0 -0.4697840215
O  O53  1  0.55650000  0.15427000  0.67111000  1.0 -0.6183460418
O  O54  1  0.44350000  0.84573000  0.17111000  1.0 -0.6183460418
O  O55  1  0.94350000  0.65427000  0.17111000  1.0 -0.6183460418
O  O56  1  0.05650000  0.34573000  0.67111000  1.0 -0.6183460418
O  O57  1  0.42100000  0.06695000  0.62968000  1.0 -0.5097845906
O  O58  1  0.57900000  0.93305000  0.12968000  1.0 -0.5097845906
O  O59  1  0.07900000  0.56695000  0.12968000  1.0 -0.5097845906
O  O60  1  0.92100000  0.43305000  0.62968000  1.0 -0.5097845906
O  O61  1  0.38940000  0.42590000  0.35891000  1.0 -0.4798450098
O  O62  1  0.61060000  0.57410000  0.85891000  1.0 -0.4798450098
O  O63  1  0.11060000  0.92590000  0.85891000  1.0 -0.4798450098
O  O64  1  0.88940000  0.07410000  0.35891000  1.0 -0.4798450098
O  O65  1  0.58270000  0.33391000  0.34055000  1.0 -0.6183460418
O  O66  1  0.41730000  0.66609000  0.84055000  1.0 -0.6183460418
O  O67  1  0.91730000  0.83391000  0.84055000  1.0 -0.6183460418
O  O68  1  0.08270000  0.16609000  0.34055000  1.0 -0.6183460418
O  O69  1  0.69610000  0.91606000  0.44479000  1.0 -0.4932532423
O  O70  1  0.88220000  0.91906000  0.50604000  1.0 -0.4697840215
O  O71  1  0.55980000  0.91018000  0.51549000  1.0 -0.4798450098
O  O72  1  0.73130000  0.81797000  0.48659000  1.0 -0.5759138578
O  O73  1  0.30390000  0.08394000  0.94479000  1.0 -0.4932532423
O  O74  1  0.11780000  0.08094000  0.00604000  1.0 -0.4697840215
O  O75  1  0.44020000  0.08982000  0.01549000  1.0 -0.4798450098
O  O76  1  0.26870000  0.18203000  0.98659000  1.0 -0.5759138578
O  O77  1  0.80390000  0.41606000  0.94479000  1.0 -0.4932532423
O  O78  1  0.61780000  0.41906000  0.00604000  1.0 -0.4697840215
O  O79  1  0.94020000  0.41018000  0.01549000  1.0 -0.4798450098
O  O80  1  0.76870000  0.31797000  0.98659000  1.0 -0.5759138578
O  O81  1  0.19610000  0.58394000  0.44479000  1.0 -0.4932532423
O  O82  1  0.38220000  0.58094000  0.50604000  1.0 -0.4697840215
O  O83  1  0.05980000  0.58982000  0.51549000  1.0 -0.4798450098
O  O84  1  0.23130000  0.68203000  0.48659000  1.0 -0.5759138578
