# DDEC6 charges by PACMAN v1.1 (https://github.com/mtap-research/PACMAN-charge/)
data_PORREW_ASR_pacman
_symmetry_space_group_name_H-M   'P 1'
_cell_length_a   15.22050000
_cell_length_b   15.50010000
_cell_length_c   15.56390000
_cell_angle_alpha   97.56500000
_cell_angle_beta   87.78700000
_cell_angle_gamma   116.24500000
_symmetry_Int_Tables_number   1
_chemical_formula_structural   CuB10H27C20NO5
_chemical_formula_sum   'Cu4 B40 H108 C80 N4 O20'
_cell_volume   3263.84254300
_cell_formula_units_Z   4
loop_
 _symmetry_equiv_pos_site_id
 _symmetry_equiv_pos_as_xyz
  1  'x, y, z'
loop_
 _atom_site_type_symbol
 _atom_site_label
 _atom_site_symmetry_multiplicity
 _atom_site_fract_x
 _atom_site_fract_y
 _atom_site_fract_z
 _atom_site_occupancy
 _atom_site_charge
Cu  Cu1  1  0.04634000  0.06087000  0.94339000  1.0 0.8092432737
Cu  Cu2  1  0.93929000  0.94376000  0.43547000  1.0 0.8184285282
Cu  Cu3  1  0.95366000  0.93913000  0.05661000  1.0 0.8092432737
Cu  Cu4  1  0.06071000  0.05624000  0.56453000  1.0 0.8184285282
B  B1  1  0.83980000  0.51670000  0.53800000  1.0 -0.1819424014
B  B2  1  0.47030000  0.14990000  0.07730000  1.0 -0.1609353986
B  B3  1  0.75440000  0.44130000  0.60930000  1.0 -0.1609353986
B  B4  1  0.78370000  0.57740000  0.49030000  1.0 -0.2566306174
B  B5  1  0.65260000  0.35290000  0.54650000  1.0 -0.1498877884
B  B6  1  0.55280000  0.23360000  0.16080000  1.0 -0.1819424014
B  B7  1  0.79160000  0.47500000  0.43140000  1.0 -0.2281917017
B  B8  1  0.67450000  0.37400000  0.43710000  1.0 -0.198481884
B  B9  1  0.64610000  0.45590000  0.60500000  1.0 -0.1819424014
B  B10  1  0.40430000  0.20600000  0.03850000  1.0 -0.2281917017
B  B11  1  0.50350000  0.19930000  0.97920000  1.0 -0.198481884
B  B12  1  0.68230000  0.48930000  0.42760000  1.0 -0.2405163577
B  B13  1  0.44690000  0.32410000  0.09650000  1.0 -0.2281917017
B  B14  1  0.60670000  0.31420000  0.00200000  1.0 -0.2281917017
B  B15  1  0.63800000  0.33460000  0.11280000  1.0 -0.198481884
B  B16  1  0.48890000  0.30800000  0.99080000  1.0 -0.2405163577
B  B17  1  0.66450000  0.54040000  0.53160000  1.0 -0.198481884
B  B18  1  0.53890000  0.34130000  0.17130000  1.0 -0.2405163577
B  B19  1  0.59700000  0.41420000  0.49780000  1.0 -0.198481884
B  B20  1  0.57130000  0.39000000  0.07290000  1.0 -0.2566306174
B  B21  1  0.16020000  0.48330000  0.46200000  1.0 -0.1819424014
B  B22  1  0.52970000  0.85010000  0.92270000  1.0 -0.1609353986
B  B23  1  0.24560000  0.55870000  0.39070000  1.0 -0.1609353986
B  B24  1  0.21630000  0.42260000  0.50970000  1.0 -0.2566306174
B  B25  1  0.34740000  0.64710000  0.45350000  1.0 -0.1498877884
B  B26  1  0.44720000  0.76640000  0.83920000  1.0 -0.1819424014
B  B27  1  0.20840000  0.52500000  0.56860000  1.0 -0.2281917017
B  B28  1  0.32550000  0.62600000  0.56290000  1.0 -0.198481884
B  B29  1  0.35390000  0.54410000  0.39500000  1.0 -0.1819424014
B  B30  1  0.59570000  0.79400000  0.96150000  1.0 -0.2281917017
B  B31  1  0.49650000  0.80070000  0.02080000  1.0 -0.198481884
B  B32  1  0.31770000  0.51070000  0.57240000  1.0 -0.2405163577
B  B33  1  0.55310000  0.67590000  0.90350000  1.0 -0.2242873118
B  B34  1  0.39330000  0.68580000  0.99800000  1.0 -0.2242873118
B  B35  1  0.36200000  0.66540000  0.88720000  1.0 -0.1941645474
B  B36  1  0.51110000  0.69200000  0.00920000  1.0 -0.2405163577
B  B37  1  0.33550000  0.45960000  0.46840000  1.0 -0.198481884
B  B38  1  0.46110000  0.65870000  0.82870000  1.0 -0.2405163577
B  B39  1  0.40300000  0.58580000  0.50220000  1.0 -0.198481884
B  B40  1  0.42870000  0.61000000  0.92710000  1.0 -0.2546737672
H  H1  1  0.78209000  0.68770000  0.87410000  1.0 0.2123792538
H  H2  1  0.97542000  0.85088000  0.71227000  1.0 0.1503925032
H  H3  1  0.15041000  0.00488000  0.22865000  1.0 0.1388228598
H  H4  1  0.30834000  0.21948000  0.41163000  1.0 0.238633716
H  H5  1  0.98124000  0.29205000  0.59518000  1.0 0.1601966999
H  H6  1  0.71874000  0.22825000  0.93373000  1.0 0.2192217528
H  H7  1  0.27312000  0.06963000  0.13170000  1.0 0.1601966999
H  H8  1  0.42898000  0.28575000  0.31442000  1.0 0.317542982
H  H9  1  0.90974000  0.72603000  0.60131000  1.0 0.1690138474
H  H10  1  0.91086000  0.39671000  0.60200000  1.0 0.238633716
H  H11  1  0.71485000  0.56303000  0.76257000  1.0 0.2569406449
H  H12  1  0.82495000  0.15891000  0.91291000  1.0 0.1388228598
H  H13  1  0.74844000  0.24498000  0.39082000  1.0 0.238633716
H  H14  1  0.81914000  0.14003000  0.38451000  1.0 0.1503925032
H  H15  1  0.71698000  0.01849000  0.11729000  1.0 0.182342258
H  H16  1  0.91928000  0.55023000  0.55118000  1.0 -0.010415807
H  H17  1  0.61152000  0.08857000  0.13877000  1.0 0.2733291357
H  H18  1  0.43746000  0.07104000  0.07848000  1.0 -0.0233896613
H  H19  1  0.77825000  0.42579000  0.66880000  1.0 -0.090677596
H  H20  1  0.82598000  0.65101000  0.47273000  1.0 0.028198976
H  H21  1  0.61052000  0.27950000  0.56452000  1.0 -0.1193373383
H  H22  1  0.57327000  0.20931000  0.21679000  1.0 -0.0233896613
H  H23  1  0.83898000  0.48036000  0.37520000  1.0 0.0585153656
H  H24  1  0.64613000  0.31370000  0.38403000  1.0 -0.0296680747
H  H25  1  0.59941000  0.45072000  0.66175000  1.0 -0.0296680747
H  H26  1  0.32782000  0.16443000  0.01509000  1.0 0.028198976
H  H27  1  0.49324000  0.15339000  0.91666000  1.0 -0.0296680747
H  H28  1  0.65858000  0.50488000  0.36799000  1.0 0.1091331412
H  H29  1  0.01784000  0.21557000  0.71062000  1.0 0.1294671173
H  H30  1  0.96921000  0.26959000  0.77253000  1.0 0.1091331412
H  H31  1  0.98132000  0.18229000  0.80158000  1.0 0.0870319872
H  H32  1  0.39780000  0.35891000  0.11093000  1.0 0.0585153656
H  H33  1  0.66344000  0.34257000  0.95357000  1.0 -0.0296680747
H  H34  1  0.71448000  0.37563000  0.13626000  1.0 0.0512753378
H  H35  1  0.46802000  0.33283000  0.93541000  1.0 0.0790676394
H  H36  1  0.62983000  0.58980000  0.54101000  1.0 0.018442709
H  H37  1  0.29340000  0.33742000  0.86299000  1.0 0.0416986955
H  H38  1  0.25790000  0.26497000  0.93239000  1.0 0.1388228598
H  H39  1  0.23785000  0.35667000  0.94460000  1.0 0.1188436716
H  H40  1  0.54977000  0.38731000  0.23390000  1.0 0.1188436716
H  H41  1  0.51766000  0.38080000  0.48418000  1.0 0.0018625317
H  H42  1  0.60420000  0.46868000  0.07078000  1.0 0.0870319872
H  H43  1  0.20895000  0.41217000  0.76141000  1.0 0.0790676394
H  H44  1  0.19040000  0.43542000  0.85963000  1.0 0.1188436716
H  H45  1  0.11352000  0.42252000  0.78884000  1.0 0.0790676394
H  H46  1  0.98602000  0.24355000  0.79916000  1.0 0.0870319872
H  H47  1  0.96865000  0.13511000  0.78621000  1.0 0.1091331412
H  H48  1  0.02756000  0.20397000  0.71776000  1.0 0.1388228598
H  H49  1  0.27273000  0.28416000  0.88293000  1.0 0.0694924078
H  H50  1  0.28589000  0.38934000  0.91562000  1.0 0.0694924078
H  H51  1  0.32162000  0.36646000  0.82341000  1.0 0.1503925032
H  H52  1  0.23432000  0.41320000  0.74417000  1.0 0.1690138474
H  H53  1  0.15501000  0.42891000  0.80250000  1.0 0.0585153656
H  H54  1  0.12288000  0.34376000  0.72605000  1.0 0.1188436716
H  H55  1  0.21791000  0.31230000  0.12590000  1.0 0.2123792538
H  H56  1  0.02458000  0.14912000  0.28773000  1.0 0.1503925032
H  H57  1  0.84959000  0.99512000  0.77135000  1.0 0.1388228598
H  H58  1  0.69166000  0.78052000  0.58837000  1.0 0.238633716
H  H59  1  0.01876000  0.70795000  0.40482000  1.0 0.1601966999
H  H60  1  0.28126000  0.77175000  0.06627000  1.0 0.2192217528
H  H61  1  0.72688000  0.93037000  0.86830000  1.0 0.1601966999
H  H62  1  0.57102000  0.71425000  0.68558000  1.0 0.3118489801
H  H63  1  0.09026000  0.27397000  0.39869000  1.0 0.1690138474
H  H64  1  0.08914000  0.60329000  0.39800000  1.0 0.238633716
H  H65  1  0.28515000  0.43697000  0.23743000  1.0 0.2569406449
H  H66  1  0.17505000  0.84109000  0.08709000  1.0 0.1388228598
H  H67  1  0.25156000  0.75502000  0.60918000  1.0 0.2451619475
H  H68  1  0.18086000  0.85997000  0.61549000  1.0 0.1503925032
H  H69  1  0.28302000  0.98151000  0.88271000  1.0 0.182342258
H  H70  1  0.08072000  0.44977000  0.44882000  1.0 -0.010415807
H  H71  1  0.38848000  0.91143000  0.86123000  1.0 0.2733291357
H  H72  1  0.56254000  0.92896000  0.92152000  1.0 -0.0233896613
H  H73  1  0.22175000  0.57421000  0.33120000  1.0 -0.090677596
H  H74  1  0.17402000  0.34899000  0.52727000  1.0 0.0416986955
H  H75  1  0.38948000  0.72050000  0.43548000  1.0 -0.1193373383
H  H76  1  0.42673000  0.79069000  0.78321000  1.0 -0.0296680747
H  H77  1  0.16102000  0.51964000  0.62480000  1.0 0.0585153656
H  H78  1  0.35387000  0.68630000  0.61597000  1.0 -0.0296680747
H  H79  1  0.40059000  0.54928000  0.33825000  1.0 -0.0296680747
H  H80  1  0.67218000  0.83557000  0.98491000  1.0 0.028198976
H  H81  1  0.50676000  0.84661000  0.08334000  1.0 -0.0296680747
H  H82  1  0.34142000  0.49512000  0.63201000  1.0 0.1091331412
H  H83  1  0.98216000  0.78443000  0.28938000  1.0 0.1294671173
H  H84  1  0.03079000  0.73041000  0.22747000  1.0 0.1091331412
H  H85  1  0.01868000  0.81771000  0.19842000  1.0 0.0870319872
H  H86  1  0.60220000  0.64109000  0.88907000  1.0 0.0585153656
H  H87  1  0.33656000  0.65743000  0.04643000  1.0 -0.0296680747
H  H88  1  0.28552000  0.62437000  0.86374000  1.0 0.0512753378
H  H89  1  0.53198000  0.66717000  0.06459000  1.0 0.0790676394
H  H90  1  0.37017000  0.41020000  0.45899000  1.0 0.018442709
H  H91  1  0.70660000  0.66258000  0.13701000  1.0 0.0416986955
H  H92  1  0.74210000  0.73503000  0.06761000  1.0 0.1388228598
H  H93  1  0.76215000  0.64333000  0.05540000  1.0 0.1188436716
H  H94  1  0.45023000  0.61269000  0.76610000  1.0 0.1188436716
H  H95  1  0.48234000  0.61920000  0.51582000  1.0 0.0018625317
H  H96  1  0.39580000  0.53132000  0.92922000  1.0 0.0870319872
H  H97  1  0.79105000  0.58783000  0.23859000  1.0 0.0790676394
H  H98  1  0.80960000  0.56458000  0.14037000  1.0 0.1188436716
H  H99  1  0.88648000  0.57748000  0.21116000  1.0 0.0790676394
H  H100  1  0.01398000  0.75645000  0.20084000  1.0 0.0870319872
H  H101  1  0.03135000  0.86489000  0.21379000  1.0 0.1091331412
H  H102  1  0.97244000  0.79603000  0.28224000  1.0 0.1388228598
H  H103  1  0.72727000  0.71584000  0.11707000  1.0 0.0694924078
H  H104  1  0.71411000  0.61066000  0.08438000  1.0 0.0694924078
H  H105  1  0.67838000  0.63354000  0.17659000  1.0 0.1503925032
H  H106  1  0.76568000  0.58680000  0.25583000  1.0 0.1690138474
H  H107  1  0.84499000  0.57109000  0.19750000  1.0 0.0585153656
H  H108  1  0.87712000  0.65624000  0.27395000  1.0 0.1188436716
C  C1  1  0.92560000  0.86482000  0.87727000  1.0 0.5619396686
C  C2  1  0.88508000  0.78269000  0.80466000  1.0 0.028198976
C  C3  1  0.13520000  0.06650000  0.39334000  1.0 0.5619396686
C  C4  1  0.81980000  0.33055000  0.49894000  1.0 0.1294671173
C  C5  1  0.80750000  0.69590000  0.81880000  1.0 -0.010415807
C  C6  1  0.92280000  0.79300000  0.72268000  1.0 -0.0519814932
C  C7  1  0.76970000  0.39540000  0.50673000  1.0 -0.0233896613
C  C8  1  0.36347000  0.18540000  0.21166000  1.0 0.1503925032
C  C9  1  0.85887000  0.04460000  0.00507000  1.0 0.5619396686
C  C10  1  0.76045000  0.55098000  0.59514000  1.0 -0.0376141367
C  C11  1  0.44010000  0.22810000  0.14570000  1.0 -0.0233896613
C  C12  1  0.80340000  0.63171000  0.66940000  1.0 0.1294671173
C  C13  1  0.90610000  0.20360000  0.48990000  1.0 0.0104902856
C  C14  1  0.20650000  0.06140000  0.24630000  1.0 -0.0376141367
C  C15  1  0.21620000  0.10590000  0.33063000  1.0 0.0018625317
C  C16  1  0.30050000  0.18940000  0.35480000  1.0 -0.0296680747
C  C17  1  0.93350000  0.28160000  0.55420000  1.0 -0.0376141367
C  C18  1  0.78490000  0.08440000  0.01516000  1.0 0.018442709
C  C19  1  0.71920000  0.18730000  0.97210000  1.0 -0.0982536928
C  C20  1  0.28000000  0.10080000  0.18810000  1.0 -0.1100843747
C  C21  1  0.37300000  0.22910000  0.29660000  1.0 -0.0803932454
C  C22  1  0.59040000  0.21910000  0.05730000  1.0 -0.010415807
C  C23  1  0.65620000  0.16910000  0.04090000  1.0 0.1294671173
C  C24  1  0.88290000  0.71840000  0.65611000  1.0 -0.090677596
C  C25  1  0.89110000  0.34430000  0.55840000  1.0 -0.1311803515
C  C26  1  0.94670000  0.13120000  0.49011000  1.0 0.5619396686
C  C27  1  0.76700000  0.62110000  0.75190000  1.0 -0.1100843747
C  C28  1  0.78290000  0.14560000  0.95950000  1.0 -0.0376141367
C  C29  1  0.79450000  0.25420000  0.43300000  1.0 -0.0982536928
C  C30  1  0.83730000  0.19130000  0.42910000  1.0 -0.0519814932
C  C31  1  0.71900000  0.06230000  0.08090000  1.0 -0.0296680747
C  C32  1  0.65550000  0.10430000  0.09370000  1.0 -0.0982536928
C  C33  1  0.01050000  0.23720000  0.77000000  1.0 -0.1498877884
C  C34  1  0.14430000  0.24880000  0.85310000  1.0 0.2192217528
C  C35  1  0.24260000  0.30750000  0.90300000  1.0 -0.1311803515
C  C36  1  0.16000000  0.40070000  0.80480000  1.0 -0.0603569888
C  C37  1  0.10720000  0.22860000  0.82760000  1.0 0.2123792538
C  C38  1  0.01400000  0.20030000  0.77830000  1.0 -0.1311803515
C  C39  1  0.27240000  0.34130000  0.86590000  1.0 -0.0803932454
C  C40  1  0.17200000  0.38100000  0.77000000  1.0 -0.0803932454
C  C41  1  0.07440000  0.13518000  0.12273000  1.0 0.5619396686
C  C42  1  0.11492000  0.21731000  0.19534000  1.0 0.028198976
C  C43  1  0.86480000  0.93350000  0.60666000  1.0 0.5619396686
C  C44  1  0.18020000  0.66945000  0.50106000  1.0 0.1294671173
C  C45  1  0.19250000  0.30410000  0.18120000  1.0 -0.010415807
C  C46  1  0.07720000  0.20700000  0.27732000  1.0 -0.0519814932
C  C47  1  0.23030000  0.60460000  0.49327000  1.0 -0.0233896613
C  C48  1  0.63653000  0.81460000  0.78834000  1.0 0.1503925032
C  C49  1  0.14113000  0.95540000  0.99493000  1.0 0.5619396686
C  C50  1  0.23955000  0.44902000  0.40486000  1.0 -0.0376141367
C  C51  1  0.55990000  0.77190000  0.85430000  1.0 -0.0233896613
C  C52  1  0.19660000  0.36829000  0.33060000  1.0 0.1294671173
C  C53  1  0.09390000  0.79640000  0.51010000  1.0 0.0104902856
C  C54  1  0.79350000  0.93860000  0.75370000  1.0 -0.0376141367
C  C55  1  0.78380000  0.89410000  0.66937000  1.0 0.0018625317
C  C56  1  0.69950000  0.81060000  0.64520000  1.0 -0.0296680747
C  C57  1  0.06650000  0.71840000  0.44580000  1.0 -0.0376141367
C  C58  1  0.21510000  0.91560000  0.98484000  1.0 0.018442709
C  C59  1  0.28080000  0.81270000  0.02790000  1.0 -0.0982536928
C  C60  1  0.72000000  0.89920000  0.81190000  1.0 -0.1100843747
C  C61  1  0.62700000  0.77090000  0.70340000  1.0 -0.0803932454
C  C62  1  0.40960000  0.78090000  0.94270000  1.0 -0.010415807
C  C63  1  0.34380000  0.83090000  0.95910000  1.0 0.1294671173
C  C64  1  0.11710000  0.28160000  0.34389000  1.0 -0.090677596
C  C65  1  0.10890000  0.65570000  0.44160000  1.0 -0.1311803515
C  C66  1  0.05330000  0.86880000  0.50989000  1.0 0.5619396686
C  C67  1  0.23300000  0.37890000  0.24810000  1.0 -0.1100843747
C  C68  1  0.21710000  0.85440000  0.04050000  1.0 -0.0376141367
C  C69  1  0.20550000  0.74580000  0.56700000  1.0 -0.0982536928
C  C70  1  0.16270000  0.80870000  0.57090000  1.0 -0.0519814932
C  C71  1  0.28100000  0.93770000  0.91910000  1.0 -0.0233896613
C  C72  1  0.34450000  0.89570000  0.90630000  1.0 -0.0982536928
C  C73  1  0.98950000  0.76280000  0.23000000  1.0 -0.1498877884
C  C74  1  0.85570000  0.75120000  0.14690000  1.0 0.2192217528
C  C75  1  0.75740000  0.69250000  0.09700000  1.0 -0.1311803515
C  C76  1  0.84000000  0.59930000  0.19520000  1.0 -0.0603569888
C  C77  1  0.89280000  0.77140000  0.17240000  1.0 0.2192217528
C  C78  1  0.98600000  0.79970000  0.22170000  1.0 -0.1311803515
C  C79  1  0.72760000  0.65870000  0.13410000  1.0 -0.0803932454
C  C80  1  0.82800000  0.61900000  0.23000000  1.0 -0.0803932454
N  N1  1  0.10810000  0.29470000  0.81210000  1.0 0.0104902856
N  N2  1  0.17720000  0.31710000  0.82910000  1.0 0.0104902856
N  N3  1  0.89190000  0.70530000  0.18790000  1.0 0.0104902856
N  N4  1  0.82280000  0.68290000  0.17090000  1.0 0.0104902856
O  O1  1  0.98222000  0.94692000  0.85758000  1.0 -0.4720073224
O  O2  1  0.89985000  0.84461000  0.95274000  1.0 -0.4949094535
O  O3  1  0.84908000  0.97972000  0.04997000  1.0 -0.4787096114
O  O4  1  0.15558000  0.09975000  0.47171000  1.0 -0.4787096114
O  O5  1  0.01315000  0.15081000  0.54500000  1.0 -0.5136307061
O  O6  1  0.05364000  0.00333000  0.36328000  1.0 -0.50451504
O  O7  1  0.92661000  0.08167000  0.95313000  1.0 -0.5383645774
O  O8  1  0.91044000  0.05629000  0.43612000  1.0 -0.5194282711
O  O9  1  0.09820000  0.16070000  0.85450000  1.0 -0.1609353986
O  O10  1  0.12860000  0.17500000  0.86610000  1.0 -0.1609353986
O  O11  1  0.01778000  0.05308000  0.14242000  1.0 -0.4720073224
O  O12  1  0.10015000  0.15539000  0.04726000  1.0 -0.4949094535
O  O13  1  0.15092000  0.02028000  0.95003000  1.0 -0.4787096114
O  O14  1  0.84442000  0.90025000  0.52829000  1.0 -0.4787096114
O  O15  1  0.98685000  0.84919000  0.45500000  1.0 -0.5136307061
O  O16  1  0.94636000  0.99667000  0.63672000  1.0 -0.50451504
O  O17  1  0.07339000  0.91833000  0.04687000  1.0 -0.5383645774
O  O18  1  0.08956000  0.94371000  0.56388000  1.0 -0.5194282711
O  O19  1  0.90180000  0.83930000  0.14550000  1.0 -0.1673071862
O  O20  1  0.87140000  0.82500000  0.13390000  1.0 -0.1609353986
