# DDEC6 charges by PACMAN v1.1 (https://github.com/mtap-research/PACMAN-charge/)
data_POSFOU_FSR_pacman
_symmetry_space_group_name_H-M   'P 1'
_cell_length_a   10.14590000
_cell_length_b   10.14590000
_cell_length_c   23.86340000
_cell_angle_alpha   90.00000000
_cell_angle_beta   90.00000000
_cell_angle_gamma   90.00000000
_symmetry_Int_Tables_number   1
_chemical_formula_structural   CdH14C20N4O5
_chemical_formula_sum   'Cd4 H56 C80 N16 O20'
_cell_volume   2456.48137686
_cell_formula_units_Z   4
loop_
 _symmetry_equiv_pos_site_id
 _symmetry_equiv_pos_as_xyz
  1  'x, y, z'
loop_
 _atom_site_type_symbol
 _atom_site_label
 _atom_site_symmetry_multiplicity
 _atom_site_fract_x
 _atom_site_fract_y
 _atom_site_fract_z
 _atom_site_occupancy
 _atom_site_charge
Cd  Cd1  1  0.00000000  0.00000000  0.00000000  1.0 0.9496149502
Cd  Cd2  1  0.50000000  0.50000000  0.50000000  1.0 0.9496149502
Cd  Cd3  1  0.00000000  0.50000000  0.25000000  1.0 0.7683424732
Cd  Cd4  1  0.50000000  0.00000000  0.75000000  1.0 0.7683424732
H  H1  1  0.34890000  0.79590000  0.03600000  1.0 0.1295299561
H  H2  1  0.65110000  0.20410000  0.03600000  1.0 0.1295299561
H  H3  1  0.79590000  0.65110000  0.96400000  1.0 0.1295299561
H  H4  1  0.20410000  0.34890000  0.96400000  1.0 0.1295299561
H  H5  1  0.84890000  0.70410000  0.53600000  1.0 0.1295299561
H  H6  1  0.15110000  0.29590000  0.53600000  1.0 0.1295299561
H  H7  1  0.29590000  0.84890000  0.46400000  1.0 0.1295299561
H  H8  1  0.70410000  0.15110000  0.46400000  1.0 0.1295299561
H  H9  1  0.54790000  0.88090000  0.00540000  1.0 0.118954227
H  H10  1  0.45210000  0.11910000  0.00540000  1.0 0.118954227
H  H11  1  0.88090000  0.45210000  0.99460000  1.0 0.118954227
H  H12  1  0.11910000  0.54790000  0.99460000  1.0 0.118954227
H  H13  1  0.04790000  0.61910000  0.50540000  1.0 0.118954227
H  H14  1  0.95210000  0.38090000  0.50540000  1.0 0.118954227
H  H15  1  0.38090000  0.04790000  0.49460000  1.0 0.118954227
H  H16  1  0.61910000  0.95210000  0.49460000  1.0 0.118954227
H  H17  1  0.72400000  0.72580000  0.13970000  1.0 0.118954227
H  H18  1  0.27600000  0.27420000  0.13970000  1.0 0.118954227
H  H19  1  0.72580000  0.27600000  0.86030000  1.0 0.118954227
H  H20  1  0.27420000  0.72400000  0.86030000  1.0 0.118954227
H  H21  1  0.22400000  0.77420000  0.63970000  1.0 0.118954227
H  H22  1  0.77600000  0.22580000  0.63970000  1.0 0.118954227
H  H23  1  0.22580000  0.22400000  0.36030000  1.0 0.118954227
H  H24  1  0.77420000  0.77600000  0.36030000  1.0 0.118954227
H  H25  1  0.52240000  0.65600000  0.17250000  1.0 0.118954227
H  H26  1  0.47760000  0.34400000  0.17250000  1.0 0.118954227
H  H27  1  0.65600000  0.47760000  0.82750000  1.0 0.118954227
H  H28  1  0.34400000  0.52240000  0.82750000  1.0 0.118954227
H  H29  1  0.02240000  0.84400000  0.67250000  1.0 0.118954227
H  H30  1  0.97760000  0.15600000  0.67250000  1.0 0.118954227
H  H31  1  0.15600000  0.02240000  0.32750000  1.0 0.118954227
H  H32  1  0.84400000  0.97760000  0.32750000  1.0 0.118954227
H  H33  1  0.30930000  0.59670000  0.20800000  1.0 0.1295299561
H  H34  1  0.69070000  0.40330000  0.20800000  1.0 0.1295299561
H  H35  1  0.59670000  0.69070000  0.79200000  1.0 0.1295299561
H  H36  1  0.40330000  0.30930000  0.79200000  1.0 0.1295299561
H  H37  1  0.80930000  0.90330000  0.70800000  1.0 0.1295299561
H  H38  1  0.19070000  0.09670000  0.70800000  1.0 0.1295299561
H  H39  1  0.09670000  0.80930000  0.29200000  1.0 0.1295299561
H  H40  1  0.90330000  0.19070000  0.29200000  1.0 0.1295299561
H  H41  1  0.98240000  0.65660000  0.12630000  1.0 0.118954227
H  H42  1  0.01760000  0.34340000  0.12630000  1.0 0.118954227
H  H43  1  0.65660000  0.01760000  0.87370000  1.0 0.118954227
H  H44  1  0.34340000  0.98240000  0.87370000  1.0 0.118954227
H  H45  1  0.48240000  0.84340000  0.62630000  1.0 0.118954227
H  H46  1  0.51760000  0.15660000  0.62630000  1.0 0.118954227
H  H47  1  0.15660000  0.48240000  0.37370000  1.0 0.118954227
H  H48  1  0.84340000  0.51760000  0.37370000  1.0 0.118954227
H  H49  1  0.15810000  0.73690000  0.07100000  1.0 0.305515506
H  H50  1  0.84190000  0.26310000  0.07100000  1.0 0.305515506
H  H51  1  0.73690000  0.84190000  0.92900000  1.0 0.305515506
H  H52  1  0.26310000  0.15810000  0.92900000  1.0 0.305515506
H  H53  1  0.65810000  0.76310000  0.57100000  1.0 0.305515506
H  H54  1  0.34190000  0.23690000  0.57100000  1.0 0.305515506
H  H55  1  0.23690000  0.65810000  0.42900000  1.0 0.305515506
H  H56  1  0.76310000  0.34190000  0.42900000  1.0 0.305515506
C  C1  1  0.41470000  0.72200000  0.10798000  1.0 0.0647334239
C  C2  1  0.58530000  0.27800000  0.10798000  1.0 0.0647334239
C  C3  1  0.72200000  0.58530000  0.89202000  1.0 0.0647334239
C  C4  1  0.27800000  0.41470000  0.89202000  1.0 0.0647334239
C  C5  1  0.91470000  0.77800000  0.60798000  1.0 0.0647334239
C  C6  1  0.08530000  0.22200000  0.60798000  1.0 0.0647334239
C  C7  1  0.22200000  0.91470000  0.39202000  1.0 0.0647334239
C  C8  1  0.77800000  0.08530000  0.39202000  1.0 0.0647334239
C  C9  1  0.42400000  0.78530000  0.05790000  1.0 -0.1373611067
C  C10  1  0.57600000  0.21470000  0.05790000  1.0 -0.1373611067
C  C11  1  0.78530000  0.57600000  0.94210000  1.0 -0.1373611067
C  C12  1  0.21470000  0.42400000  0.94210000  1.0 -0.1373611067
C  C13  1  0.92400000  0.71470000  0.55790000  1.0 -0.1373611067
C  C14  1  0.07600000  0.28530000  0.55790000  1.0 -0.1373611067
C  C15  1  0.28530000  0.92400000  0.44210000  1.0 -0.1373611067
C  C16  1  0.71470000  0.07600000  0.44210000  1.0 -0.1373611067
C  C17  1  0.54410000  0.83440000  0.03900000  1.0 -0.1041672419
C  C18  1  0.45590000  0.16560000  0.03900000  1.0 -0.1041672419
C  C19  1  0.83440000  0.45590000  0.96100000  1.0 -0.1041672419
C  C20  1  0.16560000  0.54410000  0.96100000  1.0 -0.1041672419
C  C21  1  0.04410000  0.66560000  0.53900000  1.0 -0.1041672419
C  C22  1  0.95590000  0.33440000  0.53900000  1.0 -0.1041672419
C  C23  1  0.33440000  0.04410000  0.46100000  1.0 -0.1041672419
C  C24  1  0.66560000  0.95590000  0.46100000  1.0 -0.1041672419
C  C25  1  0.65760000  0.81440000  0.06974000  1.0 -0.0254284603
C  C26  1  0.34240000  0.18560000  0.06974000  1.0 -0.0254284603
C  C27  1  0.81440000  0.34240000  0.93026000  1.0 -0.0254284603
C  C28  1  0.18560000  0.65760000  0.93026000  1.0 -0.0254284603
C  C29  1  0.15760000  0.68560000  0.56974000  1.0 -0.0254284603
C  C30  1  0.84240000  0.31440000  0.56974000  1.0 -0.0254284603
C  C31  1  0.31440000  0.15760000  0.43026000  1.0 -0.0254284603
C  C32  1  0.68560000  0.84240000  0.43026000  1.0 -0.0254284603
C  C33  1  0.64820000  0.74400000  0.11920000  1.0 -0.0897973835
C  C34  1  0.35180000  0.25600000  0.11920000  1.0 -0.0897973835
C  C35  1  0.74400000  0.35180000  0.88080000  1.0 -0.0897973835
C  C36  1  0.25600000  0.64820000  0.88080000  1.0 -0.0897973835
C  C37  1  0.14820000  0.75600000  0.61920000  1.0 -0.0897973835
C  C38  1  0.85180000  0.24400000  0.61920000  1.0 -0.0897973835
C  C39  1  0.24400000  0.14820000  0.38080000  1.0 -0.0897973835
C  C40  1  0.75600000  0.85180000  0.38080000  1.0 -0.0897973835
C  C41  1  0.52750000  0.70040000  0.13850000  1.0 -0.129690192
C  C42  1  0.47250000  0.29960000  0.13850000  1.0 -0.129690192
C  C43  1  0.70040000  0.47250000  0.86150000  1.0 -0.129690192
C  C44  1  0.29960000  0.52750000  0.86150000  1.0 -0.129690192
C  C45  1  0.02750000  0.79960000  0.63850000  1.0 -0.129690192
C  C46  1  0.97250000  0.20040000  0.63850000  1.0 -0.129690192
C  C47  1  0.20040000  0.02750000  0.36150000  1.0 -0.129690192
C  C48  1  0.79960000  0.97250000  0.36150000  1.0 -0.129690192
C  C49  1  0.28590000  0.67980000  0.12991000  1.0 0.1295299561
C  C50  1  0.71410000  0.32020000  0.12991000  1.0 0.1295299561
C  C51  1  0.67980000  0.71410000  0.87009000  1.0 0.1295299561
C  C52  1  0.32020000  0.28590000  0.87009000  1.0 0.1295299561
C  C53  1  0.78590000  0.82020000  0.62991000  1.0 0.1295299561
C  C54  1  0.21410000  0.17980000  0.62991000  1.0 0.1295299561
C  C55  1  0.17980000  0.78590000  0.37009000  1.0 0.1295299561
C  C56  1  0.82020000  0.21410000  0.37009000  1.0 0.1295299561
C  C57  1  0.25060000  0.62170000  0.18001000  1.0 -0.0897973835
C  C58  1  0.74940000  0.37830000  0.18001000  1.0 -0.0897973835
C  C59  1  0.62170000  0.74940000  0.81999000  1.0 -0.0897973835
C  C60  1  0.37830000  0.25060000  0.81999000  1.0 -0.0897973835
C  C61  1  0.75060000  0.87830000  0.68001000  1.0 -0.0897973835
C  C62  1  0.24940000  0.12170000  0.68001000  1.0 -0.0897973835
C  C63  1  0.12170000  0.75060000  0.31999000  1.0 -0.0897973835
C  C64  1  0.87830000  0.24940000  0.31999000  1.0 -0.0897973835
C  C65  1  0.07120000  0.65450000  0.13579000  1.0 0.1728513769
C  C66  1  0.92880000  0.34550000  0.13579000  1.0 0.1728513769
C  C67  1  0.65450000  0.92880000  0.86421000  1.0 0.1728513769
C  C68  1  0.34550000  0.07120000  0.86421000  1.0 0.1728513769
C  C69  1  0.57120000  0.84550000  0.63579000  1.0 0.1728513769
C  C70  1  0.42880000  0.15450000  0.63579000  1.0 0.1728513769
C  C71  1  0.15450000  0.57120000  0.36421000  1.0 0.1728513769
C  C72  1  0.84550000  0.42880000  0.36421000  1.0 0.1728513769
C  C73  1  0.78480000  0.87330000  0.05084000  1.0 0.5523533604
C  C74  1  0.21520000  0.12670000  0.05084000  1.0 0.5523533604
C  C75  1  0.87330000  0.21520000  0.94916000  1.0 0.5523533604
C  C76  1  0.12670000  0.78480000  0.94916000  1.0 0.5523533604
C  C77  1  0.28480000  0.62670000  0.55084000  1.0 0.5523533604
C  C78  1  0.71520000  0.37330000  0.55084000  1.0 0.5523533604
C  C79  1  0.37330000  0.28480000  0.44916000  1.0 0.5523533604
C  C80  1  0.62670000  0.71520000  0.44916000  1.0 0.5523533604
N  N1  1  0.11690000  0.60630000  0.18263000  1.0 -0.2699186498
N  N2  1  0.88310000  0.39370000  0.18263000  1.0 -0.2699186498
N  N3  1  0.60630000  0.88310000  0.81737000  1.0 -0.2699186498
N  N4  1  0.39370000  0.11690000  0.81737000  1.0 -0.2699186498
N  N5  1  0.61690000  0.89370000  0.68263000  1.0 -0.2699186498
N  N6  1  0.38310000  0.10630000  0.68263000  1.0 -0.2699186498
N  N7  1  0.10630000  0.61690000  0.31737000  1.0 -0.2699186498
N  N8  1  0.89370000  0.38310000  0.31737000  1.0 -0.2699186498
N  N9  1  0.16800000  0.70050000  0.10324000  1.0 -0.2284021595
N  N10  1  0.83200000  0.29950000  0.10324000  1.0 -0.2284021595
N  N11  1  0.70050000  0.83200000  0.89676000  1.0 -0.2284021595
N  N12  1  0.29950000  0.16800000  0.89676000  1.0 -0.2284021595
N  N13  1  0.66800000  0.79950000  0.60324000  1.0 -0.2284021595
N  N14  1  0.33200000  0.20050000  0.60324000  1.0 -0.2284021595
N  N15  1  0.20050000  0.66800000  0.39676000  1.0 -0.2284021595
N  N16  1  0.79950000  0.33200000  0.39676000  1.0 -0.2284021595
O  O1  1  0.79760000  0.90080000  0.99980000  1.0 -0.5587104776
O  O2  1  0.20240000  0.09920000  0.99980000  1.0 -0.5587104776
O  O3  1  0.90080000  0.20240000  0.00020000  1.0 -0.5587104776
O  O4  1  0.09920000  0.79760000  0.00020000  1.0 -0.5587104776
O  O5  1  0.29760000  0.59920000  0.49980000  1.0 -0.5587104776
O  O6  1  0.70240000  0.40080000  0.49980000  1.0 -0.5587104776
O  O7  1  0.40080000  0.29760000  0.50020000  1.0 -0.5587104776
O  O8  1  0.59920000  0.70240000  0.50020000  1.0 -0.5587104776
O  O9  1  0.87440000  0.89620000  0.08512000  1.0 -0.5124922984
O  O10  1  0.12560000  0.10380000  0.08512000  1.0 -0.5124922984
O  O11  1  0.89620000  0.12560000  0.91488000  1.0 -0.5124922984
O  O12  1  0.10380000  0.87440000  0.91488000  1.0 -0.5124922984
O  O13  1  0.37440000  0.60380000  0.58512000  1.0 -0.5124922984
O  O14  1  0.62560000  0.39620000  0.58512000  1.0 -0.5124922984
O  O15  1  0.39620000  0.37440000  0.41488000  1.0 -0.5124922984
O  O16  1  0.60380000  0.62560000  0.41488000  1.0 -0.5124922984
O  O17  1  0.17000000  0.33000000  0.25000000  1.0 -0.4871688925
O  O18  1  0.83000000  0.67000000  0.25000000  1.0 -0.4871688925
O  O19  1  0.33000000  0.83000000  0.75000000  1.0 -0.4871688925
O  O20  1  0.67000000  0.17000000  0.75000000  1.0 -0.4871688925
