# DDEC6 charges by PACMAN v1.1 (https://github.com/mtap-research/PACMAN-charge/)
data_POSWOM_ASR_pacman
_symmetry_space_group_name_H-M   'P 1'
_cell_length_a   22.45370000
_cell_length_b   22.45370000
_cell_length_c   22.45370000
_cell_angle_alpha   118.57800000
_cell_angle_beta   118.57800000
_cell_angle_gamma   118.57800000
_symmetry_Int_Tables_number   1
_chemical_formula_structural   NiC6N3ClOF
_chemical_formula_sum   'Ni6 C36 N18 Cl6 O6 F6'
_cell_volume   3482.08351183
_cell_formula_units_Z   6
loop_
 _symmetry_equiv_pos_site_id
 _symmetry_equiv_pos_as_xyz
  1  'x, y, z'
loop_
 _atom_site_type_symbol
 _atom_site_label
 _atom_site_symmetry_multiplicity
 _atom_site_fract_x
 _atom_site_fract_y
 _atom_site_fract_z
 _atom_site_occupancy
 _atom_site_charge
Ni  Ni1  1  0.30188000  0.69812000  0.00000000  1.0 0.4380546136
Ni  Ni2  1  0.69812000  0.00000000  0.30188000  1.0 0.4380546136
Ni  Ni3  1  0.00000000  0.30188000  0.69812000  1.0 0.4380546136
Ni  Ni4  1  0.69812000  0.30188000  0.00000000  1.0 0.4380546136
Ni  Ni5  1  0.30188000  0.00000000  0.69812000  1.0 0.4380546136
Ni  Ni6  1  0.00000000  0.69812000  0.30188000  1.0 0.4380546136
C  C1  1  0.49710000  0.68330000  0.07930000  1.0 0.1246298714
C  C2  1  0.60870000  0.73240000  0.14990000  1.0 -0.2628097891
C  C3  1  0.54910000  0.61230000  0.07070000  1.0 0.110204735
C  C4  1  0.68330000  0.07930000  0.49710000  1.0 0.1246298714
C  C5  1  0.73240000  0.14990000  0.60870000  1.0 -0.2664417402
C  C6  1  0.61230000  0.07070000  0.54910000  1.0 0.110204735
C  C7  1  0.07930000  0.49710000  0.68330000  1.0 0.1246298714
C  C8  1  0.14990000  0.60870000  0.73240000  1.0 -0.2664417402
C  C9  1  0.07070000  0.54910000  0.61230000  1.0 0.110204735
C  C10  1  0.50290000  0.92070000  0.31670000  1.0 0.1246298714
C  C11  1  0.39130000  0.85010000  0.26760000  1.0 -0.2664417402
C  C12  1  0.45090000  0.92930000  0.38770000  1.0 0.110204735
C  C13  1  0.31670000  0.50290000  0.92070000  1.0 0.1246298714
C  C14  1  0.26760000  0.39130000  0.85010000  1.0 -0.2628097891
C  C15  1  0.38770000  0.45090000  0.92930000  1.0 0.110204735
C  C16  1  0.92070000  0.31670000  0.50290000  1.0 0.12565919
C  C17  1  0.85010000  0.26760000  0.39130000  1.0 -0.2628097891
C  C18  1  0.92930000  0.38770000  0.45090000  1.0 0.110204735
C  C19  1  0.50290000  0.31670000  0.92070000  1.0 0.1246298714
C  C20  1  0.39130000  0.26760000  0.85010000  1.0 -0.2628097891
C  C21  1  0.45090000  0.38770000  0.92930000  1.0 0.110204735
C  C22  1  0.31670000  0.92070000  0.50290000  1.0 0.1246298714
C  C23  1  0.26760000  0.85010000  0.39130000  1.0 -0.2628097891
C  C24  1  0.38770000  0.92930000  0.45090000  1.0 0.110204735
C  C25  1  0.92070000  0.50290000  0.31670000  1.0 0.1246298714
C  C26  1  0.85010000  0.39130000  0.26760000  1.0 -0.2628097891
C  C27  1  0.92930000  0.45090000  0.38770000  1.0 0.110204735
C  C28  1  0.49710000  0.07930000  0.68330000  1.0 0.12565919
C  C29  1  0.60870000  0.14990000  0.73240000  1.0 -0.2628097891
C  C30  1  0.54910000  0.07070000  0.61230000  1.0 0.110204735
C  C31  1  0.68330000  0.49710000  0.07930000  1.0 0.1246298714
C  C32  1  0.73240000  0.60870000  0.14990000  1.0 -0.2628097891
C  C33  1  0.61230000  0.54910000  0.07070000  1.0 0.110204735
C  C34  1  0.07930000  0.68330000  0.49710000  1.0 0.1246298714
C  C35  1  0.14990000  0.73240000  0.60870000  1.0 -0.2628097891
C  C36  1  0.07070000  0.61230000  0.54910000  1.0 0.110204735
N  N1  1  0.51080000  0.76370000  0.12410000  1.0 -0.240104591
N  N2  1  0.76370000  0.12410000  0.51080000  1.0 -0.240104591
N  N3  1  0.12410000  0.51080000  0.76370000  1.0 -0.240104591
N  N4  1  0.48920000  0.87590000  0.23630000  1.0 -0.240104591
N  N5  1  0.23630000  0.48920000  0.87590000  1.0 -0.240104591
N  N6  1  0.87590000  0.23630000  0.48920000  1.0 -0.240104591
N  N7  1  0.48920000  0.23630000  0.87590000  1.0 -0.240104591
N  N8  1  0.23630000  0.87590000  0.48920000  1.0 -0.240104591
N  N9  1  0.87590000  0.48920000  0.23630000  1.0 -0.240104591
N  N10  1  0.51080000  0.12410000  0.76370000  1.0 -0.240104591
N  N11  1  0.76370000  0.51080000  0.12410000  1.0 -0.240104591
N  N12  1  0.12410000  0.76370000  0.51080000  1.0 -0.240104591
N  N13  1  0.35417000  0.64583000  0.00000000  1.0 -0.0205646186
N  N14  1  0.64583000  0.00000000  0.35417000  1.0 -0.0205646186
N  N15  1  0.00000000  0.35417000  0.64583000  1.0 -0.0205646186
N  N16  1  0.64583000  0.35417000  0.00000000  1.0 -0.0205646186
N  N17  1  0.35417000  0.00000000  0.64583000  1.0 -0.0205646186
N  N18  1  0.00000000  0.64583000  0.35417000  1.0 -0.0205646186
Cl  Cl1  1  0.10533000  0.50000000  0.89467000  1.0 0.283180259
Cl  Cl2  1  0.50000000  0.89467000  0.10533000  1.0 0.2909071221
Cl  Cl3  1  0.89467000  0.10533000  0.50000000  1.0 0.283180259
Cl  Cl4  1  0.89467000  0.50000000  0.10533000  1.0 0.2909071221
Cl  Cl5  1  0.50000000  0.10533000  0.89467000  1.0 0.283180259
Cl  Cl6  1  0.10533000  0.89467000  0.50000000  1.0 0.283180259
O  O1  1  0.66395000  0.66395000  0.14540000  1.0 -0.1775124119
O  O2  1  0.66395000  0.14540000  0.66395000  1.0 -0.1746738033
O  O3  1  0.14540000  0.66395000  0.66395000  1.0 -0.1775124119
O  O4  1  0.33605000  0.85460000  0.33605000  1.0 -0.1775124119
O  O5  1  0.33605000  0.33605000  0.85460000  1.0 -0.1775124119
O  O6  1  0.85460000  0.33605000  0.33605000  1.0 -0.1775124119
F  F1  1  0.12113000  0.50000000  0.87887000  1.0 0.0114258523
F  F2  1  0.50000000  0.87887000  0.12113000  1.0 0.0114258523
F  F3  1  0.87887000  0.12113000  0.50000000  1.0 0.0114258523
F  F4  1  0.87887000  0.50000000  0.12113000  1.0 0.0114258523
F  F5  1  0.50000000  0.12113000  0.87887000  1.0 0.0114258523
F  F6  1  0.12113000  0.87887000  0.50000000  1.0 0.0114258523
