# DDEC6 charges by PACMAN v1.1 (https://github.com/mtap-research/PACMAN-charge/)
data_POSXAZ_FSR_pacman
_symmetry_space_group_name_H-M   'P 1'
_cell_length_a   22.35270000
_cell_length_b   22.35270000
_cell_length_c   22.35270000
_cell_angle_alpha   118.52400000
_cell_angle_beta   118.52400000
_cell_angle_gamma   118.52400000
_symmetry_Int_Tables_number   1
_chemical_formula_structural   NiC6Br2N3O2
_chemical_formula_sum   'Ni6 C36 Br12 N18 O12'
_cell_volume   3498.42405154
_cell_formula_units_Z   6
loop_
 _symmetry_equiv_pos_site_id
 _symmetry_equiv_pos_as_xyz
  1  'x, y, z'
loop_
 _atom_site_type_symbol
 _atom_site_label
 _atom_site_symmetry_multiplicity
 _atom_site_fract_x
 _atom_site_fract_y
 _atom_site_fract_z
 _atom_site_occupancy
 _atom_site_charge
Ni  Ni1  1  0.30153000  0.69847000  0.00000000  1.0 0.4526107862
Ni  Ni2  1  0.69847000  0.00000000  0.30153000  1.0 0.4526107862
Ni  Ni3  1  0.00000000  0.30153000  0.69847000  1.0 0.4526107862
Ni  Ni4  1  0.69847000  0.30153000  0.00000000  1.0 0.4526107862
Ni  Ni5  1  0.30153000  0.00000000  0.69847000  1.0 0.4526107862
Ni  Ni6  1  0.00000000  0.69847000  0.30153000  1.0 0.4526107862
C  C1  1  0.31990000  0.50860000  0.93020000  1.0 0.1693372632
C  C2  1  0.27210000  0.39470000  0.86360000  1.0 -0.1999795308
C  C3  1  0.38230000  0.44830000  0.93290000  1.0 0.1538236941
C  C4  1  0.50860000  0.93020000  0.31990000  1.0 0.1693372632
C  C5  1  0.39470000  0.86360000  0.27210000  1.0 -0.1999795308
C  C6  1  0.44830000  0.93290000  0.38230000  1.0 0.1538236941
C  C7  1  0.93020000  0.31990000  0.50860000  1.0 0.1693372632
C  C8  1  0.86360000  0.27210000  0.39470000  1.0 -0.1999795308
C  C9  1  0.93290000  0.38230000  0.44830000  1.0 0.1538236941
C  C10  1  0.68010000  0.06980000  0.49140000  1.0 0.1693372632
C  C11  1  0.72790000  0.13640000  0.60530000  1.0 -0.1999795308
C  C12  1  0.61770000  0.06710000  0.55170000  1.0 0.1538236941
C  C13  1  0.49140000  0.68010000  0.06980000  1.0 0.1693372632
C  C14  1  0.60530000  0.72790000  0.13640000  1.0 -0.1999795308
C  C15  1  0.55170000  0.61770000  0.06710000  1.0 0.1538236941
C  C16  1  0.06980000  0.49140000  0.68010000  1.0 0.1693372632
C  C17  1  0.13640000  0.60530000  0.72790000  1.0 -0.1999795308
C  C18  1  0.06710000  0.55170000  0.61770000  1.0 0.1538236941
C  C19  1  0.68010000  0.49140000  0.06980000  1.0 0.1693372632
C  C20  1  0.72790000  0.60530000  0.13640000  1.0 -0.1999795308
C  C21  1  0.61770000  0.55170000  0.06710000  1.0 0.1538236941
C  C22  1  0.49140000  0.06980000  0.68010000  1.0 0.1693372632
C  C23  1  0.60530000  0.13640000  0.72790000  1.0 -0.1999795308
C  C24  1  0.55170000  0.06710000  0.61770000  1.0 0.1538236941
C  C25  1  0.06980000  0.68010000  0.49140000  1.0 0.1693372632
C  C26  1  0.13640000  0.72790000  0.60530000  1.0 -0.1999795308
C  C27  1  0.06710000  0.61770000  0.55170000  1.0 0.1538236941
C  C28  1  0.31990000  0.93020000  0.50860000  1.0 0.1693372632
C  C29  1  0.27210000  0.86360000  0.39470000  1.0 -0.1999795308
C  C30  1  0.38230000  0.93290000  0.44830000  1.0 0.1538236941
C  C31  1  0.50860000  0.31990000  0.93020000  1.0 0.1693372632
C  C32  1  0.39470000  0.27210000  0.86360000  1.0 -0.1999795308
C  C33  1  0.44830000  0.38230000  0.93290000  1.0 0.1538236941
C  C34  1  0.93020000  0.50860000  0.31990000  1.0 0.1693372632
C  C35  1  0.86360000  0.39470000  0.27210000  1.0 -0.1999795308
C  C36  1  0.93290000  0.44830000  0.38230000  1.0 0.1538236941
Br  Br1  1  0.10367000  0.50000000  0.89633000  1.0 -0.280854021
Br  Br2  1  0.50000000  0.89633000  0.10367000  1.0 -0.280854021
Br  Br3  1  0.89633000  0.10367000  0.50000000  1.0 -0.280854021
Br  Br4  1  0.89633000  0.50000000  0.10367000  1.0 -0.280854021
Br  Br5  1  0.50000000  0.10367000  0.89633000  1.0 -0.280854021
Br  Br6  1  0.10367000  0.89633000  0.50000000  1.0 -0.280854021
Br  Br7  1  0.24037000  0.75963000  0.00000000  1.0 0.4911626781
Br  Br8  1  0.75963000  0.00000000  0.24037000  1.0 0.4911626781
Br  Br9  1  0.00000000  0.24037000  0.75963000  1.0 0.4774286354
Br  Br10  1  0.75963000  0.24037000  0.00000000  1.0 0.4911626781
Br  Br11  1  0.24037000  0.00000000  0.75963000  1.0 0.4774286354
Br  Br12  1  0.00000000  0.75963000  0.24037000  1.0 0.4911626781
N  N1  1  0.24310000  0.49620000  0.88950000  1.0 -0.1617428867
N  N2  1  0.49620000  0.88950000  0.24310000  1.0 -0.1617428867
N  N3  1  0.88950000  0.24310000  0.49620000  1.0 -0.1617428867
N  N4  1  0.75690000  0.11050000  0.50380000  1.0 -0.1617428867
N  N5  1  0.50380000  0.75690000  0.11050000  1.0 -0.1617428867
N  N6  1  0.11050000  0.50380000  0.75690000  1.0 -0.1617428867
N  N7  1  0.75690000  0.50380000  0.11050000  1.0 -0.1617428867
N  N8  1  0.50380000  0.11050000  0.75690000  1.0 -0.1617428867
N  N9  1  0.11050000  0.75690000  0.50380000  1.0 -0.1617428867
N  N10  1  0.24310000  0.88950000  0.49620000  1.0 -0.1617428867
N  N11  1  0.49620000  0.24310000  0.88950000  1.0 -0.1617428867
N  N12  1  0.88950000  0.49620000  0.24310000  1.0 -0.1617428867
N  N13  1  0.35427000  0.64573000  0.00000000  1.0 -0.0039880535
N  N14  1  0.64573000  0.00000000  0.35427000  1.0 -0.0039880535
N  N15  1  0.00000000  0.35427000  0.64573000  1.0 -0.0039880535
N  N16  1  0.64573000  0.35427000  0.00000000  1.0 -0.0039880535
N  N17  1  0.35427000  0.00000000  0.64573000  1.0 -0.0039880535
N  N18  1  0.00000000  0.64573000  0.35427000  1.0 -0.0039880535
O  O1  1  0.24897000  0.75103000  0.00000000  1.0 -0.3631782924
O  O2  1  0.75103000  0.00000000  0.24897000  1.0 -0.3715858927
O  O3  1  0.00000000  0.24897000  0.75103000  1.0 -0.3715858927
O  O4  1  0.75103000  0.24897000  0.00000000  1.0 -0.3631782924
O  O5  1  0.24897000  0.00000000  0.75103000  1.0 -0.3715858927
O  O6  1  0.00000000  0.75103000  0.24897000  1.0 -0.3715858927
O  O7  1  0.33295000  0.33295000  0.86360000  1.0 -0.2084470958
O  O8  1  0.33295000  0.86360000  0.33295000  1.0 -0.2084470958
O  O9  1  0.86360000  0.33295000  0.33295000  1.0 -0.2084470958
O  O10  1  0.66705000  0.13640000  0.66705000  1.0 -0.2084470958
O  O11  1  0.66705000  0.66705000  0.13640000  1.0 -0.2084470958
O  O12  1  0.13640000  0.66705000  0.66705000  1.0 -0.2084470958
