# DDEC6 charges by PACMAN v1.1 (https://github.com/mtap-research/PACMAN-charge/)
data_POTYIJ_ASR_pacman
_symmetry_space_group_name_H-M   'P 1'
_cell_length_a   11.18780000
_cell_length_b   11.07800000
_cell_length_c   32.84100000
_cell_angle_alpha   90.00000000
_cell_angle_beta   91.77100000
_cell_angle_gamma   90.00000000
_symmetry_Int_Tables_number   1
_chemical_formula_structural   Dy3H38C71(S4O11)2
_chemical_formula_sum   'Dy6 H76 C142 S16 O44'
_cell_volume   4068.31834463
_cell_formula_units_Z   2
loop_
 _symmetry_equiv_pos_site_id
 _symmetry_equiv_pos_as_xyz
  1  'x, y, z'
loop_
 _atom_site_type_symbol
 _atom_site_label
 _atom_site_symmetry_multiplicity
 _atom_site_fract_x
 _atom_site_fract_y
 _atom_site_fract_z
 _atom_site_occupancy
 _atom_site_charge
Dy  Dy1  1  0.16116000  0.56886000  0.26134000  1.0 1.8742322186
Dy  Dy2  1  0.83884000  0.56886000  0.23866000  1.0 1.8742322186
Dy  Dy3  1  0.83884000  0.43114000  0.73866000  1.0 1.8742322186
Dy  Dy4  1  0.16116000  0.43114000  0.76134000  1.0 1.8742322186
Dy  Dy5  1  0.50000000  0.69643000  0.25000000  1.0 1.8769517401
Dy  Dy6  1  0.50000000  0.30357000  0.75000000  1.0 1.8769517401
H  H1  1  0.62820000  0.41980000  0.33510000  1.0 0.1384045491
H  H2  1  0.69830000  0.28590000  0.38360000  1.0 0.1211273825
H  H3  1  0.35810000  0.20100000  0.40890000  1.0 0.110793787
H  H4  1  0.28830000  0.33200000  0.35870000  1.0 0.1281230459
H  H5  1  0.39750000  0.82760000  0.44570000  1.0 0.1019487175
H  H6  1  0.28920000  0.71180000  0.39930000  1.0 0.1211273825
H  H7  1  0.38560000  0.93250000  0.30820000  1.0 0.1211273825
H  H8  1  0.49200000  0.05030000  0.35430000  1.0 0.110793787
H  H9  1  0.94340000  0.26550000  0.60870000  1.0 0.1211273825
H  H10  1  0.07230000  0.35850000  0.65580000  1.0 0.1211273825
H  H11  1  0.31970000  0.09990000  0.64030000  1.0 0.110793787
H  H12  1  0.18990000  0.00010000  0.59490000  1.0 0.110793787
H  H13  1  0.98310000  0.97600000  0.65580000  1.0 0.110793787
H  H14  1  0.04570000  0.83930000  0.70580000  1.0 0.110793787
H  H15  1  0.97770000  0.56150000  0.62940000  1.0 0.1281230459
H  H16  1  0.94330000  0.70160000  0.57640000  1.0 0.110793787
H  H17  1  0.91760000  0.93010000  0.21620000  1.0 0.1019487175
H  H18  1  0.86450000  0.91430000  0.26050000  1.0 0.1857159109
H  H19  1  0.98770000  0.98510000  0.25510000  1.0 0.1019487175
H  H20  1  0.37180000  0.41980000  0.16490000  1.0 0.1384045491
H  H21  1  0.30170000  0.28590000  0.11640000  1.0 0.1211273825
H  H22  1  0.64190000  0.20100000  0.09110000  1.0 0.110793787
H  H23  1  0.71170000  0.33200000  0.14130000  1.0 0.1281230459
H  H24  1  0.60250000  0.82760000  0.05430000  1.0 0.1019487175
H  H25  1  0.71080000  0.71180000  0.10070000  1.0 0.1211273825
H  H26  1  0.61440000  0.93250000  0.19180000  1.0 0.1211273825
H  H27  1  0.50800000  0.05030000  0.14570000  1.0 0.110793787
H  H28  1  0.05660000  0.26550000  0.89130000  1.0 0.1211273825
H  H29  1  0.92770000  0.35850000  0.84420000  1.0 0.1211273825
H  H30  1  0.68030000  0.09990000  0.85970000  1.0 0.110793787
H  H31  1  0.81010000  0.00010000  0.90510000  1.0 0.110793787
H  H32  1  0.01690000  0.97600000  0.84420000  1.0 0.110793787
H  H33  1  0.95430000  0.83930000  0.79420000  1.0 0.110793787
H  H34  1  0.02230000  0.56150000  0.87060000  1.0 0.1281230459
H  H35  1  0.05670000  0.70160000  0.92360000  1.0 0.110793787
H  H36  1  0.08240000  0.93010000  0.28380000  1.0 0.1019487175
H  H37  1  0.13550000  0.91430000  0.23950000  1.0 0.1857159109
H  H38  1  0.01230000  0.98510000  0.24490000  1.0 0.0910860007
H  H39  1  0.37180000  0.58020000  0.66490000  1.0 0.1384045491
H  H40  1  0.30170000  0.71410000  0.61640000  1.0 0.1211273825
H  H41  1  0.64190000  0.79900000  0.59110000  1.0 0.110793787
H  H42  1  0.71170000  0.66800000  0.64130000  1.0 0.1281230459
H  H43  1  0.60250000  0.17240000  0.55430000  1.0 0.1019487175
H  H44  1  0.71080000  0.28820000  0.60070000  1.0 0.1211273825
H  H45  1  0.61440000  0.06750000  0.69180000  1.0 0.1211273825
H  H46  1  0.50800000  0.94970000  0.64570000  1.0 0.110793787
H  H47  1  0.05660000  0.73450000  0.39130000  1.0 0.1211273825
H  H48  1  0.92770000  0.64150000  0.34420000  1.0 0.1211273825
H  H49  1  0.68030000  0.90010000  0.35970000  1.0 0.110793787
H  H50  1  0.81010000  0.99990000  0.40510000  1.0 0.110793787
H  H51  1  0.01690000  0.02400000  0.34420000  1.0 0.110793787
H  H52  1  0.95430000  0.16070000  0.29420000  1.0 0.110793787
H  H53  1  0.02230000  0.43850000  0.37060000  1.0 0.1281230459
H  H54  1  0.05670000  0.29840000  0.42360000  1.0 0.110793787
H  H55  1  0.08240000  0.06990000  0.78380000  1.0 0.1019487175
H  H56  1  0.13550000  0.08570000  0.73950000  1.0 0.1857159109
H  H57  1  0.01230000  0.01490000  0.74490000  1.0 0.0910860007
H  H58  1  0.62820000  0.58020000  0.83510000  1.0 0.1384045491
H  H59  1  0.69830000  0.71410000  0.88360000  1.0 0.1211273825
H  H60  1  0.35810000  0.79900000  0.90890000  1.0 0.110793787
H  H61  1  0.28830000  0.66800000  0.85870000  1.0 0.1281230459
H  H62  1  0.39750000  0.17240000  0.94570000  1.0 0.1019487175
H  H63  1  0.28920000  0.28820000  0.89930000  1.0 0.1211273825
H  H64  1  0.38560000  0.06750000  0.80820000  1.0 0.1211273825
H  H65  1  0.49200000  0.94970000  0.85430000  1.0 0.110793787
H  H66  1  0.94340000  0.73450000  0.10870000  1.0 0.1211273825
H  H67  1  0.07230000  0.64150000  0.15580000  1.0 0.1211273825
H  H68  1  0.31970000  0.90010000  0.14030000  1.0 0.110793787
H  H69  1  0.18990000  0.99990000  0.09490000  1.0 0.110793787
H  H70  1  0.98310000  0.02400000  0.15580000  1.0 0.110793787
H  H71  1  0.04570000  0.16070000  0.20580000  1.0 0.110793787
H  H72  1  0.97770000  0.43850000  0.12940000  1.0 0.1281230459
H  H73  1  0.94330000  0.29840000  0.07640000  1.0 0.110793787
H  H74  1  0.91760000  0.06990000  0.71620000  1.0 0.110793787
H  H75  1  0.86450000  0.08570000  0.76050000  1.0 0.1857159109
H  H76  1  0.98770000  0.01490000  0.75510000  1.0 0.1019487175
C  C1  1  0.40910000  0.46620000  0.30720000  1.0 0.5318311909
C  C2  1  0.45140000  0.38370000  0.34040000  1.0 -0.0417141272
C  C3  1  0.57300000  0.37210000  0.34950000  1.0 -0.0935409522
C  C4  1  0.61480000  0.29440000  0.37840000  1.0 -0.1590342556
C  C5  1  0.53260000  0.22590000  0.40090000  1.0 0.0910860007
C  C6  1  0.41400000  0.24370000  0.39320000  1.0 -0.1488742571
C  C7  1  0.37190000  0.32150000  0.36340000  1.0 -0.0935409522
C  C8  1  0.57410000  0.13270000  0.43030000  1.0 -0.0496497587
C  C9  1  0.71330000  0.04300000  0.48750000  1.0 -0.1159934754
C  C10  1  0.54440000  0.02090000  0.43250000  1.0 -0.0496497587
C  C11  1  0.46140000  0.94820000  0.40480000  1.0 0.0910860007
C  C12  1  0.39690000  0.84820000  0.41760000  1.0 -0.1590342556
C  C13  1  0.33290000  0.77950000  0.39020000  1.0 -0.0935409522
C  C14  1  0.38980000  0.91050000  0.33620000  1.0 -0.0935409522
C  C15  1  0.45290000  0.97960000  0.36340000  1.0 -0.1358971587
C  C16  1  0.33150000  0.80790000  0.34940000  1.0 -0.0241525974
C  C17  1  0.27110000  0.72680000  0.31750000  1.0 0.5594950775
C  C18  1  0.80370000  0.02340000  0.51460000  1.0 -0.1120479068
C  C19  1  0.96280000  0.05130000  0.57190000  1.0 -0.0496497587
C  C20  1  0.92970000  0.93970000  0.57650000  1.0 -0.0496497587
C  C21  1  0.05100000  0.12130000  0.59850000  1.0 0.0910860007
C  C22  1  0.01860000  0.22980000  0.61560000  1.0 -0.1488742571
C  C23  1  0.09710000  0.28610000  0.64300000  1.0 -0.0830395324
C  C24  1  0.20990000  0.24160000  0.65260000  1.0 -0.0417141272
C  C25  1  0.24290000  0.13310000  0.63420000  1.0 -0.0986135239
C  C26  1  0.16580000  0.07320000  0.60740000  1.0 -0.1704566887
C  C27  1  0.28700000  0.29600000  0.68510000  1.0 0.6122509697
C  C28  1  0.96280000  0.85150000  0.60950000  1.0 0.0910860007
C  C29  1  0.98890000  0.89260000  0.64950000  1.0 -0.1704566887
C  C30  1  0.02290000  0.81060000  0.67950000  1.0 -0.1159934754
C  C31  1  0.02440000  0.69090000  0.67210000  1.0 -0.0077541531
C  C32  1  0.98640000  0.64570000  0.63400000  1.0 -0.0935409522
C  C33  1  0.96170000  0.73040000  0.60310000  1.0 -0.1590342556
C  C34  1  0.05720000  0.60420000  0.70540000  1.0 0.5967201451
C  C35  1  0.93800000  0.91790000  0.24510000  1.0 -0.1995655065
C  C36  1  0.59090000  0.46620000  0.19280000  1.0 0.5318311909
C  C37  1  0.54860000  0.38370000  0.15960000  1.0 -0.0417141272
C  C38  1  0.42700000  0.37210000  0.15050000  1.0 -0.0935409522
C  C39  1  0.38520000  0.29440000  0.12160000  1.0 -0.1590342556
C  C40  1  0.46740000  0.22590000  0.09910000  1.0 0.0910860007
C  C41  1  0.58600000  0.24370000  0.10680000  1.0 -0.1488742571
C  C42  1  0.62810000  0.32150000  0.13660000  1.0 -0.0935409522
C  C43  1  0.42590000  0.13270000  0.06970000  1.0 -0.0496497587
C  C44  1  0.28670000  0.04300000  0.01250000  1.0 -0.1159934754
C  C45  1  0.45560000  0.02090000  0.06750000  1.0 -0.0496497587
C  C46  1  0.53860000  0.94820000  0.09520000  1.0 0.0910860007
C  C47  1  0.60310000  0.84820000  0.08240000  1.0 -0.1590342556
C  C48  1  0.66710000  0.77950000  0.10980000  1.0 -0.0935409522
C  C49  1  0.61020000  0.91050000  0.16380000  1.0 -0.0935409522
C  C50  1  0.54710000  0.97960000  0.13660000  1.0 -0.1358971587
C  C51  1  0.66850000  0.80790000  0.15060000  1.0 -0.0241525974
C  C52  1  0.72890000  0.72680000  0.18250000  1.0 0.5594950775
C  C53  1  0.19630000  0.02340000  0.98540000  1.0 -0.1120479068
C  C54  1  0.03720000  0.05130000  0.92810000  1.0 -0.0496497587
C  C55  1  0.07030000  0.93970000  0.92350000  1.0 -0.0496497587
C  C56  1  0.94900000  0.12130000  0.90150000  1.0 0.0910860007
C  C57  1  0.98140000  0.22980000  0.88440000  1.0 -0.1488742571
C  C58  1  0.90290000  0.28610000  0.85700000  1.0 -0.0830395324
C  C59  1  0.79010000  0.24160000  0.84740000  1.0 -0.0417141272
C  C60  1  0.75710000  0.13310000  0.86580000  1.0 -0.0986135239
C  C61  1  0.83420000  0.07320000  0.89260000  1.0 -0.1704566887
C  C62  1  0.71300000  0.29600000  0.81490000  1.0 0.6122509697
C  C63  1  0.03720000  0.85150000  0.89050000  1.0 0.0910860007
C  C64  1  0.01110000  0.89260000  0.85050000  1.0 -0.1704566887
C  C65  1  0.97710000  0.81060000  0.82050000  1.0 -0.1159934754
C  C66  1  0.97560000  0.69090000  0.82790000  1.0 -0.0077541531
C  C67  1  0.01360000  0.64570000  0.86600000  1.0 -0.0935409522
C  C68  1  0.03830000  0.73040000  0.89690000  1.0 -0.1590342556
C  C69  1  0.94280000  0.60420000  0.79460000  1.0 0.5967201451
C  C70  1  0.06200000  0.91790000  0.25490000  1.0 -0.1995655065
C  C71  1  0.59090000  0.53380000  0.69280000  1.0 0.5318311909
C  C72  1  0.54860000  0.61630000  0.65960000  1.0 -0.0417141272
C  C73  1  0.42700000  0.62790000  0.65050000  1.0 -0.0935409522
C  C74  1  0.38520000  0.70560000  0.62160000  1.0 -0.1590342556
C  C75  1  0.46740000  0.77410000  0.59910000  1.0 0.0910860007
C  C76  1  0.58600000  0.75630000  0.60680000  1.0 -0.1488742571
C  C77  1  0.62810000  0.67850000  0.63660000  1.0 -0.0935409522
C  C78  1  0.42590000  0.86730000  0.56970000  1.0 -0.0496497587
C  C79  1  0.28670000  0.95700000  0.51250000  1.0 -0.1159934754
C  C80  1  0.45560000  0.97910000  0.56750000  1.0 -0.0559161259
C  C81  1  0.53860000  0.05180000  0.59520000  1.0 0.0910860007
C  C82  1  0.60310000  0.15180000  0.58240000  1.0 -0.1590342556
C  C83  1  0.66710000  0.22050000  0.60980000  1.0 -0.0935409522
C  C84  1  0.61020000  0.08950000  0.66380000  1.0 -0.0935409522
C  C85  1  0.54710000  0.02040000  0.63660000  1.0 -0.1358971587
C  C86  1  0.66850000  0.19210000  0.65060000  1.0 -0.0241525974
C  C87  1  0.72890000  0.27320000  0.68250000  1.0 0.5594950775
C  C88  1  0.19630000  0.97660000  0.48540000  1.0 -0.1120479068
C  C89  1  0.03720000  0.94870000  0.42810000  1.0 -0.0496497587
C  C90  1  0.07030000  0.06030000  0.42350000  1.0 -0.0496497587
C  C91  1  0.94900000  0.87870000  0.40150000  1.0 0.0910860007
C  C92  1  0.98140000  0.77020000  0.38440000  1.0 -0.1488742571
C  C93  1  0.90290000  0.71390000  0.35700000  1.0 -0.0830395324
C  C94  1  0.79010000  0.75840000  0.34740000  1.0 -0.0417141272
C  C95  1  0.75710000  0.86690000  0.36580000  1.0 -0.0986135239
C  C96  1  0.83420000  0.92680000  0.39260000  1.0 -0.1704566887
C  C97  1  0.71300000  0.70400000  0.31490000  1.0 0.6122509697
C  C98  1  0.03720000  0.14850000  0.39050000  1.0 0.0910860007
C  C99  1  0.01110000  0.10740000  0.35050000  1.0 -0.1704566887
C  C100  1  0.97710000  0.18940000  0.32050000  1.0 -0.1159934754
C  C101  1  0.97560000  0.30910000  0.32790000  1.0 -0.0077541531
C  C102  1  0.01360000  0.35430000  0.36600000  1.0 -0.0935409522
C  C103  1  0.03830000  0.26960000  0.39690000  1.0 -0.1590342556
C  C104  1  0.94280000  0.39580000  0.29460000  1.0 0.5967201451
C  C105  1  0.06200000  0.08210000  0.75490000  1.0 -0.1995655065
C  C106  1  0.40910000  0.53380000  0.80720000  1.0 0.5318311909
C  C107  1  0.45140000  0.61630000  0.84040000  1.0 -0.0417141272
C  C108  1  0.57300000  0.62790000  0.84950000  1.0 -0.0935409522
C  C109  1  0.61480000  0.70560000  0.87840000  1.0 -0.1590342556
C  C110  1  0.53260000  0.77410000  0.90090000  1.0 0.0910860007
C  C111  1  0.41400000  0.75630000  0.89320000  1.0 -0.1488742571
C  C112  1  0.37190000  0.67850000  0.86340000  1.0 -0.0935409522
C  C113  1  0.57410000  0.86730000  0.93030000  1.0 -0.0496497587
C  C114  1  0.71330000  0.95700000  0.98750000  1.0 -0.1120479068
C  C115  1  0.54440000  0.97910000  0.93250000  1.0 -0.0496497587
C  C116  1  0.46140000  0.05180000  0.90480000  1.0 0.0910860007
C  C117  1  0.39690000  0.15180000  0.91760000  1.0 -0.1590342556
C  C118  1  0.33290000  0.22050000  0.89020000  1.0 -0.0935409522
C  C119  1  0.38980000  0.08950000  0.83620000  1.0 -0.0935409522
C  C120  1  0.45290000  0.02040000  0.86340000  1.0 -0.1358971587
C  C121  1  0.33150000  0.19210000  0.84940000  1.0 -0.0241525974
C  C122  1  0.27110000  0.27320000  0.81750000  1.0 0.5594950775
C  C123  1  0.80370000  0.97660000  0.01460000  1.0 -0.1120479068
C  C124  1  0.96280000  0.94870000  0.07190000  1.0 -0.0496497587
C  C125  1  0.92970000  0.06030000  0.07650000  1.0 -0.0496497587
C  C126  1  0.05100000  0.87870000  0.09850000  1.0 0.0910860007
C  C127  1  0.01860000  0.77020000  0.11560000  1.0 -0.1488742571
C  C128  1  0.09710000  0.71390000  0.14300000  1.0 -0.0830395324
C  C129  1  0.20990000  0.75840000  0.15260000  1.0 -0.0417141272
C  C130  1  0.24290000  0.86690000  0.13420000  1.0 -0.0986135239
C  C131  1  0.16580000  0.92680000  0.10740000  1.0 -0.1704566887
C  C132  1  0.28700000  0.70400000  0.18510000  1.0 0.6122509697
C  C133  1  0.96280000  0.14850000  0.10950000  1.0 0.0910860007
C  C134  1  0.98890000  0.10740000  0.14950000  1.0 -0.1704566887
C  C135  1  0.02290000  0.18940000  0.17950000  1.0 -0.1159934754
C  C136  1  0.02440000  0.30910000  0.17210000  1.0 -0.0077541531
C  C137  1  0.98640000  0.35430000  0.13400000  1.0 -0.0935409522
C  C138  1  0.96170000  0.26960000  0.10310000  1.0 -0.1590342556
C  C139  1  0.05720000  0.39580000  0.20540000  1.0 0.5967201451
C  C140  1  0.93800000  0.08210000  0.74510000  1.0 -0.1995655065
C  C141  1  0.00000000  0.81130000  0.25000000  1.0 0.2970008412
C  C142  1  0.00000000  0.18870000  0.75000000  1.0 0.294382737
S  S1  1  0.69040000  0.18220000  0.46464000  1.0 0.0511006559
S  S2  1  0.61440000  0.92860000  0.47069000  1.0 0.0511006559
S  S3  1  0.90340000  0.13570000  0.53109000  1.0 0.0592572251
S  S4  1  0.82680000  0.88220000  0.53919000  1.0 0.0321557009
S  S5  1  0.30960000  0.18220000  0.03536000  1.0 0.0511006559
S  S6  1  0.38560000  0.92860000  0.02931000  1.0 0.0511006559
S  S7  1  0.09660000  0.13570000  0.96891000  1.0 0.0592572251
S  S8  1  0.17320000  0.88220000  0.96081000  1.0 0.0321557009
S  S9  1  0.30960000  0.81780000  0.53536000  1.0 0.0511006559
S  S10  1  0.38560000  0.07140000  0.52931000  1.0 0.0511006559
S  S11  1  0.09660000  0.86430000  0.46891000  1.0 0.0592572251
S  S12  1  0.17320000  0.11780000  0.46081000  1.0 0.0321557009
S  S13  1  0.69040000  0.81780000  0.96464000  1.0 0.0511006559
S  S14  1  0.61440000  0.07140000  0.97069000  1.0 0.0511006559
S  S15  1  0.90340000  0.86430000  0.03109000  1.0 0.0592572251
S  S16  1  0.82680000  0.11780000  0.03919000  1.0 0.0321557009
O  O1  1  0.30410000  0.45800000  0.29470000  1.0 -0.5907323575
O  O2  1  0.31420000  0.72250000  0.28220000  1.0 -0.7697312227
O  O3  1  0.18210000  0.66570000  0.32620000  1.0 -0.5907323575
O  O4  1  0.25400000  0.39080000  0.70310000  1.0 -0.7125071278
O  O5  1  0.38460000  0.24350000  0.69440000  1.0 -0.6688722214
O  O6  1  0.14060000  0.62910000  0.73090000  1.0 -0.5999879232
O  O7  1  0.00680000  0.50110000  0.70670000  1.0 -0.7445802232
O  O8  1  0.48160000  0.51550000  0.28250000  1.0 -0.1590342556
O  O9  1  0.12250000  0.81190000  0.24360000  1.0 -0.1488742571
O  O10  1  0.96510000  0.70700000  0.25460000  1.0 -0.1704566887
O  O11  1  0.48530000  0.55150000  0.30040000  1.0 -0.1590342556
O  O12  1  0.69590000  0.45800000  0.20530000  1.0 -0.5907323575
O  O13  1  0.68580000  0.72250000  0.21780000  1.0 -0.7697312227
O  O14  1  0.81790000  0.66570000  0.17380000  1.0 -0.5907323575
O  O15  1  0.74600000  0.39080000  0.79690000  1.0 -0.7125071278
O  O16  1  0.61540000  0.24350000  0.80560000  1.0 -0.6688722214
O  O17  1  0.85940000  0.62910000  0.76910000  1.0 -0.5999879232
O  O18  1  0.99320000  0.50110000  0.79330000  1.0 -0.7455824754
O  O19  1  0.51840000  0.51550000  0.21750000  1.0 -0.1590342556
O  O20  1  0.87750000  0.81190000  0.25640000  1.0 -0.1488742571
O  O21  1  0.03490000  0.70700000  0.24540000  1.0 -0.1704566887
O  O22  1  0.51470000  0.55150000  0.19960000  1.0 -0.1704566887
O  O23  1  0.69590000  0.54200000  0.70530000  1.0 -0.5907323575
O  O24  1  0.68580000  0.27750000  0.71780000  1.0 -0.7697312227
O  O25  1  0.81790000  0.33430000  0.67380000  1.0 -0.5907323575
O  O26  1  0.74600000  0.60920000  0.29690000  1.0 -0.7125071278
O  O27  1  0.61540000  0.75650000  0.30560000  1.0 -0.6688722214
O  O28  1  0.85940000  0.37090000  0.26910000  1.0 -0.5999879232
O  O29  1  0.99320000  0.49890000  0.29330000  1.0 -0.7455824754
O  O30  1  0.51840000  0.48450000  0.71750000  1.0 -0.1704566887
O  O31  1  0.87750000  0.18810000  0.75640000  1.0 -0.1488742571
O  O32  1  0.03490000  0.29300000  0.74540000  1.0 -0.1704566887
O  O33  1  0.51470000  0.44850000  0.69960000  1.0 -0.1590342556
O  O34  1  0.30410000  0.54200000  0.79470000  1.0 -0.5907323575
O  O35  1  0.31420000  0.27750000  0.78220000  1.0 -0.7697312227
O  O36  1  0.18210000  0.33430000  0.82620000  1.0 -0.5907323575
O  O37  1  0.25400000  0.60920000  0.20310000  1.0 -0.7125071278
O  O38  1  0.38460000  0.75650000  0.19440000  1.0 -0.6688722214
O  O39  1  0.14060000  0.37090000  0.23090000  1.0 -0.5999879232
O  O40  1  0.00680000  0.49890000  0.20670000  1.0 -0.7455824754
O  O41  1  0.48160000  0.48450000  0.78250000  1.0 -0.1590342556
O  O42  1  0.12250000  0.18810000  0.74360000  1.0 -0.1488742571
O  O43  1  0.96510000  0.29300000  0.75460000  1.0 -0.1704566887
O  O44  1  0.48530000  0.44850000  0.80040000  1.0 -0.1704566887
