# DDEC6 charges by PACMAN v1.1 (https://github.com/mtap-research/PACMAN-charge/)
data_POTYOP_FSR_pacman
_symmetry_space_group_name_H-M   'P 1'
_cell_length_a   11.14400000
_cell_length_b   11.33780000
_cell_length_c   32.28470000
_cell_angle_alpha   90.00000000
_cell_angle_beta   91.31920000
_cell_angle_gamma   90.00000000
_symmetry_Int_Tables_number   1
_chemical_formula_structural   Er3H44C71S8O21
_chemical_formula_sum   'Er6 H88 C142 S16 O42'
_cell_volume   4078.04041542
_cell_formula_units_Z   2
loop_
 _symmetry_equiv_pos_site_id
 _symmetry_equiv_pos_as_xyz
  1  'x, y, z'
loop_
 _atom_site_type_symbol
 _atom_site_label
 _atom_site_symmetry_multiplicity
 _atom_site_fract_x
 _atom_site_fract_y
 _atom_site_fract_z
 _atom_site_occupancy
 _atom_site_charge
Er  Er1  1  0.66212000  0.06832000  0.76211000  1.0 1.8985921832
Er  Er2  1  0.33788000  0.06832000  0.73789000  1.0 1.8985921832
Er  Er3  1  0.33788000  0.93168000  0.23789000  1.0 1.8985921832
Er  Er4  1  0.66212000  0.93168000  0.26211000  1.0 1.8985921832
Er  Er5  1  0.00000000  0.81198000  0.25000000  1.0 1.9690899345
Er  Er6  1  0.00000000  0.18802000  0.75000000  1.0 1.9690899345
H  H1  1  0.94330000  0.57420000  0.23250000  1.0 0.089782905
H  H2  1  0.87450000  0.57550000  0.30730000  1.0 0.1008690035
H  H3  1  0.98310000  0.45250000  0.35220000  1.0 0.1111677146
H  H4  1  0.85780000  0.29950000  0.41070000  1.0 0.1111677146
H  H5  1  0.44380000  0.24170000  0.60910000  1.0 0.1207251859
H  H6  1  0.78750000  0.16960000  0.35980000  1.0 0.1207251859
H  H7  1  0.12950000  0.09550000  0.33020000  1.0 0.1403500734
H  H8  1  0.57140000  0.14230000  0.65450000  1.0 0.130050579
H  H9  1  0.44400000  0.79520000  0.57540000  1.0 0.1111677146
H  H10  1  0.48530000  0.93230000  0.62770000  1.0 0.130050579
H  H11  1  0.79450000  0.79350000  0.40130000  1.0 0.1207251859
H  H12  1  0.19770000  0.23220000  0.37890000  1.0 0.1111677146
H  H13  1  0.90750000  0.67190000  0.44710000  1.0 0.1008690035
H  H14  1  0.82150000  0.39700000  0.64240000  1.0 0.1207251859
H  H15  1  0.69310000  0.49890000  0.59630000  1.0 0.1111677146
H  H16  1  0.48760000  0.53130000  0.65740000  1.0 0.1111677146
H  H17  1  0.55490000  0.66730000  0.70700000  1.0 0.1111677146
H  H18  1  0.62440000  0.41470000  0.73380000  1.0 0.1536688784
H  H19  1  0.52130000  0.47090000  0.76130000  1.0 0.082871029
H  H20  1  0.62230000  0.38900000  0.78250000  1.0 0.1403500734
H  H21  1  0.99090000  0.53070000  0.24460000  1.0 0.0717917698
H  H22  1  0.92500000  0.57290000  0.24730000  1.0 0.089782905
H  H23  1  0.05670000  0.57420000  0.26750000  1.0 0.089782905
H  H24  1  0.12550000  0.57550000  0.19270000  1.0 0.1008690035
H  H25  1  0.01690000  0.45250000  0.14780000  1.0 0.1111677146
H  H26  1  0.14220000  0.29950000  0.08930000  1.0 0.1111677146
H  H27  1  0.55620000  0.24170000  0.89090000  1.0 0.1207251859
H  H28  1  0.21250000  0.16960000  0.14020000  1.0 0.1207251859
H  H29  1  0.87050000  0.09550000  0.16980000  1.0 0.1403500734
H  H30  1  0.42860000  0.14230000  0.84550000  1.0 0.130050579
H  H31  1  0.55600000  0.79520000  0.92460000  1.0 0.1111677146
H  H32  1  0.51470000  0.93230000  0.87230000  1.0 0.130050579
H  H33  1  0.20550000  0.79350000  0.09870000  1.0 0.1207251859
H  H34  1  0.80230000  0.23220000  0.12110000  1.0 0.1111677146
H  H35  1  0.09250000  0.67190000  0.05290000  1.0 0.1008690035
H  H36  1  0.17850000  0.39700000  0.85760000  1.0 0.1207251859
H  H37  1  0.30690000  0.49890000  0.90370000  1.0 0.1111677146
H  H38  1  0.51240000  0.53130000  0.84260000  1.0 0.1111677146
H  H39  1  0.44510000  0.66730000  0.79300000  1.0 0.1111677146
H  H40  1  0.37560000  0.41470000  0.76620000  1.0 0.1536688784
H  H41  1  0.47870000  0.47090000  0.73870000  1.0 0.082871029
H  H42  1  0.37770000  0.38900000  0.71750000  1.0 0.1403500734
H  H43  1  0.00910000  0.53070000  0.25540000  1.0 0.0717917698
H  H44  1  0.07500000  0.57290000  0.25270000  1.0 0.089782905
H  H45  1  0.05670000  0.42580000  0.76750000  1.0 0.089782905
H  H46  1  0.12550000  0.42450000  0.69270000  1.0 0.1008690035
H  H47  1  0.01690000  0.54750000  0.64780000  1.0 0.1111677146
H  H48  1  0.14220000  0.70050000  0.58930000  1.0 0.1111677146
H  H49  1  0.55620000  0.75830000  0.39090000  1.0 0.1207251859
H  H50  1  0.21250000  0.83040000  0.64020000  1.0 0.1207251859
H  H51  1  0.87050000  0.90450000  0.66980000  1.0 0.1403500734
H  H52  1  0.42860000  0.85770000  0.34550000  1.0 0.130050579
H  H53  1  0.55600000  0.20480000  0.42460000  1.0 0.1111677146
H  H54  1  0.51470000  0.06770000  0.37230000  1.0 0.130050579
H  H55  1  0.20550000  0.20650000  0.59870000  1.0 0.1207251859
H  H56  1  0.80230000  0.76780000  0.62110000  1.0 0.1111677146
H  H57  1  0.09250000  0.32810000  0.55290000  1.0 0.1008690035
H  H58  1  0.17850000  0.60300000  0.35760000  1.0 0.1207251859
H  H59  1  0.30690000  0.50110000  0.40370000  1.0 0.1111677146
H  H60  1  0.51240000  0.46870000  0.34260000  1.0 0.1111677146
H  H61  1  0.44510000  0.33270000  0.29300000  1.0 0.1111677146
H  H62  1  0.37560000  0.58530000  0.26620000  1.0 0.1536688784
H  H63  1  0.47870000  0.52910000  0.23870000  1.0 0.082871029
H  H64  1  0.37770000  0.61100000  0.21750000  1.0 0.1403500734
H  H65  1  0.00910000  0.46930000  0.75540000  1.0 0.0717917698
H  H66  1  0.07500000  0.42710000  0.75270000  1.0 0.089782905
H  H67  1  0.94330000  0.42580000  0.73250000  1.0 0.089782905
H  H68  1  0.87450000  0.42450000  0.80730000  1.0 0.1008690035
H  H69  1  0.98310000  0.54750000  0.85220000  1.0 0.1111677146
H  H70  1  0.85780000  0.70050000  0.91070000  1.0 0.1111677146
H  H71  1  0.44380000  0.75830000  0.10910000  1.0 0.1207251859
H  H72  1  0.78750000  0.83040000  0.85980000  1.0 0.1207251859
H  H73  1  0.12950000  0.90450000  0.83020000  1.0 0.1403500734
H  H74  1  0.57140000  0.85770000  0.15450000  1.0 0.130050579
H  H75  1  0.44400000  0.20480000  0.07540000  1.0 0.1111677146
H  H76  1  0.48530000  0.06770000  0.12770000  1.0 0.130050579
H  H77  1  0.79450000  0.20650000  0.90130000  1.0 0.1207251859
H  H78  1  0.19770000  0.76780000  0.87890000  1.0 0.1111677146
H  H79  1  0.90750000  0.32810000  0.94710000  1.0 0.1008690035
H  H80  1  0.82150000  0.60300000  0.14240000  1.0 0.1207251859
H  H81  1  0.69310000  0.50110000  0.09630000  1.0 0.1111677146
H  H82  1  0.48760000  0.46870000  0.15740000  1.0 0.1111677146
H  H83  1  0.55490000  0.33270000  0.20700000  1.0 0.1111677146
H  H84  1  0.62440000  0.58530000  0.23380000  1.0 0.1536688784
H  H85  1  0.52130000  0.52910000  0.26130000  1.0 0.082871029
H  H86  1  0.62230000  0.61100000  0.28250000  1.0 0.1403500734
H  H87  1  0.99090000  0.46930000  0.74460000  1.0 0.0717917698
H  H88  1  0.92500000  0.42710000  0.74730000  1.0 0.089782905
C  C1  1  0.55860000  0.89880000  0.70490000  1.0 0.6094889061
C  C2  1  0.46730000  0.45000000  0.57290000  1.0 -0.0512623604
C  C3  1  0.95170000  0.12160000  0.33960000  1.0 -0.0202230179
C  C4  1  0.55330000  0.38300000  0.59930000  1.0 0.089782905
C  C5  1  0.90650000  0.03890000  0.30610000  1.0 0.6522254439
C  C6  1  0.88210000  0.59570000  0.33580000  1.0 -0.1402904784
C  C7  1  0.94740000  0.52250000  0.36240000  1.0 -0.1402904784
C  C8  1  0.82890000  0.69540000  0.34960000  1.0 -0.0202230179
C  C9  1  0.43350000  0.56270000  0.57760000  1.0 -0.0512623604
C  C10  1  0.91320000  0.26020000  0.39360000  1.0 -0.1491695551
C  C11  1  0.51990000  0.27470000  0.61620000  1.0 -0.1491695551
C  C12  1  0.46560000  0.64880000  0.61050000  1.0 0.089782905
C  C13  1  0.87140000  0.18190000  0.36370000  1.0 -0.1004007823
C  C14  1  0.04160000  0.48700000  0.43140000  1.0 -0.0512623604
C  C15  1  0.07880000  0.37300000  0.42810000  1.0 -0.0512623604
C  C16  1  0.96020000  0.55230000  0.40410000  1.0 0.089782905
C  C17  1  0.78810000  0.20250000  0.68540000  1.0 0.6094889061
C  C18  1  0.07360000  0.13890000  0.34590000  1.0 -0.0797525442
C  C19  1  0.52450000  0.81080000  0.67230000  1.0 -0.0062697159
C  C20  1  0.59590000  0.21530000  0.64300000  1.0 -0.0797525442
C  C21  1  0.46390000  0.76840000  0.60260000  1.0 -0.1491695551
C  C22  1  0.03480000  0.28190000  0.39880000  1.0 0.089782905
C  C23  1  0.49050000  0.85020000  0.63330000  1.0 -0.0868916457
C  C24  1  0.77150000  0.77850000  0.31890000  1.0 0.5582290085
C  C25  1  0.83470000  0.72560000  0.39130000  1.0 -0.0868916457
C  C26  1  0.30370000  0.48040000  0.51500000  1.0 -0.1004007823
C  C27  1  0.21580000  0.46070000  0.48680000  1.0 -0.1110710576
C  C28  1  0.11390000  0.21960000  0.37510000  1.0 -0.1623271836
C  C29  1  0.70790000  0.26060000  0.65360000  1.0 -0.0342162756
C  C30  1  0.90190000  0.65250000  0.41850000  1.0 -0.1623271836
C  C31  1  0.74410000  0.36620000  0.63590000  1.0 -0.1110710576
C  C32  1  0.66750000  0.42730000  0.60850000  1.0 -0.1623271836
C  C33  1  0.49290000  0.61250000  0.65040000  1.0 -0.1623271836
C  C34  1  0.52810000  0.69400000  0.68050000  1.0 -0.1110710576
C  C35  1  0.57250000  0.40170000  0.75750000  1.0 -0.1299618279
C  C36  1  0.44140000  0.89880000  0.79510000  1.0 0.6094889061
C  C37  1  0.53270000  0.45000000  0.92710000  1.0 -0.0512623604
C  C38  1  0.04830000  0.12160000  0.16040000  1.0 -0.0202230179
C  C39  1  0.44670000  0.38300000  0.90070000  1.0 0.089782905
C  C40  1  0.09350000  0.03890000  0.19390000  1.0 0.6522254439
C  C41  1  0.11790000  0.59570000  0.16420000  1.0 -0.1402904784
C  C42  1  0.05260000  0.52250000  0.13760000  1.0 -0.1402904784
C  C43  1  0.17110000  0.69540000  0.15040000  1.0 -0.0202230179
C  C44  1  0.56650000  0.56270000  0.92240000  1.0 -0.0512623604
C  C45  1  0.08680000  0.26020000  0.10640000  1.0 -0.1491695551
C  C46  1  0.48010000  0.27470000  0.88380000  1.0 -0.1491695551
C  C47  1  0.53440000  0.64880000  0.88950000  1.0 0.089782905
C  C48  1  0.12860000  0.18190000  0.13630000  1.0 -0.1004007823
C  C49  1  0.95840000  0.48700000  0.06860000  1.0 -0.0512623604
C  C50  1  0.92120000  0.37300000  0.07190000  1.0 -0.0449751748
C  C51  1  0.03980000  0.55230000  0.09590000  1.0 0.089782905
C  C52  1  0.21190000  0.20250000  0.81460000  1.0 0.6094889061
C  C53  1  0.92640000  0.13890000  0.15410000  1.0 -0.0797525442
C  C54  1  0.47550000  0.81080000  0.82770000  1.0 -0.0062697159
C  C55  1  0.40410000  0.21530000  0.85700000  1.0 -0.0797525442
C  C56  1  0.53610000  0.76840000  0.89740000  1.0 -0.1491695551
C  C57  1  0.96520000  0.28190000  0.10120000  1.0 0.089782905
C  C58  1  0.50950000  0.85020000  0.86670000  1.0 -0.0868916457
C  C59  1  0.22850000  0.77850000  0.18110000  1.0 0.5582290085
C  C60  1  0.16530000  0.72560000  0.10870000  1.0 -0.0868916457
C  C61  1  0.69630000  0.48040000  0.98500000  1.0 -0.1004007823
C  C62  1  0.78420000  0.46070000  0.01320000  1.0 -0.1110710576
C  C63  1  0.88610000  0.21960000  0.12490000  1.0 -0.1623271836
C  C64  1  0.29210000  0.26060000  0.84640000  1.0 -0.0342162756
C  C65  1  0.09810000  0.65250000  0.08150000  1.0 -0.1623271836
C  C66  1  0.25590000  0.36620000  0.86410000  1.0 -0.1151457636
C  C67  1  0.33250000  0.42730000  0.89150000  1.0 -0.1623271836
C  C68  1  0.50710000  0.61250000  0.84960000  1.0 -0.1623271836
C  C69  1  0.47190000  0.69400000  0.81950000  1.0 -0.1110710576
C  C70  1  0.42750000  0.40170000  0.74250000  1.0 -0.1299618279
C  C71  1  0.44140000  0.10120000  0.29510000  1.0 0.6094889061
C  C72  1  0.53270000  0.55000000  0.42710000  1.0 -0.0512623604
C  C73  1  0.04830000  0.87840000  0.66040000  1.0 -0.0202230179
C  C74  1  0.44670000  0.61700000  0.40070000  1.0 0.089782905
C  C75  1  0.09350000  0.96110000  0.69390000  1.0 0.6522254439
C  C76  1  0.11790000  0.40430000  0.66420000  1.0 -0.1402904784
C  C77  1  0.05260000  0.47750000  0.63760000  1.0 -0.1402904784
C  C78  1  0.17110000  0.30460000  0.65040000  1.0 -0.0202230179
C  C79  1  0.56650000  0.43730000  0.42240000  1.0 -0.0512623604
C  C80  1  0.08680000  0.73980000  0.60640000  1.0 -0.1491695551
C  C81  1  0.48010000  0.72530000  0.38380000  1.0 -0.1491695551
C  C82  1  0.53440000  0.35120000  0.38950000  1.0 0.089782905
C  C83  1  0.12860000  0.81810000  0.63630000  1.0 -0.1004007823
C  C84  1  0.95840000  0.51300000  0.56860000  1.0 -0.0512623604
C  C85  1  0.92120000  0.62700000  0.57190000  1.0 -0.0449751748
C  C86  1  0.03980000  0.44770000  0.59590000  1.0 0.089782905
C  C87  1  0.21190000  0.79750000  0.31460000  1.0 0.6094889061
C  C88  1  0.92640000  0.86110000  0.65410000  1.0 -0.0797525442
C  C89  1  0.47550000  0.18920000  0.32770000  1.0 -0.0062697159
C  C90  1  0.40410000  0.78470000  0.35700000  1.0 -0.0797525442
C  C91  1  0.53610000  0.23160000  0.39740000  1.0 -0.1491695551
C  C92  1  0.96520000  0.71810000  0.60120000  1.0 0.089782905
C  C93  1  0.50950000  0.14980000  0.36670000  1.0 -0.0868916457
C  C94  1  0.22850000  0.22150000  0.68110000  1.0 0.5582290085
C  C95  1  0.16530000  0.27440000  0.60870000  1.0 -0.0868916457
C  C96  1  0.69630000  0.51960000  0.48500000  1.0 -0.1004007823
C  C97  1  0.78420000  0.53930000  0.51320000  1.0 -0.1110710576
C  C98  1  0.88610000  0.78040000  0.62490000  1.0 -0.1623271836
C  C99  1  0.29210000  0.73940000  0.34640000  1.0 -0.0342162756
C  C100  1  0.09810000  0.34750000  0.58150000  1.0 -0.1623271836
C  C101  1  0.25590000  0.63380000  0.36410000  1.0 -0.1151457636
C  C102  1  0.33250000  0.57270000  0.39150000  1.0 -0.1623271836
C  C103  1  0.50710000  0.38750000  0.34960000  1.0 -0.1623271836
C  C104  1  0.47190000  0.30600000  0.31950000  1.0 -0.1110710576
C  C105  1  0.42750000  0.59830000  0.24250000  1.0 -0.1299618279
C  C106  1  0.55860000  0.10120000  0.20490000  1.0 0.6094889061
C  C107  1  0.46730000  0.55000000  0.07290000  1.0 -0.0512623604
C  C108  1  0.95170000  0.87840000  0.83960000  1.0 -0.0202230179
C  C109  1  0.55330000  0.61700000  0.09930000  1.0 0.089782905
C  C110  1  0.90650000  0.96110000  0.80610000  1.0 0.6522254439
C  C111  1  0.88210000  0.40430000  0.83580000  1.0 -0.1402904784
C  C112  1  0.94740000  0.47750000  0.86240000  1.0 -0.1402904784
C  C113  1  0.82890000  0.30460000  0.84960000  1.0 -0.0202230179
C  C114  1  0.43350000  0.43730000  0.07760000  1.0 -0.0512623604
C  C115  1  0.91320000  0.73980000  0.89360000  1.0 -0.1491695551
C  C116  1  0.51990000  0.72530000  0.11620000  1.0 -0.1491695551
C  C117  1  0.46560000  0.35120000  0.11050000  1.0 0.089782905
C  C118  1  0.87140000  0.81810000  0.86370000  1.0 -0.1004007823
C  C119  1  0.04160000  0.51300000  0.93140000  1.0 -0.0512623604
C  C120  1  0.07880000  0.62700000  0.92810000  1.0 -0.0449751748
C  C121  1  0.96020000  0.44770000  0.90410000  1.0 0.089782905
C  C122  1  0.78810000  0.79750000  0.18540000  1.0 0.6094889061
C  C123  1  0.07360000  0.86110000  0.84590000  1.0 -0.0797525442
C  C124  1  0.52450000  0.18920000  0.17230000  1.0 -0.0062697159
C  C125  1  0.59590000  0.78470000  0.14300000  1.0 -0.0797525442
C  C126  1  0.46390000  0.23160000  0.10260000  1.0 -0.1491695551
C  C127  1  0.03480000  0.71810000  0.89880000  1.0 0.089782905
C  C128  1  0.49050000  0.14980000  0.13330000  1.0 -0.0868916457
C  C129  1  0.77150000  0.22150000  0.81890000  1.0 0.5582290085
C  C130  1  0.83470000  0.27440000  0.89130000  1.0 -0.0868916457
C  C131  1  0.30370000  0.51960000  0.01500000  1.0 -0.1004007823
C  C132  1  0.21580000  0.53930000  0.98680000  1.0 -0.1110710576
C  C133  1  0.11390000  0.78040000  0.87510000  1.0 -0.1623271836
C  C134  1  0.70790000  0.73940000  0.15360000  1.0 -0.0342162756
C  C135  1  0.90190000  0.34750000  0.91850000  1.0 -0.1623271836
C  C136  1  0.74410000  0.63380000  0.13590000  1.0 -0.1151457636
C  C137  1  0.66750000  0.57270000  0.10850000  1.0 -0.1623271836
C  C138  1  0.49290000  0.38750000  0.15040000  1.0 -0.1623271836
C  C139  1  0.52810000  0.30600000  0.18050000  1.0 -0.1110710576
C  C140  1  0.57250000  0.59830000  0.25750000  1.0 -0.1299618279
C  C141  1  0.50000000  0.30140000  0.75000000  1.0 0.2774104419
C  C142  1  0.50000000  0.69860000  0.25000000  1.0 0.2774104419
S  S1  1  0.40502000  0.36992000  0.53130000  1.0 0.0600700405
S  S2  1  0.32921000  0.61714000  0.53927000  1.0 0.0419657694
S  S3  1  0.19450000  0.32511000  0.46279000  1.0 0.0600700405
S  S4  1  0.11622000  0.57282000  0.47029000  1.0 0.0502645568
S  S5  1  0.59498000  0.36992000  0.96870000  1.0 0.0600700405
S  S6  1  0.67079000  0.61714000  0.96073000  1.0 0.0419657694
S  S7  1  0.80550000  0.32511000  0.03721000  1.0 0.0600700405
S  S8  1  0.88378000  0.57282000  0.02971000  1.0 0.0502645568
S  S9  1  0.59498000  0.63008000  0.46870000  1.0 0.0600700405
S  S10  1  0.67079000  0.38286000  0.46073000  1.0 0.0419657694
S  S11  1  0.80550000  0.67489000  0.53721000  1.0 0.0600700405
S  S12  1  0.88378000  0.42718000  0.52971000  1.0 0.0502645568
S  S13  1  0.40502000  0.63008000  0.03130000  1.0 0.0600700405
S  S14  1  0.32921000  0.38286000  0.03927000  1.0 0.0419657694
S  S15  1  0.19450000  0.67489000  0.96279000  1.0 0.0600700405
S  S16  1  0.11622000  0.42718000  0.97029000  1.0 0.0502645568
O  O1  1  0.50580000  0.99880000  0.70600000  1.0 -0.752714133
O  O2  1  0.75020000  0.10900000  0.70360000  1.0 -0.7341230122
O  O3  1  0.64270000  0.87700000  0.73143000  1.0 -0.6029445437
O  O4  1  0.80080000  0.04490000  0.29473000  1.0 -0.6380009857
O  O5  1  0.88640000  0.24990000  0.69434000  1.0 -0.606875331
O  O6  1  0.81490000  0.78520000  0.28252000  1.0 -0.7558558492
O  O7  1  0.68290000  0.84060000  0.32779000  1.0 -0.606875331
O  O8  1  0.98350000  0.96970000  0.29240000  1.0 -0.6665227024
O  O9  1  0.53210000  0.19980000  0.74580000  1.0 -0.1402904784
O  O10  1  0.38110000  0.30890000  0.75460000  1.0 -0.1299618279
O  O11  1  0.49420000  0.99880000  0.79400000  1.0 -0.752714133
O  O12  1  0.24980000  0.10900000  0.79640000  1.0 -0.7341230122
O  O13  1  0.35730000  0.87700000  0.76857000  1.0 -0.6029445437
O  O14  1  0.19920000  0.04490000  0.20527000  1.0 -0.6380009857
O  O15  1  0.11360000  0.24990000  0.80566000  1.0 -0.606875331
O  O16  1  0.18510000  0.78520000  0.21748000  1.0 -0.7558558492
O  O17  1  0.31710000  0.84060000  0.17221000  1.0 -0.606875331
O  O18  1  0.01650000  0.96970000  0.20760000  1.0 -0.6665227024
O  O19  1  0.46790000  0.19980000  0.75420000  1.0 -0.1402904784
O  O20  1  0.61890000  0.30890000  0.74540000  1.0 -0.1299618279
O  O21  1  0.49420000  0.00120000  0.29400000  1.0 -0.752714133
O  O22  1  0.24980000  0.89100000  0.29640000  1.0 -0.7341230122
O  O23  1  0.35730000  0.12300000  0.26857000  1.0 -0.6029445437
O  O24  1  0.19920000  0.95510000  0.70527000  1.0 -0.6380009857
O  O25  1  0.11360000  0.75010000  0.30566000  1.0 -0.606875331
O  O26  1  0.18510000  0.21480000  0.71748000  1.0 -0.7558558492
O  O27  1  0.31710000  0.15940000  0.67221000  1.0 -0.6029445437
O  O28  1  0.01650000  0.03030000  0.70760000  1.0 -0.6665227024
O  O29  1  0.46790000  0.80020000  0.25420000  1.0 -0.1402904784
O  O30  1  0.61890000  0.69110000  0.24540000  1.0 -0.1299618279
O  O31  1  0.50580000  0.00120000  0.20600000  1.0 -0.752714133
O  O32  1  0.75020000  0.89100000  0.20360000  1.0 -0.7341230122
O  O33  1  0.64270000  0.12300000  0.23143000  1.0 -0.6029445437
O  O34  1  0.80080000  0.95510000  0.79473000  1.0 -0.6380009857
O  O35  1  0.88640000  0.75010000  0.19434000  1.0 -0.606875331
O  O36  1  0.81490000  0.21480000  0.78252000  1.0 -0.7558558492
O  O37  1  0.68290000  0.15940000  0.82779000  1.0 -0.6029445437
O  O38  1  0.98350000  0.03030000  0.79240000  1.0 -0.6665227024
O  O39  1  0.53210000  0.80020000  0.24580000  1.0 -0.1402904784
O  O40  1  0.38110000  0.69110000  0.25460000  1.0 -0.1299618279
O  O41  1  0.00000000  0.60460000  0.25000000  1.0 -0.446207991
O  O42  1  0.00000000  0.39540000  0.75000000  1.0 -0.446207991
