# DDEC6 charges by PACMAN v1.1 (https://github.com/mtap-research/PACMAN-charge/)
data_POTZIK_ASR_pacman
_symmetry_space_group_name_H-M   'P 1'
_cell_length_a   11.17060000
_cell_length_b   11.35300000
_cell_length_c   32.34070000
_cell_angle_alpha   90.00000000
_cell_angle_beta   91.60000000
_cell_angle_gamma   90.00000000
_symmetry_Int_Tables_number   1
_chemical_formula_structural   Ho3H38C72(S2O5)4
_chemical_formula_sum   'Ho6 H76 C144 S16 O40'
_cell_volume   4099.84272041
_cell_formula_units_Z   2
loop_
 _symmetry_equiv_pos_site_id
 _symmetry_equiv_pos_as_xyz
  1  'x, y, z'
loop_
 _atom_site_type_symbol
 _atom_site_label
 _atom_site_symmetry_multiplicity
 _atom_site_fract_x
 _atom_site_fract_y
 _atom_site_fract_z
 _atom_site_occupancy
 _atom_site_charge
Ho  Ho1  1  0.66175000  0.93156000  0.76229000  1.0 1.862045425
Ho  Ho2  1  0.33825000  0.93156000  0.73771000  1.0 1.862045425
Ho  Ho3  1  0.33825000  0.06844000  0.23771000  1.0 1.862045425
Ho  Ho4  1  0.66175000  0.06844000  0.26229000  1.0 1.862045425
Ho  Ho5  1  0.00000000  0.81340000  0.75000000  1.0 2.0333401738
Ho  Ho6  1  0.00000000  0.18660000  0.25000000  1.0 2.0333401738
H  H1  1  0.79900000  0.20880000  0.40110000  1.0 0.129049222
H  H2  1  0.87410000  0.42750000  0.30840000  1.0 0.1195936375
H  H3  1  0.79010000  0.82950000  0.35990000  1.0 0.1195936375
H  H4  1  0.57260000  0.85670000  0.65470000  1.0 0.129049222
H  H5  1  0.44530000  0.75600000  0.60990000  1.0 0.1195936375
H  H6  1  0.90580000  0.32970000  0.44620000  1.0 0.104955527
H  H7  1  0.12760000  0.90390000  0.33080000  1.0 0.1429341464
H  H8  1  0.69310000  0.50560000  0.59650000  1.0 0.1105520201
H  H9  1  0.98550000  0.54150000  0.35190000  1.0 0.1195936375
H  H10  1  0.44100000  0.20700000  0.57670000  1.0 0.1195936375
H  H11  1  0.19580000  0.76370000  0.37810000  1.0 0.1195936375
H  H12  1  0.86010000  0.70210000  0.41060000  1.0 0.1105520201
H  H13  1  0.48390000  0.07070000  0.62790000  1.0 0.129049222
H  H14  1  0.82010000  0.60610000  0.64180000  1.0 0.1195936375
H  H15  1  0.48840000  0.46490000  0.65800000  1.0 0.1105520201
H  H16  1  0.55500000  0.33333333  0.70650000  1.0 0.1195936375
H  H17  1  0.58590000  0.57950000  0.78710000  1.0 0.0817512302
H  H18  1  0.53930000  0.52980000  0.74440000  1.0 0.090529876
H  H19  1  0.65010000  0.61450000  0.74640000  1.0 0.1795276357
H  H20  1  0.20100000  0.20880000  0.09890000  1.0 0.129049222
H  H21  1  0.12590000  0.42750000  0.19160000  1.0 0.1195936375
H  H22  1  0.20990000  0.82950000  0.14010000  1.0 0.1195936375
H  H23  1  0.42740000  0.85670000  0.84530000  1.0 0.129049222
H  H24  1  0.55470000  0.75600000  0.89010000  1.0 0.1195936375
H  H25  1  0.09420000  0.32970000  0.05380000  1.0 0.104955527
H  H26  1  0.87240000  0.90390000  0.16920000  1.0 0.1429341464
H  H27  1  0.30690000  0.50560000  0.90350000  1.0 0.1105520201
H  H28  1  0.01450000  0.54150000  0.14810000  1.0 0.1195936375
H  H29  1  0.55900000  0.20700000  0.92330000  1.0 0.1195936375
H  H30  1  0.80420000  0.76370000  0.12190000  1.0 0.1195936375
H  H31  1  0.13990000  0.70210000  0.08940000  1.0 0.1105520201
H  H32  1  0.51610000  0.07070000  0.87210000  1.0 0.129049222
H  H33  1  0.17990000  0.60610000  0.85820000  1.0 0.1195936375
H  H34  1  0.51160000  0.46490000  0.84200000  1.0 0.1105520201
H  H35  1  0.44500000  0.33333333  0.79350000  1.0 0.1195936375
H  H36  1  0.41410000  0.57950000  0.71290000  1.0 0.0817512302
H  H37  1  0.46070000  0.52980000  0.75560000  1.0 0.090529876
H  H38  1  0.34990000  0.61450000  0.75360000  1.0 0.1795276357
H  H39  1  0.20100000  0.79120000  0.59890000  1.0 0.129049222
H  H40  1  0.12590000  0.57250000  0.69160000  1.0 0.1195936375
H  H41  1  0.20990000  0.17050000  0.64010000  1.0 0.1195936375
H  H42  1  0.42740000  0.14330000  0.34530000  1.0 0.129049222
H  H43  1  0.55470000  0.24400000  0.39010000  1.0 0.1195936375
H  H44  1  0.09420000  0.67030000  0.55380000  1.0 0.104955527
H  H45  1  0.87240000  0.09610000  0.66920000  1.0 0.1429341464
H  H46  1  0.30690000  0.49440000  0.40350000  1.0 0.1105520201
H  H47  1  0.01450000  0.45850000  0.64810000  1.0 0.1195936375
H  H48  1  0.55900000  0.79300000  0.42330000  1.0 0.1195936375
H  H49  1  0.80420000  0.23630000  0.62190000  1.0 0.1195936375
H  H50  1  0.13990000  0.29790000  0.58940000  1.0 0.1105520201
H  H51  1  0.51610000  0.92930000  0.37210000  1.0 0.129049222
H  H52  1  0.17990000  0.39390000  0.35820000  1.0 0.1195936375
H  H53  1  0.51160000  0.53510000  0.34200000  1.0 0.1105520201
H  H54  1  0.44500000  0.66666667  0.29350000  1.0 0.1195936375
H  H55  1  0.41410000  0.42050000  0.21290000  1.0 0.0817512302
H  H56  1  0.46070000  0.47020000  0.25560000  1.0 0.090529876
H  H57  1  0.34990000  0.38550000  0.25360000  1.0 0.1795276357
H  H58  1  0.79900000  0.79120000  0.90110000  1.0 0.129049222
H  H59  1  0.87410000  0.57250000  0.80840000  1.0 0.1195936375
H  H60  1  0.79010000  0.17050000  0.85990000  1.0 0.1195936375
H  H61  1  0.57260000  0.14330000  0.15470000  1.0 0.129049222
H  H62  1  0.44530000  0.24400000  0.10990000  1.0 0.1195936375
H  H63  1  0.90580000  0.67030000  0.94620000  1.0 0.104955527
H  H64  1  0.12760000  0.09610000  0.83080000  1.0 0.1429341464
H  H65  1  0.69310000  0.49440000  0.09650000  1.0 0.1105520201
H  H66  1  0.98550000  0.45850000  0.85190000  1.0 0.1195936375
H  H67  1  0.44100000  0.79300000  0.07670000  1.0 0.1195936375
H  H68  1  0.19580000  0.23630000  0.87810000  1.0 0.1195936375
H  H69  1  0.86010000  0.29790000  0.91060000  1.0 0.1105520201
H  H70  1  0.48390000  0.92930000  0.12790000  1.0 0.129049222
H  H71  1  0.82010000  0.39390000  0.14180000  1.0 0.1195936375
H  H72  1  0.48840000  0.53510000  0.15800000  1.0 0.1105520201
H  H73  1  0.55500000  0.66666667  0.20650000  1.0 0.1195936375
H  H74  1  0.58590000  0.42050000  0.28710000  1.0 0.0817512302
H  H75  1  0.53930000  0.47020000  0.24440000  1.0 0.090529876
H  H76  1  0.65010000  0.38550000  0.24640000  1.0 0.1795276357
C  C1  1  0.55320000  0.61770000  0.59960000  1.0 0.090529876
C  C2  1  0.82880000  0.30490000  0.34965000  1.0 -0.0383209251
C  C3  1  0.46740000  0.54970000  0.57348000  1.0 -0.0602338696
C  C4  1  0.04420000  0.51430000  0.43174000  1.0 -0.0689811334
C  C5  1  0.70810000  0.73940000  0.65373000  1.0 -0.0383209251
C  C6  1  0.46530000  0.35210000  0.61029000  1.0 0.090529876
C  C7  1  0.77230000  0.22300000  0.31910000  1.0 0.5648346274
C  C8  1  0.95150000  0.87770000  0.33974000  1.0 -0.0297210053
C  C9  1  0.43180000  0.43750000  0.57761000  1.0 -0.0689811334
C  C10  1  0.78850000  0.79820000  0.68541000  1.0 0.6169406353
C  C11  1  0.21700000  0.53920000  0.48670000  1.0 -0.10792212
C  C12  1  0.55970000  0.10250000  0.70491000  1.0 0.6063899576
C  C13  1  0.30500000  0.51900000  0.51540000  1.0 -0.10792212
C  C14  1  0.83680000  0.27590000  0.39130000  1.0 -0.0906622791
C  C15  1  0.07990000  0.62590000  0.42837000  1.0 -0.0602338696
C  C16  1  0.88290000  0.40610000  0.33605000  1.0 -0.0998720592
C  C17  1  0.96110000  0.44730000  0.40433000  1.0 0.090529876
C  C18  1  0.90710000  0.96060000  0.30660000  1.0 0.6556623457
C  C19  1  0.03560000  0.71770000  0.39909000  1.0 0.090529876
C  C20  1  0.87200000  0.81780000  0.36380000  1.0 -0.0906622791
C  C21  1  0.59640000  0.78530000  0.64350000  1.0 -0.0906622791
C  C22  1  0.52020000  0.72450000  0.61660000  1.0 -0.1491634184
C  C23  1  0.90190000  0.34810000  0.41820000  1.0 -0.1594933783
C  C24  1  0.52480000  0.18910000  0.67260000  1.0 -0.017995567
C  C25  1  0.07320000  0.86060000  0.34590000  1.0 -0.0802043425
C  C26  1  0.66760000  0.57510000  0.60860000  1.0 -0.1594933783
C  C27  1  0.94820000  0.47470000  0.36205000  1.0 -0.1236849082
C  C28  1  0.46220000  0.23350000  0.60310000  1.0 -0.1594933783
C  C29  1  0.11400000  0.77800000  0.37500000  1.0 -0.1594933783
C  C30  1  0.91420000  0.74000000  0.39380000  1.0 -0.1491634184
C  C31  1  0.48940000  0.15080000  0.63360000  1.0 -0.0802043425
C  C32  1  0.74400000  0.63580000  0.63570000  1.0 -0.0998720592
C  C33  1  0.49360000  0.38570000  0.65090000  1.0 -0.1685610199
C  C34  1  0.52850000  0.30680000  0.68060000  1.0 -0.10792212
C  C35  1  0.49250000  0.70070000  0.75310000  1.0 0.1622032551
C  C36  1  0.57430000  0.59680000  0.75820000  1.0 -0.1300060423
C  C37  1  0.44680000  0.61770000  0.90040000  1.0 0.090529876
C  C38  1  0.17120000  0.30490000  0.15035000  1.0 -0.0383209251
C  C39  1  0.53260000  0.54970000  0.92652000  1.0 -0.0602338696
C  C40  1  0.95580000  0.51430000  0.06826000  1.0 -0.0689811334
C  C41  1  0.29190000  0.73940000  0.84627000  1.0 -0.0383209251
C  C42  1  0.53470000  0.35210000  0.88971000  1.0 0.090529876
C  C43  1  0.22770000  0.22300000  0.18090000  1.0 0.5648346274
C  C44  1  0.04850000  0.87770000  0.16026000  1.0 -0.0297210053
C  C45  1  0.56820000  0.43750000  0.92239000  1.0 -0.0689811334
C  C46  1  0.21150000  0.79820000  0.81459000  1.0 0.6169406353
C  C47  1  0.78300000  0.53920000  0.01330000  1.0 -0.10792212
C  C48  1  0.44030000  0.10250000  0.79509000  1.0 0.6063899576
C  C49  1  0.69500000  0.51900000  0.98460000  1.0 -0.10792212
C  C50  1  0.16320000  0.27590000  0.10870000  1.0 -0.0906622791
C  C51  1  0.92010000  0.62590000  0.07163000  1.0 -0.0602338696
C  C52  1  0.11710000  0.40610000  0.16395000  1.0 -0.0998720592
C  C53  1  0.03890000  0.44730000  0.09567000  1.0 0.090529876
C  C54  1  0.09290000  0.96060000  0.19340000  1.0 0.6556623457
C  C55  1  0.96440000  0.71770000  0.10091000  1.0 0.090529876
C  C56  1  0.12800000  0.81780000  0.13620000  1.0 -0.0906622791
C  C57  1  0.40360000  0.78530000  0.85650000  1.0 -0.0906622791
C  C58  1  0.47980000  0.72450000  0.88340000  1.0 -0.1491634184
C  C59  1  0.09810000  0.34810000  0.08180000  1.0 -0.1594933783
C  C60  1  0.47520000  0.18910000  0.82740000  1.0 -0.017995567
C  C61  1  0.92680000  0.86060000  0.15410000  1.0 -0.0802043425
C  C62  1  0.33240000  0.57510000  0.89140000  1.0 -0.1594933783
C  C63  1  0.05180000  0.47470000  0.13795000  1.0 -0.1236849082
C  C64  1  0.53780000  0.23350000  0.89690000  1.0 -0.1594933783
C  C65  1  0.88600000  0.77800000  0.12500000  1.0 -0.1594933783
C  C66  1  0.08580000  0.74000000  0.10620000  1.0 -0.1491634184
C  C67  1  0.51060000  0.15080000  0.86640000  1.0 -0.0802043425
C  C68  1  0.25600000  0.63580000  0.86430000  1.0 -0.0998720592
C  C69  1  0.50640000  0.38570000  0.84910000  1.0 -0.1685610199
C  C70  1  0.47150000  0.30680000  0.81940000  1.0 -0.10792212
C  C71  1  0.50750000  0.70070000  0.74690000  1.0 0.1622032551
C  C72  1  0.42570000  0.59680000  0.74180000  1.0 -0.1300060423
C  C73  1  0.44680000  0.38230000  0.40040000  1.0 0.090529876
C  C74  1  0.17120000  0.69510000  0.65035000  1.0 -0.0383209251
C  C75  1  0.53260000  0.45030000  0.42652000  1.0 -0.0602338696
C  C76  1  0.95580000  0.48570000  0.56826000  1.0 -0.0689811334
C  C77  1  0.29190000  0.26060000  0.34627000  1.0 -0.0383209251
C  C78  1  0.53470000  0.64790000  0.38971000  1.0 0.090529876
C  C79  1  0.22770000  0.77700000  0.68090000  1.0 0.5648346274
C  C80  1  0.04850000  0.12230000  0.66026000  1.0 -0.0297210053
C  C81  1  0.56820000  0.56250000  0.42239000  1.0 -0.0689811334
C  C82  1  0.21150000  0.20180000  0.31459000  1.0 0.6169406353
C  C83  1  0.78300000  0.46080000  0.51330000  1.0 -0.10792212
C  C84  1  0.44030000  0.89750000  0.29509000  1.0 0.6063899576
C  C85  1  0.69500000  0.48100000  0.48460000  1.0 -0.10792212
C  C86  1  0.16320000  0.72410000  0.60870000  1.0 -0.0906622791
C  C87  1  0.92010000  0.37410000  0.57163000  1.0 -0.0602338696
C  C88  1  0.11710000  0.59390000  0.66395000  1.0 -0.0998720592
C  C89  1  0.03890000  0.55270000  0.59567000  1.0 0.090529876
C  C90  1  0.09290000  0.03940000  0.69340000  1.0 0.6556623457
C  C91  1  0.96440000  0.28230000  0.60091000  1.0 0.090529876
C  C92  1  0.12800000  0.18220000  0.63620000  1.0 -0.0906622791
C  C93  1  0.40360000  0.21470000  0.35650000  1.0 -0.0906622791
C  C94  1  0.47980000  0.27550000  0.38340000  1.0 -0.1491634184
C  C95  1  0.09810000  0.65190000  0.58180000  1.0 -0.1594933783
C  C96  1  0.47520000  0.81090000  0.32740000  1.0 -0.017995567
C  C97  1  0.92680000  0.13940000  0.65410000  1.0 -0.0802043425
C  C98  1  0.33240000  0.42490000  0.39140000  1.0 -0.1594933783
C  C99  1  0.05180000  0.52530000  0.63795000  1.0 -0.1236849082
C  C100  1  0.53780000  0.76650000  0.39690000  1.0 -0.1594933783
C  C101  1  0.88600000  0.22200000  0.62500000  1.0 -0.1594933783
C  C102  1  0.08580000  0.26000000  0.60620000  1.0 -0.1491634184
C  C103  1  0.51060000  0.84920000  0.36640000  1.0 -0.0802043425
C  C104  1  0.25600000  0.36420000  0.36430000  1.0 -0.0998720592
C  C105  1  0.50640000  0.61430000  0.34910000  1.0 -0.1685610199
C  C106  1  0.47150000  0.69320000  0.31940000  1.0 -0.10792212
C  C107  1  0.50750000  0.29930000  0.24690000  1.0 0.1622032551
C  C108  1  0.42570000  0.40320000  0.24180000  1.0 -0.1300060423
C  C109  1  0.55320000  0.38230000  0.09960000  1.0 0.090529876
C  C110  1  0.82880000  0.69510000  0.84965000  1.0 -0.0383209251
C  C111  1  0.46740000  0.45030000  0.07348000  1.0 -0.0602338696
C  C112  1  0.04420000  0.48570000  0.93174000  1.0 -0.0689811334
C  C113  1  0.70810000  0.26060000  0.15373000  1.0 -0.0383209251
C  C114  1  0.46530000  0.64790000  0.11029000  1.0 0.090529876
C  C115  1  0.77230000  0.77700000  0.81910000  1.0 0.5648346274
C  C116  1  0.95150000  0.12230000  0.83974000  1.0 -0.0297210053
C  C117  1  0.43180000  0.56250000  0.07761000  1.0 -0.0689811334
C  C118  1  0.78850000  0.20180000  0.18541000  1.0 0.6169406353
C  C119  1  0.21700000  0.46080000  0.98670000  1.0 -0.10792212
C  C120  1  0.55970000  0.89750000  0.20491000  1.0 0.6063899576
C  C121  1  0.30500000  0.48100000  0.01540000  1.0 -0.10792212
C  C122  1  0.83680000  0.72410000  0.89130000  1.0 -0.0906622791
C  C123  1  0.07990000  0.37410000  0.92837000  1.0 -0.0602338696
C  C124  1  0.88290000  0.59390000  0.83605000  1.0 -0.0998720592
C  C125  1  0.96110000  0.55270000  0.90433000  1.0 0.090529876
C  C126  1  0.90710000  0.03940000  0.80660000  1.0 0.6556623457
C  C127  1  0.03560000  0.28230000  0.89909000  1.0 0.090529876
C  C128  1  0.87200000  0.18220000  0.86380000  1.0 -0.0906622791
C  C129  1  0.59640000  0.21470000  0.14350000  1.0 -0.0906622791
C  C130  1  0.52020000  0.27550000  0.11660000  1.0 -0.1491634184
C  C131  1  0.90190000  0.65190000  0.91820000  1.0 -0.1594933783
C  C132  1  0.52480000  0.81090000  0.17260000  1.0 -0.017995567
C  C133  1  0.07320000  0.13940000  0.84590000  1.0 -0.0802043425
C  C134  1  0.66760000  0.42490000  0.10860000  1.0 -0.1594933783
C  C135  1  0.94820000  0.52530000  0.86205000  1.0 -0.1236849082
C  C136  1  0.46220000  0.76650000  0.10310000  1.0 -0.1594933783
C  C137  1  0.11400000  0.22200000  0.87500000  1.0 -0.1594933783
C  C138  1  0.91420000  0.26000000  0.89380000  1.0 -0.1491634184
C  C139  1  0.48940000  0.84920000  0.13360000  1.0 -0.0802043425
C  C140  1  0.74400000  0.36420000  0.13570000  1.0 -0.0998720592
C  C141  1  0.49360000  0.61430000  0.15090000  1.0 -0.1685610199
C  C142  1  0.52850000  0.69320000  0.18060000  1.0 -0.10792212
C  C143  1  0.49250000  0.29930000  0.25310000  1.0 0.1622032551
C  C144  1  0.57430000  0.40320000  0.25820000  1.0 -0.1300060423
S  S1  1  0.40516000  0.63035000  0.53165000  1.0 0.0515746013
S  S2  1  0.32898000  0.38382000  0.53967000  1.0 0.0588723092
S  S3  1  0.11693000  0.42725000  0.47052000  1.0 0.0515746013
S  S4  1  0.19498000  0.67438000  0.46272000  1.0 0.0665465175
S  S5  1  0.59484000  0.63035000  0.96835000  1.0 0.0588723092
S  S6  1  0.67102000  0.38382000  0.96033000  1.0 0.0588723092
S  S7  1  0.88307000  0.42725000  0.02948000  1.0 0.0515746013
S  S8  1  0.80502000  0.67438000  0.03728000  1.0 0.0665465175
S  S9  1  0.59484000  0.36965000  0.46835000  1.0 0.0515746013
S  S10  1  0.67102000  0.61618000  0.46033000  1.0 0.0588723092
S  S11  1  0.88307000  0.57275000  0.52948000  1.0 0.0515746013
S  S12  1  0.80502000  0.32562000  0.53728000  1.0 0.0665465175
S  S13  1  0.40516000  0.36965000  0.03165000  1.0 0.0515746013
S  S14  1  0.32898000  0.61618000  0.03967000  1.0 0.0588723092
S  S15  1  0.11693000  0.57275000  0.97052000  1.0 0.0515746013
S  S16  1  0.19498000  0.32562000  0.96272000  1.0 0.0665465175
O  O1  1  0.50580000  0.00220000  0.70574000  1.0 -0.7677666815
O  O2  1  0.75110000  0.89060000  0.70372000  1.0 -0.7323618354
O  O3  1  0.81450000  0.21430000  0.28290000  1.0 -0.7761802645
O  O4  1  0.64190000  0.12480000  0.73136000  1.0 -0.5808483185
O  O5  1  0.88730000  0.75130000  0.69381000  1.0 -0.6483342023
O  O6  1  0.79940000  0.95440000  0.29541000  1.0 -0.6483342023
O  O7  1  0.68340000  0.16020000  0.32789000  1.0 -0.6087334873
O  O8  1  0.98160000  0.02780000  0.29204000  1.0 -0.6441476764
O  O9  1  0.53610000  0.80120000  0.74670000  1.0 -0.1406339975
O  O10  1  0.38080000  0.68860000  0.75480000  1.0 -0.10792212
O  O11  1  0.49420000  0.00220000  0.79426000  1.0 -0.7677666815
O  O12  1  0.24890000  0.89060000  0.79628000  1.0 -0.7323618354
O  O13  1  0.18550000  0.21430000  0.21710000  1.0 -0.7761802645
O  O14  1  0.35810000  0.12480000  0.76864000  1.0 -0.5808483185
O  O15  1  0.11270000  0.75130000  0.80619000  1.0 -0.6483342023
O  O16  1  0.20060000  0.95440000  0.20459000  1.0 -0.6483342023
O  O17  1  0.31660000  0.16020000  0.17211000  1.0 -0.6087334873
O  O18  1  0.01840000  0.02780000  0.20796000  1.0 -0.6441476764
O  O19  1  0.46390000  0.80120000  0.75330000  1.0 -0.1406339975
O  O20  1  0.61920000  0.68860000  0.74520000  1.0 -0.10792212
O  O21  1  0.49420000  0.99780000  0.29426000  1.0 -0.7677666815
O  O22  1  0.24890000  0.10940000  0.29628000  1.0 -0.7323618354
O  O23  1  0.18550000  0.78570000  0.71710000  1.0 -0.7761802645
O  O24  1  0.35810000  0.87520000  0.26864000  1.0 -0.5808483185
O  O25  1  0.11270000  0.24870000  0.30619000  1.0 -0.6483342023
O  O26  1  0.20060000  0.04560000  0.70459000  1.0 -0.6483342023
O  O27  1  0.31660000  0.83980000  0.67211000  1.0 -0.6087334873
O  O28  1  0.01840000  0.97220000  0.70796000  1.0 -0.6441476764
O  O29  1  0.46390000  0.19880000  0.25330000  1.0 -0.1406339975
O  O30  1  0.61920000  0.31140000  0.24520000  1.0 -0.10792212
O  O31  1  0.50580000  0.99780000  0.20574000  1.0 -0.7677666815
O  O32  1  0.75110000  0.10940000  0.20372000  1.0 -0.7323618354
O  O33  1  0.81450000  0.78570000  0.78290000  1.0 -0.7761802645
O  O34  1  0.64190000  0.87520000  0.23136000  1.0 -0.5808483185
O  O35  1  0.88730000  0.24870000  0.19381000  1.0 -0.6483342023
O  O36  1  0.79940000  0.04560000  0.79541000  1.0 -0.6483342023
O  O37  1  0.68340000  0.83980000  0.82789000  1.0 -0.6087334873
O  O38  1  0.98160000  0.97220000  0.79204000  1.0 -0.6441476764
O  O39  1  0.53610000  0.19880000  0.24670000  1.0 -0.1406339975
O  O40  1  0.38080000  0.31140000  0.25480000  1.0 -0.10792212
