# DDEC6 charges by PACMAN v1.1 (https://github.com/mtap-research/PACMAN-charge/)
data_POTZAC_ASR_pacman
_symmetry_space_group_name_H-M   'P 1'
_cell_length_a   11.25610000
_cell_length_b   11.35220000
_cell_length_c   32.28950000
_cell_angle_alpha   90.00000000
_cell_angle_beta   91.53400000
_cell_angle_gamma   90.00000000
_symmetry_Int_Tables_number   1
_chemical_formula_structural   Gd3H38C71(S2O5)4
_chemical_formula_sum   'Gd6 H76 C142 S16 O40'
_cell_volume   4124.52199752
_cell_formula_units_Z   2
loop_
 _symmetry_equiv_pos_site_id
 _symmetry_equiv_pos_as_xyz
  1  'x, y, z'
loop_
 _atom_site_type_symbol
 _atom_site_label
 _atom_site_symmetry_multiplicity
 _atom_site_fract_x
 _atom_site_fract_y
 _atom_site_fract_z
 _atom_site_occupancy
 _atom_site_charge
Gd  Gd1  1  0.66204000  0.92923000  0.76285000  1.0 1.8369784337
Gd  Gd2  1  0.33796000  0.92923000  0.73715000  1.0 1.8369784337
Gd  Gd3  1  0.33796000  0.07077000  0.23715000  1.0 1.8369784337
Gd  Gd4  1  0.66204000  0.07077000  0.26285000  1.0 1.8369784337
Gd  Gd5  1  0.00000000  0.18831000  0.25000000  1.0 2.0100810211
Gd  Gd6  1  0.00000000  0.81169000  0.75000000  1.0 2.0100810211
H  H1  1  0.57480000  0.85710000  0.65400000  1.0 0.1304306171
H  H2  1  0.88250000  0.42570000  0.30780000  1.0 0.1187835926
H  H3  1  0.79510000  0.21260000  0.40230000  1.0 0.1187835926
H  H4  1  0.44850000  0.75390000  0.61030000  1.0 0.1187835926
H  H5  1  0.68960000  0.49720000  0.59810000  1.0 0.1094799918
H  H6  1  0.86490000  0.70400000  0.41400000  1.0 0.1094799918
H  H7  1  0.79140000  0.82640000  0.36220000  1.0 0.1304306171
H  H8  1  0.98800000  0.55080000  0.35310000  1.0 0.1094799918
H  H9  1  0.47740000  0.06960000  0.62790000  1.0 0.1304306171
H  H10  1  0.19850000  0.77140000  0.37820000  1.0 0.1187835926
H  H11  1  0.44590000  0.20760000  0.57660000  1.0 0.1094799918
H  H12  1  0.90530000  0.33750000  0.44790000  1.0 0.0999736693
H  H13  1  0.12170000  0.90600000  0.32930000  1.0 0.1405704003
H  H14  1  0.82210000  0.60580000  0.63930000  1.0 0.1187835926
H  H15  1  0.49250000  0.47110000  0.65810000  1.0 0.1094799918
H  H16  1  0.55430000  0.33320000  0.70770000  1.0 0.1187835926
H  H17  1  0.56460000  0.54040000  0.73200000  1.0 0.0912202966
H  H18  1  0.65470000  0.61290000  0.76150000  1.0 0.2017001044
H  H19  1  0.54260000  0.54790000  0.78070000  1.0 0.0722029936
H  H20  1  0.42520000  0.85710000  0.84600000  1.0 0.1304306171
H  H21  1  0.11750000  0.42570000  0.19220000  1.0 0.1187835926
H  H22  1  0.20490000  0.21260000  0.09770000  1.0 0.1187835926
H  H23  1  0.55150000  0.75390000  0.88970000  1.0 0.1187835926
H  H24  1  0.31040000  0.49720000  0.90190000  1.0 0.1094799918
H  H25  1  0.13510000  0.70400000  0.08600000  1.0 0.1094799918
H  H26  1  0.20860000  0.82640000  0.13780000  1.0 0.1304306171
H  H27  1  0.01200000  0.55080000  0.14690000  1.0 0.1094799918
H  H28  1  0.52260000  0.06960000  0.87210000  1.0 0.1304306171
H  H29  1  0.80150000  0.77140000  0.12180000  1.0 0.1187835926
H  H30  1  0.55410000  0.20760000  0.92340000  1.0 0.1094799918
H  H31  1  0.09470000  0.33750000  0.05210000  1.0 0.0999736693
H  H32  1  0.87830000  0.90600000  0.17070000  1.0 0.1405704003
H  H33  1  0.17790000  0.60580000  0.86070000  1.0 0.1187835926
H  H34  1  0.50750000  0.47110000  0.84190000  1.0 0.1094799918
H  H35  1  0.44570000  0.33320000  0.79230000  1.0 0.1187835926
H  H36  1  0.43540000  0.54040000  0.76800000  1.0 0.0912202966
H  H37  1  0.34530000  0.61290000  0.73850000  1.0 0.2017001044
H  H38  1  0.45740000  0.54790000  0.71930000  1.0 0.0722029936
H  H39  1  0.42520000  0.14290000  0.34600000  1.0 0.1304306171
H  H40  1  0.11750000  0.57430000  0.69220000  1.0 0.1187835926
H  H41  1  0.20490000  0.78740000  0.59770000  1.0 0.1187835926
H  H42  1  0.55150000  0.24610000  0.38970000  1.0 0.1187835926
H  H43  1  0.31040000  0.50280000  0.40190000  1.0 0.1094799918
H  H44  1  0.13510000  0.29600000  0.58600000  1.0 0.1094799918
H  H45  1  0.20860000  0.17360000  0.63780000  1.0 0.1304306171
H  H46  1  0.01200000  0.44920000  0.64690000  1.0 0.1094799918
H  H47  1  0.52260000  0.93040000  0.37210000  1.0 0.1304306171
H  H48  1  0.80150000  0.22860000  0.62180000  1.0 0.1187835926
H  H49  1  0.55410000  0.79240000  0.42340000  1.0 0.1094799918
H  H50  1  0.09470000  0.66250000  0.55210000  1.0 0.0999736693
H  H51  1  0.87830000  0.09400000  0.67070000  1.0 0.1405704003
H  H52  1  0.17790000  0.39420000  0.36070000  1.0 0.1187835926
H  H53  1  0.50750000  0.52890000  0.34190000  1.0 0.1094799918
H  H54  1  0.44570000  0.66680000  0.29230000  1.0 0.1187835926
H  H55  1  0.43540000  0.45960000  0.26800000  1.0 0.0912202966
H  H56  1  0.34530000  0.38710000  0.23850000  1.0 0.2017001044
H  H57  1  0.45740000  0.45210000  0.21930000  1.0 0.0722029936
H  H58  1  0.57480000  0.14290000  0.15400000  1.0 0.1304306171
H  H59  1  0.88250000  0.57430000  0.80780000  1.0 0.1187835926
H  H60  1  0.79510000  0.78740000  0.90230000  1.0 0.1187835926
H  H61  1  0.44850000  0.24610000  0.11030000  1.0 0.1187835926
H  H62  1  0.68960000  0.50280000  0.09810000  1.0 0.1094799918
H  H63  1  0.86490000  0.29600000  0.91400000  1.0 0.1094799918
H  H64  1  0.79140000  0.17360000  0.86220000  1.0 0.1304306171
H  H65  1  0.98800000  0.44920000  0.85310000  1.0 0.1094799918
H  H66  1  0.47740000  0.93040000  0.12790000  1.0 0.1304306171
H  H67  1  0.19850000  0.22860000  0.87820000  1.0 0.1187835926
H  H68  1  0.44590000  0.79240000  0.07660000  1.0 0.1094799918
H  H69  1  0.90530000  0.66250000  0.94790000  1.0 0.0999736693
H  H70  1  0.12170000  0.09400000  0.82930000  1.0 0.1405704003
H  H71  1  0.82210000  0.39420000  0.13930000  1.0 0.1187835926
H  H72  1  0.49250000  0.52890000  0.15810000  1.0 0.1094799918
H  H73  1  0.55430000  0.66680000  0.20770000  1.0 0.1187835926
H  H74  1  0.56460000  0.45960000  0.23200000  1.0 0.0912202966
H  H75  1  0.65470000  0.38710000  0.26150000  1.0 0.2017001044
H  H76  1  0.54260000  0.45210000  0.28070000  1.0 0.0722029936
C  C1  1  0.90380000  0.96330000  0.30750000  1.0 0.6426668447
C  C2  1  0.55550000  0.61850000  0.60030000  1.0 0.0912202966
C  C3  1  0.46520000  0.34970000  0.61080000  1.0 0.0912202966
C  C4  1  0.56170000  0.10040000  0.70490000  1.0 0.5983984154
C  C5  1  0.59890000  0.78340000  0.64300000  1.0 -0.098347973
C  C6  1  0.03900000  0.71830000  0.39970000  1.0 0.0912202966
C  C7  1  0.94630000  0.87710000  0.34110000  1.0 -0.0157082984
C  C8  1  0.83180000  0.30920000  0.35030000  1.0 -0.0328567475
C  C9  1  0.79280000  0.79590000  0.68510000  1.0 0.6163794678
C  C10  1  0.88770000  0.40700000  0.33640000  1.0 -0.098347973
C  C11  1  0.46860000  0.54860000  0.57300000  1.0 -0.0604186449
C  C12  1  0.83570000  0.27970000  0.39220000  1.0 -0.0908629834
C  C13  1  0.71420000  0.73590000  0.65390000  1.0 -0.038590813
C  C14  1  0.52530000  0.18960000  0.67290000  1.0 -0.0077533703
C  C15  1  0.52470000  0.72220000  0.61690000  1.0 -0.1364469826
C  C16  1  0.96520000  0.45030000  0.40520000  1.0 0.0912202966
C  C17  1  0.66680000  0.57100000  0.60920000  1.0 -0.1678901631
C  C18  1  0.91820000  0.74100000  0.39570000  1.0 -0.1500573437
C  C19  1  0.87490000  0.81680000  0.36560000  1.0 -0.0908629834
C  C20  1  0.43300000  0.43770000  0.57890000  1.0 -0.0604186449
C  C21  1  0.95270000  0.48080000  0.36320000  1.0 -0.1346513051
C  C22  1  0.48710000  0.15110000  0.63370000  1.0 -0.0908629834
C  C23  1  0.11500000  0.78210000  0.37510000  1.0 -0.1631544363
C  C24  1  0.77320000  0.22740000  0.32030000  1.0 0.564362688
C  C25  1  0.08240000  0.62780000  0.42950000  1.0 -0.0604186449
C  C26  1  0.46400000  0.23410000  0.60400000  1.0 -0.1500573437
C  C27  1  0.30750000  0.51870000  0.51610000  1.0 -0.1091519659
C  C28  1  0.04880000  0.51690000  0.43220000  1.0 -0.0604186449
C  C29  1  0.21860000  0.54060000  0.48650000  1.0 -0.1168772746
C  C30  1  0.90300000  0.35440000  0.41910000  1.0 -0.1631544363
C  C31  1  0.06930000  0.86200000  0.34590000  1.0 -0.0817444045
C  C32  1  0.74370000  0.63500000  0.63490000  1.0 -0.0908629834
C  C33  1  0.49520000  0.38960000  0.65140000  1.0 -0.1901415344
C  C34  1  0.52850000  0.30710000  0.68100000  1.0 -0.1168772746
C  C35  1  0.57100000  0.59100000  0.75660000  1.0 -0.1091519659
C  C36  1  0.09620000  0.96330000  0.19250000  1.0 0.6426668447
C  C37  1  0.44450000  0.61850000  0.89970000  1.0 0.0912202966
C  C38  1  0.53480000  0.34970000  0.88920000  1.0 0.0912202966
C  C39  1  0.43830000  0.10040000  0.79510000  1.0 0.5983984154
C  C40  1  0.40110000  0.78340000  0.85700000  1.0 -0.098347973
C  C41  1  0.96100000  0.71830000  0.10030000  1.0 0.0912202966
C  C42  1  0.05370000  0.87710000  0.15890000  1.0 -0.0157082984
C  C43  1  0.16820000  0.30920000  0.14970000  1.0 -0.0328567475
C  C44  1  0.20720000  0.79590000  0.81490000  1.0 0.6163794678
C  C45  1  0.11230000  0.40700000  0.16360000  1.0 -0.098347973
C  C46  1  0.53140000  0.54860000  0.92700000  1.0 -0.0604186449
C  C47  1  0.16430000  0.27970000  0.10780000  1.0 -0.0908629834
C  C48  1  0.28580000  0.73590000  0.84610000  1.0 -0.038590813
C  C49  1  0.47470000  0.18960000  0.82710000  1.0 -0.0077533703
C  C50  1  0.47530000  0.72220000  0.88310000  1.0 -0.1364469826
C  C51  1  0.03480000  0.45030000  0.09480000  1.0 0.0912202966
C  C52  1  0.33320000  0.57100000  0.89080000  1.0 -0.1678901631
C  C53  1  0.08180000  0.74100000  0.10430000  1.0 -0.1500573437
C  C54  1  0.12510000  0.81680000  0.13440000  1.0 -0.0908629834
C  C55  1  0.56700000  0.43770000  0.92110000  1.0 -0.0604186449
C  C56  1  0.04730000  0.48080000  0.13680000  1.0 -0.1346513051
C  C57  1  0.51290000  0.15110000  0.86630000  1.0 -0.0908629834
C  C58  1  0.88500000  0.78210000  0.12490000  1.0 -0.1631544363
C  C59  1  0.22680000  0.22740000  0.17970000  1.0 0.564362688
C  C60  1  0.91760000  0.62780000  0.07050000  1.0 -0.0604186449
C  C61  1  0.53600000  0.23410000  0.89600000  1.0 -0.1500573437
C  C62  1  0.69250000  0.51870000  0.98390000  1.0 -0.1091519659
C  C63  1  0.95120000  0.51690000  0.06780000  1.0 -0.0604186449
C  C64  1  0.78140000  0.54060000  0.01350000  1.0 -0.1168772746
C  C65  1  0.09700000  0.35440000  0.08090000  1.0 -0.1631544363
C  C66  1  0.93070000  0.86200000  0.15410000  1.0 -0.0817444045
C  C67  1  0.25630000  0.63500000  0.86510000  1.0 -0.0908629834
C  C68  1  0.50480000  0.38960000  0.84860000  1.0 -0.1901415344
C  C69  1  0.47150000  0.30710000  0.81900000  1.0 -0.1168772746
C  C70  1  0.42900000  0.59100000  0.74340000  1.0 -0.1091519659
C  C71  1  0.09620000  0.03670000  0.69250000  1.0 0.6426668447
C  C72  1  0.44450000  0.38150000  0.39970000  1.0 0.0912202966
C  C73  1  0.53480000  0.65030000  0.38920000  1.0 0.0912202966
C  C74  1  0.43830000  0.89960000  0.29510000  1.0 0.5983984154
C  C75  1  0.40110000  0.21660000  0.35700000  1.0 -0.098347973
C  C76  1  0.96100000  0.28170000  0.60030000  1.0 0.0912202966
C  C77  1  0.05370000  0.12290000  0.65890000  1.0 -0.0157082984
C  C78  1  0.16820000  0.69080000  0.64970000  1.0 -0.0328567475
C  C79  1  0.20720000  0.20410000  0.31490000  1.0 0.6163794678
C  C80  1  0.11230000  0.59300000  0.66360000  1.0 -0.098347973
C  C81  1  0.53140000  0.45140000  0.42700000  1.0 -0.0604186449
C  C82  1  0.16430000  0.72030000  0.60780000  1.0 -0.0908629834
C  C83  1  0.28580000  0.26410000  0.34610000  1.0 -0.038590813
C  C84  1  0.47470000  0.81040000  0.32710000  1.0 -0.0077533703
C  C85  1  0.47530000  0.27780000  0.38310000  1.0 -0.1364469826
C  C86  1  0.03480000  0.54970000  0.59480000  1.0 0.0912202966
C  C87  1  0.33320000  0.42900000  0.39080000  1.0 -0.1678901631
C  C88  1  0.08180000  0.25900000  0.60430000  1.0 -0.1500573437
C  C89  1  0.12510000  0.18320000  0.63440000  1.0 -0.0908629834
C  C90  1  0.56700000  0.56230000  0.42110000  1.0 -0.0604186449
C  C91  1  0.04730000  0.51920000  0.63680000  1.0 -0.1346513051
C  C92  1  0.51290000  0.84890000  0.36630000  1.0 -0.0908629834
C  C93  1  0.88500000  0.21790000  0.62490000  1.0 -0.1631544363
C  C94  1  0.22680000  0.77260000  0.67970000  1.0 0.564362688
C  C95  1  0.91760000  0.37220000  0.57050000  1.0 -0.0604186449
C  C96  1  0.53600000  0.76590000  0.39600000  1.0 -0.1500573437
C  C97  1  0.69250000  0.48130000  0.48390000  1.0 -0.1091519659
C  C98  1  0.95120000  0.48310000  0.56780000  1.0 -0.0604186449
C  C99  1  0.78140000  0.45940000  0.51350000  1.0 -0.1168772746
C  C100  1  0.09700000  0.64560000  0.58090000  1.0 -0.1631544363
C  C101  1  0.93070000  0.13800000  0.65410000  1.0 -0.0817444045
C  C102  1  0.25630000  0.36500000  0.36510000  1.0 -0.0908629834
C  C103  1  0.50480000  0.61040000  0.34860000  1.0 -0.1901415344
C  C104  1  0.47150000  0.69290000  0.31900000  1.0 -0.1168772746
C  C105  1  0.42900000  0.40900000  0.24340000  1.0 -0.1091519659
C  C106  1  0.90380000  0.03670000  0.80750000  1.0 0.6426668447
C  C107  1  0.55550000  0.38150000  0.10030000  1.0 0.0912202966
C  C108  1  0.46520000  0.65030000  0.11080000  1.0 0.0912202966
C  C109  1  0.56170000  0.89960000  0.20490000  1.0 0.5983984154
C  C110  1  0.59890000  0.21660000  0.14300000  1.0 -0.098347973
C  C111  1  0.03900000  0.28170000  0.89970000  1.0 0.0912202966
C  C112  1  0.94630000  0.12290000  0.84110000  1.0 -0.0157082984
C  C113  1  0.83180000  0.69080000  0.85030000  1.0 -0.0328567475
C  C114  1  0.79280000  0.20410000  0.18510000  1.0 0.6163794678
C  C115  1  0.88770000  0.59300000  0.83640000  1.0 -0.098347973
C  C116  1  0.46860000  0.45140000  0.07300000  1.0 -0.0604186449
C  C117  1  0.83570000  0.72030000  0.89220000  1.0 -0.0908629834
C  C118  1  0.71420000  0.26410000  0.15390000  1.0 -0.038590813
C  C119  1  0.52530000  0.81040000  0.17290000  1.0 -0.0077533703
C  C120  1  0.52470000  0.27780000  0.11690000  1.0 -0.1364469826
C  C121  1  0.96520000  0.54970000  0.90520000  1.0 0.0912202966
C  C122  1  0.66680000  0.42900000  0.10920000  1.0 -0.1678901631
C  C123  1  0.91820000  0.25900000  0.89570000  1.0 -0.1500573437
C  C124  1  0.87490000  0.18320000  0.86560000  1.0 -0.0908629834
C  C125  1  0.43300000  0.56230000  0.07890000  1.0 -0.0604186449
C  C126  1  0.95270000  0.51920000  0.86320000  1.0 -0.1346513051
C  C127  1  0.48710000  0.84890000  0.13370000  1.0 -0.0908629834
C  C128  1  0.11500000  0.21790000  0.87510000  1.0 -0.1631544363
C  C129  1  0.77320000  0.77260000  0.82030000  1.0 0.564362688
C  C130  1  0.08240000  0.37220000  0.92950000  1.0 -0.0604186449
C  C131  1  0.46400000  0.76590000  0.10400000  1.0 -0.1500573437
C  C132  1  0.30750000  0.48130000  0.01610000  1.0 -0.1091519659
C  C133  1  0.04880000  0.48310000  0.93220000  1.0 -0.0604186449
C  C134  1  0.21860000  0.45940000  0.98650000  1.0 -0.1168772746
C  C135  1  0.90300000  0.64560000  0.91910000  1.0 -0.1631544363
C  C136  1  0.06930000  0.13800000  0.84590000  1.0 -0.0817444045
C  C137  1  0.74370000  0.36500000  0.13490000  1.0 -0.0908629834
C  C138  1  0.49520000  0.61040000  0.15140000  1.0 -0.1901415344
C  C139  1  0.52850000  0.69290000  0.18100000  1.0 -0.1168772746
C  C140  1  0.57100000  0.40900000  0.25660000  1.0 -0.1091519659
C  C141  1  0.50000000  0.69690000  0.75000000  1.0 0.3498540503
C  C142  1  0.50000000  0.30310000  0.25000000  1.0 0.3498540503
S  S1  1  0.40660000  0.63030000  0.53191000  1.0 0.0610458818
S  S2  1  0.32990000  0.38470000  0.54008000  1.0 0.0521550028
S  S3  1  0.19860000  0.67560000  0.46285000  1.0 0.0610458818
S  S4  1  0.12060000  0.42870000  0.47099000  1.0 0.0521550028
S  S5  1  0.59340000  0.63030000  0.96809000  1.0 0.0521550028
S  S6  1  0.67010000  0.38470000  0.95992000  1.0 0.0521550028
S  S7  1  0.80140000  0.67560000  0.03715000  1.0 0.0610458818
S  S8  1  0.87940000  0.42870000  0.02901000  1.0 0.0521550028
S  S9  1  0.59340000  0.36970000  0.46809000  1.0 0.0521550028
S  S10  1  0.67010000  0.61530000  0.45992000  1.0 0.0521550028
S  S11  1  0.80140000  0.32440000  0.53715000  1.0 0.0610458818
S  S12  1  0.87940000  0.57130000  0.52901000  1.0 0.0521550028
S  S13  1  0.40660000  0.36970000  0.03191000  1.0 0.0521550028
S  S14  1  0.32990000  0.61530000  0.04008000  1.0 0.0521550028
S  S15  1  0.19860000  0.32440000  0.96285000  1.0 0.0610458818
S  S16  1  0.12060000  0.57130000  0.97099000  1.0 0.0521550028
O  O1  1  0.51110000  0.99990000  0.70540000  1.0 -0.7241901079
O  O2  1  0.75810000  0.88750000  0.70440000  1.0 -0.7126101274
O  O3  1  0.81720000  0.21880000  0.28370000  1.0 -0.7976955045
O  O4  1  0.64230000  0.12210000  0.73150000  1.0 -0.5811998564
O  O5  1  0.80000000  0.95580000  0.29750000  1.0 -0.6006579045
O  O6  1  0.88890000  0.74690000  0.69280000  1.0 -0.6305498574
O  O7  1  0.98110000  0.02520000  0.29210000  1.0 -0.6305498574
O  O8  1  0.68420000  0.16560000  0.32940000  1.0 -0.6006579045
O  O9  1  0.38300000  0.68850000  0.75410000  1.0 -0.1364469826
O  O10  1  0.53750000  0.79720000  0.74630000  1.0 -0.1794546115
O  O11  1  0.48890000  0.99990000  0.79460000  1.0 -0.7241901079
O  O12  1  0.24190000  0.88750000  0.79560000  1.0 -0.7126101274
O  O13  1  0.18280000  0.21880000  0.21630000  1.0 -0.7976955045
O  O14  1  0.35770000  0.12210000  0.76850000  1.0 -0.5811998564
O  O15  1  0.20000000  0.95580000  0.20250000  1.0 -0.6006579045
O  O16  1  0.11110000  0.74690000  0.80720000  1.0 -0.6305498574
O  O17  1  0.01890000  0.02520000  0.20790000  1.0 -0.6305498574
O  O18  1  0.31580000  0.16560000  0.17060000  1.0 -0.6006579045
O  O19  1  0.61700000  0.68850000  0.74590000  1.0 -0.1364469826
O  O20  1  0.46250000  0.79720000  0.75370000  1.0 -0.1794546115
O  O21  1  0.48890000  0.00010000  0.29460000  1.0 -0.7255028207
O  O22  1  0.24190000  0.11250000  0.29560000  1.0 -0.7126101274
O  O23  1  0.18280000  0.78120000  0.71630000  1.0 -0.7976955045
O  O24  1  0.35770000  0.87790000  0.26850000  1.0 -0.5811998564
O  O25  1  0.20000000  0.04420000  0.70250000  1.0 -0.6006579045
O  O26  1  0.11110000  0.25310000  0.30720000  1.0 -0.6305498574
O  O27  1  0.01890000  0.97480000  0.70790000  1.0 -0.6305498574
O  O28  1  0.31580000  0.83440000  0.67060000  1.0 -0.6006579045
O  O29  1  0.61700000  0.31150000  0.24590000  1.0 -0.1364469826
O  O30  1  0.46250000  0.20280000  0.25370000  1.0 -0.1794546115
O  O31  1  0.51110000  0.00010000  0.20540000  1.0 -0.7241901079
O  O32  1  0.75810000  0.11250000  0.20440000  1.0 -0.7126101274
O  O33  1  0.81720000  0.78120000  0.78370000  1.0 -0.7976955045
O  O34  1  0.64230000  0.87790000  0.23150000  1.0 -0.5811998564
O  O35  1  0.80000000  0.04420000  0.79750000  1.0 -0.6006579045
O  O36  1  0.88890000  0.25310000  0.19280000  1.0 -0.6305498574
O  O37  1  0.98110000  0.97480000  0.79210000  1.0 -0.6305498574
O  O38  1  0.68420000  0.83440000  0.82940000  1.0 -0.6006579045
O  O39  1  0.38300000  0.31150000  0.25410000  1.0 -0.1364469826
O  O40  1  0.53750000  0.20280000  0.24630000  1.0 -0.1794546115
