# DDEC6 charges by PACMAN v1.1 (https://github.com/mtap-research/PACMAN-charge/)
data_POTZEG_FSR_pacman
_symmetry_space_group_name_H-M   'P 1'
_cell_length_a   11.21080000
_cell_length_b   11.29090000
_cell_length_c   32.40840000
_cell_angle_alpha   90.00000000
_cell_angle_beta   91.71900000
_cell_angle_gamma   90.00000000
_symmetry_Int_Tables_number   1
_chemical_formula_structural   Tb3H44C72S8O21
_chemical_formula_sum   'Tb6 H88 C144 S16 O42'
_cell_volume   4100.40982724
_cell_formula_units_Z   2
loop_
 _symmetry_equiv_pos_site_id
 _symmetry_equiv_pos_as_xyz
  1  'x, y, z'
loop_
 _atom_site_type_symbol
 _atom_site_label
 _atom_site_symmetry_multiplicity
 _atom_site_fract_x
 _atom_site_fract_y
 _atom_site_fract_z
 _atom_site_occupancy
 _atom_site_charge
Tb  Tb1  1  0.66227000  0.92964000  0.76264000  1.0 1.8493091743
Tb  Tb2  1  0.33773000  0.92964000  0.73736000  1.0 1.8493091743
Tb  Tb3  1  0.33773000  0.07036000  0.23736000  1.0 1.8493091743
Tb  Tb4  1  0.66227000  0.07036000  0.26264000  1.0 1.8493091743
Tb  Tb5  1  0.00000000  0.81330000  0.75000000  1.0 1.9656161348
Tb  Tb6  1  0.00000000  0.18670000  0.25000000  1.0 1.9656161348
H  H1  1  0.02670000  0.57260000  0.77460000  1.0 0.0796022656
H  H2  1  0.79580000  0.21030000  0.40140000  1.0 0.120883696
H  H3  1  0.87760000  0.43120000  0.30860000  1.0 0.1105735673
H  H4  1  0.79050000  0.82970000  0.36140000  1.0 0.1288846838
H  H5  1  0.57400000  0.85790000  0.65580000  1.0 0.1288846838
H  H6  1  0.44720000  0.75780000  0.61000000  1.0 0.1288846838
H  H7  1  0.90610000  0.33360000  0.44740000  1.0 0.1002560313
H  H8  1  0.12580000  0.90810000  0.33150000  1.0 0.1392734068
H  H9  1  0.69510000  0.50260000  0.59580000  1.0 0.1105735673
H  H10  1  0.99230000  0.54240000  0.35260000  1.0 0.120883696
H  H11  1  0.43910000  0.20520000  0.57690000  1.0 0.120883696
H  H12  1  0.19770000  0.76960000  0.37970000  1.0 0.120883696
H  H13  1  0.86070000  0.70360000  0.41310000  1.0 0.1105735673
H  H14  1  0.48000000  0.06810000  0.62840000  1.0 0.1392734068
H  H15  1  0.82150000  0.60150000  0.64190000  1.0 0.120883696
H  H16  1  0.48720000  0.46600000  0.65910000  1.0 0.1105735673
H  H17  1  0.56600000  0.33420000  0.70550000  1.0 0.120883696
H  H18  1  0.62740000  0.60810000  0.77980000  1.0 0.1288846838
H  H19  1  0.51860000  0.52350000  0.76620000  1.0 0.0796022656
H  H20  1  0.60530000  0.57460000  0.73220000  1.0 0.1288846838
H  H21  1  0.01030000  0.52680000  0.75030000  1.0 0.0796022656
H  H22  1  0.92480000  0.57260000  0.74780000  1.0 0.0796022656
H  H23  1  0.97330000  0.57260000  0.72540000  1.0 0.0796022656
H  H24  1  0.20420000  0.21030000  0.09860000  1.0 0.120883696
H  H25  1  0.12240000  0.43120000  0.19140000  1.0 0.1105735673
H  H26  1  0.20950000  0.82970000  0.13860000  1.0 0.1288846838
H  H27  1  0.42600000  0.85790000  0.84420000  1.0 0.1288846838
H  H28  1  0.55280000  0.75780000  0.89000000  1.0 0.1288846838
H  H29  1  0.09390000  0.33360000  0.05260000  1.0 0.1002560313
H  H30  1  0.87420000  0.90810000  0.16850000  1.0 0.1392734068
H  H31  1  0.30490000  0.50260000  0.90420000  1.0 0.1105735673
H  H32  1  0.00770000  0.54240000  0.14740000  1.0 0.120883696
H  H33  1  0.56090000  0.20520000  0.92310000  1.0 0.120883696
H  H34  1  0.80230000  0.76960000  0.12030000  1.0 0.120883696
H  H35  1  0.13930000  0.70360000  0.08690000  1.0 0.1105735673
H  H36  1  0.52000000  0.06810000  0.87160000  1.0 0.1392734068
H  H37  1  0.17850000  0.60150000  0.85810000  1.0 0.120883696
H  H38  1  0.51280000  0.46600000  0.84090000  1.0 0.1105735673
H  H39  1  0.43400000  0.33420000  0.79450000  1.0 0.120883696
H  H40  1  0.37260000  0.60810000  0.72020000  1.0 0.1288846838
H  H41  1  0.48140000  0.52350000  0.73380000  1.0 0.0796022656
H  H42  1  0.39470000  0.57460000  0.76780000  1.0 0.1288846838
H  H43  1  0.98970000  0.52680000  0.74970000  1.0 0.0796022656
H  H44  1  0.07520000  0.57260000  0.75220000  1.0 0.0796022656
H  H45  1  0.97330000  0.42740000  0.22540000  1.0 0.0796022656
H  H46  1  0.20420000  0.78970000  0.59860000  1.0 0.120883696
H  H47  1  0.12240000  0.56880000  0.69140000  1.0 0.1105735673
H  H48  1  0.20950000  0.17030000  0.63860000  1.0 0.1288846838
H  H49  1  0.42600000  0.14210000  0.34420000  1.0 0.1288846838
H  H50  1  0.55280000  0.24220000  0.39000000  1.0 0.1288846838
H  H51  1  0.09390000  0.66640000  0.55260000  1.0 0.1002560313
H  H52  1  0.87420000  0.09190000  0.66850000  1.0 0.1392734068
H  H53  1  0.30490000  0.49740000  0.40420000  1.0 0.1105735673
H  H54  1  0.00770000  0.45760000  0.64740000  1.0 0.120883696
H  H55  1  0.56090000  0.79480000  0.42310000  1.0 0.120883696
H  H56  1  0.80230000  0.23040000  0.62030000  1.0 0.120883696
H  H57  1  0.13930000  0.29640000  0.58690000  1.0 0.1105735673
H  H58  1  0.52000000  0.93190000  0.37160000  1.0 0.1392734068
H  H59  1  0.17850000  0.39850000  0.35810000  1.0 0.120883696
H  H60  1  0.51280000  0.53400000  0.34090000  1.0 0.1105735673
H  H61  1  0.43400000  0.66580000  0.29450000  1.0 0.120883696
H  H62  1  0.37260000  0.39190000  0.22020000  1.0 0.1288846838
H  H63  1  0.48140000  0.47650000  0.23380000  1.0 0.0796022656
H  H64  1  0.39470000  0.42540000  0.26780000  1.0 0.1288846838
H  H65  1  0.98970000  0.47320000  0.24970000  1.0 0.0796022656
H  H66  1  0.07520000  0.42740000  0.25220000  1.0 0.0796022656
H  H67  1  0.02670000  0.42740000  0.27460000  1.0 0.0796022656
H  H68  1  0.79580000  0.78970000  0.90140000  1.0 0.120883696
H  H69  1  0.87760000  0.56880000  0.80860000  1.0 0.1105735673
H  H70  1  0.79050000  0.17030000  0.86140000  1.0 0.1288846838
H  H71  1  0.57400000  0.14210000  0.15580000  1.0 0.1288846838
H  H72  1  0.44720000  0.24220000  0.11000000  1.0 0.1288846838
H  H73  1  0.90610000  0.66640000  0.94740000  1.0 0.1002560313
H  H74  1  0.12580000  0.09190000  0.83150000  1.0 0.1392734068
H  H75  1  0.69510000  0.49740000  0.09580000  1.0 0.1105735673
H  H76  1  0.99230000  0.45760000  0.85260000  1.0 0.120883696
H  H77  1  0.43910000  0.79480000  0.07690000  1.0 0.120883696
H  H78  1  0.19770000  0.23040000  0.87970000  1.0 0.120883696
H  H79  1  0.86070000  0.29640000  0.91310000  1.0 0.1105735673
H  H80  1  0.48000000  0.93190000  0.12840000  1.0 0.1392734068
H  H81  1  0.82150000  0.39850000  0.14190000  1.0 0.120883696
H  H82  1  0.48720000  0.53400000  0.15910000  1.0 0.1105735673
H  H83  1  0.56600000  0.66580000  0.20550000  1.0 0.120883696
H  H84  1  0.62740000  0.39190000  0.27980000  1.0 0.1288846838
H  H85  1  0.51860000  0.47650000  0.26620000  1.0 0.0796022656
H  H86  1  0.60530000  0.42540000  0.23220000  1.0 0.1288846838
H  H87  1  0.01030000  0.47320000  0.25030000  1.0 0.0796022656
H  H88  1  0.92480000  0.42740000  0.24780000  1.0 0.0796022656
C  C1  1  0.55470000  0.61860000  0.59990000  1.0 0.0900812781
C  C2  1  0.83090000  0.30990000  0.35010000  1.0 -0.026091924
C  C3  1  0.46870000  0.55020000  0.57350000  1.0 -0.0503313435
C  C4  1  0.04610000  0.51590000  0.43250000  1.0 -0.0615122993
C  C5  1  0.71030000  0.73850000  0.65370000  1.0 -0.026091924
C  C6  1  0.46600000  0.35070000  0.61080000  1.0 0.1002560313
C  C7  1  0.77320000  0.22650000  0.32020000  1.0 0.553503124
C  C8  1  0.95070000  0.87780000  0.34130000  1.0 -0.0131544937
C  C9  1  0.43370000  0.43780000  0.57810000  1.0 -0.0651594941
C  C10  1  0.79100000  0.79810000  0.68510000  1.0 0.6008319239
C  C11  1  0.21890000  0.54160000  0.48750000  1.0 -0.1093833028
C  C12  1  0.56150000  0.10100000  0.70490000  1.0 0.6008319239
C  C13  1  0.30670000  0.51830000  0.51540000  1.0 -0.1093833028
C  C14  1  0.83590000  0.27850000  0.39170000  1.0 -0.0933141678
C  C15  1  0.08100000  0.62870000  0.42960000  1.0 -0.0503313435
C  C16  1  0.88580000  0.40870000  0.33680000  1.0 -0.1315682681
C  C17  1  0.96390000  0.45010000  0.40500000  1.0 0.0900812781
C  C18  1  0.90520000  0.96160000  0.30720000  1.0 0.6488005797
C  C19  1  0.03800000  0.72200000  0.40030000  1.0 0.0900812781
C  C20  1  0.87400000  0.81830000  0.36540000  1.0 -0.0933141678
C  C21  1  0.59840000  0.78520000  0.64390000  1.0 -0.0933141678
C  C22  1  0.52310000  0.72490000  0.61700000  1.0 -0.1439563354
C  C23  1  0.90280000  0.35190000  0.41880000  1.0 -0.1599618916
C  C24  1  0.52660000  0.18760000  0.67290000  1.0 -0.0195082464
C  C25  1  0.07170000  0.86320000  0.34720000  1.0 -0.0824417585
C  C26  1  0.66960000  0.57370000  0.60850000  1.0 -0.1599618916
C  C27  1  0.95200000  0.47530000  0.36310000  1.0 -0.1315682681
C  C28  1  0.46150000  0.23240000  0.60380000  1.0 -0.1599618916
C  C29  1  0.11430000  0.78250000  0.37640000  1.0 -0.1599618916
C  C30  1  0.91500000  0.74220000  0.39560000  1.0 -0.1494953503
C  C31  1  0.48810000  0.15020000  0.63410000  1.0 -0.0824417585
C  C32  1  0.74460000  0.63300000  0.63550000  1.0 -0.1093833028
C  C33  1  0.49490000  0.38520000  0.65150000  1.0 -0.1599618916
C  C34  1  0.53330000  0.30640000  0.67990000  1.0 -0.1093833028
C  C35  1  0.48740000  0.69770000  0.75270000  1.0 0.1392734068
C  C36  1  0.56650000  0.59180000  0.75820000  1.0 -0.1494953503
C  C37  1  0.44530000  0.61860000  0.90010000  1.0 0.0900812781
C  C38  1  0.16910000  0.30990000  0.14990000  1.0 -0.026091924
C  C39  1  0.53130000  0.55020000  0.92650000  1.0 -0.0503313435
C  C40  1  0.95390000  0.51590000  0.06750000  1.0 -0.0615122993
C  C41  1  0.28970000  0.73850000  0.84630000  1.0 -0.026091924
C  C42  1  0.53400000  0.35070000  0.88920000  1.0 0.1002560313
C  C43  1  0.22680000  0.22650000  0.17980000  1.0 0.553503124
C  C44  1  0.04930000  0.87780000  0.15870000  1.0 -0.0131544937
C  C45  1  0.56630000  0.43780000  0.92190000  1.0 -0.0651594941
C  C46  1  0.20900000  0.79810000  0.81490000  1.0 0.6008319239
C  C47  1  0.78110000  0.54160000  0.01250000  1.0 -0.1093833028
C  C48  1  0.43850000  0.10100000  0.79510000  1.0 0.6008319239
C  C49  1  0.69330000  0.51830000  0.98460000  1.0 -0.1093833028
C  C50  1  0.16410000  0.27850000  0.10830000  1.0 -0.0933141678
C  C51  1  0.91900000  0.62870000  0.07040000  1.0 -0.0503313435
C  C52  1  0.11420000  0.40870000  0.16320000  1.0 -0.1315682681
C  C53  1  0.03610000  0.45010000  0.09500000  1.0 0.0900812781
C  C54  1  0.09480000  0.96160000  0.19280000  1.0 0.6488005797
C  C55  1  0.96200000  0.72200000  0.09970000  1.0 0.0900812781
C  C56  1  0.12600000  0.81830000  0.13460000  1.0 -0.0933141678
C  C57  1  0.40160000  0.78520000  0.85610000  1.0 -0.0933141678
C  C58  1  0.47690000  0.72490000  0.88300000  1.0 -0.1439563354
C  C59  1  0.09720000  0.35190000  0.08120000  1.0 -0.1599618916
C  C60  1  0.47340000  0.18760000  0.82710000  1.0 -0.0195082464
C  C61  1  0.92830000  0.86320000  0.15280000  1.0 -0.0824417585
C  C62  1  0.33040000  0.57370000  0.89150000  1.0 -0.1599618916
C  C63  1  0.04800000  0.47530000  0.13690000  1.0 -0.1315682681
C  C64  1  0.53850000  0.23240000  0.89620000  1.0 -0.1599618916
C  C65  1  0.88570000  0.78250000  0.12360000  1.0 -0.1599618916
C  C66  1  0.08500000  0.74220000  0.10440000  1.0 -0.1494953503
C  C67  1  0.51190000  0.15020000  0.86590000  1.0 -0.0824417585
C  C68  1  0.25540000  0.63300000  0.86450000  1.0 -0.1093833028
C  C69  1  0.50510000  0.38520000  0.84850000  1.0 -0.1599618916
C  C70  1  0.46670000  0.30640000  0.82010000  1.0 -0.1093833028
C  C71  1  0.51260000  0.69770000  0.74730000  1.0 0.1392734068
C  C72  1  0.43350000  0.59180000  0.74180000  1.0 -0.1494953503
C  C73  1  0.44530000  0.38140000  0.40010000  1.0 0.0900812781
C  C74  1  0.16910000  0.69010000  0.64990000  1.0 -0.026091924
C  C75  1  0.53130000  0.44980000  0.42650000  1.0 -0.0503313435
C  C76  1  0.95390000  0.48410000  0.56750000  1.0 -0.0615122993
C  C77  1  0.28970000  0.26150000  0.34630000  1.0 -0.026091924
C  C78  1  0.53400000  0.64930000  0.38920000  1.0 0.1002560313
C  C79  1  0.22680000  0.77350000  0.67980000  1.0 0.553503124
C  C80  1  0.04930000  0.12220000  0.65870000  1.0 -0.0131544937
C  C81  1  0.56630000  0.56220000  0.42190000  1.0 -0.0651594941
C  C82  1  0.20900000  0.20190000  0.31490000  1.0 0.6008319239
C  C83  1  0.78110000  0.45840000  0.51250000  1.0 -0.1093833028
C  C84  1  0.43850000  0.89900000  0.29510000  1.0 0.6008319239
C  C85  1  0.69330000  0.48170000  0.48460000  1.0 -0.1093833028
C  C86  1  0.16410000  0.72150000  0.60830000  1.0 -0.0933141678
C  C87  1  0.91900000  0.37130000  0.57040000  1.0 -0.0503313435
C  C88  1  0.11420000  0.59130000  0.66320000  1.0 -0.1315682681
C  C89  1  0.03610000  0.54990000  0.59500000  1.0 0.0900812781
C  C90  1  0.09480000  0.03840000  0.69280000  1.0 0.6488005797
C  C91  1  0.96200000  0.27800000  0.59970000  1.0 0.0900812781
C  C92  1  0.12600000  0.18170000  0.63460000  1.0 -0.0933141678
C  C93  1  0.40160000  0.21480000  0.35610000  1.0 -0.0933141678
C  C94  1  0.47690000  0.27510000  0.38300000  1.0 -0.1439563354
C  C95  1  0.09720000  0.64810000  0.58120000  1.0 -0.1599618916
C  C96  1  0.47340000  0.81240000  0.32710000  1.0 -0.0195082464
C  C97  1  0.92830000  0.13680000  0.65280000  1.0 -0.0824417585
C  C98  1  0.33040000  0.42630000  0.39150000  1.0 -0.1599618916
C  C99  1  0.04800000  0.52470000  0.63690000  1.0 -0.1315682681
C  C100  1  0.53850000  0.76760000  0.39620000  1.0 -0.1599618916
C  C101  1  0.88570000  0.21750000  0.62360000  1.0 -0.1599618916
C  C102  1  0.08500000  0.25780000  0.60440000  1.0 -0.1494953503
C  C103  1  0.51190000  0.84980000  0.36590000  1.0 -0.0824417585
C  C104  1  0.25540000  0.36700000  0.36450000  1.0 -0.1093833028
C  C105  1  0.50510000  0.61480000  0.34850000  1.0 -0.1599618916
C  C106  1  0.46670000  0.69360000  0.32010000  1.0 -0.1093833028
C  C107  1  0.51260000  0.30230000  0.24730000  1.0 0.1392734068
C  C108  1  0.43350000  0.40820000  0.24180000  1.0 -0.1494953503
C  C109  1  0.55470000  0.38140000  0.09990000  1.0 0.0900812781
C  C110  1  0.83090000  0.69010000  0.85010000  1.0 -0.026091924
C  C111  1  0.46870000  0.44980000  0.07350000  1.0 -0.0503313435
C  C112  1  0.04610000  0.48410000  0.93250000  1.0 -0.0615122993
C  C113  1  0.71030000  0.26150000  0.15370000  1.0 -0.026091924
C  C114  1  0.46600000  0.64930000  0.11080000  1.0 0.1002560313
C  C115  1  0.77320000  0.77350000  0.82020000  1.0 0.553503124
C  C116  1  0.95070000  0.12220000  0.84130000  1.0 -0.0131544937
C  C117  1  0.43370000  0.56220000  0.07810000  1.0 -0.0615122993
C  C118  1  0.79100000  0.20190000  0.18510000  1.0 0.6008319239
C  C119  1  0.21890000  0.45840000  0.98750000  1.0 -0.1093833028
C  C120  1  0.56150000  0.89900000  0.20490000  1.0 0.6008319239
C  C121  1  0.30670000  0.48170000  0.01540000  1.0 -0.1093833028
C  C122  1  0.83590000  0.72150000  0.89170000  1.0 -0.0933141678
C  C123  1  0.08100000  0.37130000  0.92960000  1.0 -0.0503313435
C  C124  1  0.88580000  0.59130000  0.83680000  1.0 -0.1315682681
C  C125  1  0.96390000  0.54990000  0.90500000  1.0 0.0900812781
C  C126  1  0.90520000  0.03840000  0.80720000  1.0 0.6488005797
C  C127  1  0.03800000  0.27800000  0.90030000  1.0 0.0900812781
C  C128  1  0.87400000  0.18170000  0.86540000  1.0 -0.0933141678
C  C129  1  0.59840000  0.21480000  0.14390000  1.0 -0.0933141678
C  C130  1  0.52310000  0.27510000  0.11700000  1.0 -0.1439563354
C  C131  1  0.90280000  0.64810000  0.91880000  1.0 -0.1599618916
C  C132  1  0.52660000  0.81240000  0.17290000  1.0 -0.0195082464
C  C133  1  0.07170000  0.13680000  0.84720000  1.0 -0.0824417585
C  C134  1  0.66960000  0.42630000  0.10850000  1.0 -0.1599618916
C  C135  1  0.95200000  0.52470000  0.86310000  1.0 -0.1315682681
C  C136  1  0.46150000  0.76760000  0.10380000  1.0 -0.1599618916
C  C137  1  0.11430000  0.21750000  0.87640000  1.0 -0.1599618916
C  C138  1  0.91500000  0.25780000  0.89560000  1.0 -0.1494953503
C  C139  1  0.48810000  0.84980000  0.13410000  1.0 -0.0824417585
C  C140  1  0.74460000  0.36700000  0.13550000  1.0 -0.1093833028
C  C141  1  0.49490000  0.61480000  0.15150000  1.0 -0.1599618916
C  C142  1  0.53330000  0.69360000  0.17990000  1.0 -0.1093833028
C  C143  1  0.48740000  0.30230000  0.25270000  1.0 0.1392734068
C  C144  1  0.56650000  0.40820000  0.25820000  1.0 -0.1494953503
S  S1  1  0.40655000  0.63090000  0.53218000  1.0 0.0593695534
S  S2  1  0.32998000  0.38380000  0.54008000  1.0 0.0593695534
S  S3  1  0.11920000  0.42860000  0.47097000  1.0 0.0474310125
S  S4  1  0.19820000  0.67650000  0.46336000  1.0 0.0593695534
S  S5  1  0.59345000  0.63090000  0.96782000  1.0 0.0593695534
S  S6  1  0.67002000  0.38380000  0.95992000  1.0 0.0593695534
S  S7  1  0.88080000  0.42860000  0.02903000  1.0 0.0474310125
S  S8  1  0.80180000  0.67650000  0.03664000  1.0 0.0593695534
S  S9  1  0.59345000  0.36910000  0.46782000  1.0 0.0593695534
S  S10  1  0.67002000  0.61620000  0.45992000  1.0 0.0593695534
S  S11  1  0.88080000  0.57140000  0.52903000  1.0 0.0474310125
S  S12  1  0.80180000  0.32350000  0.53664000  1.0 0.0593695534
S  S13  1  0.40655000  0.36910000  0.03218000  1.0 0.0593695534
S  S14  1  0.32998000  0.61620000  0.04008000  1.0 0.0593695534
S  S15  1  0.11920000  0.57140000  0.97097000  1.0 0.0474310125
S  S16  1  0.19820000  0.32350000  0.96336000  1.0 0.0593695534
O  O1  1  0.50850000  0.00120000  0.70587000  1.0 -0.7516318877
O  O2  1  0.75650000  0.88920000  0.70425000  1.0 -0.7140490135
O  O3  1  0.81700000  0.21770000  0.28367000  1.0 -0.7597785612
O  O4  1  0.64230000  0.12370000  0.73172000  1.0 -0.5796848257
O  O5  1  0.88970000  0.74820000  0.69310000  1.0 -0.6140634735
O  O6  1  0.79750000  0.95660000  0.29750000  1.0 -0.6402707865
O  O7  1  0.68410000  0.16620000  0.32853000  1.0 -0.5977225472
O  O8  1  0.98010000  0.02610000  0.29220000  1.0 -0.6402707865
O  O9  1  0.53510000  0.79720000  0.74670000  1.0 -0.1315682681
O  O10  1  0.37590000  0.68850000  0.75440000  1.0 -0.1315682681
O  O11  1  0.49150000  0.00120000  0.79413000  1.0 -0.7516318877
O  O12  1  0.24350000  0.88920000  0.79575000  1.0 -0.7140490135
O  O13  1  0.18300000  0.21770000  0.21633000  1.0 -0.7597785612
O  O14  1  0.35770000  0.12370000  0.76828000  1.0 -0.5796848257
O  O15  1  0.11030000  0.74820000  0.80690000  1.0 -0.6140634735
O  O16  1  0.20250000  0.95660000  0.20250000  1.0 -0.6402707865
O  O17  1  0.31590000  0.16620000  0.17147000  1.0 -0.5977225472
O  O18  1  0.01990000  0.02610000  0.20780000  1.0 -0.6402707865
O  O19  1  0.46490000  0.79720000  0.75330000  1.0 -0.1315682681
O  O20  1  0.62410000  0.68850000  0.74560000  1.0 -0.1315682681
O  O21  1  0.49150000  0.99880000  0.29413000  1.0 -0.7516318877
O  O22  1  0.24350000  0.11080000  0.29575000  1.0 -0.7140490135
O  O23  1  0.18300000  0.78230000  0.71633000  1.0 -0.7597785612
O  O24  1  0.35770000  0.87630000  0.26828000  1.0 -0.5796848257
O  O25  1  0.11030000  0.25180000  0.30690000  1.0 -0.6140634735
O  O26  1  0.20250000  0.04340000  0.70250000  1.0 -0.6402707865
O  O27  1  0.31590000  0.83380000  0.67147000  1.0 -0.5977225472
O  O28  1  0.01990000  0.97390000  0.70780000  1.0 -0.6402707865
O  O29  1  0.46490000  0.20280000  0.25330000  1.0 -0.1315682681
O  O30  1  0.62410000  0.31150000  0.24560000  1.0 -0.1315682681
O  O31  1  0.50850000  0.99880000  0.20587000  1.0 -0.7516318877
O  O32  1  0.75650000  0.11080000  0.20425000  1.0 -0.7140490135
O  O33  1  0.81700000  0.78230000  0.78367000  1.0 -0.7597785612
O  O34  1  0.64230000  0.87630000  0.23172000  1.0 -0.5796848257
O  O35  1  0.88970000  0.25180000  0.19310000  1.0 -0.6140634735
O  O36  1  0.79750000  0.04340000  0.79750000  1.0 -0.6402707865
O  O37  1  0.68410000  0.83380000  0.82853000  1.0 -0.5977225472
O  O38  1  0.98010000  0.97390000  0.79220000  1.0 -0.6402707865
O  O39  1  0.53510000  0.20280000  0.24670000  1.0 -0.1315682681
O  O40  1  0.37590000  0.31150000  0.25440000  1.0 -0.1315682681
O  O41  1  0.00000000  0.60330000  0.75000000  1.0 -0.4409991224
O  O42  1  0.00000000  0.39670000  0.25000000  1.0 -0.4409991224
