# DDEC6 charges by PACMAN v1.1 (https://github.com/mtap-research/PACMAN-charge/)
data_POVZUX_FSR_pacman
_symmetry_space_group_name_H-M   'P 1'
_cell_length_a   11.38400000
_cell_length_b   12.18900000
_cell_length_c   23.33100000
_cell_angle_alpha   83.75000000
_cell_angle_beta   82.02200000
_cell_angle_gamma   70.69700000
_symmetry_Int_Tables_number   1
_chemical_formula_structural   Sm2Cu5Si2H36W22C44(N5O22)4
_chemical_formula_sum   'Sm2 Cu5 Si2 H36 W22 C44 N20 O88'
_cell_volume   3018.95411270
_cell_formula_units_Z   1
loop_
 _symmetry_equiv_pos_site_id
 _symmetry_equiv_pos_as_xyz
  1  'x, y, z'
loop_
 _atom_site_type_symbol
 _atom_site_label
 _atom_site_symmetry_multiplicity
 _atom_site_fract_x
 _atom_site_fract_y
 _atom_site_fract_z
 _atom_site_occupancy
 _atom_site_charge
Sm  Sm1  1  0.73650000  0.26703000  0.73989000  1.0 2.3906471583
Sm  Sm2  1  0.26350000  0.73297000  0.26011000  1.0 2.3906471583
Cu  Cu1  1  0.89140000  0.75750000  0.74498000  1.0 0.8617985102
Cu  Cu2  1  0.10860000  0.24250000  0.25502000  1.0 0.8617985102
Cu  Cu3  1  0.30840000  0.86950000  0.02778000  1.0 0.8778806481
Cu  Cu4  1  0.69160000  0.13050000  0.97222000  1.0 0.8778806481
Cu  Cu5  1  0.50000000  0.50000000  0.50000000  1.0 0.516814098
Si  Si1  1  0.12640000  0.21270000  0.76270000  1.0 1.6857610794
Si  Si2  1  0.87360000  0.78730000  0.23730000  1.0 1.6857610794
H  H1  1  0.06250000  0.74480000  0.64080000  1.0 0.1606355229
H  H2  1  0.93750000  0.25520000  0.35920000  1.0 0.1606355229
H  H3  1  0.91800000  0.66900000  0.50350000  1.0 0.1771402287
H  H4  1  0.08200000  0.33100000  0.49650000  1.0 0.1771402287
H  H5  1  0.72170000  0.74520000  0.66370000  1.0 0.1606355229
H  H6  1  0.27830000  0.25480000  0.33630000  1.0 0.1606355229
H  H7  1  0.25210000  0.55110000  0.58130000  1.0 0.1420760754
H  H8  1  0.74790000  0.44890000  0.41870000  1.0 0.1420760754
H  H9  1  0.32370000  0.70190000  0.43100000  1.0 0.1606355229
H  H10  1  0.67630000  0.29810000  0.56900000  1.0 0.1606355229
H  H11  1  0.09530000  0.80070000  0.46250000  1.0 0.1662564355
H  H12  1  0.90470000  0.19930000  0.53750000  1.0 0.1662564355
H  H13  1  0.54630000  0.85020000  0.58540000  1.0 0.1606355229
H  H14  1  0.45370000  0.14980000  0.41460000  1.0 0.1606355229
H  H15  1  0.41550000  0.76130000  0.54320000  1.0 0.1420760754
H  H16  1  0.58450000  0.23870000  0.45680000  1.0 0.1420760754
H  H17  1  0.74460000  0.52880000  0.54050000  1.0 0.1285276763
H  H18  1  0.25540000  0.47120000  0.45950000  1.0 0.1285276763
H  H19  1  0.06630000  0.74890000  0.82640000  1.0 0.1420760754
H  H20  1  0.93370000  0.25110000  0.17360000  1.0 0.1420760754
H  H21  1  0.89200000  0.75210000  0.98960000  1.0 0.1606355229
H  H22  1  0.10800000  0.24790000  0.01040000  1.0 0.1606355229
H  H23  1  0.71330000  0.76320000  0.85120000  1.0 0.1497841964
H  H24  1  0.28670000  0.23680000  0.14880000  1.0 0.1497841964
H  H25  1  0.54140000  0.87620000  0.92960000  1.0 0.1497841964
H  H26  1  0.45860000  0.12380000  0.07040000  1.0 0.1497841964
H  H27  1  0.75480000  0.62280000  0.02330000  1.0 0.1606355229
H  H28  1  0.24520000  0.37720000  0.97670000  1.0 0.1606355229
H  H29  1  0.53500000  0.64750000  0.06290000  1.0 0.1497841964
H  H30  1  0.46500000  0.35250000  0.93710000  1.0 0.1497841964
H  H31  1  0.06000000  0.86990000  0.98600000  1.0 0.1420760754
H  H32  1  0.94000000  0.13010000  0.01400000  1.0 0.1420760754
H  H33  1  0.25700000  0.60870000  0.88490000  1.0 0.1771402287
H  H34  1  0.74300000  0.39130000  0.11510000  1.0 0.1771402287
H  H35  1  0.39760000  0.64740000  0.94570000  1.0 0.1420760754
H  H36  1  0.60240000  0.35260000  0.05430000  1.0 0.1420760754
W  W1  1  0.91117000  0.49088000  0.76447000  1.0 2.4019541594
W  W2  1  0.08883000  0.50912000  0.23553000  1.0 2.4019541594
W  W3  1  0.01059000  0.34366000  0.63091000  1.0 2.3802393528
W  W4  1  0.98941000  0.65634000  0.36909000  1.0 2.3802393528
W  W5  1  0.01731000  0.98575000  0.74517000  1.0 2.4426396144
W  W6  1  0.98269000  0.01425000  0.25483000  1.0 2.4426396144
W  W7  1  0.23396000  0.07845000  0.63100000  1.0 2.4426396144
W  W8  1  0.76604000  0.92155000  0.36900000  1.0 2.4426396144
W  W9  1  0.31600000  0.31348000  0.64562000  1.0 2.4068593038
W  W10  1  0.68400000  0.68652000  0.35438000  1.0 2.4068593038
W  W11  1  0.21112000  0.46532000  0.78200000  1.0 2.4068593038
W  W12  1  0.78888000  0.53468000  0.21800000  1.0 2.4068593038
W  W13  1  0.02890000  0.37080000  0.88917000  1.0 2.3906471583
W  W14  1  0.97110000  0.62920000  0.11083000  1.0 2.3906471583
W  W15  1  0.25684000  0.07533000  0.89234000  1.0 2.4222733828
W  W16  1  0.74316000  0.92467000  0.10766000  1.0 2.4222733828
W  W17  1  0.35001000  0.93168000  0.76910000  1.0 2.4426396144
W  W18  1  0.64999000  0.06832000  0.23090000  1.0 2.4426396144
W  W19  1  0.92758000  0.11811000  0.86721000  1.0 2.4068593038
W  W20  1  0.07242000  0.88189000  0.13279000  1.0 2.4068593038
W  W21  1  0.43711000  0.16576000  0.78342000  1.0 2.487291083
W  W22  1  0.56289000  0.83424000  0.21658000  1.0 2.487291083
C  C1  1  0.99640000  0.73170000  0.62640000  1.0 0.0191776927
C  C2  1  0.00360000  0.26830000  0.37360000  1.0 0.0191776927
C  C3  1  0.01220000  0.70040000  0.56870000  1.0 0.1771402287
C  C4  1  0.98780000  0.29960000  0.43130000  1.0 0.1771402287
C  C5  1  0.91200000  0.68800000  0.54150000  1.0 -0.1796137092
C  C6  1  0.08800000  0.31200000  0.45850000  1.0 -0.1796137092
C  C7  1  0.79720000  0.71190000  0.58420000  1.0 0.1606355229
C  C8  1  0.20280000  0.28810000  0.41580000  1.0 0.1606355229
C  C9  1  0.79570000  0.73470000  0.63910000  1.0 0.0031371984
C  C10  1  0.20430000  0.26530000  0.36090000  1.0 0.0031371984
C  C11  1  0.24100000  0.60320000  0.54870000  1.0 0.1285276763
C  C12  1  0.75900000  0.39680000  0.45130000  1.0 0.1285276763
C  C13  1  0.28000000  0.68700000  0.46610000  1.0 0.0577001202
C  C14  1  0.72000000  0.31300000  0.53390000  1.0 0.0577001202
C  C15  1  0.15200000  0.74000000  0.48240000  1.0 -0.0592216511
C  C16  1  0.84800000  0.26000000  0.51760000  1.0 -0.0592216511
C  C17  1  0.57100000  0.77700000  0.57040000  1.0 -0.0464801637
C  C18  1  0.42900000  0.22300000  0.42960000  1.0 -0.0464801637
C  C19  1  0.50000000  0.72500000  0.54800000  1.0 0.0191776927
C  C20  1  0.50000000  0.27500000  0.45200000  1.0 0.0191776927
C  C21  1  0.67900000  0.59800000  0.54520000  1.0 0.1285276763
C  C22  1  0.32100000  0.40200000  0.45480000  1.0 0.1285276763
C  C23  1  0.99500000  0.75110000  0.85160000  1.0 0.0403622286
C  C24  1  0.00500000  0.24890000  0.14840000  1.0 0.0403622286
C  C25  1  0.99910000  0.74870000  0.91100000  1.0 0.1771402287
C  C26  1  0.00090000  0.25130000  0.08900000  1.0 0.1771402287
C  C27  1  0.89200000  0.75350000  0.94970000  1.0 -0.1565344629
C  C28  1  0.10800000  0.24650000  0.05030000  1.0 -0.1565344629
C  C29  1  0.78600000  0.76020000  0.92570000  1.0 0.1606355229
C  C30  1  0.21400000  0.23980000  0.07430000  1.0 0.1606355229
C  C31  1  0.78600000  0.76040000  0.86630000  1.0 0.0191776927
C  C32  1  0.21400000  0.23960000  0.13370000  1.0 0.0191776927
C  C33  1  0.56600000  0.81800000  0.95860000  1.0 0.1497841964
C  C34  1  0.43400000  0.18200000  0.04140000  1.0 0.1497841964
C  C35  1  0.68300000  0.67600000  0.00970000  1.0 -0.0411193145
C  C36  1  0.31700000  0.32400000  0.99030000  1.0 -0.0411193145
C  C37  1  0.56200000  0.69200000  0.03270000  1.0 -0.0025886211
C  C38  1  0.43800000  0.30800000  0.96730000  1.0 -0.0025886211
C  C39  1  0.12600000  0.81100000  0.96890000  1.0 0.1606355229
C  C40  1  0.87400000  0.18900000  0.03110000  1.0 0.1606355229
C  C41  1  0.23700000  0.66300000  0.91280000  1.0 -0.0592216511
C  C42  1  0.76300000  0.33700000  0.08720000  1.0 -0.0592216511
C  C43  1  0.31300000  0.68900000  0.94520000  1.0 -0.0064175499
C  C44  1  0.68700000  0.31100000  0.05480000  1.0 -0.0064175499
N  N1  1  0.89330000  0.74300000  0.66000000  1.0 -0.1342905608
N  N2  1  0.10670000  0.25700000  0.34000000  1.0 -0.1342905608
N  N3  1  0.12850000  0.68290000  0.53480000  1.0 0.0191776927
N  N4  1  0.87150000  0.31710000  0.46520000  1.0 0.0191776927
N  N5  1  0.32690000  0.61370000  0.50840000  1.0 -0.198336452
N  N6  1  0.67310000  0.38630000  0.49160000  1.0 -0.198336452
N  N7  1  0.68640000  0.69780000  0.56530000  1.0 0.0282382837
N  N8  1  0.31360000  0.30220000  0.43470000  1.0 0.0282382837
N  N9  1  0.56340000  0.61660000  0.53380000  1.0 -0.2246243355
N  N10  1  0.43660000  0.38340000  0.46620000  1.0 -0.2246243355
N  N11  1  0.89040000  0.75660000  0.83010000  1.0 -0.166423991
N  N12  1  0.10960000  0.24340000  0.16990000  1.0 -0.166423991
N  N13  1  0.67790000  0.75310000  0.96330000  1.0 0.0403622286
N  N14  1  0.32210000  0.24690000  0.03670000  1.0 0.0403622286
N  N15  1  0.48860000  0.78830000  0.00250000  1.0 -0.2756758479
N  N16  1  0.51140000  0.21170000  0.99750000  1.0 -0.2756758479
N  N17  1  0.11580000  0.74080000  0.93290000  1.0 0.0403622286
N  N18  1  0.88420000  0.25920000  0.06710000  1.0 0.0403622286
N  N19  1  0.24860000  0.78560000  0.97770000  1.0 -0.3193221835
N  N20  1  0.75140000  0.21440000  0.02230000  1.0 -0.3193221835
O  O1  1  0.80730000  0.63010000  0.75750000  1.0 -0.7005604992
O  O2  1  0.19270000  0.36990000  0.24250000  1.0 -0.7005604992
O  O3  1  0.94220000  0.42680000  0.57300000  1.0 -0.7005604992
O  O4  1  0.05780000  0.57320000  0.42700000  1.0 -0.7005604992
O  O5  1  0.01230000  0.84840000  0.73390000  1.0 -0.7478635458
O  O6  1  0.98770000  0.15160000  0.26610000  1.0 -0.7478635458
O  O7  1  0.28160000  0.98210000  0.57730000  1.0 -0.7005604992
O  O8  1  0.71840000  0.01790000  0.42270000  1.0 -0.7005604992
O  O9  1  0.42480000  0.36750000  0.60420000  1.0 -0.6567162123
O  O10  1  0.57520000  0.63250000  0.39580000  1.0 -0.6567162123
O  O11  1  0.29080000  0.56360000  0.78480000  1.0 -0.634359136
O  O12  1  0.70920000  0.43640000  0.21520000  1.0 -0.634359136
O  O13  1  0.98060000  0.41680000  0.95780000  1.0 -0.6567162123
O  O14  1  0.01940000  0.58320000  0.04220000  1.0 -0.6567162123
O  O15  1  0.29450000  0.02030000  0.96250000  1.0 -0.7703154233
O  O16  1  0.70550000  0.97970000  0.03750000  1.0 -0.7703154233
O  O17  1  0.44500000  0.78840000  0.76060000  1.0 -0.677116051
O  O18  1  0.55500000  0.21160000  0.23940000  1.0 -0.677116051
O  O19  1  0.86020000  0.07220000  0.93350000  1.0 -0.7311001566
O  O20  1  0.13980000  0.92780000  0.06650000  1.0 -0.7311001566
O  O21  1  0.59340000  0.16230000  0.78180000  1.0 -0.7819844631
O  O22  1  0.40660000  0.83770000  0.21820000  1.0 -0.7819844631
O  O23  1  0.24830000  0.13500000  0.79200000  1.0 -1.0707692651
O  O24  1  0.75170000  0.86500000  0.20800000  1.0 -1.0707692651
O  O25  1  0.34720000  0.16600000  0.60610000  1.0 -0.8689520346
O  O26  1  0.65280000  0.83400000  0.39390000  1.0 -0.8689520346
O  O27  1  0.10500000  0.20300000  0.59500000  1.0 -0.8689520346
O  O28  1  0.89500000  0.79700000  0.40500000  1.0 -0.8689520346
O  O29  1  0.17730000  0.38110000  0.61050000  1.0 -0.8090091047
O  O30  1  0.82270000  0.61890000  0.38950000  1.0 -0.8090091047
O  O31  1  0.32820000  0.00050000  0.69070000  1.0 -0.9008139419
O  O32  1  0.67180000  0.99950000  0.30930000  1.0 -0.9008139419
O  O33  1  0.25870000  0.41890000  0.70430000  1.0 -0.8588761357
O  O34  1  0.74130000  0.58110000  0.29570000  1.0 -0.8588761357
O  O35  1  0.97720000  0.46100000  0.68670000  1.0 -0.8795120564
O  O36  1  0.02280000  0.53900000  0.31330000  1.0 -0.8795120564
O  O37  1  0.89770000  0.28500000  0.66780000  1.0 -0.9095735995
O  O38  1  0.10230000  0.71500000  0.33220000  1.0 -0.9095735995
O  O39  1  0.18750000  0.92970000  0.77140000  1.0 -0.8795120564
O  O40  1  0.81250000  0.07030000  0.22860000  1.0 -0.8795120564
O  O41  1  0.86380000  0.07160000  0.73110000  1.0 -0.8689520346
O  O42  1  0.13620000  0.92840000  0.26890000  1.0 -0.8689520346
O  O43  1  0.81690000  0.40460000  0.76820000  1.0 -0.8689520346
O  O44  1  0.18310000  0.59540000  0.23180000  1.0 -0.8689520346
O  O45  1  0.79100000  0.18770000  0.83530000  1.0 -0.8090091047
O  O46  1  0.20900000  0.81230000  0.16470000  1.0 -0.8090091047
O  O47  1  0.96740000  0.97860000  0.82650000  1.0 -0.8410974887
O  O48  1  0.03260000  0.02140000  0.17350000  1.0 -0.8410974887
O  O49  1  0.10540000  0.05590000  0.89030000  1.0 -0.8689520346
O  O50  1  0.89460000  0.94410000  0.10970000  1.0 -0.8689520346
O  O51  1  0.33900000  0.93490000  0.85210000  1.0 -0.8795120564
O  O52  1  0.66100000  0.06510000  0.14790000  1.0 -0.8795120564
O  O53  1  0.17070000  0.23950000  0.90270000  1.0 -0.9008139419
O  O54  1  0.82930000  0.76050000  0.09730000  1.0 -0.9008139419
O  O55  1  0.90730000  0.48950000  0.84860000  1.0 -0.8689520346
O  O56  1  0.09270000  0.51050000  0.15140000  1.0 -0.8689520346
O  O57  1  0.05820000  0.56000000  0.76310000  1.0 -0.9008139419
O  O58  1  0.94180000  0.44000000  0.23690000  1.0 -0.9008139419
O  O59  1  0.47670000  0.00990000  0.76610000  1.0 -0.8180303422
O  O60  1  0.52330000  0.99010000  0.23390000  1.0 -0.8180303422
O  O61  1  0.14380000  0.45680000  0.86240000  1.0 -0.8689520346
O  O62  1  0.85620000  0.54320000  0.13760000  1.0 -0.8689520346
O  O63  1  0.33740000  0.32150000  0.79980000  1.0 -0.8588761357
O  O64  1  0.66260000  0.67850000  0.20020000  1.0 -0.8588761357
O  O65  1  0.94620000  0.25890000  0.88590000  1.0 -0.8795120564
O  O66  1  0.05380000  0.74110000  0.11410000  1.0 -0.8795120564
O  O67  1  0.41160000  0.21310000  0.70540000  1.0 -0.8689520346
O  O68  1  0.58840000  0.78690000  0.29460000  1.0 -0.8588761357
O  O69  1  0.10550000  0.02170000  0.67420000  1.0 -0.8795120564
O  O70  1  0.89450000  0.97830000  0.32580000  1.0 -0.8795120564
O  O71  1  0.41120000  0.11570000  0.86400000  1.0 -0.8180303422
O  O72  1  0.58880000  0.88430000  0.13600000  1.0 -0.8180303422
O  O73  1  0.16310000  0.22970000  0.69180000  1.0 -1.0973123458
O  O74  1  0.83690000  0.77030000  0.30820000  1.0 -1.0973123458
O  O75  1  0.08570000  0.33560000  0.78850000  1.0 -1.0527156738
O  O76  1  0.91430000  0.66440000  0.21150000  1.0 -1.0527156738
O  O77  1  0.02200000  0.15100000  0.77880000  1.0 -1.0100342182
O  O78  1  0.97800000  0.84900000  0.22120000  1.0 -1.0100342182
O  O79  1  0.56360000  0.40610000  0.80650000  1.0 -0.4957406667
O  O80  1  0.43640000  0.59390000  0.19350000  1.0 -0.4957406667
O  O81  1  0.59800000  0.42000000  0.67980000  1.0 -0.7005604992
O  O82  1  0.40200000  0.58000000  0.32020000  1.0 -0.7066706565
O  O83  1  0.67730000  0.18210000  0.65860000  1.0 -0.4630156306
O  O84  1  0.32270000  0.81790000  0.34140000  1.0 -0.4630156306
O  O85  1  0.73380000  0.90700000  0.74010000  1.0 -0.3136334119
O  O86  1  0.26620000  0.09300000  0.25990000  1.0 -0.3136334119
O  O87  1  0.36280000  0.93070000  0.09330000  1.0 -0.4051786807
O  O88  1  0.63720000  0.06930000  0.90670000  1.0 -0.4033492652
