# DDEC6 charges by PACMAN v1.1 (https://github.com/mtap-research/PACMAN-charge/)
data_POWBEK_FSR_pacman
_symmetry_space_group_name_H-M   'P 1'
_cell_length_a   11.33500000
_cell_length_b   12.15200000
_cell_length_c   23.31900000
_cell_angle_alpha   83.54300000
_cell_angle_beta   81.74100000
_cell_angle_gamma   71.11200000
_symmetry_Int_Tables_number   1
_chemical_formula_structural   Y2Cu5Si2H36W22C44(N5O22)4
_chemical_formula_sum   'Y2 Cu5 Si2 H36 W22 C44 N20 O88'
_cell_volume   3000.08029517
_cell_formula_units_Z   1
loop_
 _symmetry_equiv_pos_site_id
 _symmetry_equiv_pos_as_xyz
  1  'x, y, z'
loop_
 _atom_site_type_symbol
 _atom_site_label
 _atom_site_symmetry_multiplicity
 _atom_site_fract_x
 _atom_site_fract_y
 _atom_site_fract_z
 _atom_site_occupancy
 _atom_site_charge
Y  Y1  1  0.25550000  0.23653000  0.25890000  1.0 2.0015157564
Y  Y2  1  0.74450000  0.76347000  0.74110000  1.0 2.0015157564
Cu  Cu1  1  0.10780000  0.74400000  0.25484000  1.0 0.8804561003
Cu  Cu2  1  0.89220000  0.25600000  0.74516000  1.0 0.8804561003
Cu  Cu3  1  0.69250000  0.62980000  0.97174000  1.0 0.863166879
Cu  Cu4  1  0.30750000  0.37020000  0.02826000  1.0 0.863166879
Cu  Cu5  1  0.50000000  0.00000000  0.50000000  1.0 0.6611335977
Si  Si1  1  0.86880000  0.28680000  0.23770000  1.0 1.6872590884
Si  Si2  1  0.13120000  0.71320000  0.76230000  1.0 1.6872590884
H  H1  1  0.92720000  0.76900000  0.35990000  1.0 0.1601958014
H  H2  1  0.07280000  0.23100000  0.64010000  1.0 0.1688418939
H  H3  1  0.08360000  0.83090000  0.49220000  1.0 0.1688418939
H  H4  1  0.91640000  0.16910000  0.50780000  1.0 0.1688418939
H  H5  1  0.27740000  0.75530000  0.33530000  1.0 0.149988723
H  H6  1  0.72260000  0.24470000  0.66470000  1.0 0.149988723
H  H7  1  0.75210000  0.92710000  0.41800000  1.0 0.149988723
H  H8  1  0.24790000  0.07290000  0.58200000  1.0 0.149988723
H  H9  1  0.67530000  0.79840000  0.56960000  1.0 0.149988723
H  H10  1  0.32470000  0.20160000  0.43040000  1.0 0.149988723
H  H11  1  0.90520000  0.69990000  0.53710000  1.0 0.1601958014
H  H12  1  0.09480000  0.30010000  0.46290000  1.0 0.1601958014
H  H13  1  0.45410000  0.64910000  0.41270000  1.0 0.1601958014
H  H14  1  0.54590000  0.35090000  0.58730000  1.0 0.1601958014
H  H15  1  0.59210000  0.73080000  0.45250000  1.0 0.1429184346
H  H16  1  0.40790000  0.26920000  0.54750000  1.0 0.1429184346
H  H17  1  0.25400000  0.96040000  0.46230000  1.0 0.1227057568
H  H18  1  0.74600000  0.03960000  0.53770000  1.0 0.1227057568
H  H19  1  0.92970000  0.75450000  0.17230000  1.0 0.149988723
H  H20  1  0.07030000  0.24550000  0.82770000  1.0 0.149988723
H  H21  1  0.10150000  0.75280000  0.01030000  1.0 0.1601958014
H  H22  1  0.89850000  0.24720000  0.98970000  1.0 0.1601958014
H  H23  1  0.28520000  0.73500000  0.14950000  1.0 0.149988723
H  H24  1  0.71480000  0.26500000  0.85050000  1.0 0.149988723
H  H25  1  0.46240000  0.61440000  0.06640000  1.0 0.1429184346
H  H26  1  0.53760000  0.38560000  0.93360000  1.0 0.1429184346
H  H27  1  0.25320000  0.90350000  0.98230000  1.0 0.149988723
H  H28  1  0.74680000  0.09650000  0.01770000  1.0 0.149988723
H  H29  1  0.47220000  0.83210000  0.93190000  1.0 0.149988723
H  H30  1  0.52780000  0.16790000  0.06810000  1.0 0.149988723
H  H31  1  0.93900000  0.62930000  0.01350000  1.0 0.1429184346
H  H32  1  0.06100000  0.37070000  0.98650000  1.0 0.1429184346
H  H33  1  0.75000000  0.89480000  0.11040000  1.0 0.1688418939
H  H34  1  0.25000000  0.10520000  0.88960000  1.0 0.1688418939
H  H35  1  0.59800000  0.84160000  0.06100000  1.0 0.1429184346
H  H36  1  0.40200000  0.15840000  0.93900000  1.0 0.1429184346
W  W1  1  0.08615000  0.01098000  0.23558000  1.0 2.406745921
W  W2  1  0.91385000  0.98902000  0.76442000  1.0 2.406745921
W  W3  1  0.98687000  0.15729000  0.36891000  1.0 2.3646365507
W  W4  1  0.01313000  0.84271000  0.63109000  1.0 2.3664077623
W  W5  1  0.98008000  0.51458000  0.25469000  1.0 2.4330462321
W  W6  1  0.01992000  0.48542000  0.74531000  1.0 2.4330462321
W  W7  1  0.76239000  0.42068000  0.36972000  1.0 2.4350093706
W  W8  1  0.23761000  0.57932000  0.63028000  1.0 2.4350093706
W  W9  1  0.68097000  0.18445000  0.35560000  1.0 2.4226441487
W  W10  1  0.31903000  0.81555000  0.64440000  1.0 2.4226441487
W  W11  1  0.78609000  0.03283000  0.21918000  1.0 2.3935022457
W  W12  1  0.21391000  0.96717000  0.78082000  1.0 2.3935022457
W  W13  1  0.96737000  0.12952000  0.11126000  1.0 2.382918249
W  W14  1  0.03263000  0.87048000  0.88874000  1.0 2.382918249
W  W15  1  0.73909000  0.42428000  0.10830000  1.0 2.4004954203
W  W16  1  0.26091000  0.57572000  0.89170000  1.0 2.4004954203
W  W17  1  0.64621000  0.56719000  0.23155000  1.0 2.4226441487
W  W18  1  0.35379000  0.43281000  0.76845000  1.0 2.4226441487
W  W19  1  0.06895000  0.38338000  0.13301000  1.0 2.3935022457
W  W20  1  0.93105000  0.61662000  0.86699000  1.0 2.3935022457
W  W21  1  0.55873000  0.33143000  0.21797000  1.0 2.4485616788
W  W22  1  0.44127000  0.66857000  0.78203000  1.0 2.4485616788
C  C1  1  0.99860000  0.77240000  0.37380000  1.0 -0.0253410944
C  C2  1  0.00140000  0.22760000  0.62620000  1.0 -0.0253410944
C  C3  1  0.99190000  0.79130000  0.43000000  1.0 0.149988723
C  C4  1  0.00810000  0.20870000  0.57000000  1.0 0.149988723
C  C5  1  0.09100000  0.80800000  0.45480000  1.0 -0.1718790242
C  C6  1  0.90900000  0.19200000  0.54520000  1.0 -0.1718790242
C  C7  1  0.20380000  0.78600000  0.41640000  1.0 0.1688418939
C  C8  1  0.79620000  0.21400000  0.58360000  1.0 0.1688418939
C  C9  1  0.20300000  0.76530000  0.35990000  1.0 0.000626938
C  C10  1  0.79700000  0.23470000  0.64010000  1.0 0.000626938
C  C11  1  0.76300000  0.88600000  0.45390000  1.0 0.181378807
C  C12  1  0.23700000  0.11400000  0.54610000  1.0 0.181378807
C  C13  1  0.71900000  0.81460000  0.53450000  1.0 0.0457637525
C  C14  1  0.28100000  0.18540000  0.46550000  1.0 0.0457637525
C  C15  1  0.84800000  0.76100000  0.51810000  1.0 -0.0650251554
C  C16  1  0.15200000  0.23900000  0.48190000  1.0 -0.0650251554
C  C17  1  0.43100000  0.72100000  0.42830000  1.0 -0.0592134901
C  C18  1  0.56900000  0.27900000  0.57170000  1.0 -0.0592134901
C  C19  1  0.50700000  0.76800000  0.44930000  1.0 -0.0114991287
C  C20  1  0.49300000  0.23200000  0.55070000  1.0 -0.0114991287
C  C21  1  0.32200000  0.89300000  0.45550000  1.0 0.1429184346
C  C22  1  0.67800000  0.10700000  0.54450000  1.0 0.1429184346
C  C23  1  0.00200000  0.75240000  0.14740000  1.0 0.0193778093
C  C24  1  0.99800000  0.24760000  0.85260000  1.0 0.0193778093
C  C25  1  0.99830000  0.75540000  0.08930000  1.0 0.1601958014
C  C26  1  0.00170000  0.24460000  0.91070000  1.0 0.1601958014
C  C27  1  0.10280000  0.75170000  0.05010000  1.0 -0.159969707
C  C28  1  0.89720000  0.24830000  0.94990000  1.0 -0.159969707
C  C29  1  0.21170000  0.74630000  0.07450000  1.0 0.1688418939
C  C30  1  0.78830000  0.25370000  0.92550000  1.0 0.1688418939
C  C31  1  0.21140000  0.74170000  0.13440000  1.0 0.0193778093
C  C32  1  0.78860000  0.25830000  0.86560000  1.0 0.0193778093
C  C33  1  0.43970000  0.67620000  0.03860000  1.0 0.1227057568
C  C34  1  0.56030000  0.32380000  0.96140000  1.0 0.1227057568
C  C35  1  0.31800000  0.83700000  0.99220000  1.0 -0.0390614541
C  C36  1  0.68200000  0.16300000  0.00780000  1.0 -0.0390614541
C  C37  1  0.44300000  0.79760000  0.96630000  1.0 0.0108199088
C  C38  1  0.55700000  0.20240000  0.03370000  1.0 0.0108199088
C  C39  1  0.87260000  0.68770000  0.03090000  1.0 0.1875057622
C  C40  1  0.12740000  0.31230000  0.96910000  1.0 0.1875057622
C  C41  1  0.76800000  0.83570000  0.08540000  1.0 -0.0592134901
C  C42  1  0.23200000  0.16430000  0.91460000  1.0 -0.0592134901
C  C43  1  0.68500000  0.80700000  0.05770000  1.0 -0.0190104255
C  C44  1  0.31500000  0.19300000  0.94230000  1.0 -0.0190104255
N  N1  1  0.10390000  0.75830000  0.33710000  1.0 -0.1477148728
N  N2  1  0.89610000  0.24170000  0.66290000  1.0 -0.1477148728
N  N3  1  0.86770000  0.82450000  0.46620000  1.0 0.0193778093
N  N4  1  0.13230000  0.17550000  0.53380000  1.0 0.0193778093
N  N5  1  0.66890000  0.89000000  0.49300000  1.0 -0.2448236839
N  N6  1  0.33110000  0.11000000  0.50700000  1.0 -0.2448236839
N  N7  1  0.31180000  0.80010000  0.43430000  1.0 0.0108199088
N  N8  1  0.68820000  0.19990000  0.56570000  1.0 0.0108199088
N  N9  1  0.43770000  0.88170000  0.46590000  1.0 -0.2690608994
N  N10  1  0.56230000  0.11830000  0.53410000  1.0 -0.2690608994
N  N11  1  0.10810000  0.74660000  0.17050000  1.0 -0.1718790242
N  N12  1  0.89190000  0.25340000  0.82950000  1.0 -0.1718790242
N  N13  1  0.31830000  0.75200000  0.03580000  1.0 0.0193778093
N  N14  1  0.68170000  0.24800000  0.96420000  1.0 0.0193778093
N  N15  1  0.51870000  0.70360000  0.99620000  1.0 -0.2635187404
N  N16  1  0.48130000  0.29640000  0.00380000  1.0 -0.2635187404
N  N17  1  0.88540000  0.75710000  0.06770000  1.0 0.0369666359
N  N18  1  0.11460000  0.24290000  0.93230000  1.0 0.0369666359
N  N19  1  0.75670000  0.71050000  0.02200000  1.0 -0.3164370553
N  N20  1  0.24330000  0.28950000  0.97800000  1.0 -0.3164370553
O  O1  1  0.19390000  0.86920000  0.24260000  1.0 -0.7611477421
O  O2  1  0.80610000  0.13080000  0.75740000  1.0 -0.7611477421
O  O3  1  0.05430000  0.07860000  0.42680000  1.0 -0.6711984769
O  O4  1  0.94570000  0.92140000  0.57320000  1.0 -0.6711984769
O  O5  1  0.98460000  0.65470000  0.26780000  1.0 -0.7833900944
O  O6  1  0.01540000  0.34530000  0.73220000  1.0 -0.7833900944
O  O7  1  0.71310000  0.51760000  0.42240000  1.0 -0.6711984769
O  O8  1  0.28690000  0.48240000  0.57760000  1.0 -0.6711984769
O  O9  1  0.57380000  0.12540000  0.39750000  1.0 -0.6884602205
O  O10  1  0.42620000  0.87460000  0.60250000  1.0 -0.6884602205
O  O11  1  0.64010000  0.57080000  0.90600000  1.0 -0.4252583281
O  O12  1  0.35990000  0.42920000  0.09400000  1.0 -0.4252583281
O  O13  1  0.70840000  0.93290000  0.21680000  1.0 -0.6395535962
O  O14  1  0.29160000  0.06710000  0.78320000  1.0 -0.6395535962
O  O15  1  0.01670000  0.08490000  0.04320000  1.0 -0.6566298799
O  O16  1  0.98330000  0.91510000  0.95680000  1.0 -0.6566298799
O  O17  1  0.70340000  0.47530000  0.03850000  1.0 -0.7419373886
O  O18  1  0.29660000  0.52470000  0.96150000  1.0 -0.7419373886
O  O19  1  0.55110000  0.70770000  0.24240000  1.0 -0.6516519682
O  O20  1  0.44890000  0.29230000  0.75760000  1.0 -0.6516519682
O  O21  1  0.13740000  0.43100000  0.06570000  1.0 -0.7468123333
O  O22  1  0.86260000  0.56900000  0.93430000  1.0 -0.7468123333
O  O23  1  0.40820000  0.32410000  0.21970000  1.0 -0.6961355702
O  O24  1  0.59180000  0.67590000  0.78030000  1.0 -0.6884602205
O  O25  1  0.74450000  0.36630000  0.20880000  1.0 -1.0707013504
O  O26  1  0.25550000  0.63370000  0.79120000  1.0 -1.0707013504
O  O27  1  0.65330000  0.32960000  0.39170000  1.0 -0.8616116465
O  O28  1  0.34670000  0.67040000  0.60830000  1.0 -0.8616116465
O  O29  1  0.89350000  0.29780000  0.40510000  1.0 -0.8691846497
O  O30  1  0.10650000  0.70220000  0.59490000  1.0 -0.8691846497
O  O31  1  0.82260000  0.11300000  0.39130000  1.0 -0.8388491319
O  O32  1  0.17740000  0.88700000  0.60870000  1.0 -0.8388491319
O  O33  1  0.66050000  0.50350000  0.31150000  1.0 -0.9115317361
O  O34  1  0.33950000  0.49650000  0.68850000  1.0 -0.9115317361
O  O35  1  0.74290000  0.07120000  0.29800000  1.0 -0.8807646976
O  O36  1  0.25710000  0.92880000  0.70200000  1.0 -0.8807646976
O  O37  1  0.01620000  0.04320000  0.31260000  1.0 -0.8691846497
O  O38  1  0.98380000  0.95680000  0.68740000  1.0 -0.8691846497
O  O39  1  0.10120000  0.21780000  0.33110000  1.0 -0.8616116465
O  O40  1  0.89880000  0.78220000  0.66890000  1.0 -0.8616116465
O  O41  1  0.80370000  0.57750000  0.22970000  1.0 -0.8691846497
O  O42  1  0.19630000  0.42250000  0.77030000  1.0 -0.8691846497
O  O43  1  0.13370000  0.42560000  0.26880000  1.0 -0.8189236418
O  O44  1  0.86630000  0.57440000  0.73120000  1.0 -0.8189236418
O  O45  1  0.18320000  0.09960000  0.23150000  1.0 -0.8388491319
O  O46  1  0.81680000  0.90040000  0.76850000  1.0 -0.8388491319
O  O47  1  0.20610000  0.31460000  0.16600000  1.0 -0.7611477421
O  O48  1  0.79390000  0.68540000  0.83400000  1.0 -0.7611477421
O  O49  1  0.03180000  0.52060000  0.17050000  1.0 -0.8331077592
O  O50  1  0.96820000  0.47940000  0.82950000  1.0 -0.8331077592
O  O51  1  0.89080000  0.44460000  0.11110000  1.0 -0.8616116465
O  O52  1  0.10920000  0.55540000  0.88890000  1.0 -0.8616116465
O  O53  1  0.65560000  0.56340000  0.15010000  1.0 -0.8691846497
O  O54  1  0.34440000  0.43660000  0.84990000  1.0 -0.8691846497
O  O55  1  0.82200000  0.26550000  0.09880000  1.0 -0.89363717
O  O56  1  0.17800000  0.73450000  0.90120000  1.0 -0.89363717
O  O57  1  0.08940000  0.01250000  0.15160000  1.0 -0.8616116465
O  O58  1  0.91060000  0.98750000  0.84840000  1.0 -0.8616116465
O  O59  1  0.93790000  0.94170000  0.23730000  1.0 -0.8691846497
O  O60  1  0.06210000  0.05830000  0.76270000  1.0 -0.8691846497
O  O61  1  0.51660000  0.49100000  0.23550000  1.0 -0.8189236418
O  O62  1  0.48340000  0.50900000  0.76450000  1.0 -0.8189236418
O  O63  1  0.85220000  0.04280000  0.13800000  1.0 -0.8691846497
O  O64  1  0.14780000  0.95720000  0.86200000  1.0 -0.8691846497
O  O65  1  0.65320000  0.17980000  0.20040000  1.0 -0.8691846497
O  O66  1  0.34680000  0.82020000  0.79960000  1.0 -0.8691846497
O  O67  1  0.05070000  0.24110000  0.11550000  1.0 -0.8807646976
O  O68  1  0.94930000  0.75890000  0.88450000  1.0 -0.8807646976
O  O69  1  0.58190000  0.28550000  0.29660000  1.0 -0.8807646976
O  O70  1  0.41810000  0.71450000  0.70340000  1.0 -0.8807646976
O  O71  1  0.89420000  0.47380000  0.32470000  1.0 -0.8807646976
O  O72  1  0.10580000  0.52620000  0.67530000  1.0 -0.8807646976
O  O73  1  0.58840000  0.37820000  0.13680000  1.0 -0.8096213238
O  O74  1  0.41160000  0.62180000  0.86320000  1.0 -0.8096213238
O  O75  1  0.83610000  0.26810000  0.30790000  1.0 -1.0827338592
O  O76  1  0.16390000  0.73190000  0.69210000  1.0 -1.0827338592
O  O77  1  0.91540000  0.15880000  0.21170000  1.0 -1.0594815509
O  O78  1  0.08460000  0.84120000  0.78830000  1.0 -1.0594815509
O  O79  1  0.97730000  0.34750000  0.22090000  1.0 -1.0038363234
O  O80  1  0.02270000  0.65250000  0.77910000  1.0 -1.0038363234
O  O81  1  0.38800000  0.08700000  0.31740000  1.0 -0.5905478791
O  O82  1  0.61200000  0.91300000  0.68260000  1.0 -0.5905478791
O  O83  1  0.42420000  0.10390000  0.19710000  1.0 -0.2848092214
O  O84  1  0.57580000  0.89610000  0.80290000  1.0 -0.2883777813
O  O85  1  0.31750000  0.30700000  0.33900000  1.0 -0.3300579832
O  O86  1  0.68250000  0.69300000  0.66100000  1.0 -0.3300579832
O  O87  1  0.26990000  0.58800000  0.25830000  1.0 -0.304007192
O  O88  1  0.73010000  0.41200000  0.74170000  1.0 -0.304007192
