# DDEC6 charges by PACMAN v1.1 (https://github.com/mtap-research/PACMAN-charge/)
data_POWTAZ_ASR_pacman
_symmetry_space_group_name_H-M   'P 1'
_cell_length_a   15.26490000
_cell_length_b   15.26490000
_cell_length_c   7.90500000
_cell_angle_alpha   90.00000000
_cell_angle_beta   90.00000000
_cell_angle_gamma   120.00000000
_symmetry_Int_Tables_number   1
_chemical_formula_structural   BaZn3H21(C9O8)3
_chemical_formula_sum   'Ba2 Zn6 H42 C54 O48'
_cell_volume   1595.21943873
_cell_formula_units_Z   2
loop_
 _symmetry_equiv_pos_site_id
 _symmetry_equiv_pos_as_xyz
  1  'x, y, z'
loop_
 _atom_site_type_symbol
 _atom_site_label
 _atom_site_symmetry_multiplicity
 _atom_site_fract_x
 _atom_site_fract_y
 _atom_site_fract_z
 _atom_site_occupancy
 _atom_site_charge
Ba  Ba1  1  0.66666667  0.33333333  0.55550000  1.0 1.4487206233
Ba  Ba2  1  0.33333333  0.66666667  0.05550000  1.0 1.4487206233
Zn  Zn1  1  0.69305000  0.04650000  0.74304000  1.0 0.9525651229
Zn  Zn2  1  0.35345000  0.30695000  0.74304000  1.0 0.9525651229
Zn  Zn3  1  0.95350000  0.64655000  0.74304000  1.0 0.9525651229
Zn  Zn4  1  0.64655000  0.95350000  0.24304000  1.0 0.9525651229
Zn  Zn5  1  0.04650000  0.69305000  0.24304000  1.0 0.9525651229
Zn  Zn6  1  0.30695000  0.35345000  0.24304000  1.0 0.9525651229
H  H1  1  0.52400000  0.38100000  0.26900000  1.0 0.1981924666
H  H2  1  0.61100000  0.42700000  0.20100000  1.0 0.2295789053
H  H3  1  0.91823000  0.38660000  0.40881000  1.0 0.1058439804
H  H4  1  0.21489000  0.47974000  0.42508000  1.0 0.1300160034
H  H5  1  0.01551000  0.21995000  0.65151000  1.0 0.1491696281
H  H6  1  0.55100000  0.39900000  0.23000000  1.0 0.2295789053
H  H7  1  0.49000000  0.30100000  0.23800000  1.0 0.2227449162
H  H8  1  0.85700000  0.47600000  0.26900000  1.0 0.1981924666
H  H9  1  0.81600000  0.38900000  0.20100000  1.0 0.2295789053
H  H10  1  0.46837000  0.08177000  0.40881000  1.0 0.1058439804
H  H11  1  0.26485000  0.78511000  0.42508000  1.0 0.1300160034
H  H12  1  0.20444000  0.98449000  0.65151000  1.0 0.1491696281
H  H13  1  0.84800000  0.44900000  0.23000000  1.0 0.2295789053
H  H14  1  0.81100000  0.51000000  0.23800000  1.0 0.2227449162
H  H15  1  0.61900000  0.14300000  0.26900000  1.0 0.1981924666
H  H16  1  0.57300000  0.18400000  0.20100000  1.0 0.2295789053
H  H17  1  0.61340000  0.53163000  0.40881000  1.0 0.1058439804
H  H18  1  0.52026000  0.73515000  0.42508000  1.0 0.1300160034
H  H19  1  0.78005000  0.79556000  0.65151000  1.0 0.1491696281
H  H20  1  0.60100000  0.15200000  0.23000000  1.0 0.2295789053
H  H21  1  0.69900000  0.18900000  0.23800000  1.0 0.2227449162
H  H22  1  0.14300000  0.61900000  0.76900000  1.0 0.1981924666
H  H23  1  0.18400000  0.57300000  0.70100000  1.0 0.2295789053
H  H24  1  0.53163000  0.61340000  0.90881000  1.0 0.1058439804
H  H25  1  0.73515000  0.52026000  0.92508000  1.0 0.1300160034
H  H26  1  0.79556000  0.78005000  0.15151000  1.0 0.1491696281
H  H27  1  0.15200000  0.60100000  0.73000000  1.0 0.2295789053
H  H28  1  0.18900000  0.69900000  0.73800000  1.0 0.2227449162
H  H29  1  0.38100000  0.52400000  0.76900000  1.0 0.1981924666
H  H30  1  0.42700000  0.61100000  0.70100000  1.0 0.2295789053
H  H31  1  0.38660000  0.91823000  0.90881000  1.0 0.1058439804
H  H32  1  0.47974000  0.21489000  0.92508000  1.0 0.1300160034
H  H33  1  0.21995000  0.01551000  0.15151000  1.0 0.1491696281
H  H34  1  0.39900000  0.55100000  0.73000000  1.0 0.2295789053
H  H35  1  0.30100000  0.49000000  0.73800000  1.0 0.2227449162
H  H36  1  0.47600000  0.85700000  0.76900000  1.0 0.1981924666
H  H37  1  0.38900000  0.81600000  0.70100000  1.0 0.2295789053
H  H38  1  0.08177000  0.46837000  0.90881000  1.0 0.1058439804
H  H39  1  0.78511000  0.26485000  0.92508000  1.0 0.1300160034
H  H40  1  0.98449000  0.20444000  0.15151000  1.0 0.1491696281
H  H41  1  0.44900000  0.84800000  0.73000000  1.0 0.2295789053
H  H42  1  0.51000000  0.81100000  0.73800000  1.0 0.2227449162
C  C1  1  0.84170000  0.21540000  0.57530000  1.0 0.5937025441
C  C2  1  0.94930000  0.28990000  0.53330000  1.0 -0.0036698556
C  C3  1  0.97080000  0.37670000  0.44400000  1.0 -0.1306027901
C  C4  1  0.07000000  0.44900000  0.40660000  1.0 -0.0236080355
C  C5  1  0.09450000  0.54570000  0.31660000  1.0 0.5760952128
C  C6  1  0.14860000  0.43300000  0.45420000  1.0 -0.1535359255
C  C7  1  0.12760000  0.34660000  0.54580000  1.0 -0.0314891929
C  C8  1  0.21350000  0.33240000  0.59990000  1.0 0.5715345932
C  C9  1  0.02900000  0.27640000  0.58740000  1.0 -0.093763824
C  C10  1  0.37370000  0.15830000  0.57530000  1.0 0.5937025441
C  C11  1  0.34060000  0.05070000  0.53330000  1.0 -0.0036698556
C  C12  1  0.40590000  0.02920000  0.44400000  1.0 -0.1306027901
C  C13  1  0.37900000  0.93000000  0.40660000  1.0 -0.0236080355
C  C14  1  0.45120000  0.90550000  0.31660000  1.0 0.5760952128
C  C15  1  0.28440000  0.85140000  0.45420000  1.0 -0.1535359255
C  C16  1  0.21900000  0.87240000  0.54580000  1.0 -0.0314891929
C  C17  1  0.11890000  0.78650000  0.59990000  1.0 0.5715345932
C  C18  1  0.24740000  0.97100000  0.58740000  1.0 -0.093763824
C  C19  1  0.78460000  0.62630000  0.57530000  1.0 0.5937025441
C  C20  1  0.71010000  0.65940000  0.53330000  1.0 -0.0036698556
C  C21  1  0.62330000  0.59410000  0.44400000  1.0 -0.1306027901
C  C22  1  0.55100000  0.62100000  0.40660000  1.0 -0.0236080355
C  C23  1  0.45430000  0.54880000  0.31660000  1.0 0.5760952128
C  C24  1  0.56700000  0.71560000  0.45420000  1.0 -0.1535359255
C  C25  1  0.65340000  0.78100000  0.54580000  1.0 -0.0314891929
C  C26  1  0.66760000  0.88110000  0.59990000  1.0 0.5715345932
C  C27  1  0.72360000  0.75260000  0.58740000  1.0 -0.093763824
C  C28  1  0.62630000  0.78460000  0.07530000  1.0 0.5937025441
C  C29  1  0.65940000  0.71010000  0.03330000  1.0 -0.0036698556
C  C30  1  0.59410000  0.62330000  0.94400000  1.0 -0.1306027901
C  C31  1  0.62100000  0.55100000  0.90660000  1.0 -0.0236080355
C  C32  1  0.54880000  0.45430000  0.81660000  1.0 0.5760952128
C  C33  1  0.71560000  0.56700000  0.95420000  1.0 -0.1535359255
C  C34  1  0.78100000  0.65340000  0.04580000  1.0 -0.0314891929
C  C35  1  0.88110000  0.66760000  0.09990000  1.0 0.5715345932
C  C36  1  0.75260000  0.72360000  0.08740000  1.0 -0.093763824
C  C37  1  0.21540000  0.84170000  0.07530000  1.0 0.5937025441
C  C38  1  0.28990000  0.94930000  0.03330000  1.0 -0.0036698556
C  C39  1  0.37670000  0.97080000  0.94400000  1.0 -0.1306027901
C  C40  1  0.44900000  0.07000000  0.90660000  1.0 -0.0236080355
C  C41  1  0.54570000  0.09450000  0.81660000  1.0 0.5760952128
C  C42  1  0.43300000  0.14860000  0.95420000  1.0 -0.1535359255
C  C43  1  0.34660000  0.12760000  0.04580000  1.0 -0.0314891929
C  C44  1  0.33240000  0.21350000  0.09990000  1.0 0.5715345932
C  C45  1  0.27640000  0.02900000  0.08740000  1.0 -0.093763824
C  C46  1  0.15830000  0.37370000  0.07530000  1.0 0.5937025441
C  C47  1  0.05070000  0.34060000  0.03330000  1.0 -0.0036698556
C  C48  1  0.02920000  0.40590000  0.94400000  1.0 -0.1306027901
C  C49  1  0.93000000  0.37900000  0.90660000  1.0 -0.0236080355
C  C50  1  0.90550000  0.45120000  0.81660000  1.0 0.5760952128
C  C51  1  0.85140000  0.28440000  0.95420000  1.0 -0.1535359255
C  C52  1  0.87240000  0.21900000  0.04580000  1.0 -0.0314891929
C  C53  1  0.78650000  0.11890000  0.09990000  1.0 0.5715345932
C  C54  1  0.97100000  0.24740000  0.08740000  1.0 -0.093763824
O  O1  1  0.82675000  0.13498000  0.65170000  1.0 -0.5257598864
O  O2  1  0.77441000  0.23383000  0.53880000  1.0 -0.576135487
O  O3  1  0.02007000  0.55512000  0.26620000  1.0 -0.567076346
O  O4  1  0.18457000  0.61188000  0.30090000  1.0 -0.5463358866
O  O5  1  0.28696000  0.35522000  0.50100000  1.0 -0.5403575407
O  O6  1  0.21362000  0.29974000  0.74590000  1.0 -0.486063193
O  O7  1  0.57430000  0.37030000  0.25360000  1.0 -0.3754519032
O  O8  1  0.55100000  0.34600000  0.26400000  1.0 -0.3882326391
O  O9  1  0.30823000  0.17325000  0.65170000  1.0 -0.5257598864
O  O10  1  0.45942000  0.22559000  0.53880000  1.0 -0.576135487
O  O11  1  0.53505000  0.97993000  0.26620000  1.0 -0.567076346
O  O12  1  0.42731000  0.81543000  0.30090000  1.0 -0.5463358866
O  O13  1  0.06826000  0.71304000  0.50100000  1.0 -0.5403575407
O  O14  1  0.08612000  0.78638000  0.74590000  1.0 -0.486063193
O  O15  1  0.79600000  0.42570000  0.25360000  1.0 -0.3754519032
O  O16  1  0.79500000  0.44900000  0.26400000  1.0 -0.3882326391
O  O17  1  0.86502000  0.69177000  0.65170000  1.0 -0.5257598864
O  O18  1  0.76617000  0.54058000  0.53880000  1.0 -0.576135487
O  O19  1  0.44488000  0.46495000  0.26620000  1.0 -0.567076346
O  O20  1  0.38812000  0.57269000  0.30090000  1.0 -0.5463358866
O  O21  1  0.64478000  0.93174000  0.50100000  1.0 -0.5403575407
O  O22  1  0.70026000  0.91388000  0.74590000  1.0 -0.486063193
O  O23  1  0.62970000  0.20400000  0.25360000  1.0 -0.3754519032
O  O24  1  0.65400000  0.20500000  0.26400000  1.0 -0.3882326391
O  O25  1  0.69177000  0.86502000  0.15170000  1.0 -0.5257598864
O  O26  1  0.54058000  0.76617000  0.03880000  1.0 -0.576135487
O  O27  1  0.46495000  0.44488000  0.76620000  1.0 -0.567076346
O  O28  1  0.57269000  0.38812000  0.80090000  1.0 -0.5463358866
O  O29  1  0.93174000  0.64478000  0.00100000  1.0 -0.5403575407
O  O30  1  0.91388000  0.70026000  0.24590000  1.0 -0.486063193
O  O31  1  0.20400000  0.62970000  0.75360000  1.0 -0.3749918448
O  O32  1  0.20500000  0.65400000  0.76400000  1.0 -0.3882326391
O  O33  1  0.13498000  0.82675000  0.15170000  1.0 -0.5257598864
O  O34  1  0.23383000  0.77441000  0.03880000  1.0 -0.576135487
O  O35  1  0.55512000  0.02007000  0.76620000  1.0 -0.567076346
O  O36  1  0.61188000  0.18457000  0.80090000  1.0 -0.5463358866
O  O37  1  0.35522000  0.28696000  0.00100000  1.0 -0.5403575407
O  O38  1  0.29974000  0.21362000  0.24590000  1.0 -0.486063193
O  O39  1  0.37030000  0.57430000  0.75360000  1.0 -0.3749918448
O  O40  1  0.34600000  0.55100000  0.76400000  1.0 -0.3882326391
O  O41  1  0.17325000  0.30823000  0.15170000  1.0 -0.5257598864
O  O42  1  0.22559000  0.45942000  0.03880000  1.0 -0.576135487
O  O43  1  0.97993000  0.53505000  0.76620000  1.0 -0.567076346
O  O44  1  0.81543000  0.42731000  0.80090000  1.0 -0.5463358866
O  O45  1  0.71304000  0.06826000  0.00100000  1.0 -0.5403575407
O  O46  1  0.78638000  0.08612000  0.24590000  1.0 -0.486063193
O  O47  1  0.42570000  0.79600000  0.75360000  1.0 -0.3754519032
O  O48  1  0.44900000  0.79500000  0.76400000  1.0 -0.3882326391
