# DDEC6 charges by PACMAN v1.1 (https://github.com/mtap-research/PACMAN-charge/)
data_POXZOU_ASR_pacman
_symmetry_space_group_name_H-M   'P 1'
_cell_length_a   16.47040000
_cell_length_b   16.47040000
_cell_length_c   19.00700000
_cell_angle_alpha   89.81490000
_cell_angle_beta   90.18510000
_cell_angle_gamma   96.07370000
_symmetry_Int_Tables_number   1
_chemical_formula_structural   Zr3H44C75O14
_chemical_formula_sum   'Zr6 H88 C150 O28'
_cell_volume   5127.11477402
_cell_formula_units_Z   2
loop_
 _symmetry_equiv_pos_site_id
 _symmetry_equiv_pos_as_xyz
  1  'x, y, z'
loop_
 _atom_site_type_symbol
 _atom_site_label
 _atom_site_symmetry_multiplicity
 _atom_site_fract_x
 _atom_site_fract_y
 _atom_site_fract_z
 _atom_site_occupancy
 _atom_site_charge
Zr  Zr1  1  0.42822000  0.57178000  0.40512000  1.0 2.426348211
Zr  Zr2  1  0.57178000  0.42822000  0.59488000  1.0 2.426348211
Zr  Zr3  1  0.42829000  0.57171000  0.59415000  1.0 2.4243026989
Zr  Zr4  1  0.57171000  0.42829000  0.40585000  1.0 2.4243026989
Zr  Zr5  1  0.38873000  0.38873000  0.50000000  1.0 2.4110087173
Zr  Zr6  1  0.61127000  0.61127000  0.50000000  1.0 2.4110087173
H  H1  1  0.66509000  0.84951000  0.40229000  1.0 0.1404066724
H  H2  1  0.49981000  0.78977000  0.26114000  1.0 0.1182901487
H  H3  1  0.70879000  0.97249000  0.33754000  1.0 0.1111636715
H  H4  1  0.54246000  0.91106000  0.19529000  1.0 0.1182901487
H  H5  1  0.21601000  0.49479000  0.74249000  1.0 0.1182901487
H  H6  1  0.15293000  0.32815000  0.59954000  1.0 0.1404066724
H  H7  1  0.09125000  0.45113000  0.80509000  1.0 0.1182901487
H  H8  1  0.02657000  0.29585000  0.65640000  1.0 0.1111636715
H  H9  1  0.66648000  0.98754000  0.13365000  1.0 0.1182901487
H  H10  1  0.64459000  0.10155000  0.31014000  1.0 0.1182901487
H  H11  1  0.72233000  0.10793000  0.08091000  1.0 0.1182901487
H  H12  1  0.68029000  0.23289000  0.25449000  1.0 0.1111636715
H  H13  1  0.01287000  0.31203000  0.85748000  1.0 0.1182901487
H  H14  1  0.89371000  0.34981000  0.68512000  1.0 0.1182901487
H  H15  1  0.88812000  0.26810000  0.91599000  1.0 0.1111636715
H  H16  1  0.76609000  0.32365000  0.74381000  1.0 0.1111636715
H  H17  1  0.55515000  0.22385000  0.12344000  1.0 0.1035820114
H  H18  1  0.55597000  0.22183000  0.87636000  1.0 0.1111636715
H  H19  1  0.43598000  0.17750000  0.06056000  1.0 0.1111636715
H  H20  1  0.43448000  0.18042000  0.93922000  1.0 0.1111636715
H  H21  1  0.84951000  0.66509000  0.59771000  1.0 0.1404066724
H  H22  1  0.78977000  0.49981000  0.73886000  1.0 0.1182901487
H  H23  1  0.97249000  0.70879000  0.66246000  1.0 0.1111636715
H  H24  1  0.91106000  0.54246000  0.80471000  1.0 0.1182901487
H  H25  1  0.49479000  0.21601000  0.25751000  1.0 0.1182901487
H  H26  1  0.32815000  0.15293000  0.40046000  1.0 0.1404066724
H  H27  1  0.45113000  0.09125000  0.19491000  1.0 0.1182901487
H  H28  1  0.29585000  0.02657000  0.34360000  1.0 0.1111636715
H  H29  1  0.98754000  0.66648000  0.86635000  1.0 0.1182901487
H  H30  1  0.10155000  0.64459000  0.68986000  1.0 0.1182901487
H  H31  1  0.10793000  0.72233000  0.91909000  1.0 0.1182901487
H  H32  1  0.23289000  0.68029000  0.74551000  1.0 0.1111636715
H  H33  1  0.31203000  0.01287000  0.14252000  1.0 0.1182901487
H  H34  1  0.34981000  0.89371000  0.31488000  1.0 0.1182901487
H  H35  1  0.26810000  0.88812000  0.08401000  1.0 0.1111636715
H  H36  1  0.32365000  0.76609000  0.25619000  1.0 0.1111636715
H  H37  1  0.22385000  0.55515000  0.87656000  1.0 0.1035820114
H  H38  1  0.22183000  0.55597000  0.12364000  1.0 0.1111636715
H  H39  1  0.17750000  0.43598000  0.93944000  1.0 0.1111636715
H  H40  1  0.18042000  0.43448000  0.06078000  1.0 0.1111636715
H  H41  1  0.33491000  0.15049000  0.59771000  1.0 0.1404066724
H  H42  1  0.50019000  0.21023000  0.73886000  1.0 0.1182901487
H  H43  1  0.29121000  0.02751000  0.66246000  1.0 0.1111636715
H  H44  1  0.45754000  0.08894000  0.80471000  1.0 0.1182901487
H  H45  1  0.78399000  0.50521000  0.25751000  1.0 0.1182901487
H  H46  1  0.84707000  0.67185000  0.40046000  1.0 0.1404066724
H  H47  1  0.90875000  0.54887000  0.19491000  1.0 0.1182901487
H  H48  1  0.97343000  0.70415000  0.34360000  1.0 0.1111636715
H  H49  1  0.33352000  0.01246000  0.86635000  1.0 0.1182901487
H  H50  1  0.35541000  0.89845000  0.68986000  1.0 0.1182901487
H  H51  1  0.27767000  0.89207000  0.91909000  1.0 0.1182901487
H  H52  1  0.31971000  0.76711000  0.74551000  1.0 0.1111636715
H  H53  1  0.98713000  0.68797000  0.14252000  1.0 0.1182901487
H  H54  1  0.10629000  0.65019000  0.31488000  1.0 0.1182901487
H  H55  1  0.11188000  0.73190000  0.08401000  1.0 0.1111636715
H  H56  1  0.23391000  0.67635000  0.25619000  1.0 0.1111636715
H  H57  1  0.44485000  0.77615000  0.87656000  1.0 0.1035820114
H  H58  1  0.44403000  0.77817000  0.12364000  1.0 0.1111636715
H  H59  1  0.56402000  0.82250000  0.93944000  1.0 0.1111636715
H  H60  1  0.56552000  0.81958000  0.06078000  1.0 0.1111636715
H  H61  1  0.15049000  0.33491000  0.40229000  1.0 0.1404066724
H  H62  1  0.21023000  0.50019000  0.26114000  1.0 0.1182901487
H  H63  1  0.02751000  0.29121000  0.33754000  1.0 0.1111636715
H  H64  1  0.08894000  0.45754000  0.19529000  1.0 0.1182901487
H  H65  1  0.50521000  0.78399000  0.74249000  1.0 0.1182901487
H  H66  1  0.67185000  0.84707000  0.59954000  1.0 0.1404066724
H  H67  1  0.54887000  0.90875000  0.80509000  1.0 0.1182901487
H  H68  1  0.70415000  0.97343000  0.65640000  1.0 0.1111636715
H  H69  1  0.01246000  0.33352000  0.13365000  1.0 0.1182901487
H  H70  1  0.89845000  0.35541000  0.31014000  1.0 0.1182901487
H  H71  1  0.89207000  0.27767000  0.08091000  1.0 0.1182901487
H  H72  1  0.76711000  0.31971000  0.25449000  1.0 0.1111636715
H  H73  1  0.68797000  0.98713000  0.85748000  1.0 0.1182901487
H  H74  1  0.65019000  0.10629000  0.68512000  1.0 0.1182901487
H  H75  1  0.73190000  0.11188000  0.91599000  1.0 0.1111636715
H  H76  1  0.67635000  0.23391000  0.74381000  1.0 0.1111636715
H  H77  1  0.77615000  0.44485000  0.12344000  1.0 0.1035820114
H  H78  1  0.77817000  0.44403000  0.87636000  1.0 0.1111636715
H  H79  1  0.82250000  0.56402000  0.06056000  1.0 0.1111636715
H  H80  1  0.81958000  0.56552000  0.93922000  1.0 0.1111636715
H  H81  1  0.57885000  0.42115000  0.82397000  1.0 0.1404066724
H  H82  1  0.41929000  0.58071000  0.82235000  1.0 0.1404066724
H  H83  1  0.57994000  0.42006000  0.94793000  1.0 0.1111636715
H  H84  1  0.41966000  0.58034000  0.94538000  1.0 0.1111636715
H  H85  1  0.42115000  0.57885000  0.17603000  1.0 0.1404066724
H  H86  1  0.58071000  0.41929000  0.17765000  1.0 0.1404066724
H  H87  1  0.42006000  0.57994000  0.05207000  1.0 0.1111636715
H  H88  1  0.58034000  0.41966000  0.05462000  1.0 0.1111636715
C  C1  1  0.55430000  0.73290000  0.38010000  1.0 0.6451491134
C  C2  1  0.58260000  0.80900000  0.33890000  1.0 -0.0129082517
C  C3  1  0.26930000  0.44510000  0.62020000  1.0 0.6451491134
C  C4  1  0.63890000  0.85970000  0.36030000  1.0 -0.0872186257
C  C5  1  0.54290000  0.82590000  0.27740000  1.0 -0.0989647658
C  C6  1  0.19100000  0.41720000  0.66020000  1.0 -0.0129082517
C  C7  1  0.66590000  0.93670000  0.32040000  1.0 -0.1440422319
C  C8  1  0.56840000  0.90060000  0.23740000  1.0 -0.1670506381
C  C9  1  0.17790000  0.45470000  0.72410000  1.0 -0.0842749068
C  C10  1  0.14040000  0.35780000  0.63890000  1.0 -0.0872186257
C  C11  1  0.62930000  0.95370000  0.26190000  1.0 0.0694324466
C  C12  1  0.10110000  0.42810000  0.76170000  1.0 -0.1587070533
C  C13  1  0.06430000  0.33610000  0.67500000  1.0 -0.1587070533
C  C14  1  0.65110000  0.03130000  0.22460000  1.0 0.062605826
C  C15  1  0.04720000  0.37340000  0.73530000  1.0 0.0694324466
C  C16  1  0.67170000  0.03530000  0.16000000  1.0 -0.1319988353
C  C17  1  0.65640000  0.10380000  0.26230000  1.0 -0.1670506381
C  C18  1  0.96790000  0.34930000  0.77130000  1.0 0.0694324466
C  C19  1  0.70210000  0.10930000  0.12650000  1.0 -0.1440422319
C  C20  1  0.68010000  0.18430000  0.22970000  1.0 -0.1483845709
C  C21  1  0.96400000  0.31760000  0.83420000  1.0 -0.1440422319
C  C22  1  0.89270000  0.34150000  0.73350000  1.0 -0.1670506381
C  C23  1  0.70220000  0.18220000  0.15970000  1.0 0.0694324466
C  C24  1  0.88770000  0.29010000  0.87090000  1.0 -0.1483845709
C  C25  1  0.81500000  0.32100000  0.76780000  1.0 -0.1483845709
C  C26  1  0.81620000  0.29780000  0.83650000  1.0 0.0694324466
C  C27  1  0.62950000  0.25870000  0.03410000  1.0 0.0314004587
C  C28  1  0.62950000  0.26030000  0.96000000  1.0 0.021946132
C  C29  1  0.55460000  0.22560000  0.07450000  1.0 -0.1483845709
C  C30  1  0.55610000  0.22610000  0.92510000  1.0 -0.1483845709
C  C31  1  0.48300000  0.19700000  0.03630000  1.0 -0.1069800138
C  C32  1  0.48220000  0.19780000  0.96350000  1.0 -0.1069800138
C  C33  1  0.73290000  0.55430000  0.61990000  1.0 0.6451491134
C  C34  1  0.80900000  0.58260000  0.66110000  1.0 -0.0129082517
C  C35  1  0.44510000  0.26930000  0.37980000  1.0 0.6427166956
C  C36  1  0.85970000  0.63890000  0.63970000  1.0 -0.0872186257
C  C37  1  0.82590000  0.54290000  0.72260000  1.0 -0.0989647658
C  C38  1  0.41720000  0.19100000  0.33980000  1.0 -0.0129082517
C  C39  1  0.93670000  0.66590000  0.67960000  1.0 -0.1440422319
C  C40  1  0.90060000  0.56840000  0.76260000  1.0 -0.1670506381
C  C41  1  0.45470000  0.17790000  0.27590000  1.0 -0.0842749068
C  C42  1  0.35780000  0.14040000  0.36110000  1.0 -0.0872186257
C  C43  1  0.95370000  0.62930000  0.73810000  1.0 0.0694324466
C  C44  1  0.42810000  0.10110000  0.23830000  1.0 -0.1587070533
C  C45  1  0.33610000  0.06430000  0.32500000  1.0 -0.1587070533
C  C46  1  0.03130000  0.65110000  0.77540000  1.0 0.062605826
C  C47  1  0.37340000  0.04720000  0.26470000  1.0 0.0694324466
C  C48  1  0.03530000  0.67170000  0.84000000  1.0 -0.1319988353
C  C49  1  0.10380000  0.65640000  0.73770000  1.0 -0.1670506381
C  C50  1  0.34930000  0.96790000  0.22870000  1.0 0.0694324466
C  C51  1  0.10930000  0.70210000  0.87350000  1.0 -0.1440422319
C  C52  1  0.18430000  0.68010000  0.77030000  1.0 -0.1483845709
C  C53  1  0.31760000  0.96400000  0.16580000  1.0 -0.1440422319
C  C54  1  0.34150000  0.89270000  0.26650000  1.0 -0.1670506381
C  C55  1  0.18220000  0.70220000  0.84030000  1.0 0.0694324466
C  C56  1  0.29010000  0.88770000  0.12910000  1.0 -0.1483845709
C  C57  1  0.32100000  0.81500000  0.23220000  1.0 -0.1483845709
C  C58  1  0.29780000  0.81620000  0.16350000  1.0 0.0694324466
C  C59  1  0.25870000  0.62950000  0.96590000  1.0 0.0314004587
C  C60  1  0.26030000  0.62950000  0.04000000  1.0 0.021946132
C  C61  1  0.22560000  0.55460000  0.92550000  1.0 -0.1587070533
C  C62  1  0.22610000  0.55610000  0.07490000  1.0 -0.1483845709
C  C63  1  0.19700000  0.48300000  0.96370000  1.0 -0.1069800138
C  C64  1  0.19780000  0.48220000  0.03650000  1.0 -0.1069800138
C  C65  1  0.44570000  0.26710000  0.61990000  1.0 0.6451491134
C  C66  1  0.41740000  0.19100000  0.66110000  1.0 -0.0129082517
C  C67  1  0.73070000  0.55490000  0.37980000  1.0 0.6427166956
C  C68  1  0.36110000  0.14030000  0.63970000  1.0 -0.0872186257
C  C69  1  0.45710000  0.17410000  0.72260000  1.0 -0.0989647658
C  C70  1  0.80900000  0.58280000  0.33980000  1.0 -0.0129082517
C  C71  1  0.33410000  0.06330000  0.67960000  1.0 -0.1440422319
C  C72  1  0.43160000  0.09940000  0.76260000  1.0 -0.1670506381
C  C73  1  0.82210000  0.54530000  0.27590000  1.0 -0.0842749068
C  C74  1  0.85960000  0.64220000  0.36110000  1.0 -0.0872186257
C  C75  1  0.37070000  0.04630000  0.73810000  1.0 0.0694324466
C  C76  1  0.89890000  0.57190000  0.23830000  1.0 -0.1587070533
C  C77  1  0.93570000  0.66390000  0.32500000  1.0 -0.1587070533
C  C78  1  0.34890000  0.96870000  0.77540000  1.0 0.062605826
C  C79  1  0.95280000  0.62660000  0.26470000  1.0 0.0694324466
C  C80  1  0.32830000  0.96470000  0.84000000  1.0 -0.1319988353
C  C81  1  0.34360000  0.89620000  0.73770000  1.0 -0.1670506381
C  C82  1  0.03210000  0.65070000  0.22870000  1.0 0.0694324466
C  C83  1  0.29790000  0.89070000  0.87350000  1.0 -0.1440422319
C  C84  1  0.31990000  0.81570000  0.77030000  1.0 -0.1483845709
C  C85  1  0.03600000  0.68240000  0.16580000  1.0 -0.1440422319
C  C86  1  0.10730000  0.65850000  0.26650000  1.0 -0.1670506381
C  C87  1  0.29780000  0.81780000  0.84030000  1.0 0.0694324466
C  C88  1  0.11230000  0.70990000  0.12910000  1.0 -0.1483845709
C  C89  1  0.18500000  0.67900000  0.23220000  1.0 -0.1483845709
C  C90  1  0.18380000  0.70220000  0.16350000  1.0 0.0694324466
C  C91  1  0.37050000  0.74130000  0.96590000  1.0 0.0314004587
C  C92  1  0.37050000  0.73970000  0.04000000  1.0 0.021946132
C  C93  1  0.44540000  0.77440000  0.92550000  1.0 -0.1587070533
C  C94  1  0.44390000  0.77390000  0.07490000  1.0 -0.1483845709
C  C95  1  0.51700000  0.80300000  0.96370000  1.0 -0.1069800138
C  C96  1  0.51780000  0.80220000  0.03650000  1.0 -0.1069800138
C  C97  1  0.26710000  0.44570000  0.38010000  1.0 0.6451491134
C  C98  1  0.19100000  0.41740000  0.33890000  1.0 -0.0129082517
C  C99  1  0.55490000  0.73070000  0.62020000  1.0 0.6427166956
C  C100  1  0.14030000  0.36110000  0.36030000  1.0 -0.0872186257
C  C101  1  0.17410000  0.45710000  0.27740000  1.0 -0.0989647658
C  C102  1  0.58280000  0.80900000  0.66020000  1.0 -0.0129082517
C  C103  1  0.06330000  0.33410000  0.32040000  1.0 -0.1440422319
C  C104  1  0.09940000  0.43160000  0.23740000  1.0 -0.1670506381
C  C105  1  0.54530000  0.82210000  0.72410000  1.0 -0.0842749068
C  C106  1  0.64220000  0.85960000  0.63890000  1.0 -0.0872186257
C  C107  1  0.04630000  0.37070000  0.26190000  1.0 0.0694324466
C  C108  1  0.57190000  0.89890000  0.76170000  1.0 -0.1587070533
C  C109  1  0.66390000  0.93570000  0.67500000  1.0 -0.1587070533
C  C110  1  0.96870000  0.34890000  0.22460000  1.0 0.062605826
C  C111  1  0.62660000  0.95280000  0.73530000  1.0 0.0694324466
C  C112  1  0.96470000  0.32830000  0.16000000  1.0 -0.1319988353
C  C113  1  0.89620000  0.34360000  0.26230000  1.0 -0.1670506381
C  C114  1  0.65070000  0.03210000  0.77130000  1.0 0.0694324466
C  C115  1  0.89070000  0.29790000  0.12650000  1.0 -0.1440422319
C  C116  1  0.81570000  0.31990000  0.22970000  1.0 -0.1483845709
C  C117  1  0.68240000  0.03600000  0.83420000  1.0 -0.1440422319
C  C118  1  0.65850000  0.10730000  0.73350000  1.0 -0.1670506381
C  C119  1  0.81780000  0.29780000  0.15970000  1.0 0.0694324466
C  C120  1  0.70990000  0.11230000  0.87090000  1.0 -0.1483845709
C  C121  1  0.67900000  0.18500000  0.76780000  1.0 -0.1483845709
C  C122  1  0.70220000  0.18380000  0.83650000  1.0 0.0694324466
C  C123  1  0.74130000  0.37050000  0.03410000  1.0 0.0314004587
C  C124  1  0.73970000  0.37050000  0.96000000  1.0 0.021946132
C  C125  1  0.77440000  0.44540000  0.07450000  1.0 -0.1483845709
C  C126  1  0.77390000  0.44390000  0.92510000  1.0 -0.1483845709
C  C127  1  0.80300000  0.51700000  0.03630000  1.0 -0.1069800138
C  C128  1  0.80220000  0.51780000  0.96350000  1.0 -0.1069800138
C  C129  1  0.73790000  0.26210000  0.12700000  1.0 0.0011814998
C  C130  1  0.70300000  0.29700000  0.07080000  1.0 -0.0392921389
C  C131  1  0.73700000  0.26300000  0.87010000  1.0 0.0011814998
C  C132  1  0.70170000  0.29830000  0.92550000  1.0 -0.0348911268
C  C133  1  0.26210000  0.73790000  0.87300000  1.0 0.0011814998
C  C134  1  0.29700000  0.70300000  0.92920000  1.0 -0.0392921389
C  C135  1  0.26300000  0.73700000  0.12990000  1.0 0.0011814998
C  C136  1  0.29830000  0.70170000  0.07450000  1.0 -0.0392921389
C  C137  1  0.49950000  0.50050000  0.73310000  1.0 0.6427166956
C  C138  1  0.49940000  0.50060000  0.81330000  1.0 -0.0043249674
C  C139  1  0.54610000  0.45390000  0.84840000  1.0 -0.0989647658
C  C140  1  0.45220000  0.54780000  0.84700000  1.0 -0.0989647658
C  C141  1  0.54670000  0.45330000  0.92410000  1.0 -0.1483845709
C  C142  1  0.45290000  0.54710000  0.92180000  1.0 -0.1587070533
C  C143  1  0.50000000  0.50000000  0.96100000  1.0 0.0861430632
C  C144  1  0.50050000  0.49950000  0.26690000  1.0 0.6427166956
C  C145  1  0.50060000  0.49940000  0.18670000  1.0 -0.0043249674
C  C146  1  0.45390000  0.54610000  0.15160000  1.0 -0.0989647658
C  C147  1  0.54780000  0.45220000  0.15300000  1.0 -0.0989647658
C  C148  1  0.45330000  0.54670000  0.07590000  1.0 -0.1483845709
C  C149  1  0.54710000  0.45290000  0.07820000  1.0 -0.1587070533
C  C150  1  0.50000000  0.50000000  0.03900000  1.0 0.0861430632
O  O1  1  0.49100000  0.69060000  0.36340000  1.0 -0.5799476636
O  O2  1  0.31100000  0.50980000  0.63510000  1.0 -0.5895085169
O  O3  1  0.28280000  0.39200000  0.57060000  1.0 -0.6053862555
O  O4  1  0.60780000  0.71780000  0.42900000  1.0 -0.6044872982
O  O5  1  0.44280000  0.44300000  0.59410000  1.0 -1.1698908789
O  O6  1  0.36960000  0.51760000  0.49940000  1.0 -1.2032420619
O  O7  1  0.69060000  0.49100000  0.63660000  1.0 -0.5799476636
O  O8  1  0.50980000  0.31100000  0.36490000  1.0 -0.5895085169
O  O9  1  0.39200000  0.28280000  0.42940000  1.0 -0.6044872982
O  O10  1  0.71780000  0.60780000  0.57100000  1.0 -0.6044872982
O  O11  1  0.44300000  0.44280000  0.40590000  1.0 -1.1698908789
O  O12  1  0.51760000  0.36960000  0.50060000  1.0 -1.2082720978
O  O13  1  0.50900000  0.30940000  0.63660000  1.0 -0.5799476636
O  O14  1  0.68900000  0.49020000  0.36490000  1.0 -0.5895085169
O  O15  1  0.71720000  0.60800000  0.42940000  1.0 -0.6044872982
O  O16  1  0.39220000  0.28220000  0.57100000  1.0 -0.6044872982
O  O17  1  0.55720000  0.55700000  0.40590000  1.0 -1.1698908789
O  O18  1  0.63040000  0.48240000  0.50060000  1.0 -1.2082720978
O  O19  1  0.30940000  0.50900000  0.36340000  1.0 -0.5799476636
O  O20  1  0.49020000  0.68900000  0.63510000  1.0 -0.5895085169
O  O21  1  0.60800000  0.71720000  0.57060000  1.0 -0.6053862555
O  O22  1  0.28220000  0.39220000  0.42900000  1.0 -0.6044872982
O  O23  1  0.55700000  0.55720000  0.59410000  1.0 -1.1698908789
O  O24  1  0.48240000  0.63040000  0.49940000  1.0 -1.2032420619
O  O25  1  0.54590000  0.45410000  0.70870000  1.0 -0.5661164505
O  O26  1  0.45380000  0.54620000  0.70720000  1.0 -0.5604713542
O  O27  1  0.45410000  0.54590000  0.29130000  1.0 -0.5661164505
O  O28  1  0.54620000  0.45380000  0.29280000  1.0 -0.5604713542
