# DDEC6 charges by PACMAN v1.1 (https://github.com/mtap-research/PACMAN-charge/)
data_POXZEK_ASR_pacman
_symmetry_space_group_name_H-M   'P 1'
_cell_length_a   16.62020000
_cell_length_b   16.62020000
_cell_length_c   17.87900000
_cell_angle_alpha   90.00000000
_cell_angle_beta   90.00000000
_cell_angle_gamma   95.93100000
_symmetry_Int_Tables_number   1
_chemical_formula_structural   Zr3H40(C17O3)4
_chemical_formula_sum   'Zr6 H80 C136 O24'
_cell_volume   4912.29813361
_cell_formula_units_Z   2
loop_
 _symmetry_equiv_pos_site_id
 _symmetry_equiv_pos_as_xyz
  1  'x, y, z'
loop_
 _atom_site_type_symbol
 _atom_site_label
 _atom_site_symmetry_multiplicity
 _atom_site_fract_x
 _atom_site_fract_y
 _atom_site_fract_z
 _atom_site_occupancy
 _atom_site_charge
Zr  Zr1  1  0.57239000  0.42761000  0.40018000  1.0 2.491899717
Zr  Zr2  1  0.42761000  0.57239000  0.40018000  1.0 2.491899717
Zr  Zr3  1  0.42761000  0.57239000  0.59982000  1.0 2.491899717
Zr  Zr4  1  0.57239000  0.42761000  0.59982000  1.0 2.491899717
Zr  Zr5  1  0.39011000  0.39011000  0.50000000  1.0 2.352604139
Zr  Zr6  1  0.60989000  0.60989000  0.50000000  1.0 2.352604139
H  H1  1  0.49270000  0.20670000  0.24940000  1.0 0.1112449138
H  H2  1  0.44650000  0.09210000  0.18690000  1.0 0.1112449138
H  H3  1  0.30710000  0.02190000  0.35490000  1.0 0.1207401337
H  H4  1  0.33860000  0.14440000  0.41260000  1.0 0.1207401337
H  H5  1  0.33210000  0.00070000  0.12720000  1.0 0.1112449138
H  H6  1  0.29450000  0.87770000  0.07520000  1.0 0.1112449138
H  H7  1  0.33160000  0.76740000  0.26930000  1.0 0.1112449138
H  H8  1  0.36670000  0.89410000  0.32220000  1.0 0.1207401337
H  H9  1  0.23980000  0.54660000  0.12860000  1.0 0.1037020565
H  H10  1  0.19120000  0.42940000  0.06520000  1.0 0.1112449138
H  H11  1  0.50730000  0.79330000  0.24940000  1.0 0.1112449138
H  H12  1  0.55350000  0.90790000  0.18690000  1.0 0.1112449138
H  H13  1  0.69290000  0.97810000  0.35490000  1.0 0.1207401337
H  H14  1  0.66140000  0.85560000  0.41260000  1.0 0.1207401337
H  H15  1  0.66790000  0.99930000  0.12720000  1.0 0.1112449138
H  H16  1  0.70550000  0.12230000  0.07520000  1.0 0.1112449138
H  H17  1  0.66840000  0.23260000  0.26930000  1.0 0.1112449138
H  H18  1  0.63330000  0.10590000  0.32220000  1.0 0.1207401337
H  H19  1  0.76020000  0.45340000  0.12860000  1.0 0.1037020565
H  H20  1  0.80880000  0.57060000  0.06520000  1.0 0.1112449138
H  H21  1  0.20670000  0.49270000  0.75060000  1.0 0.1112449138
H  H22  1  0.09210000  0.44650000  0.81310000  1.0 0.1112449138
H  H23  1  0.02190000  0.30710000  0.64510000  1.0 0.1207401337
H  H24  1  0.14440000  0.33860000  0.58740000  1.0 0.1207401337
H  H25  1  0.00070000  0.33210000  0.87280000  1.0 0.1112449138
H  H26  1  0.87770000  0.29450000  0.92480000  1.0 0.1112449138
H  H27  1  0.76740000  0.33160000  0.73070000  1.0 0.1112449138
H  H28  1  0.89410000  0.36670000  0.67780000  1.0 0.1207401337
H  H29  1  0.54660000  0.23980000  0.87140000  1.0 0.1037020565
H  H30  1  0.42940000  0.19120000  0.93480000  1.0 0.1112449138
H  H31  1  0.79330000  0.50730000  0.75060000  1.0 0.1112449138
H  H32  1  0.90790000  0.55350000  0.81310000  1.0 0.1112449138
H  H33  1  0.97810000  0.69290000  0.64510000  1.0 0.1207401337
H  H34  1  0.85560000  0.66140000  0.58740000  1.0 0.1207401337
H  H35  1  0.99930000  0.66790000  0.87280000  1.0 0.1112449138
H  H36  1  0.12230000  0.70550000  0.92480000  1.0 0.1112449138
H  H37  1  0.23260000  0.66840000  0.73070000  1.0 0.1112449138
H  H38  1  0.10590000  0.63330000  0.67780000  1.0 0.1207401337
H  H39  1  0.45340000  0.76020000  0.87140000  1.0 0.1037020565
H  H40  1  0.57060000  0.80880000  0.93480000  1.0 0.1112449138
H  H41  1  0.50730000  0.79330000  0.75060000  1.0 0.1112449138
H  H42  1  0.55350000  0.90790000  0.81310000  1.0 0.1112449138
H  H43  1  0.69290000  0.97810000  0.64510000  1.0 0.1207401337
H  H44  1  0.66140000  0.85560000  0.58740000  1.0 0.1207401337
H  H45  1  0.66790000  0.99930000  0.87280000  1.0 0.1112449138
H  H46  1  0.70550000  0.12230000  0.92480000  1.0 0.1112449138
H  H47  1  0.66840000  0.23260000  0.73070000  1.0 0.1112449138
H  H48  1  0.63330000  0.10590000  0.67780000  1.0 0.1207401337
H  H49  1  0.76020000  0.45340000  0.87140000  1.0 0.1037020565
H  H50  1  0.80880000  0.57060000  0.93480000  1.0 0.1112449138
H  H51  1  0.49270000  0.20670000  0.75060000  1.0 0.1112449138
H  H52  1  0.44650000  0.09210000  0.81310000  1.0 0.1112449138
H  H53  1  0.30710000  0.02190000  0.64510000  1.0 0.1207401337
H  H54  1  0.33860000  0.14440000  0.58740000  1.0 0.1207401337
H  H55  1  0.33210000  0.00070000  0.87280000  1.0 0.1112449138
H  H56  1  0.29450000  0.87770000  0.92480000  1.0 0.1112449138
H  H57  1  0.33160000  0.76740000  0.73070000  1.0 0.1112449138
H  H58  1  0.36670000  0.89410000  0.67780000  1.0 0.1207401337
H  H59  1  0.23980000  0.54660000  0.87140000  1.0 0.1037020565
H  H60  1  0.19120000  0.42940000  0.93480000  1.0 0.1112449138
H  H61  1  0.79330000  0.50730000  0.24940000  1.0 0.1112449138
H  H62  1  0.90790000  0.55350000  0.18690000  1.0 0.1112449138
H  H63  1  0.97810000  0.69290000  0.35490000  1.0 0.1207401337
H  H64  1  0.85560000  0.66140000  0.41260000  1.0 0.1207401337
H  H65  1  0.99930000  0.66790000  0.12720000  1.0 0.1112449138
H  H66  1  0.12230000  0.70550000  0.07520000  1.0 0.1112449138
H  H67  1  0.23260000  0.66840000  0.26930000  1.0 0.1112449138
H  H68  1  0.10590000  0.63330000  0.32220000  1.0 0.1207401337
H  H69  1  0.45340000  0.76020000  0.12860000  1.0 0.1037020565
H  H70  1  0.57060000  0.80880000  0.06520000  1.0 0.1112449138
H  H71  1  0.20670000  0.49270000  0.24940000  1.0 0.1112449138
H  H72  1  0.09210000  0.44650000  0.18690000  1.0 0.1112449138
H  H73  1  0.02190000  0.30710000  0.35490000  1.0 0.1207401337
H  H74  1  0.14440000  0.33860000  0.41260000  1.0 0.1207401337
H  H75  1  0.00070000  0.33210000  0.12720000  1.0 0.1112449138
H  H76  1  0.87770000  0.29450000  0.07520000  1.0 0.1112449138
H  H77  1  0.76740000  0.33160000  0.26930000  1.0 0.1112449138
H  H78  1  0.89410000  0.36670000  0.32220000  1.0 0.1207401337
H  H79  1  0.54660000  0.23980000  0.12860000  1.0 0.1037020565
H  H80  1  0.42940000  0.19120000  0.06520000  1.0 0.1112449138
C  C1  1  0.44160000  0.26520000  0.37730000  1.0 0.622162591
C  C2  1  0.42080000  0.19020000  0.33800000  1.0 -0.0695707469
C  C3  1  0.45250000  0.17110000  0.27100000  1.0 -0.0826955267
C  C4  1  0.42670000  0.10050000  0.23460000  1.0 -0.1795067011
C  C5  1  0.37390000  0.04330000  0.26520000  1.0 0.0778649034
C  C6  1  0.34350000  0.06050000  0.33180000  1.0 -0.1574246703
C  C7  1  0.36380000  0.13360000  0.36780000  1.0 -0.0826955267
C  C8  1  0.35280000  0.95920000  0.22970000  1.0 0.0699389608
C  C9  1  0.33120000  0.95420000  0.15620000  1.0 -0.1402228918
C  C10  1  0.30840000  0.88020000  0.12560000  1.0 -0.1574246703
C  C11  1  0.30470000  0.80870000  0.16570000  1.0 0.0699389608
C  C12  1  0.32980000  0.81400000  0.24080000  1.0 -0.1523508398
C  C13  1  0.35220000  0.89020000  0.27200000  1.0 -0.1402228918
C  C14  1  0.27310000  0.61710000  0.03950000  1.0 0.0299726458
C  C15  1  0.24110000  0.54650000  0.07660000  1.0 -0.1574246703
C  C16  1  0.21080000  0.47540000  0.03870000  1.0 -0.1123953356
C  C17  1  0.55840000  0.73480000  0.37730000  1.0 0.622162591
C  C18  1  0.57920000  0.80980000  0.33800000  1.0 -0.0695707469
C  C19  1  0.54750000  0.82890000  0.27100000  1.0 -0.0826955267
C  C20  1  0.57330000  0.89950000  0.23460000  1.0 -0.1795067011
C  C21  1  0.62610000  0.95670000  0.26520000  1.0 0.0778649034
C  C22  1  0.65650000  0.93950000  0.33180000  1.0 -0.1574246703
C  C23  1  0.63620000  0.86640000  0.36780000  1.0 -0.0826955267
C  C24  1  0.64720000  0.04080000  0.22970000  1.0 0.0699389608
C  C25  1  0.66880000  0.04580000  0.15620000  1.0 -0.1402228918
C  C26  1  0.69160000  0.11980000  0.12560000  1.0 -0.1574246703
C  C27  1  0.69530000  0.19130000  0.16570000  1.0 0.0699389608
C  C28  1  0.67020000  0.18600000  0.24080000  1.0 -0.1523508398
C  C29  1  0.64780000  0.10980000  0.27200000  1.0 -0.1402228918
C  C30  1  0.72690000  0.38290000  0.03950000  1.0 0.0299726458
C  C31  1  0.75890000  0.45350000  0.07660000  1.0 -0.1574246703
C  C32  1  0.78920000  0.52460000  0.03870000  1.0 -0.1123953356
C  C33  1  0.26520000  0.44160000  0.62270000  1.0 0.622162591
C  C34  1  0.19020000  0.42080000  0.66200000  1.0 -0.0695707469
C  C35  1  0.17110000  0.45250000  0.72900000  1.0 -0.0826955267
C  C36  1  0.10050000  0.42670000  0.76540000  1.0 -0.1795067011
C  C37  1  0.04330000  0.37390000  0.73480000  1.0 0.0778649034
C  C38  1  0.06050000  0.34350000  0.66820000  1.0 -0.1574246703
C  C39  1  0.13360000  0.36380000  0.63220000  1.0 -0.0826955267
C  C40  1  0.95920000  0.35280000  0.77030000  1.0 0.0699389608
C  C41  1  0.95420000  0.33120000  0.84380000  1.0 -0.1402228918
C  C42  1  0.88020000  0.30840000  0.87440000  1.0 -0.1574246703
C  C43  1  0.80870000  0.30470000  0.83430000  1.0 0.0699389608
C  C44  1  0.81400000  0.32980000  0.75920000  1.0 -0.1523508398
C  C45  1  0.89020000  0.35220000  0.72800000  1.0 -0.1402228918
C  C46  1  0.61710000  0.27310000  0.96050000  1.0 0.0299726458
C  C47  1  0.54650000  0.24110000  0.92340000  1.0 -0.1574246703
C  C48  1  0.47540000  0.21080000  0.96130000  1.0 -0.1123953356
C  C49  1  0.73480000  0.55840000  0.62270000  1.0 0.622162591
C  C50  1  0.80980000  0.57920000  0.66200000  1.0 -0.0695707469
C  C51  1  0.82890000  0.54750000  0.72900000  1.0 -0.0826955267
C  C52  1  0.89950000  0.57330000  0.76540000  1.0 -0.1795067011
C  C53  1  0.95670000  0.62610000  0.73480000  1.0 0.0778649034
C  C54  1  0.93950000  0.65650000  0.66820000  1.0 -0.1574246703
C  C55  1  0.86640000  0.63620000  0.63220000  1.0 -0.0826955267
C  C56  1  0.04080000  0.64720000  0.77030000  1.0 0.0699389608
C  C57  1  0.04580000  0.66880000  0.84380000  1.0 -0.1402228918
C  C58  1  0.11980000  0.69160000  0.87440000  1.0 -0.1574246703
C  C59  1  0.19130000  0.69530000  0.83430000  1.0 0.0699389608
C  C60  1  0.18600000  0.67020000  0.75920000  1.0 -0.1523508398
C  C61  1  0.10980000  0.64780000  0.72800000  1.0 -0.1402228918
C  C62  1  0.38290000  0.72690000  0.96050000  1.0 0.0299726458
C  C63  1  0.45350000  0.75890000  0.92340000  1.0 -0.1574246703
C  C64  1  0.52460000  0.78920000  0.96130000  1.0 -0.1123953356
C  C65  1  0.55840000  0.73480000  0.62270000  1.0 0.622162591
C  C66  1  0.57920000  0.80980000  0.66200000  1.0 -0.0695707469
C  C67  1  0.54750000  0.82890000  0.72900000  1.0 -0.0826955267
C  C68  1  0.57330000  0.89950000  0.76540000  1.0 -0.1795067011
C  C69  1  0.62610000  0.95670000  0.73480000  1.0 0.0778649034
C  C70  1  0.65650000  0.93950000  0.66820000  1.0 -0.1574246703
C  C71  1  0.63620000  0.86640000  0.63220000  1.0 -0.0826955267
C  C72  1  0.64720000  0.04080000  0.77030000  1.0 0.0699389608
C  C73  1  0.66880000  0.04580000  0.84380000  1.0 -0.1402228918
C  C74  1  0.69160000  0.11980000  0.87440000  1.0 -0.1574246703
C  C75  1  0.69530000  0.19130000  0.83430000  1.0 0.0699389608
C  C76  1  0.67020000  0.18600000  0.75920000  1.0 -0.1523508398
C  C77  1  0.64780000  0.10980000  0.72800000  1.0 -0.1402228918
C  C78  1  0.72690000  0.38290000  0.96050000  1.0 0.0299726458
C  C79  1  0.75890000  0.45350000  0.92340000  1.0 -0.1574246703
C  C80  1  0.78920000  0.52460000  0.96130000  1.0 -0.1123953356
C  C81  1  0.44160000  0.26520000  0.62270000  1.0 0.622162591
C  C82  1  0.42080000  0.19020000  0.66200000  1.0 -0.0695707469
C  C83  1  0.45250000  0.17110000  0.72900000  1.0 -0.0826955267
C  C84  1  0.42670000  0.10050000  0.76540000  1.0 -0.1795067011
C  C85  1  0.37390000  0.04330000  0.73480000  1.0 0.0778649034
C  C86  1  0.34350000  0.06050000  0.66820000  1.0 -0.1574246703
C  C87  1  0.36380000  0.13360000  0.63220000  1.0 -0.0826955267
C  C88  1  0.35280000  0.95920000  0.77030000  1.0 0.0699389608
C  C89  1  0.33120000  0.95420000  0.84380000  1.0 -0.1402228918
C  C90  1  0.30840000  0.88020000  0.87440000  1.0 -0.1574246703
C  C91  1  0.30470000  0.80870000  0.83430000  1.0 0.0699389608
C  C92  1  0.32980000  0.81400000  0.75920000  1.0 -0.1523508398
C  C93  1  0.35220000  0.89020000  0.72800000  1.0 -0.1402228918
C  C94  1  0.27310000  0.61710000  0.96050000  1.0 0.0299726458
C  C95  1  0.24110000  0.54650000  0.92340000  1.0 -0.1574246703
C  C96  1  0.21080000  0.47540000  0.96130000  1.0 -0.1123953356
C  C97  1  0.73480000  0.55840000  0.37730000  1.0 0.622162591
C  C98  1  0.80980000  0.57920000  0.33800000  1.0 -0.0695707469
C  C99  1  0.82890000  0.54750000  0.27100000  1.0 -0.0826955267
C  C100  1  0.89950000  0.57330000  0.23460000  1.0 -0.1795067011
C  C101  1  0.95670000  0.62610000  0.26520000  1.0 0.0778649034
C  C102  1  0.93950000  0.65650000  0.33180000  1.0 -0.1574246703
C  C103  1  0.86640000  0.63620000  0.36780000  1.0 -0.0826955267
C  C104  1  0.04080000  0.64720000  0.22970000  1.0 0.0699389608
C  C105  1  0.04580000  0.66880000  0.15620000  1.0 -0.1402228918
C  C106  1  0.11980000  0.69160000  0.12560000  1.0 -0.1574246703
C  C107  1  0.19130000  0.69530000  0.16570000  1.0 0.0699389608
C  C108  1  0.18600000  0.67020000  0.24080000  1.0 -0.1523508398
C  C109  1  0.10980000  0.64780000  0.27200000  1.0 -0.1402228918
C  C110  1  0.38290000  0.72690000  0.03950000  1.0 0.0299726458
C  C111  1  0.45350000  0.75890000  0.07660000  1.0 -0.1574246703
C  C112  1  0.52460000  0.78920000  0.03870000  1.0 -0.1123953356
C  C113  1  0.26520000  0.44160000  0.37730000  1.0 0.622162591
C  C114  1  0.19020000  0.42080000  0.33800000  1.0 -0.0695707469
C  C115  1  0.17110000  0.45250000  0.27100000  1.0 -0.0826955267
C  C116  1  0.10050000  0.42670000  0.23460000  1.0 -0.1795067011
C  C117  1  0.04330000  0.37390000  0.26520000  1.0 0.0778649034
C  C118  1  0.06050000  0.34350000  0.33180000  1.0 -0.1574246703
C  C119  1  0.13360000  0.36380000  0.36780000  1.0 -0.0826955267
C  C120  1  0.95920000  0.35280000  0.22970000  1.0 0.0699389608
C  C121  1  0.95420000  0.33120000  0.15620000  1.0 -0.1402228918
C  C122  1  0.88020000  0.30840000  0.12560000  1.0 -0.1574246703
C  C123  1  0.80870000  0.30470000  0.16570000  1.0 0.0699389608
C  C124  1  0.81400000  0.32980000  0.24080000  1.0 -0.1523508398
C  C125  1  0.89020000  0.35220000  0.27200000  1.0 -0.1402228918
C  C126  1  0.61710000  0.27310000  0.03950000  1.0 0.0299726458
C  C127  1  0.54650000  0.24110000  0.07660000  1.0 -0.1574246703
C  C128  1  0.47540000  0.21080000  0.03870000  1.0 -0.1123953356
C  C129  1  0.27420000  0.72580000  0.13300000  1.0 -0.0288663428
C  C130  1  0.30950000  0.69050000  0.07500000  1.0 -0.0288663428
C  C131  1  0.72580000  0.27420000  0.13300000  1.0 -0.0288663428
C  C132  1  0.69050000  0.30950000  0.07500000  1.0 -0.0288663428
C  C133  1  0.72580000  0.27420000  0.86700000  1.0 -0.0288663428
C  C134  1  0.69050000  0.30950000  0.92500000  1.0 -0.0288663428
C  C135  1  0.27420000  0.72580000  0.86700000  1.0 -0.0288663428
C  C136  1  0.30950000  0.69050000  0.92500000  1.0 -0.0288663428
O  O1  1  0.50790000  0.30730000  0.35960000  1.0 -0.620808494
O  O2  1  0.39440000  0.28520000  0.42620000  1.0 -0.5546435236
O  O3  1  0.49210000  0.69270000  0.35960000  1.0 -0.620808494
O  O4  1  0.60560000  0.71480000  0.42620000  1.0 -0.5546435236
O  O5  1  0.30730000  0.50790000  0.64040000  1.0 -0.620808494
O  O6  1  0.28520000  0.39440000  0.57380000  1.0 -0.5546435236
O  O7  1  0.69270000  0.49210000  0.64040000  1.0 -0.620808494
O  O8  1  0.71480000  0.60560000  0.57380000  1.0 -0.5546435236
O  O9  1  0.49210000  0.69270000  0.64040000  1.0 -0.620808494
O  O10  1  0.60560000  0.71480000  0.57380000  1.0 -0.5546435236
O  O11  1  0.50790000  0.30730000  0.64040000  1.0 -0.620808494
O  O12  1  0.39440000  0.28520000  0.57380000  1.0 -0.5546435236
O  O13  1  0.69270000  0.49210000  0.35960000  1.0 -0.620808494
O  O14  1  0.71480000  0.60560000  0.42620000  1.0 -0.5546435236
O  O15  1  0.30730000  0.50790000  0.35960000  1.0 -0.620808494
O  O16  1  0.28520000  0.39440000  0.42620000  1.0 -0.5546435236
O  O17  1  0.62750000  0.48170000  0.50000000  1.0 -1.1853885768
O  O18  1  0.37250000  0.51830000  0.50000000  1.0 -1.1853885768
O  O19  1  0.48170000  0.62750000  0.50000000  1.0 -1.1853885768
O  O20  1  0.51830000  0.37250000  0.50000000  1.0 -1.1853885768
O  O21  1  0.55350000  0.55350000  0.40060000  1.0 -1.2168475507
O  O22  1  0.44650000  0.44650000  0.40060000  1.0 -1.2168475507
O  O23  1  0.55350000  0.55350000  0.59940000  1.0 -1.2168475507
O  O24  1  0.44650000  0.44650000  0.59940000  1.0 -1.2168475507
