# DDEC6 charges by PACMAN v1.1 (https://github.com/mtap-research/PACMAN-charge/)
data_PUBRUA_ASR_pacman
_symmetry_space_group_name_H-M   'P 1'
_cell_length_a   24.14580000
_cell_length_b   24.14580000
_cell_length_c   24.14580000
_cell_angle_alpha   44.66020000
_cell_angle_beta   44.66020000
_cell_angle_gamma   44.66020000
_symmetry_Int_Tables_number   1
_chemical_formula_structural   CuH3(C5O)4
_chemical_formula_sum   'Cu12 H36 C240 O48'
_cell_volume   6325.98937175
_cell_formula_units_Z   12
loop_
 _symmetry_equiv_pos_site_id
 _symmetry_equiv_pos_as_xyz
  1  'x, y, z'
loop_
 _atom_site_type_symbol
 _atom_site_label
 _atom_site_symmetry_multiplicity
 _atom_site_fract_x
 _atom_site_fract_y
 _atom_site_fract_z
 _atom_site_occupancy
 _atom_site_charge
Cu  Cu1  1  0.90814000  0.90815000  0.48382000  1.0 0.8575787011
Cu  Cu2  1  0.48382000  0.90814000  0.90815000  1.0 0.8575787011
Cu  Cu3  1  0.90815000  0.48382000  0.90814000  1.0 0.8575787011
Cu  Cu4  1  0.92484000  0.92485000  0.35181000  1.0 0.8542337702
Cu  Cu5  1  0.35181000  0.92484000  0.92485000  1.0 0.8542337702
Cu  Cu6  1  0.92485000  0.35181000  0.92484000  1.0 0.8575787011
Cu  Cu7  1  0.09186000  0.51618000  0.09185000  1.0 0.8575787011
Cu  Cu8  1  0.51618000  0.09185000  0.09186000  1.0 0.8575787011
Cu  Cu9  1  0.09185000  0.09186000  0.51618000  1.0 0.8575787011
Cu  Cu10  1  0.07516000  0.64819000  0.07515000  1.0 0.8542337702
Cu  Cu11  1  0.64819000  0.07515000  0.07516000  1.0 0.8542337702
Cu  Cu12  1  0.07515000  0.07516000  0.64819000  1.0 0.8542337702
H  H1  1  0.94390000  0.64770000  0.64770000  1.0 0.1475815432
H  H2  1  0.64770000  0.94390000  0.64770000  1.0 0.1475815432
H  H3  1  0.64770000  0.64770000  0.94390000  1.0 0.1475815432
H  H4  1  0.89670000  0.69800000  0.48350000  1.0 0.1385037334
H  H5  1  0.48350000  0.89670000  0.69800000  1.0 0.1385037334
H  H6  1  0.69800000  0.48350000  0.89670000  1.0 0.1385037334
H  H7  1  0.89670000  0.48350000  0.69800000  1.0 0.1385037334
H  H8  1  0.48350000  0.69800000  0.89670000  1.0 0.1385037334
H  H9  1  0.69800000  0.89670000  0.48350000  1.0 0.1385037334
H  H10  1  0.84660000  0.39120000  0.17140000  1.0 0.1385037334
H  H11  1  0.17140000  0.84660000  0.39120000  1.0 0.1385037334
H  H12  1  0.39120000  0.17140000  0.84660000  1.0 0.1385037334
H  H13  1  0.84660000  0.17140000  0.39120000  1.0 0.1385037334
H  H14  1  0.17140000  0.39120000  0.84660000  1.0 0.1385037334
H  H15  1  0.39120000  0.84660000  0.17140000  1.0 0.1385037334
H  H16  1  0.88480000  0.18970000  0.18980000  1.0 0.1574721591
H  H17  1  0.18980000  0.88480000  0.18970000  1.0 0.1574721591
H  H18  1  0.18970000  0.18980000  0.88480000  1.0 0.1574721591
H  H19  1  0.05610000  0.35230000  0.35230000  1.0 0.1475815432
H  H20  1  0.35230000  0.35230000  0.05610000  1.0 0.1475815432
H  H21  1  0.35230000  0.05610000  0.35230000  1.0 0.1475815432
H  H22  1  0.10330000  0.51650000  0.30200000  1.0 0.1385037334
H  H23  1  0.51650000  0.30200000  0.10330000  1.0 0.1385037334
H  H24  1  0.30200000  0.10330000  0.51650000  1.0 0.1385037334
H  H25  1  0.10330000  0.30200000  0.51650000  1.0 0.1385037334
H  H26  1  0.51650000  0.10330000  0.30200000  1.0 0.1385037334
H  H27  1  0.30200000  0.51650000  0.10330000  1.0 0.1385037334
H  H28  1  0.15340000  0.82860000  0.60880000  1.0 0.1385037334
H  H29  1  0.82860000  0.60880000  0.15340000  1.0 0.1385037334
H  H30  1  0.60880000  0.15340000  0.82860000  1.0 0.1385037334
H  H31  1  0.15340000  0.60880000  0.82860000  1.0 0.1385037334
H  H32  1  0.82860000  0.15340000  0.60880000  1.0 0.1385037334
H  H33  1  0.60880000  0.82860000  0.15340000  1.0 0.1385037334
H  H34  1  0.11520000  0.81020000  0.81030000  1.0 0.1574721591
H  H35  1  0.81020000  0.81030000  0.11520000  1.0 0.1574721591
H  H36  1  0.81030000  0.11520000  0.81020000  1.0 0.1574721591
C  C1  1  0.94620000  0.76250000  0.48950000  1.0 0.5751566586
C  C2  1  0.48950000  0.94620000  0.76250000  1.0 0.5751566586
C  C3  1  0.76250000  0.48950000  0.94620000  1.0 0.5751566586
C  C4  1  0.94620000  0.48950000  0.76250000  1.0 0.5751566586
C  C5  1  0.48950000  0.76250000  0.94620000  1.0 0.5751566586
C  C6  1  0.76250000  0.94620000  0.48950000  1.0 0.5751566586
C  C7  1  0.93700000  0.68020000  0.54800000  1.0 -0.0241930893
C  C8  1  0.54800000  0.93700000  0.68020000  1.0 -0.0241930893
C  C9  1  0.68020000  0.54800000  0.93700000  1.0 -0.0241930893
C  C10  1  0.93700000  0.54800000  0.68020000  1.0 -0.0241930893
C  C11  1  0.54800000  0.68020000  0.93700000  1.0 -0.0241930893
C  C12  1  0.68020000  0.93700000  0.54800000  1.0 -0.0241930893
C  C13  1  0.93980000  0.62820000  0.62840000  1.0 -0.1136572359
C  C14  1  0.62840000  0.93980000  0.62820000  1.0 -0.1136572359
C  C15  1  0.62820000  0.62840000  0.93980000  1.0 -0.1136572359
C  C16  1  0.91280000  0.65720000  0.53040000  1.0 -0.1596731251
C  C17  1  0.53040000  0.91280000  0.65720000  1.0 -0.1596731251
C  C18  1  0.65720000  0.53040000  0.91280000  1.0 -0.1596731251
C  C19  1  0.91280000  0.53040000  0.65720000  1.0 -0.1596731251
C  C20  1  0.53040000  0.65720000  0.91280000  1.0 -0.1596731251
C  C21  1  0.65720000  0.91280000  0.53040000  1.0 -0.1596731251
C  C22  1  0.91320000  0.57780000  0.57760000  1.0 0.1019970173
C  C23  1  0.57760000  0.91320000  0.57780000  1.0 0.1019970173
C  C24  1  0.57780000  0.57760000  0.91320000  1.0 0.1019970173
C  C25  1  0.87240000  0.56220000  0.56260000  1.0 0.0569936955
C  C26  1  0.56260000  0.87240000  0.56220000  1.0 0.0569936955
C  C27  1  0.56220000  0.56260000  0.87240000  1.0 0.0569936955
C  C28  1  0.88700000  0.60380000  0.47700000  1.0 -0.1322773453
C  C29  1  0.47700000  0.88700000  0.60380000  1.0 -0.1322773453
C  C30  1  0.60380000  0.47700000  0.88700000  1.0 -0.1322773453
C  C31  1  0.88700000  0.47700000  0.60380000  1.0 -0.1322773453
C  C32  1  0.47700000  0.60380000  0.88700000  1.0 -0.1322773453
C  C33  1  0.60380000  0.88700000  0.47700000  1.0 -0.1322773453
C  C34  1  0.86660000  0.58530000  0.45200000  1.0 0.0429103667
C  C35  1  0.45200000  0.86660000  0.58530000  1.0 0.0429103667
C  C36  1  0.58530000  0.45200000  0.86660000  1.0 0.0429103667
C  C37  1  0.86660000  0.45200000  0.58530000  1.0 0.0429103667
C  C38  1  0.45200000  0.58530000  0.86660000  1.0 0.0429103667
C  C39  1  0.58530000  0.86660000  0.45200000  1.0 0.0429103667
C  C40  1  0.83080000  0.52580000  0.51280000  1.0 0.079366522
C  C41  1  0.51280000  0.83080000  0.52580000  1.0 0.079366522
C  C42  1  0.52580000  0.51280000  0.83080000  1.0 0.079366522
C  C43  1  0.83080000  0.51280000  0.52580000  1.0 0.079366522
C  C44  1  0.51280000  0.52580000  0.83080000  1.0 0.079366522
C  C45  1  0.52580000  0.83080000  0.51280000  1.0 0.079366522
C  C46  1  0.85766000  0.47426000  0.47406000  1.0 0.079366522
C  C47  1  0.47406000  0.85766000  0.47426000  1.0 0.079366522
C  C48  1  0.47426000  0.47406000  0.85766000  1.0 0.079366522
C  C49  1  0.83370000  0.53350000  0.40560000  1.0 -0.0769711783
C  C50  1  0.40560000  0.83370000  0.53350000  1.0 -0.0769711783
C  C51  1  0.53350000  0.40560000  0.83370000  1.0 -0.0769711783
C  C52  1  0.83370000  0.40560000  0.53350000  1.0 -0.0769711783
C  C53  1  0.40560000  0.53350000  0.83370000  1.0 -0.0769711783
C  C54  1  0.53350000  0.83370000  0.40560000  1.0 -0.0769711783
C  C55  1  0.82210000  0.50750000  0.37960000  1.0 -0.0298999923
C  C56  1  0.37960000  0.82210000  0.50750000  1.0 -0.0298999923
C  C57  1  0.50750000  0.37960000  0.82210000  1.0 -0.0298999923
C  C58  1  0.82210000  0.37960000  0.50750000  1.0 -0.0298999923
C  C59  1  0.37960000  0.50750000  0.82210000  1.0 -0.0298999923
C  C60  1  0.50750000  0.82210000  0.37960000  1.0 -0.0298999923
C  C61  1  0.83318000  0.42318000  0.42248000  1.0 0.0694840566
C  C62  1  0.42248000  0.83318000  0.42318000  1.0 0.0694840566
C  C63  1  0.42318000  0.42248000  0.83318000  1.0 0.0694840566
C  C64  1  0.84121000  0.38451000  0.38451000  1.0 0.079366522
C  C65  1  0.38451000  0.84121000  0.38451000  1.0 0.0694840566
C  C66  1  0.38451000  0.38451000  0.84121000  1.0 0.0694840566
C  C67  1  0.88420000  0.29540000  0.40930000  1.0 -0.1136572359
C  C68  1  0.40930000  0.88420000  0.29540000  1.0 -0.1136572359
C  C69  1  0.29540000  0.40930000  0.88420000  1.0 -0.1136572359
C  C70  1  0.88420000  0.40930000  0.29540000  1.0 -0.1136572359
C  C71  1  0.40930000  0.29540000  0.88420000  1.0 -0.1136572359
C  C72  1  0.29540000  0.88420000  0.40930000  1.0 -0.1136572359
C  C73  1  0.88310000  0.26000000  0.38370000  1.0 -0.0104863501
C  C74  1  0.38370000  0.88310000  0.26000000  1.0 -0.0104863501
C  C75  1  0.26000000  0.38370000  0.88310000  1.0 -0.0104863501
C  C76  1  0.88310000  0.38370000  0.26000000  1.0 -0.0104863501
C  C77  1  0.38370000  0.26000000  0.88310000  1.0 -0.0104863501
C  C78  1  0.26000000  0.88310000  0.38370000  1.0 -0.0104863501
C  C79  1  0.83844000  0.31394000  0.33344000  1.0 0.0522907568
C  C80  1  0.33344000  0.83844000  0.31394000  1.0 0.0522907568
C  C81  1  0.31394000  0.33344000  0.83844000  1.0 0.0522907568
C  C82  1  0.83844000  0.33344000  0.31394000  1.0 0.0522907568
C  C83  1  0.33344000  0.31394000  0.83844000  1.0 0.0522907568
C  C84  1  0.31394000  0.83844000  0.33344000  1.0 0.0522907568
C  C85  1  0.79490000  0.30930000  0.40280000  1.0 -0.0430389127
C  C86  1  0.40280000  0.79490000  0.30930000  1.0 -0.0430389127
C  C87  1  0.30930000  0.40280000  0.79490000  1.0 -0.0430389127
C  C88  1  0.79490000  0.40280000  0.30930000  1.0 -0.0430389127
C  C89  1  0.40280000  0.30930000  0.79490000  1.0 -0.0430389127
C  C90  1  0.30930000  0.79490000  0.40280000  1.0 -0.0430389127
C  C91  1  0.79610000  0.43820000  0.33510000  1.0 -0.0519203841
C  C92  1  0.33510000  0.79610000  0.43820000  1.0 -0.0519203841
C  C93  1  0.43820000  0.33510000  0.79610000  1.0 -0.0519203841
C  C94  1  0.79610000  0.33510000  0.43820000  1.0 -0.0519203841
C  C95  1  0.33510000  0.43820000  0.79610000  1.0 -0.0519203841
C  C96  1  0.43820000  0.79610000  0.33510000  1.0 -0.0519203841
C  C97  1  0.84610000  0.28580000  0.28540000  1.0 0.1019970173
C  C98  1  0.28540000  0.84610000  0.28580000  1.0 0.1019970173
C  C99  1  0.28580000  0.28540000  0.84610000  1.0 0.1019970173
C  C100  1  0.85130000  0.33370000  0.20410000  1.0 -0.1665435452
C  C101  1  0.20410000  0.85130000  0.33370000  1.0 -0.1665435452
C  C102  1  0.33370000  0.20410000  0.85130000  1.0 -0.1665435452
C  C103  1  0.85130000  0.20410000  0.33370000  1.0 -0.1665435452
C  C104  1  0.20410000  0.33370000  0.85130000  1.0 -0.1665435452
C  C105  1  0.33370000  0.85130000  0.20410000  1.0 -0.1665435452
C  C106  1  0.86470000  0.29400000  0.16950000  1.0 0.0110375659
C  C107  1  0.16950000  0.86470000  0.29400000  1.0 0.0110375659
C  C108  1  0.29400000  0.16950000  0.86470000  1.0 0.0110375659
C  C109  1  0.86470000  0.16950000  0.29400000  1.0 0.0110375659
C  C110  1  0.16950000  0.29400000  0.86470000  1.0 0.0110375659
C  C111  1  0.29400000  0.86470000  0.16950000  1.0 0.0110375659
C  C112  1  0.87240000  0.21580000  0.21570000  1.0 -0.0736728301
C  C113  1  0.21570000  0.87240000  0.21580000  1.0 -0.0736728301
C  C114  1  0.21580000  0.21570000  0.87240000  1.0 -0.0736728301
C  C115  1  0.88700000  0.33940000  0.07420000  1.0 0.5914342609
C  C116  1  0.07420000  0.88700000  0.33940000  1.0 0.5914342609
C  C117  1  0.33940000  0.07420000  0.88700000  1.0 0.5914342609
C  C118  1  0.88700000  0.07420000  0.33940000  1.0 0.5914342609
C  C119  1  0.07420000  0.33940000  0.88700000  1.0 0.5914342609
C  C120  1  0.33940000  0.88700000  0.07420000  1.0 0.5914342609
C  C121  1  0.05380000  0.51050000  0.23750000  1.0 0.5744499372
C  C122  1  0.51050000  0.23750000  0.05380000  1.0 0.5751566586
C  C123  1  0.23750000  0.05380000  0.51050000  1.0 0.5751566586
C  C124  1  0.05380000  0.23750000  0.51050000  1.0 0.5751566586
C  C125  1  0.51050000  0.05380000  0.23750000  1.0 0.5751566586
C  C126  1  0.23750000  0.51050000  0.05380000  1.0 0.5751566586
C  C127  1  0.06300000  0.45200000  0.31980000  1.0 -0.0241930893
C  C128  1  0.45200000  0.31980000  0.06300000  1.0 -0.0241930893
C  C129  1  0.31980000  0.06300000  0.45200000  1.0 -0.0241930893
C  C130  1  0.06300000  0.31980000  0.45200000  1.0 -0.0241930893
C  C131  1  0.45200000  0.06300000  0.31980000  1.0 -0.0241930893
C  C132  1  0.31980000  0.45200000  0.06300000  1.0 -0.0241930893
C  C133  1  0.06020000  0.37160000  0.37180000  1.0 -0.1136572359
C  C134  1  0.37160000  0.37180000  0.06020000  1.0 -0.1136572359
C  C135  1  0.37180000  0.06020000  0.37160000  1.0 -0.1136572359
C  C136  1  0.08720000  0.46960000  0.34280000  1.0 -0.1596731251
C  C137  1  0.46960000  0.34280000  0.08720000  1.0 -0.1596731251
C  C138  1  0.34280000  0.08720000  0.46960000  1.0 -0.1596731251
C  C139  1  0.08720000  0.34280000  0.46960000  1.0 -0.1596731251
C  C140  1  0.46960000  0.08720000  0.34280000  1.0 -0.1596731251
C  C141  1  0.34280000  0.46960000  0.08720000  1.0 -0.1596731251
C  C142  1  0.08680000  0.42240000  0.42220000  1.0 0.1019970173
C  C143  1  0.42240000  0.42220000  0.08680000  1.0 0.1019970173
C  C144  1  0.42220000  0.08680000  0.42240000  1.0 0.1019970173
C  C145  1  0.12760000  0.43740000  0.43780000  1.0 0.0569936955
C  C146  1  0.43740000  0.43780000  0.12760000  1.0 0.0569936955
C  C147  1  0.43780000  0.12760000  0.43740000  1.0 0.0522907568
C  C148  1  0.11300000  0.52300000  0.39620000  1.0 -0.1322773453
C  C149  1  0.52300000  0.39620000  0.11300000  1.0 -0.1322773453
C  C150  1  0.39620000  0.11300000  0.52300000  1.0 -0.1322773453
C  C151  1  0.11300000  0.39620000  0.52300000  1.0 -0.1322773453
C  C152  1  0.52300000  0.11300000  0.39620000  1.0 -0.1322773453
C  C153  1  0.39620000  0.52300000  0.11300000  1.0 -0.1322773453
C  C154  1  0.13340000  0.54800000  0.41470000  1.0 0.0429103667
C  C155  1  0.54800000  0.41470000  0.13340000  1.0 0.0429103667
C  C156  1  0.41470000  0.13340000  0.54800000  1.0 0.0429103667
C  C157  1  0.13340000  0.41470000  0.54800000  1.0 0.0429103667
C  C158  1  0.54800000  0.13340000  0.41470000  1.0 0.0429103667
C  C159  1  0.41470000  0.54800000  0.13340000  1.0 0.0429103667
C  C160  1  0.16920000  0.48720000  0.47420000  1.0 0.079366522
C  C161  1  0.48720000  0.47420000  0.16920000  1.0 0.079366522
C  C162  1  0.47420000  0.16920000  0.48720000  1.0 0.079366522
C  C163  1  0.16920000  0.47420000  0.48720000  1.0 0.079366522
C  C164  1  0.48720000  0.16920000  0.47420000  1.0 0.079366522
C  C165  1  0.47420000  0.48720000  0.16920000  1.0 0.079366522
C  C166  1  0.14234000  0.52594000  0.52574000  1.0 0.079366522
C  C167  1  0.52594000  0.52574000  0.14234000  1.0 0.079366522
C  C168  1  0.52574000  0.14234000  0.52594000  1.0 0.079366522
C  C169  1  0.16630000  0.59440000  0.46650000  1.0 -0.0769711783
C  C170  1  0.59440000  0.46650000  0.16630000  1.0 -0.0769711783
C  C171  1  0.46650000  0.16630000  0.59440000  1.0 -0.0736728301
C  C172  1  0.16630000  0.46650000  0.59440000  1.0 -0.0769711783
C  C173  1  0.59440000  0.16630000  0.46650000  1.0 -0.0769711783
C  C174  1  0.46650000  0.59440000  0.16630000  1.0 -0.0769711783
C  C175  1  0.17790000  0.62040000  0.49250000  1.0 -0.0298999923
C  C176  1  0.62040000  0.49250000  0.17790000  1.0 -0.0298999923
C  C177  1  0.49250000  0.17790000  0.62040000  1.0 -0.0298999923
C  C178  1  0.17790000  0.49250000  0.62040000  1.0 -0.0298999923
C  C179  1  0.62040000  0.17790000  0.49250000  1.0 -0.0298999923
C  C180  1  0.49250000  0.62040000  0.17790000  1.0 -0.0298999923
C  C181  1  0.16682000  0.57752000  0.57682000  1.0 0.0694840566
C  C182  1  0.57752000  0.57682000  0.16682000  1.0 0.0694840566
C  C183  1  0.57682000  0.16682000  0.57752000  1.0 0.0694840566
C  C184  1  0.15879000  0.61549000  0.61549000  1.0 0.0694840566
C  C185  1  0.61549000  0.61549000  0.15879000  1.0 0.079366522
C  C186  1  0.61549000  0.15879000  0.61549000  1.0 0.0694840566
C  C187  1  0.11580000  0.59070000  0.70460000  1.0 -0.1136572359
C  C188  1  0.59070000  0.70460000  0.11580000  1.0 -0.1136572359
C  C189  1  0.70460000  0.11580000  0.59070000  1.0 -0.1136572359
C  C190  1  0.11580000  0.70460000  0.59070000  1.0 -0.1136572359
C  C191  1  0.59070000  0.11580000  0.70460000  1.0 -0.1136572359
C  C192  1  0.70460000  0.59070000  0.11580000  1.0 -0.1136572359
C  C193  1  0.11690000  0.61630000  0.74000000  1.0 -0.0104863501
C  C194  1  0.61630000  0.74000000  0.11690000  1.0 -0.0104863501
C  C195  1  0.74000000  0.11690000  0.61630000  1.0 -0.0104863501
C  C196  1  0.11690000  0.74000000  0.61630000  1.0 -0.0104863501
C  C197  1  0.61630000  0.11690000  0.74000000  1.0 -0.0104863501
C  C198  1  0.74000000  0.61630000  0.11690000  1.0 -0.0104863501
C  C199  1  0.16156000  0.66656000  0.68606000  1.0 0.0522907568
C  C200  1  0.66656000  0.68606000  0.16156000  1.0 0.0522907568
C  C201  1  0.68606000  0.16156000  0.66656000  1.0 0.0522907568
C  C202  1  0.16156000  0.68606000  0.66656000  1.0 0.0522907568
C  C203  1  0.66656000  0.16156000  0.68606000  1.0 0.0522907568
C  C204  1  0.68606000  0.66656000  0.16156000  1.0 0.0522907568
C  C205  1  0.20510000  0.59720000  0.69070000  1.0 -0.0430389127
C  C206  1  0.59720000  0.69070000  0.20510000  1.0 -0.0430389127
C  C207  1  0.69070000  0.20510000  0.59720000  1.0 -0.0430389127
C  C208  1  0.20510000  0.69070000  0.59720000  1.0 -0.0430389127
C  C209  1  0.59720000  0.20510000  0.69070000  1.0 -0.0430389127
C  C210  1  0.69070000  0.59720000  0.20510000  1.0 -0.0430389127
C  C211  1  0.20390000  0.66490000  0.56180000  1.0 -0.0519203841
C  C212  1  0.66490000  0.56180000  0.20390000  1.0 -0.0519203841
C  C213  1  0.56180000  0.20390000  0.66490000  1.0 -0.0519203841
C  C214  1  0.20390000  0.56180000  0.66490000  1.0 -0.0519203841
C  C215  1  0.66490000  0.20390000  0.56180000  1.0 -0.0519203841
C  C216  1  0.56180000  0.66490000  0.20390000  1.0 -0.0519203841
C  C217  1  0.15390000  0.71460000  0.71420000  1.0 0.1019970173
C  C218  1  0.71460000  0.71420000  0.15390000  1.0 0.1019970173
C  C219  1  0.71420000  0.15390000  0.71460000  1.0 0.1019970173
C  C220  1  0.14870000  0.79590000  0.66630000  1.0 -0.1665435452
C  C221  1  0.79590000  0.66630000  0.14870000  1.0 -0.1665435452
C  C222  1  0.66630000  0.14870000  0.79590000  1.0 -0.1665435452
C  C223  1  0.14870000  0.66630000  0.79590000  1.0 -0.1665435452
C  C224  1  0.79590000  0.14870000  0.66630000  1.0 -0.1665435452
C  C225  1  0.66630000  0.79590000  0.14870000  1.0 -0.1665435452
C  C226  1  0.13530000  0.83050000  0.70600000  1.0 0.0110375659
C  C227  1  0.83050000  0.70600000  0.13530000  1.0 0.0110375659
C  C228  1  0.70600000  0.13530000  0.83050000  1.0 0.0110375659
C  C229  1  0.13530000  0.70600000  0.83050000  1.0 0.0110375659
C  C230  1  0.83050000  0.13530000  0.70600000  1.0 0.0110375659
C  C231  1  0.70600000  0.83050000  0.13530000  1.0 0.0110375659
C  C232  1  0.12760000  0.78430000  0.78420000  1.0 -0.0736728301
C  C233  1  0.78430000  0.78420000  0.12760000  1.0 -0.0736728301
C  C234  1  0.78420000  0.12760000  0.78430000  1.0 -0.0736728301
C  C235  1  0.11300000  0.92580000  0.66060000  1.0 0.5914342609
C  C236  1  0.92580000  0.66060000  0.11300000  1.0 0.5914342609
C  C237  1  0.66060000  0.11300000  0.92580000  1.0 0.5914342609
C  C238  1  0.11300000  0.66060000  0.92580000  1.0 0.5914342609
C  C239  1  0.92580000  0.11300000  0.66060000  1.0 0.5914342609
C  C240  1  0.66060000  0.92580000  0.11300000  1.0 0.5914342609
O  O1  1  0.95216000  0.80396000  0.41406000  1.0 -0.5022040401
O  O2  1  0.41406000  0.95216000  0.80396000  1.0 -0.5022040401
O  O3  1  0.80396000  0.41406000  0.95216000  1.0 -0.5022040401
O  O4  1  0.95216000  0.41406000  0.80396000  1.0 -0.5022040401
O  O5  1  0.41406000  0.80396000  0.95216000  1.0 -0.5022040401
O  O6  1  0.80396000  0.95216000  0.41406000  1.0 -0.5022040401
O  O7  1  0.93575000  0.78895000  0.52915000  1.0 -0.5193308139
O  O8  1  0.52915000  0.93575000  0.78895000  1.0 -0.5193308139
O  O9  1  0.78895000  0.52915000  0.93575000  1.0 -0.5193308139
O  O10  1  0.93575000  0.52915000  0.78895000  1.0 -0.5193308139
O  O11  1  0.52915000  0.78895000  0.93575000  1.0 -0.5193308139
O  O12  1  0.78895000  0.93575000  0.52915000  1.0 -0.5193308139
O  O13  1  0.89441000  0.30871000  0.04591000  1.0 -0.4615813562
O  O14  1  0.04591000  0.89441000  0.30871000  1.0 -0.4615813562
O  O15  1  0.30871000  0.04591000  0.89441000  1.0 -0.4615813562
O  O16  1  0.89441000  0.04591000  0.30871000  1.0 -0.4615813562
O  O17  1  0.04591000  0.30871000  0.89441000  1.0 -0.4615813562
O  O18  1  0.30871000  0.89441000  0.04591000  1.0 -0.4615813562
O  O19  1  0.88380000  0.41440000  0.03330000  1.0 -0.4936053448
O  O20  1  0.03330000  0.88380000  0.41440000  1.0 -0.4936053448
O  O21  1  0.41440000  0.03330000  0.88380000  1.0 -0.4936053448
O  O22  1  0.88380000  0.03330000  0.41440000  1.0 -0.4936053448
O  O23  1  0.03330000  0.41440000  0.88380000  1.0 -0.4936053448
O  O24  1  0.41440000  0.88380000  0.03330000  1.0 -0.4936053448
O  O25  1  0.04784000  0.58594000  0.19604000  1.0 -0.5022040401
O  O26  1  0.58594000  0.19604000  0.04784000  1.0 -0.5022040401
O  O27  1  0.19604000  0.04784000  0.58594000  1.0 -0.5022040401
O  O28  1  0.04784000  0.19604000  0.58594000  1.0 -0.5022040401
O  O29  1  0.58594000  0.04784000  0.19604000  1.0 -0.5022040401
O  O30  1  0.19604000  0.58594000  0.04784000  1.0 -0.5022040401
O  O31  1  0.06425000  0.47085000  0.21105000  1.0 -0.5193308139
O  O32  1  0.47085000  0.21105000  0.06425000  1.0 -0.5193308139
O  O33  1  0.21105000  0.06425000  0.47085000  1.0 -0.5193308139
O  O34  1  0.06425000  0.21105000  0.47085000  1.0 -0.5193308139
O  O35  1  0.47085000  0.06425000  0.21105000  1.0 -0.5193308139
O  O36  1  0.21105000  0.47085000  0.06425000  1.0 -0.5193308139
O  O37  1  0.10559000  0.95409000  0.69129000  1.0 -0.4615813562
O  O38  1  0.95409000  0.69129000  0.10559000  1.0 -0.4615813562
O  O39  1  0.69129000  0.10559000  0.95409000  1.0 -0.4615813562
O  O40  1  0.10559000  0.69129000  0.95409000  1.0 -0.4615813562
O  O41  1  0.95409000  0.10559000  0.69129000  1.0 -0.4615813562
O  O42  1  0.69129000  0.95409000  0.10559000  1.0 -0.4615813562
O  O43  1  0.11620000  0.96670000  0.58560000  1.0 -0.4936053448
O  O44  1  0.96670000  0.58560000  0.11620000  1.0 -0.4936053448
O  O45  1  0.58560000  0.11620000  0.96670000  1.0 -0.4936053448
O  O46  1  0.11620000  0.58560000  0.96670000  1.0 -0.4936053448
O  O47  1  0.96670000  0.11620000  0.58560000  1.0 -0.4936053448
O  O48  1  0.58560000  0.96670000  0.11620000  1.0 -0.4936053448
