# DDEC6 charges by PACMAN v1.1 (https://github.com/mtap-research/PACMAN-charge/)
data_PUBSOV_ASR_pacman
_symmetry_space_group_name_H-M   'P 1'
_cell_length_a   19.12120000
_cell_length_b   19.12120000
_cell_length_c   19.12120000
_cell_angle_alpha   120.92900000
_cell_angle_beta   120.92900000
_cell_angle_gamma   88.39760000
_symmetry_Int_Tables_number   1
_chemical_formula_structural   Cu2H6(C14O3)3
_chemical_formula_sum   'Cu8 H24 C168 O36'
_cell_volume   4872.00189643
_cell_formula_units_Z   4
loop_
 _symmetry_equiv_pos_site_id
 _symmetry_equiv_pos_as_xyz
  1  'x, y, z'
loop_
 _atom_site_type_symbol
 _atom_site_label
 _atom_site_symmetry_multiplicity
 _atom_site_fract_x
 _atom_site_fract_y
 _atom_site_fract_z
 _atom_site_occupancy
 _atom_site_charge
Cu  Cu1  1  0.50448000  0.06928000  0.00000000  1.0 0.8693066111
Cu  Cu2  1  0.06928000  0.06928000  0.56480000  1.0 0.8693066111
Cu  Cu3  1  0.06928000  0.50448000  0.00000000  1.0 0.8693066111
Cu  Cu4  1  0.50448000  0.50448000  0.43520000  1.0 0.8693066111
Cu  Cu5  1  0.49552000  0.49552000  0.56480000  1.0 0.8693066111
Cu  Cu6  1  0.93072000  0.93072000  0.43520000  1.0 0.8693066111
Cu  Cu7  1  0.49552000  0.93072000  0.00000000  1.0 0.8693066111
Cu  Cu8  1  0.93072000  0.49552000  0.00000000  1.0 0.8693066111
H  H1  1  0.50710000  0.76180000  0.74530000  1.0 0.1286613999
H  H2  1  0.76180000  0.01650000  0.25470000  1.0 0.1286613999
H  H3  1  0.01650000  0.76180000  0.25470000  1.0 0.1286613999
H  H4  1  0.76180000  0.50710000  0.74530000  1.0 0.1286613999
H  H5  1  0.49290000  0.23820000  0.25470000  1.0 0.1286613999
H  H6  1  0.98350000  0.23820000  0.74530000  1.0 0.1286613999
H  H7  1  0.23820000  0.98350000  0.74530000  1.0 0.1286613999
H  H8  1  0.23820000  0.49290000  0.25470000  1.0 0.1286613999
H  H9  1  0.59890000  0.99220000  0.81930000  1.0 0.1350500754
H  H10  1  0.99220000  0.17290000  0.39330000  1.0 0.1350500754
H  H11  1  0.17290000  0.77960000  0.18070000  1.0 0.1350500754
H  H12  1  0.77960000  0.59890000  0.60670000  1.0 0.1350500754
H  H13  1  0.40110000  0.22040000  0.39330000  1.0 0.1350500754
H  H14  1  0.82710000  0.00780000  0.60670000  1.0 0.1350500754
H  H15  1  0.22040000  0.82710000  0.81930000  1.0 0.1350500754
H  H16  1  0.00780000  0.40110000  0.18070000  1.0 0.1350500754
H  H17  1  0.40110000  0.00780000  0.18070000  1.0 0.1350500754
H  H18  1  0.00780000  0.82710000  0.60670000  1.0 0.1350500754
H  H19  1  0.82710000  0.22040000  0.81930000  1.0 0.1350500754
H  H20  1  0.22040000  0.40110000  0.39330000  1.0 0.1350500754
H  H21  1  0.59890000  0.77960000  0.60670000  1.0 0.1350500754
H  H22  1  0.17290000  0.99220000  0.39330000  1.0 0.1350500754
H  H23  1  0.77960000  0.17290000  0.18070000  1.0 0.1350500754
H  H24  1  0.99220000  0.59890000  0.81930000  1.0 0.1350500754
C  C1  1  0.52990000  0.92850000  0.87060000  1.0 0.5737538359
C  C2  1  0.92850000  0.05790000  0.39860000  1.0 0.5737538359
C  C3  1  0.05790000  0.65930000  0.12940000  1.0 0.5737538359
C  C4  1  0.65930000  0.52990000  0.60140000  1.0 0.5737538359
C  C5  1  0.47010000  0.34070000  0.39860000  1.0 0.5737538359
C  C6  1  0.94210000  0.07150000  0.60140000  1.0 0.5737538359
C  C7  1  0.34070000  0.94210000  0.87060000  1.0 0.5737538359
C  C8  1  0.07150000  0.47010000  0.12940000  1.0 0.5737538359
C  C9  1  0.47010000  0.07150000  0.12940000  1.0 0.5737538359
C  C10  1  0.07150000  0.94210000  0.60140000  1.0 0.5737538359
C  C11  1  0.94210000  0.34070000  0.87060000  1.0 0.5737538359
C  C12  1  0.34070000  0.47010000  0.39860000  1.0 0.5737538359
C  C13  1  0.52990000  0.65930000  0.60140000  1.0 0.5737538359
C  C14  1  0.05790000  0.92850000  0.39860000  1.0 0.5737538359
C  C15  1  0.65930000  0.05790000  0.12940000  1.0 0.5737538359
C  C16  1  0.92850000  0.52990000  0.87060000  1.0 0.5737538359
C  C17  1  0.53120000  0.79580000  0.73540000  1.0 -0.1317720945
C  C18  1  0.79580000  0.06040000  0.26460000  1.0 -0.1317720945
C  C19  1  0.06040000  0.79580000  0.26460000  1.0 -0.1317720945
C  C20  1  0.79580000  0.53120000  0.73540000  1.0 -0.1317720945
C  C21  1  0.46880000  0.20420000  0.26460000  1.0 -0.1317720945
C  C22  1  0.93960000  0.20420000  0.73540000  1.0 -0.1317720945
C  C23  1  0.20420000  0.93960000  0.73540000  1.0 -0.1317720945
C  C24  1  0.20420000  0.46880000  0.26460000  1.0 -0.1317720945
C  C25  1  0.54740000  0.88290000  0.79270000  1.0 -0.0132740389
C  C26  1  0.88290000  0.09020000  0.33550000  1.0 -0.0132740389
C  C27  1  0.09020000  0.75470000  0.20730000  1.0 -0.0132740389
C  C28  1  0.75470000  0.54740000  0.66450000  1.0 -0.0132740389
C  C29  1  0.45260000  0.24530000  0.33550000  1.0 -0.0132740389
C  C30  1  0.90980000  0.11710000  0.66450000  1.0 -0.0132740389
C  C31  1  0.24530000  0.90980000  0.79270000  1.0 -0.0132740389
C  C32  1  0.11710000  0.45260000  0.20730000  1.0 -0.0132740389
C  C33  1  0.45260000  0.11710000  0.20730000  1.0 -0.0132740389
C  C34  1  0.11710000  0.90980000  0.66450000  1.0 -0.0132740389
C  C35  1  0.90980000  0.24530000  0.79270000  1.0 -0.0132740389
C  C36  1  0.24530000  0.45260000  0.33550000  1.0 -0.0132740389
C  C37  1  0.54740000  0.75470000  0.66450000  1.0 -0.0132740389
C  C38  1  0.09020000  0.88290000  0.33550000  1.0 -0.0132740389
C  C39  1  0.75470000  0.09020000  0.20730000  1.0 -0.0132740389
C  C40  1  0.88290000  0.54740000  0.79270000  1.0 -0.0132740389
C  C41  1  0.58620000  0.93160000  0.78040000  1.0 -0.1317720945
C  C42  1  0.93160000  0.15120000  0.34540000  1.0 -0.1317720945
C  C43  1  0.15120000  0.80580000  0.21960000  1.0 -0.1317720945
C  C44  1  0.80580000  0.58620000  0.65460000  1.0 -0.1317720945
C  C45  1  0.41380000  0.19420000  0.34540000  1.0 -0.1317720945
C  C46  1  0.84880000  0.06840000  0.65460000  1.0 -0.1317720945
C  C47  1  0.19420000  0.84880000  0.78040000  1.0 -0.1317720945
C  C48  1  0.06840000  0.41380000  0.21960000  1.0 -0.1317720945
C  C49  1  0.41380000  0.06840000  0.21960000  1.0 -0.1317720945
C  C50  1  0.06840000  0.84880000  0.65460000  1.0 -0.1317720945
C  C51  1  0.84880000  0.19420000  0.78040000  1.0 -0.1317720945
C  C52  1  0.19420000  0.41380000  0.34540000  1.0 -0.1317720945
C  C53  1  0.58620000  0.80580000  0.65460000  1.0 -0.1317720945
C  C54  1  0.15120000  0.93160000  0.34540000  1.0 -0.1317720945
C  C55  1  0.80580000  0.15120000  0.21960000  1.0 -0.1317720945
C  C56  1  0.93160000  0.58620000  0.78040000  1.0 -0.1317720945
C  C57  1  0.60640000  0.89360000  0.71280000  1.0 0.0912676866
C  C58  1  0.89360000  0.18080000  0.28720000  1.0 0.0912676866
C  C59  1  0.18080000  0.89360000  0.28720000  1.0 0.0912676866
C  C60  1  0.89360000  0.60640000  0.71280000  1.0 0.0912676866
C  C61  1  0.39360000  0.10640000  0.28720000  1.0 0.0912676866
C  C62  1  0.81920000  0.10640000  0.71280000  1.0 0.0912676866
C  C63  1  0.10640000  0.81920000  0.71280000  1.0 0.0912676866
C  C64  1  0.10640000  0.39360000  0.28720000  1.0 0.0912676866
C  C65  1  0.66550000  0.95050000  0.71500000  1.0 0.0173325713
C  C66  1  0.95050000  0.23550000  0.28500000  1.0 0.0173325713
C  C67  1  0.23550000  0.95050000  0.28500000  1.0 0.0173325713
C  C68  1  0.95050000  0.66550000  0.71500000  1.0 0.0173325713
C  C69  1  0.33450000  0.04950000  0.28500000  1.0 0.0173325713
C  C70  1  0.76450000  0.04950000  0.71500000  1.0 0.0173325713
C  C71  1  0.04950000  0.76450000  0.71500000  1.0 0.0173325713
C  C72  1  0.04950000  0.33450000  0.28500000  1.0 0.0173325713
C  C73  1  0.63070000  0.94640000  0.62830000  1.0 -0.003827142
C  C74  1  0.94640000  0.31810000  0.31570000  1.0 -0.003827142
C  C75  1  0.31810000  0.00240000  0.37170000  1.0 -0.003827142
C  C76  1  0.00240000  0.63070000  0.68430000  1.0 -0.003827142
C  C77  1  0.36930000  0.99760000  0.31570000  1.0 -0.003827142
C  C78  1  0.68190000  0.05360000  0.68430000  1.0 -0.003827142
C  C79  1  0.99760000  0.68190000  0.62830000  1.0 -0.003827142
C  C80  1  0.05360000  0.36930000  0.37170000  1.0 -0.003827142
C  C81  1  0.36930000  0.05360000  0.37170000  1.0 -0.003827142
C  C82  1  0.05360000  0.68190000  0.68430000  1.0 -0.003827142
C  C83  1  0.68190000  0.99760000  0.62830000  1.0 -0.003827142
C  C84  1  0.99760000  0.36930000  0.31570000  1.0 -0.003827142
C  C85  1  0.63070000  0.00240000  0.68430000  1.0 -0.003827142
C  C86  1  0.31810000  0.94640000  0.31570000  1.0 -0.003827142
C  C87  1  0.00240000  0.31810000  0.37170000  1.0 -0.003827142
C  C88  1  0.94640000  0.63070000  0.62830000  1.0 -0.003827142
C  C89  1  0.54300000  0.89470000  0.53510000  1.0 -0.0905936726
C  C90  1  0.89470000  0.35960000  0.35170000  1.0 -0.0905936726
C  C91  1  0.35960000  0.00790000  0.46490000  1.0 -0.0905936726
C  C92  1  0.00790000  0.54300000  0.64830000  1.0 -0.0905936726
C  C93  1  0.45700000  0.99210000  0.35170000  1.0 -0.0905936726
C  C94  1  0.64040000  0.10530000  0.64830000  1.0 -0.0905936726
C  C95  1  0.99210000  0.64040000  0.53510000  1.0 -0.0905936726
C  C96  1  0.10530000  0.45700000  0.46490000  1.0 -0.0905936726
C  C97  1  0.45700000  0.10530000  0.46490000  1.0 -0.0905936726
C  C98  1  0.10530000  0.64040000  0.64830000  1.0 -0.0905936726
C  C99  1  0.64040000  0.99210000  0.53510000  1.0 -0.0905936726
C  C100  1  0.99210000  0.45700000  0.35170000  1.0 -0.0905936726
C  C101  1  0.54300000  0.00790000  0.64830000  1.0 -0.0905936726
C  C102  1  0.35960000  0.89470000  0.35170000  1.0 -0.0905936726
C  C103  1  0.00790000  0.35960000  0.46490000  1.0 -0.0905936726
C  C104  1  0.89470000  0.54300000  0.53510000  1.0 -0.0905936726
C  C105  1  0.50310000  0.88790000  0.44160000  1.0 0.1615045371
C  C106  1  0.88790000  0.44630000  0.38480000  1.0 0.1615045371
C  C107  1  0.44630000  0.06150000  0.55840000  1.0 0.1615045371
C  C108  1  0.06150000  0.50310000  0.61520000  1.0 0.1615045371
C  C109  1  0.49690000  0.93850000  0.38480000  1.0 0.1615045371
C  C110  1  0.55370000  0.11210000  0.61520000  1.0 0.1615045371
C  C111  1  0.93850000  0.55370000  0.44160000  1.0 0.1615045371
C  C112  1  0.11210000  0.49690000  0.55840000  1.0 0.1615045371
C  C113  1  0.49690000  0.11210000  0.55840000  1.0 0.1615045371
C  C114  1  0.11210000  0.55370000  0.61520000  1.0 0.1615045371
C  C115  1  0.55370000  0.93850000  0.44160000  1.0 0.1615045371
C  C116  1  0.93850000  0.49690000  0.38480000  1.0 0.1615045371
C  C117  1  0.50310000  0.06150000  0.61520000  1.0 0.1615045371
C  C118  1  0.44630000  0.88790000  0.38480000  1.0 0.1615045371
C  C119  1  0.06150000  0.44630000  0.55840000  1.0 0.1615045371
C  C120  1  0.88790000  0.50310000  0.44160000  1.0 0.1615045371
C  C121  1  0.74720000  0.99910000  0.80510000  1.0 0.0035196326
C  C122  1  0.99910000  0.19400000  0.25190000  1.0 0.0035196326
C  C123  1  0.19400000  0.94210000  0.19490000  1.0 0.0035196326
C  C124  1  0.94210000  0.74720000  0.74810000  1.0 0.0035196326
C  C125  1  0.25280000  0.05790000  0.25190000  1.0 0.0035196326
C  C126  1  0.80600000  0.00090000  0.74810000  1.0 0.0035196326
C  C127  1  0.05790000  0.80600000  0.80510000  1.0 0.0035196326
C  C128  1  0.00090000  0.25280000  0.19490000  1.0 0.0035196326
C  C129  1  0.25280000  0.00090000  0.19490000  1.0 0.0035196326
C  C130  1  0.00090000  0.80600000  0.74810000  1.0 0.0035196326
C  C131  1  0.80600000  0.05790000  0.80510000  1.0 0.0035196326
C  C132  1  0.05790000  0.25280000  0.25190000  1.0 0.0035196326
C  C133  1  0.74720000  0.94210000  0.74810000  1.0 0.0035196326
C  C134  1  0.19400000  0.99910000  0.25190000  1.0 0.0035196326
C  C135  1  0.94210000  0.19400000  0.19490000  1.0 0.0035196326
C  C136  1  0.99910000  0.74720000  0.80510000  1.0 0.0035196326
C  C137  1  0.79360000  0.99580000  0.88800000  1.0 -0.057388043
C  C138  1  0.99580000  0.10780000  0.20220000  1.0 -0.057388043
C  C139  1  0.10780000  0.90560000  0.11200000  1.0 -0.057388043
C  C140  1  0.90560000  0.79360000  0.79780000  1.0 -0.057388043
C  C141  1  0.20640000  0.09440000  0.20220000  1.0 -0.057388043
C  C142  1  0.89220000  0.00420000  0.79780000  1.0 -0.057388043
C  C143  1  0.09440000  0.89220000  0.88800000  1.0 -0.057388043
C  C144  1  0.00420000  0.20640000  0.11200000  1.0 -0.057388043
C  C145  1  0.20640000  0.00420000  0.11200000  1.0 -0.057388043
C  C146  1  0.00420000  0.89220000  0.79780000  1.0 -0.057388043
C  C147  1  0.89220000  0.09440000  0.88800000  1.0 -0.057388043
C  C148  1  0.09440000  0.20640000  0.20220000  1.0 -0.057388043
C  C149  1  0.79360000  0.90560000  0.79780000  1.0 -0.057388043
C  C150  1  0.10780000  0.99580000  0.20220000  1.0 -0.057388043
C  C151  1  0.90560000  0.10780000  0.11200000  1.0 -0.057388043
C  C152  1  0.99580000  0.79360000  0.88800000  1.0 -0.057388043
C  C153  1  0.87590000  0.04870000  0.97420000  1.0 0.0136466792
C  C154  1  0.04870000  0.07450000  0.17280000  1.0 0.0136466792
C  C155  1  0.07450000  0.90170000  0.02580000  1.0 0.0136466792
C  C156  1  0.90170000  0.87590000  0.82720000  1.0 0.0136466792
C  C157  1  0.12410000  0.09830000  0.17280000  1.0 0.0136466792
C  C158  1  0.92550000  0.95130000  0.82720000  1.0 0.0136466792
C  C159  1  0.09830000  0.92550000  0.97420000  1.0 0.0136466792
C  C160  1  0.95130000  0.12410000  0.02580000  1.0 0.0136466792
C  C161  1  0.12410000  0.95130000  0.02580000  1.0 0.0136466792
C  C162  1  0.95130000  0.92550000  0.82720000  1.0 0.0136466792
C  C163  1  0.92550000  0.09830000  0.97420000  1.0 0.0136466792
C  C164  1  0.09830000  0.12410000  0.17280000  1.0 0.0136466792
C  C165  1  0.87590000  0.90170000  0.82720000  1.0 0.0136466792
C  C166  1  0.07450000  0.04870000  0.17280000  1.0 0.0136466792
C  C167  1  0.90170000  0.07450000  0.02580000  1.0 0.0136466792
C  C168  1  0.04870000  0.87590000  0.97420000  1.0 0.0136466792
O  O1  1  0.52619000  0.00259000  0.90000000  1.0 -0.5138116234
O  O2  1  0.00259000  0.10259000  0.47640000  1.0 -0.5138116234
O  O3  1  0.10259000  0.62619000  0.10000000  1.0 -0.5138116234
O  O4  1  0.62619000  0.52619000  0.52360000  1.0 -0.5138116234
O  O5  1  0.47381000  0.37381000  0.47640000  1.0 -0.5138116234
O  O6  1  0.89741000  0.99741000  0.52360000  1.0 -0.5138116234
O  O7  1  0.37381000  0.89741000  0.90000000  1.0 -0.5138116234
O  O8  1  0.99741000  0.47381000  0.10000000  1.0 -0.5138116234
O  O9  1  0.47381000  0.99741000  0.10000000  1.0 -0.5138116234
O  O10  1  0.99741000  0.89741000  0.52360000  1.0 -0.5138116234
O  O11  1  0.89741000  0.37381000  0.90000000  1.0 -0.5138116234
O  O12  1  0.37381000  0.47381000  0.47640000  1.0 -0.5138116234
O  O13  1  0.52619000  0.62619000  0.52360000  1.0 -0.5138116234
O  O14  1  0.10259000  0.00259000  0.47640000  1.0 -0.5138116234
O  O15  1  0.62619000  0.10259000  0.10000000  1.0 -0.5138116234
O  O16  1  0.00259000  0.52619000  0.90000000  1.0 -0.5138116234
O  O17  1  0.51472000  0.88342000  0.89570000  1.0 -0.5463395805
O  O18  1  0.88342000  0.98772000  0.36870000  1.0 -0.5463395805
O  O19  1  0.98772000  0.61902000  0.10430000  1.0 -0.5463395805
O  O20  1  0.61902000  0.51472000  0.63130000  1.0 -0.5463395805
O  O21  1  0.48528000  0.38098000  0.36870000  1.0 -0.5463395805
O  O22  1  0.01228000  0.11658000  0.63130000  1.0 -0.5463395805
O  O23  1  0.38098000  0.01228000  0.89570000  1.0 -0.5463395805
O  O24  1  0.11658000  0.48528000  0.10430000  1.0 -0.5463395805
O  O25  1  0.48528000  0.11658000  0.10430000  1.0 -0.5463395805
O  O26  1  0.11658000  0.01228000  0.63130000  1.0 -0.5463395805
O  O27  1  0.01228000  0.38098000  0.89570000  1.0 -0.5463395805
O  O28  1  0.38098000  0.48528000  0.36870000  1.0 -0.5463395805
O  O29  1  0.51472000  0.61902000  0.63130000  1.0 -0.5463395805
O  O30  1  0.98772000  0.88342000  0.36870000  1.0 -0.5463395805
O  O31  1  0.61902000  0.98772000  0.10430000  1.0 -0.5463395805
O  O32  1  0.88342000  0.51472000  0.89570000  1.0 -0.5463395805
O  O33  1  0.50000000  0.93280000  0.43280000  1.0 -0.0714666096
O  O34  1  0.93280000  0.50000000  0.43280000  1.0 -0.0714666096
O  O35  1  0.50000000  0.06720000  0.56720000  1.0 -0.0714666096
O  O36  1  0.06720000  0.50000000  0.56720000  1.0 -0.0714666096
