# DDEC6 charges by PACMAN v1.1 (https://github.com/mtap-research/PACMAN-charge/)
data_PUBSEL_ASR_pacman
_symmetry_space_group_name_H-M   'P 1'
_cell_length_a   16.83560000
_cell_length_b   16.83560000
_cell_length_c   16.83560000
_cell_angle_alpha   66.67240000
_cell_angle_beta   66.67240000
_cell_angle_gamma   66.67240000
_symmetry_Int_Tables_number   1
_chemical_formula_structural   CuH11C15O4
_chemical_formula_sum   'Cu6 H66 C90 O24'
_cell_volume   3858.31350960
_cell_formula_units_Z   6
loop_
 _symmetry_equiv_pos_site_id
 _symmetry_equiv_pos_as_xyz
  1  'x, y, z'
loop_
 _atom_site_type_symbol
 _atom_site_label
 _atom_site_symmetry_multiplicity
 _atom_site_fract_x
 _atom_site_fract_y
 _atom_site_fract_z
 _atom_site_occupancy
 _atom_site_charge
Cu  Cu1  1  0.92401000  0.49696000  0.49696000  1.0 0.8830646466
Cu  Cu2  1  0.49696000  0.49696000  0.92401000  1.0 0.8830646466
Cu  Cu3  1  0.49696000  0.92401000  0.49696000  1.0 0.8830646466
Cu  Cu4  1  0.07599000  0.50304000  0.50304000  1.0 0.8830646466
Cu  Cu5  1  0.50304000  0.07599000  0.50304000  1.0 0.8830646466
Cu  Cu6  1  0.50304000  0.50304000  0.07599000  1.0 0.8830646466
H  H1  1  0.22675000  0.22675000  0.52780000  1.0 0.1390654634
H  H2  1  0.22675000  0.52780000  0.22675000  1.0 0.1390654634
H  H3  1  0.52780000  0.22675000  0.22675000  1.0 0.1390654634
H  H4  1  0.77325000  0.47220000  0.77325000  1.0 0.1390654634
H  H5  1  0.77325000  0.77325000  0.47220000  1.0 0.1390654634
H  H6  1  0.47220000  0.77325000  0.77325000  1.0 0.1390654634
H  H7  1  0.99430000  0.21330000  0.52500000  1.0 0.1304295803
H  H8  1  0.21330000  0.52500000  0.99430000  1.0 0.1304295803
H  H9  1  0.52500000  0.99430000  0.21330000  1.0 0.1304295803
H  H10  1  0.00570000  0.47500000  0.78670000  1.0 0.1304295803
H  H11  1  0.78670000  0.00570000  0.47500000  1.0 0.1304295803
H  H12  1  0.47500000  0.78670000  0.00570000  1.0 0.1304295803
H  H13  1  0.00570000  0.78670000  0.47500000  1.0 0.1304295803
H  H14  1  0.78670000  0.47500000  0.00570000  1.0 0.1304295803
H  H15  1  0.47500000  0.00570000  0.78670000  1.0 0.1304295803
H  H16  1  0.99430000  0.52500000  0.21330000  1.0 0.1304295803
H  H17  1  0.21330000  0.99430000  0.52500000  1.0 0.1304295803
H  H18  1  0.52500000  0.21330000  0.99430000  1.0 0.1304295803
H  H19  1  0.01280000  0.14180000  0.40430000  1.0 0.1058653037
H  H20  1  0.14180000  0.40430000  0.01280000  1.0 0.1058653037
H  H21  1  0.40430000  0.01280000  0.14180000  1.0 0.1058653037
H  H22  1  0.98720000  0.59570000  0.85820000  1.0 0.1058653037
H  H23  1  0.85820000  0.98720000  0.59570000  1.0 0.1058653037
H  H24  1  0.59570000  0.85820000  0.98720000  1.0 0.1058653037
H  H25  1  0.98720000  0.85820000  0.59570000  1.0 0.1058653037
H  H26  1  0.85820000  0.59570000  0.98720000  1.0 0.1058653037
H  H27  1  0.59570000  0.98720000  0.85820000  1.0 0.1058653037
H  H28  1  0.01280000  0.40430000  0.14180000  1.0 0.1058653037
H  H29  1  0.14180000  0.01280000  0.40430000  1.0 0.1058653037
H  H30  1  0.40430000  0.14180000  0.01280000  1.0 0.1058653037
H  H31  1  0.85740000  0.05550000  0.68980000  1.0 0.1304295803
H  H32  1  0.05550000  0.68980000  0.85740000  1.0 0.1304295803
H  H33  1  0.68980000  0.85740000  0.05550000  1.0 0.1304295803
H  H34  1  0.14260000  0.31020000  0.94450000  1.0 0.1304295803
H  H35  1  0.94450000  0.14260000  0.31020000  1.0 0.1304295803
H  H36  1  0.31020000  0.94450000  0.14260000  1.0 0.1304295803
H  H37  1  0.14260000  0.94450000  0.31020000  1.0 0.1304295803
H  H38  1  0.94450000  0.31020000  0.14260000  1.0 0.1304295803
H  H39  1  0.31020000  0.14260000  0.94450000  1.0 0.1304295803
H  H40  1  0.85740000  0.68980000  0.05550000  1.0 0.1304295803
H  H41  1  0.05550000  0.85740000  0.68980000  1.0 0.1304295803
H  H42  1  0.68980000  0.05550000  0.85740000  1.0 0.1304295803
H  H43  1  0.95110000  0.06280000  0.68540000  1.0 0.1231187399
H  H44  1  0.06280000  0.68540000  0.95110000  1.0 0.1231187399
H  H45  1  0.68540000  0.95110000  0.06280000  1.0 0.1231187399
H  H46  1  0.04890000  0.31460000  0.93720000  1.0 0.1231187399
H  H47  1  0.93720000  0.04890000  0.31460000  1.0 0.1231187399
H  H48  1  0.31460000  0.93720000  0.04890000  1.0 0.1231187399
H  H49  1  0.04890000  0.93720000  0.31460000  1.0 0.1231187399
H  H50  1  0.93720000  0.31460000  0.04890000  1.0 0.1231187399
H  H51  1  0.31460000  0.04890000  0.93720000  1.0 0.1231187399
H  H52  1  0.95110000  0.68540000  0.06280000  1.0 0.1231187399
H  H53  1  0.06280000  0.95110000  0.68540000  1.0 0.1231187399
H  H54  1  0.68540000  0.06280000  0.95110000  1.0 0.1231187399
H  H55  1  0.88770000  0.14510000  0.62840000  1.0 0.1304295803
H  H56  1  0.14510000  0.62840000  0.88770000  1.0 0.1304295803
H  H57  1  0.62840000  0.88770000  0.14510000  1.0 0.1304295803
H  H58  1  0.11230000  0.37160000  0.85490000  1.0 0.1304295803
H  H59  1  0.85490000  0.11230000  0.37160000  1.0 0.1304295803
H  H60  1  0.37160000  0.85490000  0.11230000  1.0 0.1304295803
H  H61  1  0.11230000  0.85490000  0.37160000  1.0 0.1304295803
H  H62  1  0.85490000  0.37160000  0.11230000  1.0 0.1304295803
H  H63  1  0.37160000  0.11230000  0.85490000  1.0 0.1304295803
H  H64  1  0.88770000  0.62840000  0.14510000  1.0 0.1304295803
H  H65  1  0.14510000  0.88770000  0.62840000  1.0 0.1304295803
H  H66  1  0.62840000  0.14510000  0.88770000  1.0 0.1304295803
C  C1  1  0.06211000  0.33141000  0.52271000  1.0 0.5855695795
C  C2  1  0.33141000  0.52271000  0.06211000  1.0 0.5855695795
C  C3  1  0.52271000  0.06211000  0.33141000  1.0 0.5855695795
C  C4  1  0.93789000  0.47729000  0.66859000  1.0 0.5855695795
C  C5  1  0.66859000  0.93789000  0.47729000  1.0 0.5855695795
C  C6  1  0.47729000  0.66859000  0.93789000  1.0 0.5855695795
C  C7  1  0.93789000  0.66859000  0.47729000  1.0 0.5855695795
C  C8  1  0.66859000  0.47729000  0.93789000  1.0 0.5855695795
C  C9  1  0.47729000  0.93789000  0.66859000  1.0 0.5855695795
C  C10  1  0.06211000  0.52271000  0.33141000  1.0 0.5855695795
C  C11  1  0.33141000  0.06211000  0.52271000  1.0 0.5855695795
C  C12  1  0.52271000  0.33141000  0.06211000  1.0 0.5855695795
C  C13  1  0.10349000  0.23349000  0.52759000  1.0 -0.0079092427
C  C14  1  0.23349000  0.52759000  0.10349000  1.0 -0.0079092427
C  C15  1  0.52759000  0.10349000  0.23349000  1.0 -0.0079092427
C  C16  1  0.89651000  0.47241000  0.76651000  1.0 -0.0079092427
C  C17  1  0.76651000  0.89651000  0.47241000  1.0 -0.0079092427
C  C18  1  0.47241000  0.76651000  0.89651000  1.0 -0.0079092427
C  C19  1  0.89651000  0.76651000  0.47241000  1.0 -0.0079092427
C  C20  1  0.76651000  0.47241000  0.89651000  1.0 -0.0079092427
C  C21  1  0.47241000  0.89651000  0.76651000  1.0 -0.0079092427
C  C22  1  0.10349000  0.52759000  0.23349000  1.0 -0.0079092427
C  C23  1  0.23349000  0.10349000  0.52759000  1.0 -0.0079092427
C  C24  1  0.52759000  0.23349000  0.10349000  1.0 -0.0079092427
C  C25  1  0.19303000  0.19303000  0.52768000  1.0 -0.1102574017
C  C26  1  0.19303000  0.52768000  0.19303000  1.0 -0.1102574017
C  C27  1  0.52768000  0.19303000  0.19303000  1.0 -0.1102574017
C  C28  1  0.80697000  0.47232000  0.80697000  1.0 -0.1102574017
C  C29  1  0.80697000  0.80697000  0.47232000  1.0 -0.1102574017
C  C30  1  0.47232000  0.80697000  0.80697000  1.0 -0.1102574017
C  C31  1  0.05563000  0.18523000  0.52543000  1.0 -0.1468010455
C  C32  1  0.18523000  0.52543000  0.05563000  1.0 -0.1468010455
C  C33  1  0.52543000  0.05563000  0.18523000  1.0 -0.1468010455
C  C34  1  0.94437000  0.47457000  0.81477000  1.0 -0.1468010455
C  C35  1  0.81477000  0.94437000  0.47457000  1.0 -0.1468010455
C  C36  1  0.47457000  0.81477000  0.94437000  1.0 -0.1468010455
C  C37  1  0.94437000  0.81477000  0.47457000  1.0 -0.1468010455
C  C38  1  0.81477000  0.47457000  0.94437000  1.0 -0.1468010455
C  C39  1  0.47457000  0.94437000  0.81477000  1.0 -0.1468010455
C  C40  1  0.05563000  0.52543000  0.18523000  1.0 -0.1468010455
C  C41  1  0.18523000  0.05563000  0.52543000  1.0 -0.1468010455
C  C42  1  0.52543000  0.18523000  0.05563000  1.0 -0.1468010455
C  C43  1  0.09540000  0.09540000  0.52365000  1.0 0.0796514541
C  C44  1  0.09540000  0.52365000  0.09540000  1.0 0.0796514541
C  C45  1  0.52365000  0.09540000  0.09540000  1.0 0.0796514541
C  C46  1  0.90460000  0.47635000  0.90460000  1.0 0.0796514541
C  C47  1  0.90460000  0.90460000  0.47635000  1.0 0.0796514541
C  C48  1  0.47635000  0.90460000  0.90460000  1.0 0.0796514541
C  C49  1  0.04552000  0.04552000  0.51442000  1.0 0.0160473942
C  C50  1  0.04552000  0.51442000  0.04552000  1.0 0.0160473942
C  C51  1  0.51442000  0.04552000  0.04552000  1.0 0.0160473942
C  C52  1  0.95448000  0.48558000  0.95448000  1.0 0.0160473942
C  C53  1  0.95448000  0.95448000  0.48558000  1.0 0.0160473942
C  C54  1  0.48558000  0.95448000  0.95448000  1.0 0.0160473942
C  C55  1  0.95620000  0.03980000  0.57220000  1.0 0.0717702102
C  C56  1  0.03980000  0.57220000  0.95620000  1.0 0.0717702102
C  C57  1  0.57220000  0.95620000  0.03980000  1.0 0.0717702102
C  C58  1  0.04380000  0.42780000  0.96020000  1.0 0.0717702102
C  C59  1  0.96020000  0.04380000  0.42780000  1.0 0.0717702102
C  C60  1  0.42780000  0.96020000  0.04380000  1.0 0.0717702102
C  C61  1  0.04380000  0.96020000  0.42780000  1.0 0.0717702102
C  C62  1  0.96020000  0.42780000  0.04380000  1.0 0.0717702102
C  C63  1  0.42780000  0.04380000  0.96020000  1.0 0.0717702102
C  C64  1  0.95620000  0.57220000  0.03980000  1.0 0.0717702102
C  C65  1  0.03980000  0.95620000  0.57220000  1.0 0.0717702102
C  C66  1  0.57220000  0.03980000  0.95620000  1.0 0.0717702102
C  C67  1  0.00672000  0.08432000  0.44362000  1.0 -0.131829598
C  C68  1  0.08432000  0.44362000  0.00672000  1.0 -0.131829598
C  C69  1  0.44362000  0.00672000  0.08432000  1.0 -0.131829598
C  C70  1  0.99328000  0.55638000  0.91568000  1.0 -0.131829598
C  C71  1  0.91568000  0.99328000  0.55638000  1.0 -0.131829598
C  C72  1  0.55638000  0.91568000  0.99328000  1.0 -0.131829598
C  C73  1  0.99328000  0.91568000  0.55638000  1.0 -0.131829598
C  C74  1  0.91568000  0.55638000  0.99328000  1.0 -0.131829598
C  C75  1  0.55638000  0.99328000  0.91568000  1.0 -0.131829598
C  C76  1  0.00672000  0.44362000  0.08432000  1.0 -0.131829598
C  C77  1  0.08432000  0.00672000  0.44362000  1.0 -0.131829598
C  C78  1  0.44362000  0.08432000  0.00672000  1.0 -0.131829598
C  C79  1  0.90900000  0.07920000  0.65080000  1.0 -0.4475992281
C  C80  1  0.07920000  0.65080000  0.90900000  1.0 -0.4475992281
C  C81  1  0.65080000  0.90900000  0.07920000  1.0 -0.4475992281
C  C82  1  0.09100000  0.34920000  0.92080000  1.0 -0.4475992281
C  C83  1  0.92080000  0.09100000  0.34920000  1.0 -0.4475992281
C  C84  1  0.34920000  0.92080000  0.09100000  1.0 -0.4475992281
C  C85  1  0.09100000  0.92080000  0.34920000  1.0 -0.4475992281
C  C86  1  0.92080000  0.34920000  0.09100000  1.0 -0.4475992281
C  C87  1  0.34920000  0.09100000  0.92080000  1.0 -0.4475992281
C  C88  1  0.90900000  0.65080000  0.07920000  1.0 -0.4475992281
C  C89  1  0.07920000  0.90900000  0.65080000  1.0 -0.4475992281
C  C90  1  0.65080000  0.07920000  0.90900000  1.0 -0.4475992281
O  O1  1  0.98335000  0.36722000  0.51556000  1.0 -0.5134568075
O  O2  1  0.36722000  0.51556000  0.98335000  1.0 -0.5134568075
O  O3  1  0.51556000  0.98335000  0.36722000  1.0 -0.5134568075
O  O4  1  0.01665000  0.48444000  0.63278000  1.0 -0.5134568075
O  O5  1  0.63278000  0.01665000  0.48444000  1.0 -0.5134568075
O  O6  1  0.48444000  0.63278000  0.01665000  1.0 -0.5134568075
O  O7  1  0.01665000  0.63278000  0.48444000  1.0 -0.5134568075
O  O8  1  0.63278000  0.48444000  0.01665000  1.0 -0.5134568075
O  O9  1  0.48444000  0.01665000  0.63278000  1.0 -0.5134568075
O  O10  1  0.98335000  0.51556000  0.36722000  1.0 -0.5134568075
O  O11  1  0.36722000  0.98335000  0.51556000  1.0 -0.5134568075
O  O12  1  0.51556000  0.36722000  0.98335000  1.0 -0.5134568075
O  O13  1  0.11134000  0.37375000  0.52168000  1.0 -0.5338024308
O  O14  1  0.37375000  0.52168000  0.11134000  1.0 -0.5338024308
O  O15  1  0.52168000  0.11134000  0.37375000  1.0 -0.5338024308
O  O16  1  0.88866000  0.47832000  0.62625000  1.0 -0.5338024308
O  O17  1  0.62625000  0.88866000  0.47832000  1.0 -0.5338024308
O  O18  1  0.47832000  0.62625000  0.88866000  1.0 -0.5338024308
O  O19  1  0.88866000  0.62625000  0.47832000  1.0 -0.5338024308
O  O20  1  0.62625000  0.47832000  0.88866000  1.0 -0.5338024308
O  O21  1  0.47832000  0.88866000  0.62625000  1.0 -0.5338024308
O  O22  1  0.11134000  0.52168000  0.37375000  1.0 -0.5338024308
O  O23  1  0.37375000  0.11134000  0.52168000  1.0 -0.5338024308
O  O24  1  0.52168000  0.37375000  0.11134000  1.0 -0.5338024308
