# DDEC6 charges by PACMAN v1.1 (https://github.com/mtap-research/PACMAN-charge/)
data_PUBSAH_ASR_pacman
_symmetry_space_group_name_H-M   'P 1'
_cell_length_a   16.77530000
_cell_length_b   16.77530000
_cell_length_c   16.77530000
_cell_angle_alpha   67.31390000
_cell_angle_beta   67.31390000
_cell_angle_gamma   67.31390000
_symmetry_Int_Tables_number   1
_chemical_formula_structural   CuH5C13(O2F)2
_chemical_formula_sum   'Cu6 H30 C78 O24 F12'
_cell_volume   3859.73894289
_cell_formula_units_Z   6
loop_
 _symmetry_equiv_pos_site_id
 _symmetry_equiv_pos_as_xyz
  1  'x, y, z'
loop_
 _atom_site_type_symbol
 _atom_site_label
 _atom_site_symmetry_multiplicity
 _atom_site_fract_x
 _atom_site_fract_y
 _atom_site_fract_z
 _atom_site_occupancy
 _atom_site_charge
Cu  Cu1  1  0.92427000  0.49572000  0.49572000  1.0 0.8818823242
Cu  Cu2  1  0.49572000  0.49572000  0.92427000  1.0 0.8818823242
Cu  Cu3  1  0.49572000  0.92427000  0.49572000  1.0 0.8818823242
Cu  Cu4  1  0.07573000  0.50428000  0.50428000  1.0 0.8818823242
Cu  Cu5  1  0.50428000  0.50428000  0.07573000  1.0 0.8818823242
Cu  Cu6  1  0.50428000  0.07573000  0.50428000  1.0 0.8818823242
H  H1  1  0.85240000  0.00530000  0.58550000  1.0 0.1190384806
H  H2  1  0.00530000  0.58550000  0.85240000  1.0 0.1190384806
H  H3  1  0.58550000  0.85240000  0.00530000  1.0 0.1190384806
H  H4  1  0.14760000  0.41450000  0.99470000  1.0 0.1190384806
H  H5  1  0.41450000  0.99470000  0.14760000  1.0 0.1190384806
H  H6  1  0.99470000  0.14760000  0.41450000  1.0 0.1190384806
H  H7  1  0.14760000  0.99470000  0.41450000  1.0 0.1190384806
H  H8  1  0.99470000  0.41450000  0.14760000  1.0 0.1190384806
H  H9  1  0.41450000  0.14760000  0.99470000  1.0 0.1190384806
H  H10  1  0.85240000  0.58550000  0.00530000  1.0 0.1190384806
H  H11  1  0.58550000  0.00530000  0.85240000  1.0 0.1190384806
H  H12  1  0.00530000  0.85240000  0.58550000  1.0 0.1190384806
H  H13  1  0.00300000  0.78550000  0.47920000  1.0 0.1379796587
H  H14  1  0.78550000  0.47920000  0.00300000  1.0 0.1379796587
H  H15  1  0.47920000  0.00300000  0.78550000  1.0 0.1379796587
H  H16  1  0.99700000  0.52080000  0.21450000  1.0 0.1347949101
H  H17  1  0.52080000  0.21450000  0.99700000  1.0 0.1379796587
H  H18  1  0.21450000  0.99700000  0.52080000  1.0 0.1379796587
H  H19  1  0.99700000  0.21450000  0.52080000  1.0 0.1379796587
H  H20  1  0.21450000  0.52080000  0.99700000  1.0 0.1379796587
H  H21  1  0.52080000  0.99700000  0.21450000  1.0 0.1379796587
H  H22  1  0.00300000  0.47920000  0.78550000  1.0 0.1379796587
H  H23  1  0.47920000  0.78550000  0.00300000  1.0 0.1379796587
H  H24  1  0.78550000  0.00300000  0.47920000  1.0 0.1379796587
H  H25  1  0.77140000  0.77140000  0.46960000  1.0 0.1379796587
H  H26  1  0.77140000  0.46960000  0.77140000  1.0 0.1379796587
H  H27  1  0.46960000  0.77140000  0.77140000  1.0 0.1379796587
H  H28  1  0.22860000  0.53040000  0.22860000  1.0 0.1379796587
H  H29  1  0.53040000  0.22860000  0.22860000  1.0 0.1379796587
H  H30  1  0.22860000  0.22860000  0.53040000  1.0 0.1379796587
C  C1  1  0.91281000  0.00211000  0.54991000  1.0 -0.1225295967
C  C2  1  0.00211000  0.54991000  0.91281000  1.0 -0.1225295967
C  C3  1  0.54991000  0.91281000  0.00211000  1.0 -0.1225295967
C  C4  1  0.08719000  0.45009000  0.99789000  1.0 -0.1225295967
C  C5  1  0.45009000  0.99789000  0.08719000  1.0 -0.1225295967
C  C6  1  0.99789000  0.08719000  0.45009000  1.0 -0.1225295967
C  C7  1  0.08719000  0.99789000  0.45009000  1.0 -0.1225295967
C  C8  1  0.99789000  0.45009000  0.08719000  1.0 -0.1225295967
C  C9  1  0.45009000  0.08719000  0.99789000  1.0 -0.1225295967
C  C10  1  0.91281000  0.54991000  0.00211000  1.0 -0.1225295967
C  C11  1  0.54991000  0.00211000  0.91281000  1.0 -0.1225295967
C  C12  1  0.00211000  0.91281000  0.54991000  1.0 -0.1225295967
C  C13  1  0.95187000  0.03957000  0.44057000  1.0 0.1379796587
C  C14  1  0.03957000  0.44057000  0.95187000  1.0 0.1379796587
C  C15  1  0.44057000  0.95187000  0.03957000  1.0 0.1379796587
C  C16  1  0.04813000  0.55943000  0.96043000  1.0 0.1379796587
C  C17  1  0.55943000  0.96043000  0.04813000  1.0 0.1379796587
C  C18  1  0.96043000  0.04813000  0.55943000  1.0 0.1379796587
C  C19  1  0.04813000  0.96043000  0.55943000  1.0 0.1379796587
C  C20  1  0.96043000  0.55943000  0.04813000  1.0 0.1379796587
C  C21  1  0.55943000  0.04813000  0.96043000  1.0 0.1379796587
C  C22  1  0.95187000  0.44057000  0.03957000  1.0 0.1379796587
C  C23  1  0.44057000  0.03957000  0.95187000  1.0 0.1379796587
C  C24  1  0.03957000  0.95187000  0.44057000  1.0 0.1379796587
C  C25  1  0.95254000  0.95254000  0.48979000  1.0 -0.018743901
C  C26  1  0.95254000  0.48979000  0.95254000  1.0 -0.0276860575
C  C27  1  0.48979000  0.95254000  0.95254000  1.0 -0.0276860575
C  C28  1  0.04746000  0.51021000  0.04746000  1.0 -0.0276860575
C  C29  1  0.51021000  0.04746000  0.04746000  1.0 -0.018743901
C  C30  1  0.04746000  0.04746000  0.51021000  1.0 -0.0276860575
C  C31  1  0.90165000  0.90165000  0.48180000  1.0 0.0990933322
C  C32  1  0.90165000  0.48180000  0.90165000  1.0 0.0990933322
C  C33  1  0.48180000  0.90165000  0.90165000  1.0 0.0990933322
C  C34  1  0.09835000  0.51820000  0.09835000  1.0 0.0990933322
C  C35  1  0.51820000  0.09835000  0.09835000  1.0 0.0990933322
C  C36  1  0.09835000  0.09835000  0.51820000  1.0 0.0990933322
C  C37  1  0.94169000  0.81304000  0.47886000  1.0 -0.1411389477
C  C38  1  0.81304000  0.47886000  0.94169000  1.0 -0.1411389477
C  C39  1  0.47886000  0.94169000  0.81304000  1.0 -0.1411389477
C  C40  1  0.05831000  0.52114000  0.18696000  1.0 -0.1411389477
C  C41  1  0.52114000  0.18696000  0.05831000  1.0 -0.1411389477
C  C42  1  0.18696000  0.05831000  0.52114000  1.0 -0.1411389477
C  C43  1  0.05831000  0.18696000  0.52114000  1.0 -0.1411389477
C  C44  1  0.18696000  0.52114000  0.05831000  1.0 -0.1411389477
C  C45  1  0.52114000  0.05831000  0.18696000  1.0 -0.1411389477
C  C46  1  0.94169000  0.47886000  0.81304000  1.0 -0.1411389477
C  C47  1  0.47886000  0.81304000  0.94169000  1.0 -0.1411389477
C  C48  1  0.81304000  0.94169000  0.47886000  1.0 -0.1411389477
C  C49  1  0.89291000  0.76414000  0.47547000  1.0 -0.018743901
C  C50  1  0.76414000  0.47547000  0.89291000  1.0 -0.018743901
C  C51  1  0.47547000  0.89291000  0.76414000  1.0 -0.018743901
C  C52  1  0.10709000  0.52453000  0.23586000  1.0 -0.018743901
C  C53  1  0.52453000  0.23586000  0.10709000  1.0 -0.018743901
C  C54  1  0.23586000  0.10709000  0.52453000  1.0 -0.018743901
C  C55  1  0.10709000  0.23586000  0.52453000  1.0 -0.018743901
C  C56  1  0.23586000  0.52453000  0.10709000  1.0 -0.018743901
C  C57  1  0.52453000  0.10709000  0.23586000  1.0 -0.018743901
C  C58  1  0.89291000  0.47547000  0.76414000  1.0 -0.018743901
C  C59  1  0.47547000  0.76414000  0.89291000  1.0 -0.018743901
C  C60  1  0.76414000  0.89291000  0.47547000  1.0 -0.018743901
C  C61  1  0.80433000  0.80433000  0.47298000  1.0 -0.107897476
C  C62  1  0.80433000  0.47298000  0.80433000  1.0 -0.107897476
C  C63  1  0.47298000  0.80433000  0.80433000  1.0 -0.107897476
C  C64  1  0.19567000  0.52702000  0.19567000  1.0 -0.107897476
C  C65  1  0.52702000  0.19567000  0.19567000  1.0 -0.107897476
C  C66  1  0.19567000  0.19567000  0.52702000  1.0 -0.107897476
C  C67  1  0.93443000  0.66738000  0.47917000  1.0 0.5873083962
C  C68  1  0.66738000  0.47917000  0.93443000  1.0 0.5873083962
C  C69  1  0.47917000  0.93443000  0.66738000  1.0 0.5873083962
C  C70  1  0.06557000  0.52083000  0.33262000  1.0 0.5873083962
C  C71  1  0.52083000  0.33262000  0.06557000  1.0 0.5873083962
C  C72  1  0.33262000  0.06557000  0.52083000  1.0 0.5873083962
C  C73  1  0.06557000  0.33262000  0.52083000  1.0 0.5873083962
C  C74  1  0.33262000  0.52083000  0.06557000  1.0 0.5873083962
C  C75  1  0.52083000  0.06557000  0.33262000  1.0 0.5873083962
C  C76  1  0.93443000  0.47917000  0.66738000  1.0 0.5873083962
C  C77  1  0.47917000  0.66738000  0.93443000  1.0 0.5873083962
C  C78  1  0.66738000  0.93443000  0.47917000  1.0 0.5873083962
O  O1  1  0.88602000  0.62548000  0.47885000  1.0 -0.5230674023
O  O2  1  0.62548000  0.47885000  0.88602000  1.0 -0.5253364401
O  O3  1  0.47885000  0.88602000  0.62548000  1.0 -0.5230674023
O  O4  1  0.11398000  0.52115000  0.37452000  1.0 -0.5230674023
O  O5  1  0.52115000  0.37452000  0.11398000  1.0 -0.5230674023
O  O6  1  0.37452000  0.11398000  0.52115000  1.0 -0.5230674023
O  O7  1  0.11398000  0.37452000  0.52115000  1.0 -0.5230674023
O  O8  1  0.37452000  0.52115000  0.11398000  1.0 -0.5230674023
O  O9  1  0.52115000  0.11398000  0.37452000  1.0 -0.5230674023
O  O10  1  0.88602000  0.47885000  0.62548000  1.0 -0.5253364401
O  O11  1  0.47885000  0.62548000  0.88602000  1.0 -0.5230674023
O  O12  1  0.62548000  0.88602000  0.47885000  1.0 -0.5230674023
O  O13  1  0.01405000  0.63259000  0.48540000  1.0 -0.5230674023
O  O14  1  0.63259000  0.48540000  0.01405000  1.0 -0.5230674023
O  O15  1  0.48540000  0.01405000  0.63259000  1.0 -0.5230674023
O  O16  1  0.98595000  0.51460000  0.36741000  1.0 -0.5230674023
O  O17  1  0.51460000  0.36741000  0.98595000  1.0 -0.5230674023
O  O18  1  0.36741000  0.98595000  0.51460000  1.0 -0.5230674023
O  O19  1  0.98595000  0.36741000  0.51460000  1.0 -0.5230674023
O  O20  1  0.36741000  0.51460000  0.98595000  1.0 -0.5230674023
O  O21  1  0.51460000  0.98595000  0.36741000  1.0 -0.5230674023
O  O22  1  0.01405000  0.48540000  0.63259000  1.0 -0.5230674023
O  O23  1  0.48540000  0.63259000  0.01405000  1.0 -0.5230674023
O  O24  1  0.63259000  0.01405000  0.48540000  1.0 -0.5230674023
F  F1  1  0.90530000  0.08310000  0.37680000  1.0 -0.148009185
F  F2  1  0.08310000  0.37680000  0.90530000  1.0 -0.1411389477
F  F3  1  0.37680000  0.90530000  0.08310000  1.0 -0.1411389477
F  F4  1  0.09470000  0.62320000  0.91690000  1.0 -0.148009185
F  F5  1  0.62320000  0.91690000  0.09470000  1.0 -0.148009185
F  F6  1  0.91690000  0.09470000  0.62320000  1.0 -0.148009185
F  F7  1  0.09470000  0.91690000  0.62320000  1.0 -0.148009185
F  F8  1  0.91690000  0.62320000  0.09470000  1.0 -0.148009185
F  F9  1  0.62320000  0.09470000  0.91690000  1.0 -0.148009185
F  F10  1  0.90530000  0.37680000  0.08310000  1.0 -0.148009185
F  F11  1  0.37680000  0.08310000  0.90530000  1.0 -0.1411389477
F  F12  1  0.08310000  0.90530000  0.37680000  1.0 -0.148009185
