# DDEC6 charges by PACMAN v1.1 (https://github.com/mtap-research/PACMAN-charge/)
data_PUBSIP_ASR_pacman
_symmetry_space_group_name_H-M   'P 1'
_cell_length_a   16.79050000
_cell_length_b   16.79050000
_cell_length_c   16.79050000
_cell_angle_alpha   66.96060000
_cell_angle_beta   66.96060000
_cell_angle_gamma   66.96060000
_symmetry_Int_Tables_number   1
_chemical_formula_structural   CuH3C13(OF)4
_chemical_formula_sum   'Cu6 H18 C78 O24 F24'
_cell_volume   3846.72422614
_cell_formula_units_Z   6
loop_
 _symmetry_equiv_pos_site_id
 _symmetry_equiv_pos_as_xyz
  1  'x, y, z'
loop_
 _atom_site_type_symbol
 _atom_site_label
 _atom_site_symmetry_multiplicity
 _atom_site_fract_x
 _atom_site_fract_y
 _atom_site_fract_z
 _atom_site_occupancy
 _atom_site_charge
Cu  Cu1  1  0.49648000  0.49649000  0.92406000  1.0 0.8804668957
Cu  Cu2  1  0.49648000  0.92406000  0.49648000  1.0 0.8804668957
Cu  Cu3  1  0.92406000  0.49649000  0.49648000  1.0 0.8804668957
Cu  Cu4  1  0.50352000  0.07594000  0.50352000  1.0 0.8804668957
Cu  Cu5  1  0.07594000  0.50352000  0.50352000  1.0 0.8804668957
Cu  Cu6  1  0.50352000  0.50352000  0.07594000  1.0 0.8804668957
H  H1  1  0.52880000  0.22805000  0.22805000  1.0 0.1420198462
H  H2  1  0.22805000  0.22805000  0.52880000  1.0 0.1420198462
H  H3  1  0.22805000  0.52880000  0.22805000  1.0 0.1420198462
H  H4  1  0.47120000  0.77195000  0.77195000  1.0 0.1420198462
H  H5  1  0.77195000  0.77195000  0.47120000  1.0 0.1420198462
H  H6  1  0.77195000  0.47120000  0.77195000  1.0 0.1420198462
H  H7  1  0.51880000  0.21560000  0.99610000  1.0 0.1420198462
H  H8  1  0.21560000  0.99610000  0.51880000  1.0 0.1420198462
H  H9  1  0.99610000  0.51880000  0.21560000  1.0 0.1420198462
H  H10  1  0.48120000  0.00390000  0.78440000  1.0 0.1420198462
H  H11  1  0.00390000  0.78440000  0.48120000  1.0 0.1420198462
H  H12  1  0.78440000  0.48120000  0.00390000  1.0 0.1420198462
H  H13  1  0.48120000  0.78440000  0.00390000  1.0 0.1420198462
H  H14  1  0.78440000  0.00390000  0.48120000  1.0 0.1420198462
H  H15  1  0.00390000  0.48120000  0.78440000  1.0 0.1420198462
H  H16  1  0.51880000  0.99610000  0.21560000  1.0 0.1420198462
H  H17  1  0.99610000  0.21560000  0.51880000  1.0 0.1420198462
H  H18  1  0.21560000  0.51880000  0.99610000  1.0 0.1420198462
C  C1  1  0.52130000  0.33284000  0.06374000  1.0 0.5909082019
C  C2  1  0.33284000  0.06374000  0.52130000  1.0 0.5909082019
C  C3  1  0.06374000  0.52130000  0.33284000  1.0 0.5909082019
C  C4  1  0.47870000  0.93626000  0.66716000  1.0 0.5909082019
C  C5  1  0.93626000  0.66716000  0.47870000  1.0 0.5909082019
C  C6  1  0.66716000  0.47870000  0.93626000  1.0 0.5909082019
C  C7  1  0.47870000  0.66716000  0.93626000  1.0 0.5909082019
C  C8  1  0.66716000  0.93626000  0.47870000  1.0 0.5909082019
C  C9  1  0.93626000  0.47870000  0.66716000  1.0 0.5909082019
C  C10  1  0.52130000  0.06374000  0.33284000  1.0 0.5909082019
C  C11  1  0.06374000  0.33284000  0.52130000  1.0 0.5909082019
C  C12  1  0.33284000  0.52130000  0.06374000  1.0 0.5909082019
C  C13  1  0.52560000  0.23500000  0.10535000  1.0 -0.0088349244
C  C14  1  0.23500000  0.10535000  0.52560000  1.0 -0.0088349244
C  C15  1  0.10535000  0.52560000  0.23500000  1.0 -0.0088349244
C  C16  1  0.47440000  0.89465000  0.76500000  1.0 -0.0088349244
C  C17  1  0.89465000  0.76500000  0.47440000  1.0 -0.0088349244
C  C18  1  0.76500000  0.47440000  0.89465000  1.0 -0.0088349244
C  C19  1  0.47440000  0.76500000  0.89465000  1.0 -0.0088349244
C  C20  1  0.76500000  0.89465000  0.47440000  1.0 -0.0088349244
C  C21  1  0.89465000  0.47440000  0.76500000  1.0 -0.0088349244
C  C22  1  0.52560000  0.10535000  0.23500000  1.0 -0.0088349244
C  C23  1  0.10535000  0.23500000  0.52560000  1.0 -0.0088349244
C  C24  1  0.23500000  0.52560000  0.10535000  1.0 -0.0088349244
C  C25  1  0.52695000  0.19476000  0.19476000  1.0 -0.0978209118
C  C26  1  0.19476000  0.19476000  0.52695000  1.0 -0.0978209118
C  C27  1  0.19476000  0.52695000  0.19476000  1.0 -0.0978209118
C  C28  1  0.47305000  0.80524000  0.80524000  1.0 -0.0978209118
C  C29  1  0.80524000  0.80524000  0.47305000  1.0 -0.0978209118
C  C30  1  0.80524000  0.47305000  0.80524000  1.0 -0.0978209118
C  C31  1  0.52055000  0.18757000  0.05694000  1.0 -0.142387019
C  C32  1  0.18757000  0.05694000  0.52055000  1.0 -0.142387019
C  C33  1  0.05694000  0.52055000  0.18757000  1.0 -0.142387019
C  C34  1  0.47945000  0.94306000  0.81243000  1.0 -0.142387019
C  C35  1  0.94306000  0.81243000  0.47945000  1.0 -0.142387019
C  C36  1  0.81243000  0.47945000  0.94306000  1.0 -0.142387019
C  C37  1  0.47945000  0.81243000  0.94306000  1.0 -0.142387019
C  C38  1  0.81243000  0.94306000  0.47945000  1.0 -0.142387019
C  C39  1  0.94306000  0.47945000  0.81243000  1.0 -0.142387019
C  C40  1  0.52055000  0.05694000  0.18757000  1.0 -0.142387019
C  C41  1  0.05694000  0.18757000  0.52055000  1.0 -0.142387019
C  C42  1  0.18757000  0.52055000  0.05694000  1.0 -0.142387019
C  C43  1  0.51794000  0.09830000  0.09830000  1.0 0.1157871297
C  C44  1  0.09830000  0.09830000  0.51794000  1.0 0.1134604289
C  C45  1  0.09830000  0.51794000  0.09830000  1.0 0.1134604289
C  C46  1  0.48206000  0.90170000  0.90170000  1.0 0.1134604289
C  C47  1  0.90170000  0.90170000  0.48206000  1.0 0.1134604289
C  C48  1  0.90170000  0.48206000  0.90170000  1.0 0.1157871297
C  C49  1  0.50908000  0.04789000  0.04789000  1.0 -0.0468405763
C  C50  1  0.04789000  0.04789000  0.50908000  1.0 -0.0468405763
C  C51  1  0.04789000  0.50908000  0.04789000  1.0 -0.0468405763
C  C52  1  0.49092000  0.95211000  0.95211000  1.0 -0.0449777582
C  C53  1  0.95211000  0.95211000  0.49092000  1.0 -0.0468405763
C  C54  1  0.95211000  0.49092000  0.95211000  1.0 -0.0468405763
C  C55  1  0.44254000  0.00574000  0.08074000  1.0 0.0694128711
C  C56  1  0.00574000  0.08074000  0.44254000  1.0 0.0694128711
C  C57  1  0.08074000  0.44254000  0.00574000  1.0 0.0694128711
C  C58  1  0.55746000  0.91926000  0.99426000  1.0 0.0694128711
C  C59  1  0.91926000  0.99426000  0.55746000  1.0 0.0694128711
C  C60  1  0.99426000  0.55746000  0.91926000  1.0 0.0694128711
C  C61  1  0.55746000  0.99426000  0.91926000  1.0 0.0694128711
C  C62  1  0.99426000  0.91926000  0.55746000  1.0 0.0694128711
C  C63  1  0.91926000  0.55746000  0.99426000  1.0 0.0694128711
C  C64  1  0.44254000  0.08074000  0.00574000  1.0 0.0694128711
C  C65  1  0.08074000  0.00574000  0.44254000  1.0 0.0694128711
C  C66  1  0.00574000  0.44254000  0.08074000  1.0 0.0694128711
C  C67  1  0.56719000  0.04009000  0.96419000  1.0 0.0821370289
C  C68  1  0.04009000  0.96419000  0.56719000  1.0 0.0821370289
C  C69  1  0.96419000  0.56719000  0.04009000  1.0 0.0821370289
C  C70  1  0.43281000  0.03581000  0.95991000  1.0 0.0821370289
C  C71  1  0.03581000  0.95991000  0.43281000  1.0 0.0821370289
C  C72  1  0.95991000  0.43281000  0.03581000  1.0 0.0821370289
C  C73  1  0.43281000  0.95991000  0.03581000  1.0 0.0821370289
C  C74  1  0.95991000  0.03581000  0.43281000  1.0 0.0821370289
C  C75  1  0.03581000  0.43281000  0.95991000  1.0 0.0821370289
C  C76  1  0.56719000  0.96419000  0.04009000  1.0 0.0821370289
C  C77  1  0.96419000  0.04009000  0.56719000  1.0 0.0821370289
C  C78  1  0.04009000  0.56719000  0.96419000  1.0 0.0821370289
O  O1  1  0.51546000  0.36731000  0.98444000  1.0 -0.5094715135
O  O2  1  0.36731000  0.98444000  0.51546000  1.0 -0.5094715135
O  O3  1  0.98444000  0.51546000  0.36731000  1.0 -0.5094715135
O  O4  1  0.48454000  0.01556000  0.63269000  1.0 -0.5094715135
O  O5  1  0.01556000  0.63269000  0.48454000  1.0 -0.5094715135
O  O6  1  0.63269000  0.48454000  0.01556000  1.0 -0.5094715135
O  O7  1  0.48454000  0.63269000  0.01556000  1.0 -0.5094715135
O  O8  1  0.63269000  0.01556000  0.48454000  1.0 -0.5094715135
O  O9  1  0.01556000  0.48454000  0.63269000  1.0 -0.5094715135
O  O10  1  0.51546000  0.98444000  0.36731000  1.0 -0.5094715135
O  O11  1  0.98444000  0.36731000  0.51546000  1.0 -0.5094715135
O  O12  1  0.36731000  0.51546000  0.98444000  1.0 -0.5094715135
O  O13  1  0.52089000  0.37376000  0.11320000  1.0 -0.5245502031
O  O14  1  0.37376000  0.11320000  0.52089000  1.0 -0.5245502031
O  O15  1  0.11320000  0.52089000  0.37376000  1.0 -0.5245502031
O  O16  1  0.47911000  0.88680000  0.62624000  1.0 -0.5245502031
O  O17  1  0.88680000  0.62624000  0.47911000  1.0 -0.5245502031
O  O18  1  0.62624000  0.47911000  0.88680000  1.0 -0.5258396791
O  O19  1  0.47911000  0.62624000  0.88680000  1.0 -0.5245502031
O  O20  1  0.62624000  0.88680000  0.47911000  1.0 -0.5245502031
O  O21  1  0.88680000  0.47911000  0.62624000  1.0 -0.5245502031
O  O22  1  0.52089000  0.11320000  0.37376000  1.0 -0.5245502031
O  O23  1  0.11320000  0.37376000  0.52089000  1.0 -0.5245502031
O  O24  1  0.37376000  0.52089000  0.11320000  1.0 -0.5245502031
F  F1  1  0.38067000  0.01177000  0.16217000  1.0 -0.0978209118
F  F2  1  0.01177000  0.16217000  0.38067000  1.0 -0.0978209118
F  F3  1  0.16217000  0.38067000  0.01177000  1.0 -0.0978209118
F  F4  1  0.61933000  0.83783000  0.98823000  1.0 -0.0978209118
F  F5  1  0.83783000  0.98823000  0.61933000  1.0 -0.0978209118
F  F6  1  0.98823000  0.61933000  0.83783000  1.0 -0.0978209118
F  F7  1  0.61933000  0.98823000  0.83783000  1.0 -0.0978209118
F  F8  1  0.98823000  0.83783000  0.61933000  1.0 -0.0978209118
F  F9  1  0.83783000  0.61933000  0.98823000  1.0 -0.0978209118
F  F10  1  0.38067000  0.16217000  0.01177000  1.0 -0.0978209118
F  F11  1  0.16217000  0.01177000  0.38067000  1.0 -0.0978209118
F  F12  1  0.01177000  0.38067000  0.16217000  1.0 -0.0978209118
F  F13  1  0.63600000  0.07780000  0.92670000  1.0 -0.0978209118
F  F14  1  0.07780000  0.92670000  0.63600000  1.0 -0.0978209118
F  F15  1  0.92670000  0.63600000  0.07780000  1.0 -0.0978209118
F  F16  1  0.36400000  0.07330000  0.92220000  1.0 -0.0978209118
F  F17  1  0.07330000  0.92220000  0.36400000  1.0 -0.0978209118
F  F18  1  0.92220000  0.36400000  0.07330000  1.0 -0.0978209118
F  F19  1  0.36400000  0.92220000  0.07330000  1.0 -0.0978209118
F  F20  1  0.92220000  0.07330000  0.36400000  1.0 -0.0938713254
F  F21  1  0.07330000  0.36400000  0.92220000  1.0 -0.0978209118
F  F22  1  0.63600000  0.92670000  0.07780000  1.0 -0.0978209118
F  F23  1  0.92670000  0.07780000  0.63600000  1.0 -0.0978209118
F  F24  1  0.07780000  0.63600000  0.92670000  1.0 -0.0978209118
