# DDEC6 charges by PACMAN v1.1 (https://github.com/mtap-research/PACMAN-charge/)
data_PUCKUV_FSR_pacman
_symmetry_space_group_name_H-M   'P 1'
_cell_length_a   8.83830000
_cell_length_b   18.45430000
_cell_length_c   19.74800000
_cell_angle_alpha   90.00000000
_cell_angle_beta   113.98600000
_cell_angle_gamma   90.00000000
_symmetry_Int_Tables_number   1
_chemical_formula_structural   Dy2H6C18N2O19
_chemical_formula_sum   'Dy8 H24 C72 N8 O76'
_cell_volume   2942.84120021
_cell_formula_units_Z   4
loop_
 _symmetry_equiv_pos_site_id
 _symmetry_equiv_pos_as_xyz
  1  'x, y, z'
loop_
 _atom_site_type_symbol
 _atom_site_label
 _atom_site_symmetry_multiplicity
 _atom_site_fract_x
 _atom_site_fract_y
 _atom_site_fract_z
 _atom_site_occupancy
 _atom_site_charge
Dy  Dy1  1  0.10454000  0.31496000  0.84075000  1.0 1.9902510792
Dy  Dy2  1  0.89546000  0.81496000  0.65925000  1.0 1.9902510792
Dy  Dy3  1  0.89546000  0.68504000  0.15925000  1.0 1.9902510792
Dy  Dy4  1  0.10454000  0.18504000  0.34075000  1.0 1.9902510792
Dy  Dy5  1  0.58172000  0.20404000  0.29159000  1.0 2.0758894831
Dy  Dy6  1  0.41828000  0.70404000  0.20841000  1.0 2.0758894831
Dy  Dy7  1  0.41828000  0.79596000  0.70841000  1.0 2.0758894831
Dy  Dy8  1  0.58172000  0.29596000  0.79159000  1.0 2.0758894831
H  H1  1  0.70800000  0.14990000  0.98410000  1.0 0.1497084822
H  H2  1  0.29200000  0.64990000  0.51590000  1.0 0.1497084822
H  H3  1  0.29200000  0.85010000  0.01590000  1.0 0.1497084822
H  H4  1  0.70800000  0.35010000  0.48410000  1.0 0.1497084822
H  H5  1  0.84360000  0.11770000  0.11900000  1.0 0.1497084822
H  H6  1  0.15640000  0.61770000  0.38100000  1.0 0.1497084822
H  H7  1  0.15640000  0.88230000  0.88100000  1.0 0.1497084822
H  H8  1  0.84360000  0.38230000  0.61900000  1.0 0.1497084822
H  H9  1  0.00510000  0.52240000  0.27790000  1.0 0.1497084822
H  H10  1  0.99490000  0.02240000  0.22210000  1.0 0.1497084822
H  H11  1  0.99490000  0.47760000  0.72210000  1.0 0.1497084822
H  H12  1  0.00510000  0.97760000  0.77790000  1.0 0.1497084822
H  H13  1  0.05010000  0.39140000  0.32010000  1.0 0.1645518393
H  H14  1  0.94990000  0.89140000  0.17990000  1.0 0.1645518393
H  H15  1  0.94990000  0.60860000  0.67990000  1.0 0.1645518393
H  H16  1  0.05010000  0.10860000  0.82010000  1.0 0.1645518393
H  H17  1  0.85960000  0.13230000  0.50230000  1.0 0.1284275055
H  H18  1  0.14040000  0.63230000  0.99770000  1.0 0.1284275055
H  H19  1  0.14040000  0.86770000  0.49770000  1.0 0.1284275055
H  H20  1  0.85960000  0.36770000  0.00230000  1.0 0.1284275055
H  H21  1  0.00530000  0.16170000  0.64000000  1.0 0.1406742186
H  H22  1  0.99470000  0.66170000  0.86000000  1.0 0.1406742186
H  H23  1  0.99470000  0.83830000  0.36000000  1.0 0.1406742186
H  H24  1  0.00530000  0.33830000  0.14000000  1.0 0.1406742186
C  C1  1  0.93250000  0.22350000  0.92920000  1.0 0.6218504012
C  C2  1  0.06750000  0.72350000  0.57080000  1.0 0.6218504012
C  C3  1  0.06750000  0.77650000  0.07080000  1.0 0.6218504012
C  C4  1  0.93250000  0.27650000  0.42920000  1.0 0.6218504012
C  C5  1  0.93590000  0.19170000  0.99980000  1.0 0.1073338874
C  C6  1  0.06410000  0.69170000  0.50020000  1.0 0.1073338874
C  C7  1  0.06410000  0.80830000  0.00020000  1.0 0.1073338874
C  C8  1  0.93590000  0.30830000  0.49980000  1.0 0.1073338874
C  C9  1  0.81740000  0.15860000  0.01630000  1.0 -0.1770360246
C  C10  1  0.18260000  0.65860000  0.48370000  1.0 -0.1770360246
C  C11  1  0.18260000  0.84140000  0.98370000  1.0 -0.1770360246
C  C12  1  0.81740000  0.34140000  0.51630000  1.0 -0.1770360246
C  C13  1  0.89320000  0.14040000  0.09120000  1.0 -0.1710663661
C  C14  1  0.10680000  0.64040000  0.40880000  1.0 -0.1710663661
C  C15  1  0.10680000  0.85960000  0.90880000  1.0 -0.1710663661
C  C16  1  0.89320000  0.35960000  0.59120000  1.0 -0.1710663661
C  C17  1  0.05190000  0.16210000  0.11550000  1.0 0.0924360753
C  C18  1  0.94810000  0.66210000  0.38450000  1.0 0.0924360753
C  C19  1  0.94810000  0.83790000  0.88450000  1.0 0.0924360753
C  C20  1  0.05190000  0.33790000  0.61550000  1.0 0.0924360753
C  C21  1  0.18740000  0.16320000  0.19160000  1.0 0.6282203943
C  C22  1  0.81260000  0.66320000  0.30840000  1.0 0.6282203943
C  C23  1  0.81260000  0.83680000  0.80840000  1.0 0.6282203943
C  C24  1  0.18740000  0.33680000  0.69160000  1.0 0.6282203943
C  C25  1  0.26710000  0.57640000  0.23320000  1.0 0.5518827439
C  C26  1  0.73290000  0.07640000  0.26680000  1.0 0.5518827439
C  C27  1  0.73290000  0.42360000  0.76680000  1.0 0.5518827439
C  C28  1  0.26710000  0.92360000  0.73320000  1.0 0.5518827439
C  C29  1  0.21680000  0.51050000  0.25980000  1.0 0.0477022734
C  C30  1  0.78320000  0.01050000  0.24020000  1.0 0.0477022734
C  C31  1  0.78320000  0.48950000  0.74020000  1.0 0.0477022734
C  C32  1  0.21680000  0.98950000  0.75980000  1.0 0.0477022734
C  C33  1  0.09090000  0.49230000  0.27940000  1.0 -0.1892667617
C  C34  1  0.90910000  0.99230000  0.22060000  1.0 -0.1892667617
C  C35  1  0.90910000  0.50770000  0.72060000  1.0 -0.1892667617
C  C36  1  0.09090000  0.00770000  0.77940000  1.0 -0.1892667617
C  C37  1  0.11560000  0.41850000  0.30270000  1.0 -0.1571451686
C  C38  1  0.88440000  0.91850000  0.19730000  1.0 -0.1571451686
C  C39  1  0.88440000  0.58150000  0.69730000  1.0 -0.1571451686
C  C40  1  0.11560000  0.08150000  0.80270000  1.0 -0.1571451686
C  C41  1  0.25220000  0.39550000  0.29450000  1.0 0.0831997861
C  C42  1  0.74780000  0.89550000  0.20550000  1.0 0.0831997861
C  C43  1  0.74780000  0.60450000  0.70550000  1.0 0.0831997861
C  C44  1  0.25220000  0.10450000  0.79450000  1.0 0.0831997861
C  C45  1  0.33250000  0.32390000  0.30650000  1.0 0.6068785638
C  C46  1  0.66750000  0.82390000  0.19350000  1.0 0.6068785638
C  C47  1  0.66750000  0.67610000  0.69350000  1.0 0.6068785638
C  C48  1  0.33250000  0.17610000  0.80650000  1.0 0.6068785638
C  C49  1  0.50370000  0.16560000  0.44180000  1.0 0.6282203943
C  C50  1  0.49630000  0.66560000  0.05820000  1.0 0.6282203943
C  C51  1  0.49630000  0.83440000  0.55820000  1.0 0.6282203943
C  C52  1  0.50370000  0.33440000  0.94180000  1.0 0.6282203943
C  C53  1  0.65090000  0.16940000  0.51290000  1.0 0.070236589
C  C54  1  0.34910000  0.66940000  0.98710000  1.0 0.070236589
C  C55  1  0.34910000  0.83060000  0.48710000  1.0 0.070236589
C  C56  1  0.65090000  0.33060000  0.01290000  1.0 0.070236589
C  C57  1  0.81200000  0.15150000  0.53260000  1.0 -0.247017458
C  C58  1  0.18800000  0.65150000  0.96740000  1.0 -0.247017458
C  C59  1  0.18800000  0.84850000  0.46740000  1.0 -0.247017458
C  C60  1  0.81200000  0.34850000  0.03260000  1.0 -0.247017458
C  C61  1  0.89360000  0.16860000  0.60990000  1.0 -0.1892667617
C  C62  1  0.10640000  0.66860000  0.89010000  1.0 -0.1892667617
C  C63  1  0.10640000  0.83140000  0.39010000  1.0 -0.1892667617
C  C64  1  0.89360000  0.33140000  0.10990000  1.0 -0.1892667617
C  C65  1  0.77850000  0.19640000  0.63090000  1.0 0.0637005791
C  C66  1  0.22150000  0.69640000  0.86910000  1.0 0.0637005791
C  C67  1  0.22150000  0.80360000  0.36910000  1.0 0.0637005791
C  C68  1  0.77850000  0.30360000  0.13090000  1.0 0.070236589
C  C69  1  0.78870000  0.22500000  0.70180000  1.0 0.6218504012
C  C70  1  0.21130000  0.72500000  0.79820000  1.0 0.6218504012
C  C71  1  0.21130000  0.77500000  0.29820000  1.0 0.6218504012
C  C72  1  0.78870000  0.27500000  0.20180000  1.0 0.6218504012
N  N1  1  0.05690000  0.44580000  0.90790000  1.0 0.4192383141
N  N2  1  0.94310000  0.94580000  0.59210000  1.0 0.4192383141
N  N3  1  0.94310000  0.55420000  0.09210000  1.0 0.4192383141
N  N4  1  0.05690000  0.05420000  0.40790000  1.0 0.4192383141
N  N5  1  0.13890000  0.44110000  0.92590000  1.0 0.4192383141
N  N6  1  0.86110000  0.94110000  0.57410000  1.0 0.4192383141
N  N7  1  0.86110000  0.55890000  0.07410000  1.0 0.4192383141
N  N8  1  0.13890000  0.05890000  0.42590000  1.0 0.4192383141
O  O1  1  0.06640000  0.23620000  0.92480000  1.0 -0.6198884099
O  O2  1  0.93360000  0.73620000  0.57520000  1.0 -0.6198884099
O  O3  1  0.93360000  0.76380000  0.07520000  1.0 -0.6198884099
O  O4  1  0.06640000  0.26380000  0.42480000  1.0 -0.6198884099
O  O5  1  0.78960000  0.23600000  0.88040000  1.0 -0.7064984366
O  O6  1  0.21040000  0.73600000  0.61960000  1.0 -0.7064984366
O  O7  1  0.21040000  0.76400000  0.11960000  1.0 -0.7064984366
O  O8  1  0.78960000  0.26400000  0.38040000  1.0 -0.7064984366
O  O9  1  0.08220000  0.19280000  0.05960000  1.0 -0.0886969789
O  O10  1  0.91780000  0.69280000  0.44040000  1.0 -0.0886969789
O  O11  1  0.91780000  0.80720000  0.94040000  1.0 -0.0886969789
O  O12  1  0.08220000  0.30720000  0.55960000  1.0 -0.0886969789
O  O13  1  0.15090000  0.13920000  0.24290000  1.0 -0.6756508201
O  O14  1  0.84910000  0.63920000  0.25710000  1.0 -0.6756508201
O  O15  1  0.84910000  0.86080000  0.75710000  1.0 -0.6756508201
O  O16  1  0.15090000  0.36080000  0.74290000  1.0 -0.6756508201
O  O17  1  0.32580000  0.18610000  0.19810000  1.0 -0.6305852011
O  O18  1  0.67420000  0.68610000  0.30190000  1.0 -0.6305852011
O  O19  1  0.67420000  0.81390000  0.80190000  1.0 -0.6305852011
O  O20  1  0.32580000  0.31390000  0.69810000  1.0 -0.6305852011
O  O21  1  0.17360000  0.63120000  0.21750000  1.0 -0.7281848341
O  O22  1  0.82640000  0.13120000  0.28250000  1.0 -0.7281848341
O  O23  1  0.82640000  0.36880000  0.78250000  1.0 -0.7281848341
O  O24  1  0.17360000  0.86880000  0.71750000  1.0 -0.7281848341
O  O25  1  0.40370000  0.57780000  0.22680000  1.0 -0.5938100218
O  O26  1  0.59630000  0.07780000  0.27320000  1.0 -0.5938100218
O  O27  1  0.59630000  0.42220000  0.77320000  1.0 -0.5938100218
O  O28  1  0.40370000  0.92220000  0.72680000  1.0 -0.5938100218
O  O29  1  0.31860000  0.45020000  0.26860000  1.0 -0.0826878138
O  O30  1  0.68140000  0.95020000  0.23140000  1.0 -0.0826878138
O  O31  1  0.68140000  0.54980000  0.73140000  1.0 -0.0826878138
O  O32  1  0.31860000  0.04980000  0.76860000  1.0 -0.0826878138
O  O33  1  0.27410000  0.27540000  0.33320000  1.0 -0.6600057674
O  O34  1  0.72590000  0.77540000  0.16680000  1.0 -0.6600057674
O  O35  1  0.72590000  0.72460000  0.66680000  1.0 -0.6600057674
O  O36  1  0.27410000  0.22460000  0.83320000  1.0 -0.6600057674
O  O37  1  0.45470000  0.31650000  0.28910000  1.0 -0.6108514518
O  O38  1  0.54530000  0.81650000  0.21090000  1.0 -0.6108514518
O  O39  1  0.54530000  0.68350000  0.71090000  1.0 -0.6108514518
O  O40  1  0.45470000  0.18350000  0.78910000  1.0 -0.6108514518
O  O41  1  0.53150000  0.15580000  0.38450000  1.0 -0.7064984366
O  O42  1  0.46850000  0.65580000  0.11550000  1.0 -0.7064984366
O  O43  1  0.46850000  0.84420000  0.61550000  1.0 -0.7064984366
O  O44  1  0.53150000  0.34420000  0.88450000  1.0 -0.7064984366
O  O45  1  0.36380000  0.17150000  0.44270000  1.0 -0.6198884099
O  O46  1  0.63620000  0.67150000  0.05730000  1.0 -0.6198884099
O  O47  1  0.63620000  0.82850000  0.55730000  1.0 -0.6198884099
O  O48  1  0.36380000  0.32850000  0.94270000  1.0 -0.6198884099
O  O49  1  0.62450000  0.19620000  0.57180000  1.0 -0.1049488484
O  O50  1  0.37550000  0.69620000  0.92820000  1.0 -0.1052789315
O  O51  1  0.37550000  0.80380000  0.42820000  1.0 -0.1052789315
O  O52  1  0.62450000  0.30380000  0.07180000  1.0 -0.1052789315
O  O53  1  0.65490000  0.23650000  0.70820000  1.0 -0.6305852011
O  O54  1  0.34510000  0.73650000  0.79180000  1.0 -0.6305852011
O  O55  1  0.34510000  0.76350000  0.29180000  1.0 -0.6305852011
O  O56  1  0.65490000  0.26350000  0.20820000  1.0 -0.6305852011
O  O57  1  0.93100000  0.23640000  0.75020000  1.0 -0.6600057674
O  O58  1  0.06900000  0.73640000  0.74980000  1.0 -0.6600057674
O  O59  1  0.06900000  0.76360000  0.24980000  1.0 -0.6600057674
O  O60  1  0.93100000  0.26360000  0.25020000  1.0 -0.654521808
O  O61  1  0.14650000  0.44390000  0.86550000  1.0 -0.289728865
O  O62  1  0.85350000  0.94390000  0.63450000  1.0 -0.289728865
O  O63  1  0.85350000  0.55610000  0.13450000  1.0 -0.289728865
O  O64  1  0.14650000  0.05610000  0.36550000  1.0 -0.289728865
O  O65  1  0.04620000  0.38610000  0.93190000  1.0 -0.289728865
O  O66  1  0.95380000  0.88610000  0.56810000  1.0 -0.289728865
O  O67  1  0.95380000  0.61390000  0.06810000  1.0 -0.289728865
O  O68  1  0.04620000  0.11390000  0.43190000  1.0 -0.289728865
O  O69  1  0.00500000  0.50110000  0.92300000  1.0 -0.0295021599
O  O70  1  0.99500000  0.00110000  0.57700000  1.0 -0.0295021599
O  O71  1  0.99500000  0.49890000  0.07700000  1.0 -0.0295021599
O  O72  1  0.00500000  0.99890000  0.42300000  1.0 -0.0295021599
O  O73  1  0.16070000  0.49730000  0.96670000  1.0 -0.0560232028
O  O74  1  0.83930000  0.99730000  0.53330000  1.0 -0.0542185772
O  O75  1  0.83930000  0.50270000  0.03330000  1.0 -0.0542185772
O  O76  1  0.16070000  0.00270000  0.46670000  1.0 -0.0560232028
