# DDEC6 charges by PACMAN v1.1 (https://github.com/mtap-research/PACMAN-charge/)
data_PUCRIR_ion_pacman
_symmetry_space_group_name_H-M   'P 1'
_cell_length_a   13.43990000
_cell_length_b   13.54980000
_cell_length_c   14.49000000
_cell_angle_alpha   111.01200000
_cell_angle_beta   89.98900000
_cell_angle_gamma   111.32200000
_symmetry_Int_Tables_number   1
_chemical_formula_structural   EuAgH8PtC16(N2O)4
_chemical_formula_sum   'Eu4 Ag4 H32 Pt4 C64 N32 O16'
_cell_volume   2268.81498891
_cell_formula_units_Z   4
loop_
 _symmetry_equiv_pos_site_id
 _symmetry_equiv_pos_as_xyz
  1  'x, y, z'
loop_
 _atom_site_type_symbol
 _atom_site_label
 _atom_site_symmetry_multiplicity
 _atom_site_fract_x
 _atom_site_fract_y
 _atom_site_fract_z
 _atom_site_occupancy
 _atom_site_charge
Eu  Eu1  1  0.17009000  0.29362000  0.42591000  1.0 2.017649981
Eu  Eu2  1  0.82219000  0.70656000  0.06915000  1.0 1.9922588196
Eu  Eu3  1  0.82991000  0.70638000  0.57409000  1.0 2.017649981
Eu  Eu4  1  0.17781000  0.29344000  0.93085000  1.0 1.9922588196
Ag  Ag1  1  0.27780000  0.81620000  0.35690000  1.0 0.1771886263
Ag  Ag2  1  0.56260000  0.18430000  0.14530000  1.0 0.1771886263
Ag  Ag3  1  0.72220000  0.18380000  0.64310000  1.0 0.1771886263
Ag  Ag4  1  0.43740000  0.81570000  0.85470000  1.0 0.1771886263
H  H1  1  0.62918000  0.37831000  0.51556000  1.0 0.1688751865
H  H2  1  0.46399000  0.38244000  0.51248000  1.0 0.148330272
H  H3  1  0.16357000  0.95013000  0.15053000  1.0 0.1617505353
H  H4  1  0.21497000  0.61862000  0.99378000  1.0 0.1617505353
H  H5  1  0.93483000  0.37351000  0.38729000  1.0 0.1406046089
H  H6  1  0.83683000  0.05302000  0.35505000  1.0 0.1617505353
H  H7  1  0.33718000  0.04556000  0.35693000  1.0 0.1406046089
H  H8  1  0.35396000  0.61515000  0.08256000  1.0 0.1688751865
H  H9  1  0.65429000  0.93578000  0.14256000  1.0 0.148330272
H  H10  1  0.76001000  0.37472000  0.40298000  1.0 0.1617505353
H  H11  1  0.33764000  0.94750000  0.16957000  1.0 0.127851418
H  H12  1  0.51554000  0.61422000  0.10951000  1.0 0.148330272
H  H13  1  0.49121000  0.94529000  0.10491000  1.0 0.127851418
H  H14  1  0.66983000  0.05411000  0.38725000  1.0 0.1406046089
H  H15  1  0.50025000  0.04292000  0.33778000  1.0 0.148330272
H  H16  1  0.05039000  0.63474000  0.95434000  1.0 0.1406046089
H  H17  1  0.37082000  0.62169000  0.48444000  1.0 0.1688751865
H  H18  1  0.53601000  0.61756000  0.48752000  1.0 0.148330272
H  H19  1  0.83643000  0.04987000  0.84947000  1.0 0.1617505353
H  H20  1  0.78503000  0.38138000  0.00622000  1.0 0.1617505353
H  H21  1  0.06517000  0.62649000  0.61271000  1.0 0.1406046089
H  H22  1  0.16317000  0.94698000  0.64495000  1.0 0.1617505353
H  H23  1  0.66282000  0.95444000  0.64307000  1.0 0.1406046089
H  H24  1  0.64604000  0.38485000  0.91744000  1.0 0.1688751865
H  H25  1  0.34571000  0.06422000  0.85744000  1.0 0.148330272
H  H26  1  0.23999000  0.62528000  0.59702000  1.0 0.1617505353
H  H27  1  0.66236000  0.05250000  0.83043000  1.0 0.127851418
H  H28  1  0.48446000  0.38578000  0.89049000  1.0 0.148330272
H  H29  1  0.50879000  0.05471000  0.89509000  1.0 0.127851418
H  H30  1  0.33017000  0.94589000  0.61275000  1.0 0.1406046089
H  H31  1  0.49975000  0.95708000  0.66222000  1.0 0.148330272
H  H32  1  0.94961000  0.36526000  0.04566000  1.0 0.1406046089
Pt  Pt1  1  0.93431000  0.44045000  0.73111000  1.0 0.0419415932
Pt  Pt2  1  0.47522000  0.54864000  0.76461000  1.0 0.0496331666
Pt  Pt3  1  0.06569000  0.55955000  0.26889000  1.0 0.0419415932
Pt  Pt4  1  0.52478000  0.45136000  0.23539000  1.0 0.0496331666
C  C1  1  0.36000000  0.48900000  0.64700000  1.0 0.1009453494
C  C2  1  0.86500000  0.50200000  0.84600000  1.0 0.1009453494
C  C3  1  0.01700000  0.39000000  0.62100000  1.0 0.1406046089
C  C4  1  0.58700000  0.59700000  0.87700000  1.0 0.1121149089
C  C5  1  0.87000000  0.49800000  0.65400000  1.0 0.1009453494
C  C6  1  0.57000000  0.31300000  0.47800000  1.0 -0.1225674052
C  C7  1  0.47200000  0.31300000  0.48200000  1.0 -0.019947556
C  C8  1  0.01200000  0.39300000  0.81500000  1.0 0.127851418
C  C9  1  0.40800000  0.40300000  0.31400000  1.0 0.1219086897
C  C10  1  0.17600000  0.88400000  0.11600000  1.0 0.0201733679
C  C11  1  0.64100000  0.50900000  0.15700000  1.0 0.1121149089
C  C12  1  0.70100000  0.21400000  0.40200000  1.0 0.0791562449
C  C13  1  0.20700000  0.68800000  0.02300000  1.0 -0.1578918371
C  C14  1  0.87800000  0.30600000  0.38200000  1.0 0.0295305073
C  C15  1  0.82200000  0.11800000  0.36600000  1.0 0.0086728221
C  C16  1  0.39700000  0.11400000  0.38700000  1.0 -0.0269656341
C  C17  1  0.41500000  0.68200000  0.09400000  1.0 -0.1317523543
C  C18  1  0.59200000  0.87000000  0.12700000  1.0 0.0023560362
C  C19  1  0.29000000  0.78000000  0.08500000  1.0 0.0730351534
C  C20  1  0.77500000  0.31100000  0.39700000  1.0 -0.1505505541
C  C21  1  0.27900000  0.88200000  0.13000000  1.0 -0.166113564
C  C22  1  0.39900000  0.78400000  0.09500000  1.0 0.1009453494
C  C23  1  0.58500000  0.21200000  0.41600000  1.0 0.1009453494
C  C24  1  0.51000000  0.68100000  0.11000000  1.0 -0.019947556
C  C25  1  0.49300000  0.87900000  0.10800000  1.0 -0.1928978983
C  C26  1  0.72400000  0.12000000  0.38500000  1.0 -0.166113564
C  C27  1  0.49400000  0.11200000  0.37400000  1.0 -0.1505505541
C  C28  1  0.10600000  0.69500000  0.00200000  1.0 0.0295305073
C  C29  1  0.64000000  0.51100000  0.35300000  1.0 0.1009453494
C  C30  1  0.13500000  0.49800000  0.15400000  1.0 0.1009453494
C  C31  1  0.98300000  0.61000000  0.37900000  1.0 0.1406046089
C  C32  1  0.41300000  0.40300000  0.12300000  1.0 0.1121149089
C  C33  1  0.13000000  0.50200000  0.34600000  1.0 0.1009453494
C  C34  1  0.43000000  0.68700000  0.52200000  1.0 -0.1225674052
C  C35  1  0.52800000  0.68700000  0.51800000  1.0 -0.019947556
C  C36  1  0.98800000  0.60700000  0.18500000  1.0 0.127851418
C  C37  1  0.59200000  0.59700000  0.68600000  1.0 0.1219086897
C  C38  1  0.82400000  0.11600000  0.88400000  1.0 0.0201733679
C  C39  1  0.35900000  0.49100000  0.84300000  1.0 0.1121149089
C  C40  1  0.29900000  0.78600000  0.59800000  1.0 0.0791562449
C  C41  1  0.79300000  0.31200000  0.97700000  1.0 -0.1578918371
C  C42  1  0.12200000  0.69400000  0.61800000  1.0 0.0295305073
C  C43  1  0.17800000  0.88200000  0.63400000  1.0 0.0086728221
C  C44  1  0.60300000  0.88600000  0.61300000  1.0 -0.0269656341
C  C45  1  0.58500000  0.31800000  0.90600000  1.0 -0.1317523543
C  C46  1  0.40800000  0.13000000  0.87300000  1.0 0.0023560362
C  C47  1  0.71000000  0.22000000  0.91500000  1.0 0.0730351534
C  C48  1  0.22500000  0.68900000  0.60300000  1.0 -0.1505505541
C  C49  1  0.72100000  0.11800000  0.87000000  1.0 -0.166113564
C  C50  1  0.60100000  0.21600000  0.90500000  1.0 0.1009453494
C  C51  1  0.41500000  0.78800000  0.58400000  1.0 0.1009453494
C  C52  1  0.49000000  0.31900000  0.89000000  1.0 -0.019947556
C  C53  1  0.50700000  0.12100000  0.89200000  1.0 -0.1928978983
C  C54  1  0.27600000  0.88000000  0.61500000  1.0 -0.166113564
C  C55  1  0.50600000  0.88800000  0.62600000  1.0 -0.1505505541
C  C56  1  0.89400000  0.30500000  0.99800000  1.0 0.0295305073
C  C57  1  0.14800000  0.87000000  0.37900000  1.0 -0.1505505541
C  C58  1  0.42700000  0.81500000  0.35500000  1.0 -0.0700407784
C  C59  1  0.40400000  0.16000000  0.14000000  1.0 -0.1225674052
C  C60  1  0.70700000  0.17700000  0.14900000  1.0 -0.0700407784
C  C61  1  0.85200000  0.13000000  0.62100000  1.0 -0.1505505541
C  C62  1  0.57300000  0.18500000  0.64500000  1.0 -0.0700407784
C  C63  1  0.59600000  0.84000000  0.86000000  1.0 -0.1225674052
C  C64  1  0.29300000  0.82300000  0.85100000  1.0 -0.0700407784
N  N1  1  0.34080000  0.37700000  0.35790000  1.0 -0.4599719816
N  N2  1  0.70300000  0.54800000  0.11570000  1.0 -0.4721576347
N  N3  1  0.65710000  0.62800000  0.93940000  1.0 -0.4599719816
N  N4  1  0.38000000  0.21200000  0.44160000  1.0 0.3913011577
N  N5  1  0.06000000  0.36800000  0.86090000  1.0 -0.4534559
N  N6  1  0.83700000  0.53900000  0.60880000  1.0 -0.4807692343
N  N7  1  0.60400000  0.77700000  0.12580000  1.0 0.34315941
N  N8  1  0.83600000  0.54800000  0.91720000  1.0 -0.4807692343
N  N9  1  0.09830000  0.79100000  0.05280000  1.0 0.2923201349
N  N10  1  0.89700000  0.21600000  0.36280000  1.0 0.3020081248
N  N11  1  0.29500000  0.44900000  0.57900000  1.0 -0.4807692343
N  N12  1  0.06400000  0.36100000  0.55500000  1.0 -0.4721576347
N  N13  1  0.65920000  0.62300000  0.64210000  1.0 -0.4599719816
N  N14  1  0.29700000  0.45200000  0.88430000  1.0 -0.4721576347
N  N15  1  0.34290000  0.37200000  0.06060000  1.0 -0.4599719816
N  N16  1  0.62000000  0.78800000  0.55840000  1.0 0.3913011577
N  N17  1  0.94000000  0.63200000  0.13910000  1.0 -0.4534559
N  N18  1  0.16300000  0.46100000  0.39120000  1.0 -0.4807692343
N  N19  1  0.39600000  0.22300000  0.87420000  1.0 0.34315941
N  N20  1  0.16400000  0.45200000  0.08280000  1.0 -0.4807692343
N  N21  1  0.90170000  0.20900000  0.94720000  1.0 0.2923201349
N  N22  1  0.10300000  0.78400000  0.63720000  1.0 0.3020081248
N  N23  1  0.70500000  0.55100000  0.42100000  1.0 -0.4807692343
N  N24  1  0.93600000  0.63900000  0.44500000  1.0 -0.4721576347
N  N25  1  0.08200000  0.90200000  0.38700000  1.0 0.0295305073
N  N26  1  0.51400000  0.81700000  0.34600000  1.0 -0.3102523509
N  N27  1  0.31700000  0.13800000  0.13200000  1.0 -0.0981739435
N  N28  1  0.78500000  0.15800000  0.14200000  1.0 -0.3102523509
N  N29  1  0.91800000  0.09800000  0.61300000  1.0 0.0295305073
N  N30  1  0.48600000  0.18300000  0.65400000  1.0 -0.3102523509
N  N31  1  0.68300000  0.86200000  0.86800000  1.0 -0.0981739435
N  N32  1  0.21500000  0.84200000  0.85800000  1.0 -0.3102523509
O  O1  1  0.00110000  0.79470000  0.04030000  1.0 -0.4599719816
O  O2  1  0.70190000  0.78600000  0.15150000  1.0 -0.444420499
O  O3  1  0.14530000  0.16080000  0.25370000  1.0 -0.444420499
O  O4  1  0.07700000  0.13600000  0.47860000  1.0 -0.3807770137
O  O5  1  0.88880000  0.83200000  0.24390000  1.0 -0.3993821416
O  O6  1  0.28110000  0.20570000  0.45240000  1.0 -0.4534559
O  O7  1  0.84150000  0.85900000  0.00820000  1.0 -0.3203657988
O  O8  1  0.99470000  0.21700000  0.34110000  1.0 -0.4721576347
O  O9  1  0.99890000  0.20530000  0.95970000  1.0 -0.4599719816
O  O10  1  0.29810000  0.21400000  0.84850000  1.0 -0.444420499
O  O11  1  0.85470000  0.83920000  0.74630000  1.0 -0.444420499
O  O12  1  0.92300000  0.86400000  0.52140000  1.0 -0.3807770137
O  O13  1  0.11120000  0.16800000  0.75610000  1.0 -0.3993821416
O  O14  1  0.71890000  0.79430000  0.54760000  1.0 -0.4534559
O  O15  1  0.15850000  0.14100000  0.99180000  1.0 -0.3203657988
O  O16  1  0.00530000  0.78300000  0.65890000  1.0 -0.4721576347
