# DDEC6 charges by PACMAN v1.1 (https://github.com/mtap-research/PACMAN-charge/)
data_PUFXIZ_FSR_pacman
_symmetry_space_group_name_H-M   'P 1'
_cell_length_a   10.25150000
_cell_length_b   12.38450000
_cell_length_c   18.75020000
_cell_angle_alpha   90.00000000
_cell_angle_beta   118.08400000
_cell_angle_gamma   90.00000000
_symmetry_Int_Tables_number   1
_chemical_formula_structural   CdH10C16N4O5
_chemical_formula_sum   'Cd4 H40 C64 N16 O20'
_cell_volume   2100.23350150
_cell_formula_units_Z   4
loop_
 _symmetry_equiv_pos_site_id
 _symmetry_equiv_pos_as_xyz
  1  'x, y, z'
loop_
 _atom_site_type_symbol
 _atom_site_label
 _atom_site_symmetry_multiplicity
 _atom_site_fract_x
 _atom_site_fract_y
 _atom_site_fract_z
 _atom_site_occupancy
 _atom_site_charge
Cd  Cd1  1  0.54896000  0.70055000  0.03395000  1.0 0.8363929915
Cd  Cd2  1  0.45104000  0.20055000  0.46605000  1.0 0.8340183624
Cd  Cd3  1  0.45104000  0.29945000  0.96605000  1.0 0.8340183624
Cd  Cd4  1  0.54896000  0.79945000  0.53395000  1.0 0.8340183624
H  H1  1  0.95270000  0.46240000  0.15400000  1.0 0.1394835602
H  H2  1  0.04730000  0.96240000  0.34600000  1.0 0.1394835602
H  H3  1  0.04730000  0.53760000  0.84600000  1.0 0.1394835602
H  H4  1  0.95270000  0.03760000  0.65400000  1.0 0.1394835602
H  H5  1  0.35390000  0.46630000  0.16300000  1.0 0.1394835602
H  H6  1  0.64610000  0.96630000  0.33700000  1.0 0.1394835602
H  H7  1  0.64610000  0.53370000  0.83700000  1.0 0.1394835602
H  H8  1  0.35390000  0.03370000  0.66300000  1.0 0.1394835602
H  H9  1  0.05080000  0.69340000  0.03470000  1.0 0.1268158409
H  H10  1  0.94920000  0.19340000  0.46530000  1.0 0.1268158409
H  H11  1  0.94920000  0.30660000  0.96530000  1.0 0.1268158409
H  H12  1  0.05080000  0.80660000  0.53470000  1.0 0.1268158409
H  H13  1  0.07310000  0.13660000  0.12840000  1.0 0.1581326354
H  H14  1  0.92690000  0.63660000  0.37160000  1.0 0.1581326354
H  H15  1  0.92690000  0.86340000  0.87160000  1.0 0.1581326354
H  H16  1  0.07310000  0.36340000  0.62840000  1.0 0.1581326354
H  H17  1  0.99190000  0.24930000  0.09980000  1.0 0.1487918487
H  H18  1  0.00810000  0.74930000  0.40020000  1.0 0.1487918487
H  H19  1  0.00810000  0.75070000  0.90020000  1.0 0.1487918487
H  H20  1  0.99190000  0.25070000  0.59980000  1.0 0.1487918487
H  H21  1  0.13770000  0.22580000  0.09310000  1.0 0.1581326354
H  H22  1  0.86230000  0.72580000  0.40690000  1.0 0.1581326354
H  H23  1  0.86230000  0.77420000  0.90690000  1.0 0.1581326354
H  H24  1  0.13770000  0.27420000  0.59310000  1.0 0.1581326354
H  H25  1  0.57510000  0.43490000  0.39640000  1.0 0.1581326354
H  H26  1  0.42490000  0.93490000  0.10360000  1.0 0.1581326354
H  H27  1  0.42490000  0.56510000  0.60360000  1.0 0.1581326354
H  H28  1  0.57510000  0.06510000  0.89640000  1.0 0.1581326354
H  H29  1  0.66240000  0.58860000  0.47440000  1.0 0.1198709983
H  H30  1  0.33760000  0.08860000  0.02560000  1.0 0.1198709983
H  H31  1  0.33760000  0.41140000  0.52560000  1.0 0.1198709983
H  H32  1  0.66240000  0.91140000  0.97440000  1.0 0.1198709983
H  H33  1  0.26040000  0.69330000  0.40340000  1.0 0.1110440526
H  H34  1  0.73960000  0.19330000  0.09660000  1.0 0.1110440526
H  H35  1  0.73960000  0.30670000  0.59660000  1.0 0.1110440526
H  H36  1  0.26040000  0.80670000  0.90340000  1.0 0.1110440526
H  H37  1  0.16050000  0.54560000  0.32070000  1.0 0.1487918487
H  H38  1  0.83950000  0.04560000  0.17930000  1.0 0.1487918487
H  H39  1  0.83950000  0.45440000  0.67930000  1.0 0.1487918487
H  H40  1  0.16050000  0.95440000  0.82070000  1.0 0.1487918487
C  C1  1  0.82710000  0.63450000  0.06050000  1.0 0.5137683677
C  C2  1  0.17290000  0.13450000  0.43950000  1.0 0.5137683677
C  C3  1  0.17290000  0.36550000  0.93950000  1.0 0.5137683677
C  C4  1  0.82710000  0.86550000  0.56050000  1.0 0.5137683677
C  C5  1  0.97870000  0.58470000  0.08920000  1.0 0.0162649605
C  C6  1  0.02130000  0.08470000  0.41080000  1.0 0.0162649605
C  C7  1  0.02130000  0.41530000  0.91080000  1.0 0.0162649605
C  C8  1  0.97870000  0.91530000  0.58920000  1.0 0.0162649605
C  C9  1  0.01970000  0.49480000  0.13950000  1.0 -0.1990759966
C  C10  1  0.98030000  0.99480000  0.36050000  1.0 -0.1990759966
C  C11  1  0.98030000  0.50520000  0.86050000  1.0 -0.1990759966
C  C12  1  0.01970000  0.00520000  0.63950000  1.0 -0.1990759966
C  C13  1  0.16030000  0.45420000  0.16750000  1.0 0.1487918487
C  C14  1  0.83970000  0.95420000  0.33250000  1.0 0.1487918487
C  C15  1  0.83970000  0.54580000  0.83250000  1.0 0.1487918487
C  C16  1  0.16030000  0.04580000  0.66750000  1.0 0.1487918487
C  C17  1  0.25970000  0.49700000  0.14460000  1.0 -0.1990759966
C  C18  1  0.74030000  0.99700000  0.35540000  1.0 -0.1990759966
C  C19  1  0.74030000  0.50300000  0.85540000  1.0 -0.1990759966
C  C20  1  0.25970000  0.00300000  0.64460000  1.0 -0.1990759966
C  C21  1  0.21700000  0.58630000  0.09370000  1.0 0.0134169336
C  C22  1  0.78300000  0.08630000  0.40630000  1.0 0.0134169336
C  C23  1  0.78300000  0.41370000  0.90630000  1.0 0.0134169336
C  C24  1  0.21700000  0.91370000  0.59370000  1.0 0.0134169336
C  C25  1  0.07790000  0.63130000  0.06740000  1.0 -0.1317765971
C  C26  1  0.92210000  0.13130000  0.43260000  1.0 -0.1317765971
C  C27  1  0.92210000  0.36870000  0.93260000  1.0 -0.1317765971
C  C28  1  0.07790000  0.86870000  0.56740000  1.0 -0.1317765971
C  C29  1  0.32390000  0.63550000  0.06850000  1.0 0.5171517062
C  C30  1  0.67610000  0.13550000  0.43150000  1.0 0.5171517062
C  C31  1  0.67610000  0.36450000  0.93150000  1.0 0.5171517062
C  C32  1  0.32390000  0.86450000  0.56850000  1.0 0.5171517062
C  C33  1  0.08730000  0.21350000  0.12510000  1.0 -0.5240956318
C  C34  1  0.91270000  0.71350000  0.37490000  1.0 -0.5240956318
C  C35  1  0.91270000  0.78650000  0.87490000  1.0 -0.5240956318
C  C36  1  0.08730000  0.28650000  0.62510000  1.0 -0.5240956318
C  C37  1  0.17790000  0.25770000  0.20760000  1.0 0.3477883863
C  C38  1  0.82210000  0.75770000  0.29240000  1.0 0.3477883863
C  C39  1  0.82210000  0.74230000  0.79240000  1.0 0.3477883863
C  C40  1  0.17790000  0.24230000  0.70760000  1.0 0.3477883863
C  C41  1  0.29870000  0.37060000  0.30550000  1.0 0.2277841832
C  C42  1  0.70130000  0.87060000  0.19450000  1.0 0.2277841832
C  C43  1  0.70130000  0.62940000  0.69450000  1.0 0.2277841832
C  C44  1  0.29870000  0.12940000  0.80550000  1.0 0.2277841832
C  C45  1  0.35710000  0.47150000  0.35110000  1.0 0.0616975504
C  C46  1  0.64290000  0.97150000  0.14890000  1.0 0.0616975504
C  C47  1  0.64290000  0.52850000  0.64890000  1.0 0.0616975504
C  C48  1  0.35710000  0.02850000  0.85110000  1.0 0.0616975504
C  C49  1  0.50840000  0.48650000  0.39710000  1.0 -0.1730940078
C  C50  1  0.49160000  0.98650000  0.10290000  1.0 -0.1730940078
C  C51  1  0.49160000  0.51350000  0.60290000  1.0 -0.1730940078
C  C52  1  0.50840000  0.01350000  0.89710000  1.0 -0.1730940078
C  C53  1  0.55970000  0.57840000  0.44410000  1.0 0.0802852216
C  C54  1  0.44030000  0.07840000  0.05590000  1.0 0.0802852216
C  C55  1  0.44030000  0.42160000  0.55590000  1.0 0.0802852216
C  C56  1  0.55970000  0.92160000  0.94410000  1.0 0.0802852216
C  C57  1  0.32450000  0.63990000  0.40220000  1.0 0.0802852216
C  C58  1  0.67550000  0.13990000  0.09780000  1.0 0.0802852216
C  C59  1  0.67550000  0.36010000  0.59780000  1.0 0.0802852216
C  C60  1  0.32450000  0.86010000  0.90220000  1.0 0.0802852216
C  C61  1  0.26340000  0.55160000  0.35270000  1.0 -0.1812288498
C  C62  1  0.73660000  0.05160000  0.14730000  1.0 -0.1812288498
C  C63  1  0.73660000  0.44840000  0.64730000  1.0 -0.1812288498
C  C64  1  0.26340000  0.94840000  0.85270000  1.0 -0.1812288498
N  N1  1  0.20800000  0.36540000  0.22430000  1.0 -0.1190152184
N  N2  1  0.79200000  0.86540000  0.27570000  1.0 -0.1190152184
N  N3  1  0.79200000  0.63460000  0.77570000  1.0 -0.1190152184
N  N4  1  0.20800000  0.13460000  0.72430000  1.0 -0.1190152184
N  N5  1  0.24600000  0.20110000  0.27400000  1.0 -0.2654454184
N  N6  1  0.75400000  0.70110000  0.22600000  1.0 -0.2654454184
N  N7  1  0.75400000  0.79890000  0.72600000  1.0 -0.2587926877
N  N8  1  0.24600000  0.29890000  0.77400000  1.0 -0.2587926877
N  N9  1  0.32310000  0.27400000  0.33640000  1.0 -0.2587926877
N  N10  1  0.67690000  0.77400000  0.16360000  1.0 -0.2587926877
N  N11  1  0.67690000  0.72600000  0.66360000  1.0 -0.2587926877
N  N12  1  0.32310000  0.22600000  0.83640000  1.0 -0.2587926877
N  N13  1  0.46960000  0.65370000  0.44840000  1.0 -0.2587926877
N  N14  1  0.53040000  0.15370000  0.05160000  1.0 -0.2587926877
N  N15  1  0.53040000  0.34630000  0.55160000  1.0 -0.2587926877
N  N16  1  0.46960000  0.84630000  0.94840000  1.0 -0.2587926877
O  O1  1  0.73250000  0.57640000  0.06680000  1.0 -0.4704486949
O  O2  1  0.26750000  0.07640000  0.43320000  1.0 -0.4704486949
O  O3  1  0.26750000  0.42360000  0.93320000  1.0 -0.4704486949
O  O4  1  0.73250000  0.92360000  0.56680000  1.0 -0.4704486949
O  O5  1  0.80250000  0.72670000  0.03410000  1.0 -0.551542334
O  O6  1  0.19750000  0.22670000  0.46590000  1.0 -0.551542334
O  O7  1  0.19750000  0.27330000  0.96590000  1.0 -0.551542334
O  O8  1  0.80250000  0.77330000  0.53410000  1.0 -0.551542334
O  O9  1  0.29130000  0.71970000  0.02880000  1.0 -0.5636023653
O  O10  1  0.70870000  0.21970000  0.47120000  1.0 -0.5636023653
O  O11  1  0.70870000  0.28030000  0.97120000  1.0 -0.5636023653
O  O12  1  0.29130000  0.78030000  0.52880000  1.0 -0.5636023653
O  O13  1  0.44460000  0.58740000  0.09030000  1.0 -0.4608836841
O  O14  1  0.55540000  0.08740000  0.40970000  1.0 -0.4608836841
O  O15  1  0.55540000  0.41260000  0.90970000  1.0 -0.4608836841
O  O16  1  0.44460000  0.91260000  0.59030000  1.0 -0.4608836841
O  O17  1  0.42240000  0.60250000  0.91450000  1.0 0.1003423684
O  O18  1  0.57760000  0.10250000  0.58550000  1.0 0.1003423684
O  O19  1  0.57760000  0.39750000  0.08550000  1.0 0.1110440526
O  O20  1  0.42240000  0.89750000  0.41450000  1.0 0.1003423684
