# DDEC6 charges by PACMAN v1.1 (https://github.com/mtap-research/PACMAN-charge/)
data_PUJJEL_FSR_pacman
_symmetry_space_group_name_H-M   'P 1'
_cell_length_a   15.28280000
_cell_length_b   15.28280000
_cell_length_c   8.25900000
_cell_angle_alpha   80.65490000
_cell_angle_beta   99.34510000
_cell_angle_gamma   106.14500000
_symmetry_Int_Tables_number   1
_chemical_formula_structural   LaH15C24N6O7
_chemical_formula_sum   'La2 H30 C48 N12 O14'
_cell_volume   1814.29712045
_cell_formula_units_Z   2
loop_
 _symmetry_equiv_pos_site_id
 _symmetry_equiv_pos_as_xyz
  1  'x, y, z'
loop_
 _atom_site_type_symbol
 _atom_site_label
 _atom_site_symmetry_multiplicity
 _atom_site_fract_x
 _atom_site_fract_y
 _atom_site_fract_z
 _atom_site_occupancy
 _atom_site_charge
La  La1  1  0.76659000  0.26133000  0.19604000  1.0 1.8519813187
La  La2  1  0.73867000  0.23341000  0.69604000  1.0 1.8519813187
H  H1  1  0.30970000  0.94830000  0.95240000  1.0 0.130160654
H  H2  1  0.05170000  0.69030000  0.45240000  1.0 0.130160654
H  H3  1  0.35190000  0.17970000  0.15130000  1.0 0.130160654
H  H4  1  0.82030000  0.64810000  0.65130000  1.0 0.130160654
H  H5  1  0.01900000  0.03860000  0.29050000  1.0 0.130160654
H  H6  1  0.96140000  0.98100000  0.79050000  1.0 0.130160654
H  H7  1  0.96160000  0.13320000  0.41340000  1.0 0.130160654
H  H8  1  0.86680000  0.03840000  0.91340000  1.0 0.130160654
H  H9  1  0.73670000  0.93050000  0.48260000  1.0 0.130160654
H  H10  1  0.06950000  0.26330000  0.98260000  1.0 0.130160654
H  H11  1  0.79990000  0.83390000  0.38080000  1.0 0.130160654
H  H12  1  0.16610000  0.20010000  0.88080000  1.0 0.130160654
H  H13  1  0.45870000  0.00270000  0.86980000  1.0 0.1224342055
H  H14  1  0.99730000  0.54130000  0.36980000  1.0 0.1224342055
H  H15  1  0.49580000  0.23020000  0.07380000  1.0 0.130160654
H  H16  1  0.76980000  0.50420000  0.57380000  1.0 0.130160654
H  H17  1  0.85480000  0.51180000  0.00740000  1.0 0.130160654
H  H18  1  0.48820000  0.14520000  0.50740000  1.0 0.130160654
H  H19  1  0.94560000  0.64900000  0.07330000  1.0 0.130160654
H  H20  1  0.35100000  0.05440000  0.57330000  1.0 0.130160654
H  H21  1  0.05470000  0.47250000  0.79330000  1.0 0.130160654
H  H22  1  0.52750000  0.94530000  0.29330000  1.0 0.130160654
H  H23  1  0.14450000  0.61050000  0.85860000  1.0 0.130160654
H  H24  1  0.38950000  0.85550000  0.35860000  1.0 0.130160654
H  H25  1  0.22390000  0.06750000  0.18130000  1.0 0.2985401817
H  H26  1  0.93250000  0.77610000  0.68130000  1.0 0.2985401817
H  H27  1  0.16660000  0.74220000  0.96170000  1.0 0.2985401817
H  H28  1  0.25780000  0.83340000  0.46170000  1.0 0.2985401817
H  H29  1  0.89950000  0.81590000  0.22520000  1.0 0.2931251295
H  H30  1  0.18410000  0.10050000  0.72520000  1.0 0.2931251295
C  C1  1  0.10420000  0.80540000  0.06080000  1.0 0.5409693636
C  C2  1  0.19460000  0.89580000  0.56080000  1.0 0.5409693636
C  C3  1  0.16860000  0.94780000  0.12470000  1.0 0.5175593264
C  C4  1  0.05220000  0.83140000  0.62470000  1.0 0.5175593264
C  C5  1  0.02310000  0.87570000  0.17870000  1.0 0.5409693636
C  C6  1  0.12430000  0.97690000  0.67870000  1.0 0.5409693636
C  C7  1  0.05480000  0.64700000  0.97170000  1.0 0.2281212873
C  C8  1  0.35300000  0.94520000  0.47170000  1.0 0.2281212873
C  C9  1  0.31590000  0.05670000  0.06640000  1.0 0.2397141077
C  C10  1  0.94330000  0.68410000  0.56640000  1.0 0.2397141077
C  C11  1  0.34690000  0.00490000  0.97840000  1.0 -0.2294770152
C  C12  1  0.99510000  0.65310000  0.47840000  1.0 -0.2294770152
C  C13  1  0.37280000  0.14240000  0.09630000  1.0 -0.2228649192
C  C14  1  0.85760000  0.62720000  0.59630000  1.0 -0.2228649192
C  C15  1  0.91430000  0.92670000  0.31410000  1.0 0.2460722692
C  C16  1  0.07330000  0.08570000  0.81410000  1.0 0.2460722692
C  C17  1  0.96230000  0.01570000  0.32980000  1.0 -0.2006895625
C  C18  1  0.98430000  0.03770000  0.82980000  1.0 -0.2006895625
C  C19  1  0.92770000  0.07310000  0.40400000  1.0 -0.0756052219
C  C20  1  0.92690000  0.07230000  0.90400000  1.0 -0.0756052219
C  C21  1  0.84400000  0.04160000  0.46290000  1.0 -0.0490678538
C  C22  1  0.95840000  0.15600000  0.96290000  1.0 -0.0490678538
C  C23  1  0.79460000  0.95240000  0.44790000  1.0 -0.0619131893
C  C24  1  0.04760000  0.20540000  0.94790000  1.0 -0.0619131893
C  C25  1  0.83150000  0.89550000  0.38110000  1.0 -0.2294770152
C  C26  1  0.10450000  0.16850000  0.88110000  1.0 -0.2294770152
C  C27  1  0.80720000  0.10380000  0.53600000  1.0 0.579935766
C  C28  1  0.89620000  0.19280000  0.03600000  1.0 0.579935766
C  C29  1  0.58440000  0.15240000  0.91160000  1.0 0.579935766
C  C30  1  0.84760000  0.41560000  0.41160000  1.0 0.579935766
C  C31  1  0.49160000  0.12280000  0.95970000  1.0 -0.069257127
C  C32  1  0.87720000  0.50840000  0.45970000  1.0 -0.069257127
C  C33  1  0.43730000  0.03870000  0.92650000  1.0 -0.069257127
C  C34  1  0.96130000  0.56270000  0.42650000  1.0 -0.069257127
C  C35  1  0.45880000  0.17360000  0.04730000  1.0 -0.0490678538
C  C36  1  0.82640000  0.54120000  0.54730000  1.0 -0.0490678538
C  C37  1  0.88440000  0.38520000  0.85370000  1.0 0.5653895504
C  C38  1  0.61480000  0.11560000  0.35370000  1.0 0.5653895504
C  C39  1  0.94620000  0.47320000  0.90150000  1.0 -0.0340621107
C  C40  1  0.52680000  0.05380000  0.40150000  1.0 -0.0340621107
C  C41  1  0.91430000  0.53090000  0.97980000  1.0 -0.069257127
C  C42  1  0.46910000  0.08570000  0.47980000  1.0 -0.069257127
C  C43  1  0.96810000  0.61390000  0.01650000  1.0 -0.191961848
C  C44  1  0.38610000  0.03190000  0.51650000  1.0 -0.191961848
C  C45  1  0.03260000  0.50700000  0.85210000  1.0 -0.069257127
C  C46  1  0.49300000  0.96740000  0.35210000  1.0 -0.069257127
C  C47  1  0.08550000  0.59030000  0.88920000  1.0 -0.2054980181
C  C48  1  0.40970000  0.91450000  0.38920000  1.0 -0.2006895625
N  N1  1  0.09190000  0.94970000  0.19260000  1.0 -0.5304436915
N  N2  1  0.05030000  0.90810000  0.69260000  1.0 -0.5304436915
N  N3  1  0.02400000  0.80080000  0.10940000  1.0 -0.5363385014
N  N4  1  0.19920000  0.97600000  0.60940000  1.0 -0.5363385014
N  N5  1  0.17760000  0.87760000  0.06320000  1.0 -0.5132583313
N  N6  1  0.12240000  0.82240000  0.56320000  1.0 -0.5132583313
N  N7  1  0.23530000  0.02830000  0.12940000  1.0 -0.3218598001
N  N8  1  0.97170000  0.76470000  0.62940000  1.0 -0.3218598001
N  N9  1  0.11400000  0.73320000  0.99520000  1.0 -0.3489332579
N  N10  1  0.26680000  0.88600000  0.49520000  1.0 -0.3489332579
N  N11  1  0.94030000  0.86670000  0.23830000  1.0 -0.3417528205
N  N12  1  0.13330000  0.05970000  0.73830000  1.0 -0.3417528205
O  O1  1  0.83310000  0.19170000  0.48670000  1.0 -0.6730986171
O  O2  1  0.80830000  0.16690000  0.98670000  1.0 -0.6730986171
O  O3  1  0.63910000  0.22670000  0.95920000  1.0 -0.5928761594
O  O4  1  0.77330000  0.36090000  0.45920000  1.0 -0.5928761594
O  O5  1  0.60780000  0.11060000  0.81010000  1.0 -0.5625434749
O  O6  1  0.88940000  0.39220000  0.31010000  1.0 -0.5625434749
O  O7  1  0.90510000  0.33910000  0.76010000  1.0 -0.5533066921
O  O8  1  0.66090000  0.09490000  0.26010000  1.0 -0.5533066921
O  O9  1  0.80360000  0.35840000  0.90640000  1.0 -0.6248580449
O  O10  1  0.64160000  0.19640000  0.40640000  1.0 -0.6248580449
O  O11  1  0.67950000  0.38810000  0.13190000  1.0 -0.3489332579
O  O12  1  0.61190000  0.32050000  0.63190000  1.0 -0.3489332579
O  O13  1  0.75040000  0.07400000  0.64140000  1.0 -0.5625434749
O  O14  1  0.92600000  0.24960000  0.14140000  1.0 -0.5625434749
