# DDEC6 charges by PACMAN v1.1 (https://github.com/mtap-research/PACMAN-charge/)
data_PUJMOW_FSR_pacman
_symmetry_space_group_name_H-M   'P 1'
_cell_length_a   4.79800000
_cell_length_b   21.34100000
_cell_length_c   5.40600000
_cell_angle_alpha   90.00000000
_cell_angle_beta   90.01000000
_cell_angle_gamma   90.00000000
_symmetry_Int_Tables_number   1
_chemical_formula_structural   Ag2H2CO
_chemical_formula_sum   'Ag8 H8 C4 O4'
_cell_volume   553.54259348
_cell_formula_units_Z   4
loop_
 _symmetry_equiv_pos_site_id
 _symmetry_equiv_pos_as_xyz
  1  'x, y, z'
loop_
 _atom_site_type_symbol
 _atom_site_label
 _atom_site_symmetry_multiplicity
 _atom_site_fract_x
 _atom_site_fract_y
 _atom_site_fract_z
 _atom_site_occupancy
 _atom_site_charge
Ag  Ag1  1  0.74891000  0.64030000  0.96326000  1.0 0.3741412995
Ag  Ag2  1  0.25109000  0.14030000  0.03674000  1.0 0.3741412995
Ag  Ag3  1  0.25109000  0.35970000  0.03674000  1.0 0.3741412995
Ag  Ag4  1  0.74891000  0.85970000  0.96326000  1.0 0.3741412995
Ag  Ag5  1  0.75019000  0.75000000  0.55327000  1.0 0.1288431374
Ag  Ag6  1  0.24981000  0.25000000  0.44673000  1.0 0.1288431374
Ag  Ag7  1  0.25024000  0.75000000  0.11220000  1.0 0.2592136202
Ag  Ag8  1  0.74976000  0.25000000  0.88780000  1.0 0.254065269
H  H1  1  0.97760000  0.49928000  0.91960000  1.0 0.269298361
H  H2  1  0.02240000  0.99928000  0.08040000  1.0 0.269298361
H  H3  1  0.02240000  0.50072000  0.08040000  1.0 0.269298361
H  H4  1  0.97760000  0.00072000  0.91960000  1.0 0.269298361
H  H5  1  0.54030000  0.50958000  0.03600000  1.0 0.2006386307
H  H6  1  0.45970000  0.00958000  0.96400000  1.0 0.2006386307
H  H7  1  0.45970000  0.49042000  0.96400000  1.0 0.2006386307
H  H8  1  0.54030000  0.99042000  0.03600000  1.0 0.2006386307
C  C1  1  0.75480000  0.75000000  0.93920000  1.0 -0.3340705546
C  C2  1  0.24520000  0.25000000  0.06080000  1.0 -0.3340705546
C  C3  1  0.75720000  0.75000000  0.16340000  1.0 -0.2798950138
C  C4  1  0.24280000  0.25000000  0.83660000  1.0 -0.2798950138
O  O1  1  0.74990000  0.53281000  0.92350000  1.0 -0.729836798
O  O2  1  0.25010000  0.03281000  0.07650000  1.0 -0.729836798
O  O3  1  0.25010000  0.46719000  0.07650000  1.0 -0.729836798
O  O4  1  0.74990000  0.96719000  0.92350000  1.0 -0.729836798
