# DDEC6 charges by PACMAN v1.1 (https://github.com/mtap-research/PACMAN-charge/)
data_PUKVAU_ASR_pacman
_symmetry_space_group_name_H-M   'P 1'
_cell_length_a   10.33500000
_cell_length_b   13.38230000
_cell_length_c   22.66230000
_cell_angle_alpha   100.90300000
_cell_angle_beta   91.35900000
_cell_angle_gamma   104.33100000
_symmetry_Int_Tables_number   1
_chemical_formula_structural   Cu3H32C35S6N6ClO4
_chemical_formula_sum   'Cu6 H64 C70 S12 N12 Cl2 O8'
_cell_volume   2973.77486653
_cell_formula_units_Z   2
loop_
 _symmetry_equiv_pos_site_id
 _symmetry_equiv_pos_as_xyz
  1  'x, y, z'
loop_
 _atom_site_type_symbol
 _atom_site_label
 _atom_site_symmetry_multiplicity
 _atom_site_fract_x
 _atom_site_fract_y
 _atom_site_fract_z
 _atom_site_occupancy
 _atom_site_charge
Cu  Cu1  1  0.50000000  0.00000000  0.50000000  1.0 0.7611757617
Cu  Cu2  1  0.04941000  0.54785000  0.27955000  1.0 -0.029526083
Cu  Cu3  1  0.95059000  0.45215000  0.72045000  1.0 -0.029526083
Cu  Cu4  1  0.41825000  0.06113000  0.04813000  1.0 0.3685285549
Cu  Cu5  1  0.58175000  0.93887000  0.95187000  1.0 0.3685285549
Cu  Cu6  1  0.00000000  0.00000000  0.50000000  1.0 0.6274704437
H  H1  1  0.33590000  0.91730000  0.12510000  1.0 0.1007161173
H  H2  1  0.66410000  0.08270000  0.87490000  1.0 0.1007161173
H  H3  1  0.40730000  0.86100000  0.20710000  1.0 0.1208901252
H  H4  1  0.59270000  0.13900000  0.79290000  1.0 0.1208901252
H  H5  1  0.76710000  0.06930000  0.20880000  1.0 0.1208901252
H  H6  1  0.23290000  0.93070000  0.79120000  1.0 0.1208901252
H  H7  1  0.68410000  0.12020000  0.12690000  1.0 0.1007161173
H  H8  1  0.31590000  0.87980000  0.87310000  1.0 0.1007161173
H  H9  1  0.54350000  0.81010000  0.33690000  1.0 0.148168174
H  H10  1  0.45650000  0.18990000  0.66310000  1.0 0.148168174
H  H11  1  0.44230000  0.84420000  0.29530000  1.0 0.148168174
H  H12  1  0.55770000  0.15580000  0.70470000  1.0 0.148168174
H  H13  1  0.71010000  0.74140000  0.34250000  1.0 0.1303992166
H  H14  1  0.28990000  0.25860000  0.65750000  1.0 0.1303992166
H  H15  1  0.89900000  0.68050000  0.35120000  1.0 0.1007161173
H  H16  1  0.10100000  0.31950000  0.64880000  1.0 0.1007161173
H  H17  1  0.82440000  0.51090000  0.18680000  1.0 0.1007161173
H  H18  1  0.17560000  0.48910000  0.81320000  1.0 0.1007161173
H  H19  1  0.63020000  0.56360000  0.17390000  1.0 0.1303992166
H  H20  1  0.36980000  0.43640000  0.82610000  1.0 0.1303992166
H  H21  1  0.25800000  0.57650000  0.37560000  1.0 0.1102410282
H  H22  1  0.74200000  0.42350000  0.62440000  1.0 0.1102410282
H  H23  1  0.45550000  0.53300000  0.39170000  1.0 0.1420568998
H  H24  1  0.54450000  0.46700000  0.60830000  1.0 0.1420568998
H  H25  1  0.41300000  0.37680000  0.21860000  1.0 0.1208901252
H  H26  1  0.58700000  0.62320000  0.78140000  1.0 0.1208901252
H  H27  1  0.21870000  0.42740000  0.20690000  1.0 0.1007161173
H  H28  1  0.78130000  0.57260000  0.79310000  1.0 0.1007161173
H  H29  1  0.60210000  0.32900000  0.22400000  1.0 0.148168174
H  H30  1  0.39790000  0.67100000  0.77600000  1.0 0.148168174
H  H31  1  0.68410000  0.28080000  0.26700000  1.0 0.148168174
H  H32  1  0.31590000  0.71920000  0.73300000  1.0 0.148168174
H  H33  1  0.67660000  0.22570000  0.35370000  1.0 0.1208901252
H  H34  1  0.32340000  0.77430000  0.64630000  1.0 0.1208901252
H  H35  1  0.68350000  0.14740000  0.43570000  1.0 0.1102410282
H  H36  1  0.31650000  0.85260000  0.56430000  1.0 0.1102410282
H  H37  1  0.31820000  0.96610000  0.39070000  1.0 0.1102410282
H  H38  1  0.68180000  0.03390000  0.60930000  1.0 0.1102410282
H  H39  1  0.30170000  0.03710000  0.30680000  1.0 0.1102410282
H  H40  1  0.69830000  0.96290000  0.69320000  1.0 0.1102410282
H  H41  1  0.15160000  0.98510000  0.98760000  1.0 0.1007161173
H  H42  1  0.84840000  0.01490000  0.01240000  1.0 0.1007161173
H  H43  1  0.01650000  0.02070000  0.91550000  1.0 0.1303992166
H  H44  1  0.98350000  0.97930000  0.08450000  1.0 0.1303992166
H  H45  1  0.32860000  0.25960000  0.89210000  1.0 0.1303992166
H  H46  1  0.67140000  0.74040000  0.10790000  1.0 0.1303992166
H  H47  1  0.45210000  0.21840000  0.96650000  1.0 0.1007161173
H  H48  1  0.54790000  0.78160000  0.03350000  1.0 0.1007161173
H  H49  1  0.85550000  0.09640000  0.79820000  1.0 0.148168174
H  H50  1  0.14450000  0.90360000  0.20180000  1.0 0.148168174
H  H51  1  0.88110000  0.06220000  0.86020000  1.0 0.148168174
H  H52  1  0.11890000  0.93780000  0.13980000  1.0 0.148168174
H  H53  1  0.96790000  0.12650000  0.71750000  1.0 0.1208901252
H  H54  1  0.03210000  0.87350000  0.28250000  1.0 0.1208901252
H  H55  1  0.98550000  0.13350000  0.61680000  1.0 0.1102410282
H  H56  1  0.01450000  0.86650000  0.38320000  1.0 0.1102410282
H  H57  1  0.99540000  0.83750000  0.57680000  1.0 0.1102410282
H  H58  1  0.00460000  0.16250000  0.42320000  1.0 0.1102410282
H  H59  1  0.97800000  0.82140000  0.67550000  1.0 0.1420568998
H  H60  1  0.02200000  0.17860000  0.32450000  1.0 0.1420568998
H  H61  1  0.64560000  0.83810000  0.46250000  1.0 0.1102410282
H  H62  1  0.35440000  0.16190000  0.53750000  1.0 0.1102410282
H  H63  1  0.71320000  0.23080000  0.02370000  1.0 0.0609899971
H  H64  1  0.28680000  0.76920000  0.97630000  1.0 0.0609899971
C  C1  1  0.42480000  0.94840000  0.14240000  1.0 0.0696721356
C  C2  1  0.57520000  0.05160000  0.85760000  1.0 0.081015956
C  C3  1  0.46640000  0.91450000  0.19140000  1.0 -0.2185471588
C  C4  1  0.53360000  0.08550000  0.80860000  1.0 -0.2185471588
C  C5  1  0.59560000  0.95910000  0.21770000  1.0 0.1007161173
C  C6  1  0.40440000  0.04090000  0.78230000  1.0 0.1007161173
C  C7  1  0.67780000  0.03700000  0.19240000  1.0 -0.2185471588
C  C8  1  0.32220000  0.96300000  0.80760000  1.0 -0.2185471588
C  C9  1  0.62780000  0.06650000  0.14340000  1.0 0.0696721356
C  C10  1  0.37220000  0.93350000  0.85660000  1.0 0.0696721356
C  C11  1  0.52610000  0.82120000  0.29580000  1.0 -0.2888841678
C  C12  1  0.47390000  0.17880000  0.70420000  1.0 -0.2888841678
C  C13  1  0.64910000  0.66070000  0.25620000  1.0 0.089662465
C  C14  1  0.35090000  0.33930000  0.74380000  1.0 0.089662465
C  C15  1  0.73160000  0.69410000  0.30970000  1.0 -0.2185471588
C  C16  1  0.26840000  0.30590000  0.69030000  1.0 -0.2088710516
C  C17  1  0.84430000  0.65780000  0.31440000  1.0 0.0696721356
C  C18  1  0.15570000  0.34220000  0.68560000  1.0 0.0696721356
C  C19  1  0.80060000  0.55850000  0.21880000  1.0 0.0696721356
C  C20  1  0.19940000  0.44150000  0.78120000  1.0 0.0696721356
C  C21  1  0.68480000  0.59010000  0.21060000  1.0 -0.2321281979
C  C22  1  0.31520000  0.40990000  0.78940000  1.0 -0.2321281979
C  C23  1  0.29000000  0.53500000  0.34330000  1.0 0.081015956
C  C24  1  0.71000000  0.46500000  0.65670000  1.0 0.081015956
C  C25  1  0.40730000  0.50880000  0.35330000  1.0 -0.1920903896
C  C26  1  0.59270000  0.49120000  0.64670000  1.0 -0.1920903896
C  C27  1  0.45570000  0.44690000  0.30740000  1.0 0.0696721356
C  C28  1  0.54430000  0.55310000  0.69260000  1.0 0.0696721356
C  C29  1  0.38270000  0.41760000  0.25190000  1.0 -0.2185471588
C  C30  1  0.61730000  0.58240000  0.74810000  1.0 -0.2185471588
C  C31  1  0.26690000  0.44800000  0.24540000  1.0 0.0696721356
C  C32  1  0.73310000  0.55200000  0.75460000  1.0 0.0696721356
C  C33  1  0.60110000  0.30390000  0.26240000  1.0 -0.3174106081
C  C34  1  0.39890000  0.69610000  0.73760000  1.0 -0.3174106081
C  C35  1  0.48620000  0.14190000  0.32136000  1.0 0.089662465
C  C36  1  0.51380000  0.85810000  0.67864000  1.0 0.089662465
C  C37  1  0.60130000  0.17300000  0.36060000  1.0 -0.2185471588
C  C38  1  0.39870000  0.82700000  0.63940000  1.0 -0.2185471588
C  C39  1  0.60420000  0.12610000  0.40950000  1.0 0.1007161173
C  C40  1  0.39580000  0.87390000  0.59050000  1.0 0.1007161173
C  C41  1  0.39120000  0.02010000  0.38323000  1.0 0.089662465
C  C42  1  0.60880000  0.97990000  0.61677000  1.0 0.089662465
C  C43  1  0.38060000  0.06210000  0.33326000  1.0 -0.2185471588
C  C44  1  0.61940000  0.93790000  0.66674000  1.0 -0.2185471588
C  C45  1  0.18730000  0.04150000  0.96800000  1.0 0.089662465
C  C46  1  0.81270000  0.95850000  0.03200000  1.0 0.089662465
C  C47  1  0.10630000  0.06190000  0.92490000  1.0 -0.2045309146
C  C48  1  0.89370000  0.93810000  0.07510000  1.0 -0.2088710516
C  C49  1  0.15850000  0.14430000  0.89520000  1.0 0.1007161173
C  C50  1  0.84150000  0.85570000  0.10480000  1.0 0.1007161173
C  C51  1  0.28980000  0.20300000  0.91110000  1.0 -0.2045309146
C  C52  1  0.71020000  0.79700000  0.08890000  1.0 -0.2045309146
C  C53  1  0.36280000  0.17750000  0.95530000  1.0 0.089662465
C  C54  1  0.63720000  0.82250000  0.04470000  1.0 0.089662465
C  C55  1  0.92080000  0.07410000  0.82200000  1.0 -0.3051168819
C  C56  1  0.07920000  0.92590000  0.17800000  1.0 -0.3051168819
C  C57  1  0.96700000  0.97190000  0.70780000  1.0 0.089662465
C  C58  1  0.03300000  0.02810000  0.29220000  1.0 0.089662465
C  C59  1  0.97180000  0.06540000  0.68910000  1.0 -0.2088710516
C  C60  1  0.02820000  0.93460000  0.31090000  1.0 -0.2088710516
C  C61  1  0.98230000  0.06880000  0.62890000  1.0 0.081015956
C  C62  1  0.01770000  0.93120000  0.37110000  1.0 0.081015956
C  C63  1  0.98790000  0.89680000  0.60580000  1.0 0.089662465
C  C64  1  0.01210000  0.10320000  0.39420000  1.0 0.089662465
C  C65  1  0.97770000  0.88640000  0.66450000  1.0 -0.2088710516
C  C66  1  0.02230000  0.11360000  0.33550000  1.0 -0.2088710516
C  C67  1  0.71660000  0.89960000  0.47540000  1.0 0.441065232
C  C68  1  0.28340000  0.10040000  0.52460000  1.0 0.441065232
C  C69  1  0.70920000  0.16450000  0.99870000  1.0 0.4211486827
C  C70  1  0.29080000  0.83550000  0.00130000  1.0 0.4211486827
S  S1  1  0.66134000  0.92606000  0.28119000  1.0 0.0255448248
S  S2  1  0.33866000  0.07394000  0.71881000  1.0 0.0223513644
S  S3  1  0.50045000  0.69706000  0.24388000  1.0 0.0497451506
S  S4  1  0.49955000  0.30294000  0.75612000  1.0 0.0497451506
S  S5  1  0.60407000  0.41311000  0.32361000  1.0 0.0696721356
S  S6  1  0.39593000  0.58689000  0.67639000  1.0 0.0696721356
S  S7  1  0.45973000  0.19175000  0.25743000  1.0 0.0696721356
S  S8  1  0.54027000  0.80825000  0.74257000  1.0 0.0696721356
S  S9  1  0.94106000  0.95000000  0.78102000  1.0 0.0255448248
S  S10  1  0.05894000  0.05000000  0.21898000  1.0 0.0223513644
S  S11  1  0.07014000  0.18146000  0.83989000  1.0 0.0497451506
S  S12  1  0.92986000  0.81854000  0.16011000  1.0 0.0497451506
N  N1  1  0.50210000  0.02250000  0.11790000  1.0 -0.2321281979
N  N2  1  0.49790000  0.97750000  0.88210000  1.0 -0.2321281979
N  N3  1  0.88020000  0.59190000  0.26940000  1.0 -0.2088710516
N  N4  1  0.11980000  0.40810000  0.73060000  1.0 -0.2088710516
N  N5  1  0.21780000  0.50480000  0.28994000  1.0 -0.2088710516
N  N6  1  0.78220000  0.49520000  0.71006000  1.0 -0.2045309146
N  N7  1  0.50080000  0.05200000  0.42229000  1.0 -0.236240973
N  N8  1  0.49920000  0.94800000  0.57771000  1.0 -0.236240973
N  N9  1  0.31340000  0.09750000  0.98320000  1.0 -0.2185471588
N  N10  1  0.68660000  0.90250000  0.01680000  1.0 -0.2185471588
N  N11  1  0.98810000  0.98550000  0.58673000  1.0 -0.2321281979
N  N12  1  0.01190000  0.01450000  0.41327000  1.0 -0.2321281979
Cl  Cl1  1  0.38324000  0.79467000  0.43846000  1.0 -0.7374553282
Cl  Cl2  1  0.61676000  0.20533000  0.56154000  1.0 -0.7374553282
O  O1  1  0.68510000  0.98410000  0.49057000  1.0 -0.4855923255
O  O2  1  0.31490000  0.01590000  0.50943000  1.0 -0.4797069231
O  O3  1  0.83210000  0.88790000  0.47559000  1.0 -0.4797069231
O  O4  1  0.16790000  0.11210000  0.52441000  1.0 -0.4797069231
O  O5  1  0.60810000  0.08990000  0.00134000  1.0 -0.5228717227
O  O6  1  0.39190000  0.91010000  0.99866000  1.0 -0.5228717227
O  O7  1  0.80300000  0.15920000  0.96656000  1.0 -0.5063035388
O  O8  1  0.19700000  0.84080000  0.03344000  1.0 -0.5063035388
