# DDEC6 charges by PACMAN v1.1 (https://github.com/mtap-research/PACMAN-charge/)
data_PUMCIM_ASR_pacman
_symmetry_space_group_name_H-M   'P 1'
_cell_length_a   9.93070000
_cell_length_b   14.32590000
_cell_length_c   16.98890000
_cell_angle_alpha   100.84500000
_cell_angle_beta   90.14400000
_cell_angle_gamma   104.55600000
_symmetry_Int_Tables_number   1
_chemical_formula_structural   Zn2H22C22N2O7
_chemical_formula_sum   'Zn8 H88 C88 N8 O28'
_cell_volume   2294.43177923
_cell_formula_units_Z   4
loop_
 _symmetry_equiv_pos_site_id
 _symmetry_equiv_pos_as_xyz
  1  'x, y, z'
loop_
 _atom_site_type_symbol
 _atom_site_label
 _atom_site_symmetry_multiplicity
 _atom_site_fract_x
 _atom_site_fract_y
 _atom_site_fract_z
 _atom_site_occupancy
 _atom_site_charge
Zn  Zn1  1  0.10014000  0.52679000  0.83340000  1.0 0.9368765226
Zn  Zn2  1  0.93557000  0.44994000  0.66747000  1.0 0.9170949331
Zn  Zn3  1  0.15776000  0.65036000  0.66631000  1.0 0.8369775882
Zn  Zn4  1  0.87996000  0.32974000  0.83898000  1.0 0.846491324
Zn  Zn5  1  0.89986000  0.47321000  0.16660000  1.0 0.9368765226
Zn  Zn6  1  0.06443000  0.55006000  0.33253000  1.0 0.9170949331
Zn  Zn7  1  0.84224000  0.34964000  0.33369000  1.0 0.8369775882
Zn  Zn8  1  0.12004000  0.67026000  0.16102000  1.0 0.846491324
H  H1  1  0.89929000  0.12300000  0.77692000  1.0 0.1130529514
H  H2  1  0.77823000  0.98350000  0.68972000  1.0 0.1300852997
H  H3  1  0.45929000  0.11078000  0.68196000  1.0 0.1300852997
H  H4  1  0.59118000  0.24809000  0.76790000  1.0 0.1130529514
H  H5  1  0.32226000  0.61672000  0.44311000  1.0 0.1130529514
H  H6  1  0.45078000  0.75041000  0.53477000  1.0 0.1300852997
H  H7  1  0.18134000  0.90434000  0.48665000  1.0 0.1300852997
H  H8  1  0.05904000  0.76560000  0.39761000  1.0 0.1198494341
H  H9  1  0.36509000  0.98390000  0.59104000  1.0 0.1130529514
H  H10  1  0.57212000  0.88986000  0.60605000  1.0 0.1130529514
H  H11  1  0.44298000  0.72235000  0.73690000  1.0 0.1418853155
H  H12  1  0.44453000  0.10807000  0.90251000  1.0 0.1002169637
H  H13  1  0.63860000  0.00386000  0.91228000  1.0 0.1002169637
H  H14  1  0.47960000  0.27168000  0.99261000  1.0 0.074386727
H  H15  1  0.58644000  0.83192000  0.82824000  1.0 0.0756333641
H  H16  1  0.32085000  0.00175000  0.81486000  1.0 0.0889587364
H  H17  1  0.14614000  0.85772000  0.73989000  1.0 0.1198494341
H  H18  1  0.64180000  0.51590000  0.98148000  1.0 0.1198494341
H  H19  1  0.64399000  0.57139000  0.90774000  1.0 0.1300852997
H  H20  1  0.83807000  0.69650000  0.96699000  1.0 0.1198494341
H  H21  1  0.72075000  0.68579000  0.03160000  1.0 0.1130529514
H  H22  1  0.51982000  0.55242000  0.68933000  1.0 0.1300852997
H  H23  1  0.54399000  0.58667000  0.78456000  1.0 0.1002169637
H  H24  1  0.47650000  0.38701000  0.69957000  1.0 0.1198494341
H  H25  1  0.51656000  0.41672000  0.79371000  1.0 0.1198494341
H  H26  1  0.35145000  0.47570000  0.48596000  1.0 0.1300852997
H  H27  1  0.36779000  0.40363000  0.54487000  1.0 0.1300852997
H  H28  1  0.25329000  0.31390000  0.41975000  1.0 0.1198494341
H  H29  1  0.15798000  0.29217000  0.49333000  1.0 0.1198494341
H  H30  1  0.96559000  0.60408000  0.75110000  1.0 0.3601061574
H  H31  1  0.06570000  0.36049000  0.74954000  1.0 0.3703294865
H  H32  1  0.78019000  0.12314000  0.99410000  1.0 0.0889587364
H  H33  1  0.64170000  0.39844000  0.06535000  1.0 0.1418853155
H  H34  1  0.82545000  0.11632000  0.03608000  1.0 0.0756333641
H  H35  1  0.65120000  0.01633000  0.92619000  1.0 0.0889587364
H  H36  1  0.42785000  0.09315000  0.89545000  1.0 0.1002169637
H  H37  1  0.53178000  0.23820000  0.96146000  1.0 0.0889587364
H  H38  1  0.22797000  0.98248000  0.82488000  1.0 0.074386727
H  H39  1  0.57679000  0.88614000  0.82990000  1.0 0.0889587364
H  H40  1  0.91488000  0.25336000  0.10043000  1.0 0.1300852997
H  H41  1  0.45422000  0.72574000  0.74630000  1.0 0.1418853155
H  H42  1  0.15333000  0.85209000  0.72569000  1.0 0.1300852997
H  H43  1  0.61875000  0.38835000  0.06601000  1.0 0.1300852997
H  H44  1  0.92313000  0.26903000  0.09895000  1.0 0.1418853155
H  H45  1  0.10071000  0.87700000  0.22308000  1.0 0.1130529514
H  H46  1  0.22177000  0.01650000  0.31028000  1.0 0.1300852997
H  H47  1  0.54071000  0.88922000  0.31804000  1.0 0.1300852997
H  H48  1  0.40882000  0.75191000  0.23210000  1.0 0.1130529514
H  H49  1  0.67774000  0.38328000  0.55689000  1.0 0.1130529514
H  H50  1  0.54922000  0.24959000  0.46523000  1.0 0.1300852997
H  H51  1  0.81866000  0.09566000  0.51335000  1.0 0.1300852997
H  H52  1  0.94096000  0.23440000  0.60239000  1.0 0.1198494341
H  H53  1  0.63491000  0.01610000  0.40896000  1.0 0.1130529514
H  H54  1  0.42788000  0.11014000  0.39395000  1.0 0.1130529514
H  H55  1  0.55702000  0.27765000  0.26310000  1.0 0.1418853155
H  H56  1  0.55547000  0.89193000  0.09749000  1.0 0.1002169637
H  H57  1  0.36140000  0.99614000  0.08772000  1.0 0.1002169637
H  H58  1  0.52040000  0.72832000  0.00739000  1.0 0.074386727
H  H59  1  0.41356000  0.16808000  0.17176000  1.0 0.074386727
H  H60  1  0.67915000  0.99825000  0.18514000  1.0 0.0889587364
H  H61  1  0.85386000  0.14228000  0.26011000  1.0 0.1198494341
H  H62  1  0.35820000  0.48410000  0.01852000  1.0 0.1198494341
H  H63  1  0.35601000  0.42861000  0.09226000  1.0 0.1300852997
H  H64  1  0.16193000  0.30350000  0.03301000  1.0 0.1130529514
H  H65  1  0.27925000  0.31421000  0.96840000  1.0 0.1130529514
H  H66  1  0.48018000  0.44758000  0.31067000  1.0 0.1300852997
H  H67  1  0.45601000  0.41333000  0.21544000  1.0 0.1002169637
H  H68  1  0.52350000  0.61299000  0.30043000  1.0 0.1198494341
H  H69  1  0.48344000  0.58328000  0.20629000  1.0 0.1198494341
H  H70  1  0.64855000  0.52430000  0.51404000  1.0 0.1300852997
H  H71  1  0.63221000  0.59637000  0.45513000  1.0 0.1300852997
H  H72  1  0.74671000  0.68610000  0.58025000  1.0 0.1198494341
H  H73  1  0.84202000  0.70783000  0.50667000  1.0 0.1198494341
H  H74  1  0.03441000  0.39592000  0.24890000  1.0 0.3601061574
H  H75  1  0.93430000  0.63951000  0.25046000  1.0 0.3703294865
H  H76  1  0.21981000  0.87686000  0.00590000  1.0 0.0889587364
H  H77  1  0.35830000  0.60156000  0.93465000  1.0 0.1418853155
H  H78  1  0.17455000  0.88368000  0.96392000  1.0 0.0756333641
H  H79  1  0.34880000  0.98367000  0.07381000  1.0 0.0889587364
H  H80  1  0.57215000  0.90685000  0.10455000  1.0 0.1002169637
H  H81  1  0.46822000  0.76180000  0.03854000  1.0 0.0889587364
H  H82  1  0.77203000  0.01752000  0.17512000  1.0 0.074386727
H  H83  1  0.42321000  0.11386000  0.17010000  1.0 0.0889587364
H  H84  1  0.08512000  0.74664000  0.89957000  1.0 0.1300852997
H  H85  1  0.54578000  0.27426000  0.25370000  1.0 0.1418853155
H  H86  1  0.84667000  0.14791000  0.27431000  1.0 0.1300852997
H  H87  1  0.38125000  0.61165000  0.93399000  1.0 0.1300852997
H  H88  1  0.07687000  0.73097000  0.90105000  1.0 0.1418853155
C  C1  1  0.80920000  0.12080000  0.75640000  1.0 0.0396360366
C  C2  1  0.66460000  0.33690000  0.05520000  1.0 -0.0482171539
C  C3  1  0.73750000  0.03720000  0.70450000  1.0 -0.2060255164
C  C4  1  0.60510000  0.03150000  0.67369000  1.0 0.1418853155
C  C5  1  0.55060000  0.11200000  0.69980000  1.0 -0.2208803946
C  C6  1  0.62970000  0.19360000  0.75150000  1.0 0.0261980204
C  C7  1  0.29300000  0.67590000  0.45230000  1.0 0.1130529514
C  C8  1  0.37070000  0.75580000  0.50710000  1.0 -0.1919917816
C  C9  1  0.33130000  0.84340000  0.52152000  1.0 0.1571520662
C  C10  1  0.21260000  0.84590000  0.47910000  1.0 -0.1967436203
C  C11  1  0.14020000  0.76270000  0.42570000  1.0 0.1002169637
C  C12  1  0.40770000  0.93080000  0.57940000  1.0 -0.162479108
C  C13  1  0.52950000  0.94300000  0.61680000  1.0 -0.162479108
C  C14  1  0.41220000  0.77910000  0.75860000  1.0 -0.0482171539
C  C15  1  0.46560000  0.93100000  0.83480000  1.0 0.0184371949
C  C16  1  0.61950000  0.17870000  0.98200000  1.0 0.0396360366
C  C17  1  0.52820000  0.09730000  0.92160000  1.0 -0.098910866
C  C18  1  0.55390000  0.01350000  0.89340000  1.0 -0.084633609
C  C19  1  0.56890000  0.26590000  0.00760000  1.0 -0.1263763287
C  C20  1  0.50290000  0.84370000  0.80980000  1.0 -0.1167829723
C  C21  1  0.34130000  0.93940000  0.80380000  1.0 -0.0087157036
C  C22  1  0.23770000  0.85520000  0.75370000  1.0 -0.0596549043
C  C23  1  0.83280000  0.25910000  0.07500000  1.0 -0.0327874285
C  C24  1  0.80060000  0.49920000  0.90573000  1.0 0.6552081576
C  C25  1  0.70340000  0.55640000  0.94810000  1.0 -0.2997910843
C  C26  1  0.78600000  0.65240000  0.00122000  1.0 -0.2997910843
C  C27  1  0.88730000  0.63360000  0.05943000  1.0 0.6516612839
C  C28  1  0.55680000  0.53700000  0.73814000  1.0 -0.3114990273
C  C29  1  0.47240000  0.43550000  0.74880000  1.0 -0.2997910843
C  C30  1  0.32080000  0.42930000  0.76567000  1.0 0.6426488033
C  C31  1  0.22130000  0.48160000  0.58111000  1.0 0.6516612839
C  C32  1  0.29950000  0.42870000  0.51795000  1.0 -0.2922941574
C  C33  1  0.20000000  0.34330000  0.46233000  1.0 -0.2997910843
C  C34  1  0.08440000  0.37410000  0.42357000  1.0 0.6516612839
C  C35  1  0.71160000  0.54500000  0.73090000  1.0 0.6284965149
C  C36  1  0.74510000  0.17870000  0.01310000  1.0 -0.0029483676
C  C37  1  0.41890000  0.95030000  0.83720000  1.0 0.0261980204
C  C38  1  0.78440000  0.16890000  0.03350000  1.0 -0.107799431
C  C39  1  0.67210000  0.16010000  0.98800000  1.0 0.0103588661
C  C40  1  0.60300000  0.06660000  0.93270000  1.0 -0.0874684246
C  C41  1  0.47850000  0.04440000  0.89020000  1.0 -0.0874684246
C  C42  1  0.61020000  0.24360000  0.99580000  1.0 0.0103588661
C  C43  1  0.28260000  0.93730000  0.80790000  1.0 -0.1167829723
C  C44  1  0.48250000  0.87600000  0.81220000  1.0 -0.0327874285
C  C45  1  0.19080000  0.87920000  0.24360000  1.0 0.0396360366
C  C46  1  0.33540000  0.66310000  0.94480000  1.0 -0.0482171539
C  C47  1  0.26250000  0.96280000  0.29550000  1.0 -0.2060255164
C  C48  1  0.39490000  0.96850000  0.32631000  1.0 0.1418853155
C  C49  1  0.44940000  0.88800000  0.30020000  1.0 -0.2208803946
C  C50  1  0.37030000  0.80640000  0.24850000  1.0 0.0261980204
C  C51  1  0.70700000  0.32410000  0.54770000  1.0 0.1130529514
C  C52  1  0.62930000  0.24420000  0.49290000  1.0 -0.1919917816
C  C53  1  0.66870000  0.15660000  0.47848000  1.0 0.1571520662
C  C54  1  0.78740000  0.15410000  0.52090000  1.0 -0.1967436203
C  C55  1  0.85980000  0.23730000  0.57430000  1.0 0.1002169637
C  C56  1  0.59230000  0.06920000  0.42060000  1.0 -0.162479108
C  C57  1  0.47050000  0.05700000  0.38320000  1.0 -0.162479108
C  C58  1  0.58780000  0.22090000  0.24140000  1.0 -0.0482171539
C  C59  1  0.53440000  0.06900000  0.16520000  1.0 0.0184371949
C  C60  1  0.38050000  0.82130000  0.01800000  1.0 0.0396360366
C  C61  1  0.47180000  0.90270000  0.07840000  1.0 -0.098910866
C  C62  1  0.44610000  0.98650000  0.10660000  1.0 -0.084633609
C  C63  1  0.43110000  0.73410000  0.99240000  1.0 -0.1263763287
C  C64  1  0.49710000  0.15630000  0.19020000  1.0 -0.1167829723
C  C65  1  0.65870000  0.06060000  0.19620000  1.0 -0.0087157036
C  C66  1  0.76230000  0.14480000  0.24630000  1.0 -0.0596549043
C  C67  1  0.16720000  0.74090000  0.92500000  1.0 -0.0327874285
C  C68  1  0.19940000  0.50080000  0.09427000  1.0 0.6552081576
C  C69  1  0.29660000  0.44360000  0.05190000  1.0 -0.2997910843
C  C70  1  0.21400000  0.34760000  0.99878000  1.0 -0.2997910843
C  C71  1  0.11270000  0.36640000  0.94057000  1.0 0.6516612839
C  C72  1  0.44320000  0.46300000  0.26186000  1.0 -0.3114990273
C  C73  1  0.52760000  0.56450000  0.25120000  1.0 -0.2997910843
C  C74  1  0.67920000  0.57070000  0.23433000  1.0 0.6426488033
C  C75  1  0.77870000  0.51840000  0.41889000  1.0 0.6516612839
C  C76  1  0.70050000  0.57130000  0.48205000  1.0 -0.2922941574
C  C77  1  0.80000000  0.65670000  0.53767000  1.0 -0.2997910843
C  C78  1  0.91560000  0.62590000  0.57643000  1.0 0.6516612839
C  C79  1  0.28840000  0.45500000  0.26910000  1.0 0.6284965149
C  C80  1  0.25490000  0.82130000  0.98690000  1.0 -0.0029483676
C  C81  1  0.58110000  0.04970000  0.16280000  1.0 0.0261980204
C  C82  1  0.21560000  0.83110000  0.96650000  1.0 -0.107799431
C  C83  1  0.32790000  0.83990000  0.01200000  1.0 0.0103588661
C  C84  1  0.39700000  0.93340000  0.06730000  1.0 -0.0874684246
C  C85  1  0.52150000  0.95560000  0.10980000  1.0 -0.0874684246
C  C86  1  0.38980000  0.75640000  0.00420000  1.0 0.0103588661
C  C87  1  0.71740000  0.06270000  0.19210000  1.0 -0.1167829723
C  C88  1  0.51750000  0.12400000  0.18780000  1.0 -0.0327874285
N  N1  1  0.17900000  0.67838000  0.41176000  1.0 -0.2060255164
N  N2  1  0.75800000  0.19949000  0.77963000  1.0 -0.2659447619
N  N3  1  0.28580000  0.77563000  0.73008000  1.0 -0.4146636257
N  N4  1  0.78590000  0.33953000  0.09147000  1.0 -0.3680656382
N  N5  1  0.82100000  0.32162000  0.58824000  1.0 -0.2060255164
N  N6  1  0.24200000  0.80051000  0.22037000  1.0 -0.2659447619
N  N7  1  0.71420000  0.22437000  0.26992000  1.0 -0.4146636257
N  N8  1  0.21410000  0.66047000  0.90853000  1.0 -0.3680656382
O  O1  1  0.79410000  0.62901000  0.74538000  1.0 -0.5621843068
O  O2  1  0.75440000  0.40548000  0.88825000  1.0 -0.5697229633
O  O3  1  0.91760000  0.54660000  0.89037000  1.0 -0.5185598859
O  O4  1  0.86530000  0.55007000  0.07504000  1.0 -0.5311722585
O  O5  1  0.99080000  0.70598000  0.08918000  1.0 -0.5697229633
O  O6  1  0.74620000  0.46488000  0.70986000  1.0 -0.5767254362
O  O7  1  0.28610000  0.50877000  0.78646000  1.0 -0.5621843068
O  O8  1  0.27050000  0.57412000  0.60329000  1.0 -0.5621843068
O  O9  1  0.11640000  0.43057000  0.60703000  1.0 -0.541680468
O  O10  1  0.09660000  0.46184000  0.42236000  1.0 -0.5478524098
O  O11  1  0.97760000  0.30367000  0.39319000  1.0 -0.5767254362
O  O12  1  0.04340000  0.58447000  0.74144000  1.0 -0.8129821846
O  O13  1  0.99020000  0.38887000  0.75903000  1.0 -0.8342236408
O  O14  1  0.23930000  0.34422000  0.75889000  1.0 -0.5858882496
O  O15  1  0.20590000  0.37099000  0.25462000  1.0 -0.5621843068
O  O16  1  0.24560000  0.59452000  0.11175000  1.0 -0.5697229633
O  O17  1  0.08240000  0.45340000  0.10963000  1.0 -0.5185598859
O  O18  1  0.13470000  0.44993000  0.92496000  1.0 -0.5311722585
O  O19  1  0.00920000  0.29402000  0.91082000  1.0 -0.5697229633
O  O20  1  0.25380000  0.53512000  0.29014000  1.0 -0.5767254362
O  O21  1  0.71390000  0.49123000  0.21354000  1.0 -0.5621843068
O  O22  1  0.72950000  0.42588000  0.39671000  1.0 -0.5621843068
O  O23  1  0.88360000  0.56943000  0.39297000  1.0 -0.541680468
O  O24  1  0.90340000  0.53816000  0.57764000  1.0 -0.5478524098
O  O25  1  0.02240000  0.69633000  0.60681000  1.0 -0.5767254362
O  O26  1  0.95660000  0.41553000  0.25856000  1.0 -0.8129821846
O  O27  1  0.00980000  0.61113000  0.24097000  1.0 -0.8342236408
O  O28  1  0.76070000  0.65578000  0.24111000  1.0 -0.5858882496
