# DDEC6 charges by PACMAN v1.1 (https://github.com/mtap-research/PACMAN-charge/)
data_PUMCEI01_FSR_pacman
_symmetry_space_group_name_H-M   'P 1'
_cell_length_a   9.91970000
_cell_length_b   14.43460000
_cell_length_c   16.71160000
_cell_angle_alpha   102.41200000
_cell_angle_beta   91.24000000
_cell_angle_gamma   103.88000000
_symmetry_Int_Tables_number   1
_chemical_formula_structural   Zn4H42C46N5O14
_chemical_formula_sum   'Zn8 H84 C92 N10 O28'
_cell_volume   2261.94347039
_cell_formula_units_Z   2
loop_
 _symmetry_equiv_pos_site_id
 _symmetry_equiv_pos_as_xyz
  1  'x, y, z'
loop_
 _atom_site_type_symbol
 _atom_site_label
 _atom_site_symmetry_multiplicity
 _atom_site_fract_x
 _atom_site_fract_y
 _atom_site_fract_z
 _atom_site_occupancy
 _atom_site_charge
Zn  Zn1  1  0.11485000  0.67404000  0.16628000  1.0 0.8290852237
Zn  Zn2  1  0.06435000  0.54278000  0.33580000  1.0 0.9090289999
Zn  Zn3  1  0.85381000  0.34148000  0.33296000  1.0 0.8181173134
Zn  Zn4  1  0.90089000  0.47519000  0.16614000  1.0 0.8181173134
Zn  Zn5  1  0.88515000  0.32596000  0.83372000  1.0 0.8290852237
Zn  Zn6  1  0.93565000  0.45722000  0.66420000  1.0 0.9090289999
Zn  Zn7  1  0.14619000  0.65852000  0.66704000  1.0 0.8181173134
Zn  Zn8  1  0.09911000  0.52481000  0.83386000  1.0 0.8181173134
H  H1  1  0.13196000  0.89546000  0.22625000  1.0 0.1096004189
H  H2  1  0.24533000  0.01656000  0.33702000  1.0 0.1304350996
H  H3  1  0.51932000  0.85538000  0.35721000  1.0 0.1304350996
H  H4  1  0.39567000  0.73679000  0.24800000  1.0 0.1193926953
H  H5  1  0.67421000  0.36784000  0.54514000  1.0 0.1096004189
H  H6  1  0.54195000  0.21424000  0.47752000  1.0 0.1304350996
H  H7  1  0.86240000  0.10298000  0.52547000  1.0 0.1304350996
H  H8  1  0.98459000  0.25867000  0.59272000  1.0 0.1193926953
H  H9  1  0.41198000  0.07593000  0.45382000  1.0 0.0901679839
H  H10  1  0.64543000  0.99410000  0.43632000  1.0 0.1015607569
H  H11  1  0.56326000  0.26214000  0.27781000  1.0 0.1193926953
H  H12  1  0.86707000  0.13365000  0.24756000  1.0 0.1096004189
H  H13  1  0.71676000  0.01696000  0.13354000  1.0 0.0901679839
H  H14  1  0.07989000  0.71824000  0.94001000  1.0 0.1015607569
H  H15  1  0.22183000  0.87338000  0.99949000  1.0 0.1015607569
H  H16  1  0.54815000  0.74986000  0.97831000  1.0 0.0803113147
H  H17  1  0.39775000  0.60442000  0.91565000  1.0 0.0803113147
H  H18  1  0.60169000  0.92212000  0.03318000  1.0 0.0709357414
H  H19  1  0.36703000  0.99782000  0.07244000  1.0 0.0901679839
H  H20  1  0.29158000  0.31948000  0.96924000  1.0 0.1096004189
H  H21  1  0.17458000  0.30835000  0.03360000  1.0 0.1096004189
H  H22  1  0.36291000  0.44042000  0.09527000  1.0 0.1193926953
H  H23  1  0.35713000  0.49066000  0.01905000  1.0 0.1193926953
H  H24  1  0.46130000  0.41272000  0.21755000  1.0 0.1096004189
H  H25  1  0.48336000  0.44331000  0.31567000  1.0 0.1193926953
H  H26  1  0.48588000  0.58358000  0.21754000  1.0 0.1193926953
H  H27  1  0.52519000  0.60939000  0.31437000  1.0 0.1193926953
H  H28  1  0.61764000  0.57468000  0.44745000  1.0 0.1304350996
H  H29  1  0.64666000  0.51384000  0.51274000  1.0 0.1304350996
H  H30  1  0.72631000  0.68016000  0.57392000  1.0 0.1193926953
H  H31  1  0.81820000  0.69862000  0.49845000  1.0 0.1193926953
H  H32  1  0.02948000  0.38782000  0.24249000  1.0 0.3545354683
H  H33  1  0.94308000  0.64085000  0.25740000  1.0 0.3646927405
H  H34  1  0.40610000  0.15459000  0.18643000  1.0 0.0901679839
H  H35  1  0.44396000  0.11795000  0.15360000  1.0 0.0901679839
H  H36  1  0.79190000  0.01631000  0.15397000  1.0 0.0803113147
H  H37  1  0.03747000  0.72222000  0.90289000  1.0 0.0803113147
H  H38  1  0.14160000  0.87860000  0.97492000  1.0 0.0803113147
H  H39  1  0.48874000  0.78957000  0.01234000  1.0 0.0901679839
H  H40  1  0.36194000  0.62744000  0.94751000  1.0 0.1015607569
H  H41  1  0.35097000  0.99334000  0.06160000  1.0 0.0803113147
H  H42  1  0.60362000  0.93174000  0.04641000  1.0 0.0803113147
H  H43  1  0.86804000  0.10454000  0.77375000  1.0 0.1096004189
H  H44  1  0.75467000  0.98344000  0.66298000  1.0 0.1304350996
H  H45  1  0.48068000  0.14462000  0.64279000  1.0 0.1304350996
H  H46  1  0.60433000  0.26321000  0.75200000  1.0 0.1193926953
H  H47  1  0.32579000  0.63216000  0.45486000  1.0 0.1096004189
H  H48  1  0.45805000  0.78576000  0.52248000  1.0 0.1304350996
H  H49  1  0.13760000  0.89702000  0.47453000  1.0 0.1304350996
H  H50  1  0.01541000  0.74133000  0.40728000  1.0 0.1193926953
H  H51  1  0.58802000  0.92407000  0.54618000  1.0 0.0901679839
H  H52  1  0.35457000  0.00590000  0.56368000  1.0 0.1015607569
H  H53  1  0.43674000  0.73786000  0.72219000  1.0 0.1193926953
H  H54  1  0.13293000  0.86635000  0.75244000  1.0 0.1096004189
H  H55  1  0.28324000  0.98304000  0.86646000  1.0 0.0901679839
H  H56  1  0.92011000  0.28176000  0.05999000  1.0 0.1015607569
H  H57  1  0.77817000  0.12662000  0.00051000  1.0 0.1015607569
H  H58  1  0.45185000  0.25014000  0.02169000  1.0 0.0803113147
H  H59  1  0.60225000  0.39558000  0.08435000  1.0 0.0803113147
H  H60  1  0.39831000  0.07788000  0.96682000  1.0 0.0709357414
H  H61  1  0.63297000  0.00218000  0.92756000  1.0 0.0901679839
H  H62  1  0.70842000  0.68052000  0.03076000  1.0 0.1096004189
H  H63  1  0.82542000  0.69165000  0.96640000  1.0 0.1096004189
H  H64  1  0.63709000  0.55958000  0.90473000  1.0 0.1193926953
H  H65  1  0.64287000  0.50934000  0.98095000  1.0 0.1193926953
H  H66  1  0.53870000  0.58728000  0.78245000  1.0 0.1096004189
H  H67  1  0.51664000  0.55669000  0.68433000  1.0 0.1193926953
H  H68  1  0.51412000  0.41642000  0.78246000  1.0 0.1193926953
H  H69  1  0.47481000  0.39061000  0.68563000  1.0 0.1193926953
H  H70  1  0.38236000  0.42532000  0.55255000  1.0 0.1304350996
H  H71  1  0.35334000  0.48616000  0.48726000  1.0 0.1304350996
H  H72  1  0.27369000  0.31984000  0.42608000  1.0 0.1193926953
H  H73  1  0.18180000  0.30138000  0.50155000  1.0 0.1193926953
H  H74  1  0.97052000  0.61218000  0.75751000  1.0 0.3545354683
H  H75  1  0.05692000  0.35915000  0.74260000  1.0 0.3646927405
H  H76  1  0.59390000  0.84541000  0.81357000  1.0 0.0901679839
H  H77  1  0.55604000  0.88205000  0.84640000  1.0 0.0901679839
H  H78  1  0.20810000  0.98369000  0.84603000  1.0 0.0803113147
H  H79  1  0.96253000  0.27778000  0.09711000  1.0 0.0803113147
H  H80  1  0.85840000  0.12140000  0.02508000  1.0 0.0803113147
H  H81  1  0.51126000  0.21043000  0.98766000  1.0 0.0901679839
H  H82  1  0.63806000  0.37256000  0.05249000  1.0 0.1015607569
H  H83  1  0.64903000  0.00666000  0.93840000  1.0 0.0803113147
H  H84  1  0.39638000  0.06826000  0.95359000  1.0 0.0803113147
C  C1  1  0.20920000  0.88570000  0.25500000  1.0 0.0619909394
C  C2  1  0.27660000  0.95850000  0.32120000  1.0 -0.2159180414
C  C3  1  0.38960000  0.94700000  0.36440000  1.0 0.1193926953
C  C4  1  0.43670000  0.86380000  0.33320000  1.0 -0.1935300749
C  C5  1  0.36300000  0.79370000  0.26740000  1.0 0.050822765
C  C6  1  0.71150000  0.31270000  0.54340000  1.0 0.1193926953
C  C7  1  0.63140000  0.22100000  0.50290000  1.0 -0.2159180414
C  C8  1  0.68310000  0.13960000  0.49990000  1.0 0.1382373501
C  C9  1  0.81920000  0.15590000  0.53120000  1.0 -0.1935300749
C  C10  1  0.89180000  0.24910000  0.57080000  1.0 0.0901679839
C  C11  1  0.44220000  0.01360000  0.44740000  1.0 -0.0914871689
C  C12  1  0.59730000  0.03490000  0.47620000  1.0 -0.0914871689
C  C13  1  0.59480000  0.20900000  0.24710000  1.0 -0.0025403276
C  C14  1  0.77750000  0.13990000  0.23220000  1.0 0.0010699284
C  C15  1  0.68370000  0.06950000  0.16410000  1.0 -0.0025403276
C  C16  1  0.17790000  0.72660000  0.94410000  1.0 0.0901679839
C  C17  1  0.26180000  0.81970000  0.98130000  1.0 -0.0139802644
C  C18  1  0.40440000  0.83140000  0.99080000  1.0 0.0081837756
C  C19  1  0.45260000  0.74710000  0.96800000  1.0 -0.1387971164
C  C20  1  0.36140000  0.66040000  0.93070000  1.0 0.0010699284
C  C21  1  0.51080000  0.92860000  0.01100000  1.0 -0.0687005293
C  C22  1  0.46830000  0.01690000  0.06340000  1.0 -0.0498207189
C  C23  1  0.11860000  0.36390000  0.93720000  1.0 0.6205291975
C  C24  1  0.22330000  0.35130000  0.99880000  1.0 -0.3116575352
C  C25  1  0.29970000  0.45060000  0.05310000  1.0 -0.3116575352
C  C26  1  0.19860000  0.50510000  0.09503000  1.0 0.6205291975
C  C27  1  0.29160000  0.45250000  0.27150000  1.0 0.6285634566
C  C28  1  0.44710000  0.46060000  0.26670000  1.0 -0.3116575352
C  C29  1  0.53020000  0.56300000  0.26210000  1.0 -0.2995618653
C  C30  1  0.68220000  0.57020000  0.24670000  1.0 0.6285634566
C  C31  1  0.77560000  0.50540000  0.41720000  1.0 0.6492142606
C  C32  1  0.69190000  0.55810000  0.47800000  1.0 -0.2995618653
C  C33  1  0.78240000  0.65070000  0.53220000  1.0 -0.2901203107
C  C34  1  0.90630000  0.62770000  0.57550000  1.0 0.6371979643
C  C35  1  0.49900000  0.14860000  0.19170000  1.0 -0.1175390795
C  C36  1  0.54780000  0.07530000  0.14150000  1.0 0.0214091282
C  C37  1  0.53640000  0.12490000  0.17480000  1.0 -0.0139802644
C  C38  1  0.60410000  0.05860000  0.13750000  1.0 0.0289762471
C  C39  1  0.73890000  0.06260000  0.17200000  1.0 -0.1175390795
C  C40  1  0.12990000  0.73570000  0.92670000  1.0 -0.0025403276
C  C41  1  0.19160000  0.82920000  0.96730000  1.0 -0.1309907209
C  C42  1  0.33100000  0.85050000  0.99760000  1.0 0.0081837756
C  C43  1  0.39510000  0.77730000  0.99090000  1.0 -0.0264327606
C  C44  1  0.31800000  0.67980000  0.95050000  1.0 0.0901679839
C  C45  1  0.40500000  0.95750000  0.02160000  1.0 -0.0687005293
C  C46  1  0.56240000  0.98950000  0.05260000  1.0 -0.0498207189
C  C47  1  0.79080000  0.11430000  0.74500000  1.0 0.0619909394
C  C48  1  0.72340000  0.04150000  0.67880000  1.0 -0.2159180414
C  C49  1  0.61040000  0.05300000  0.63560000  1.0 0.1193926953
C  C50  1  0.56330000  0.13620000  0.66680000  1.0 -0.1935300749
C  C51  1  0.63700000  0.20630000  0.73260000  1.0 0.050822765
C  C52  1  0.28850000  0.68730000  0.45660000  1.0 0.1193926953
C  C53  1  0.36860000  0.77900000  0.49710000  1.0 -0.2159180414
C  C54  1  0.31690000  0.86040000  0.50010000  1.0 0.1382373501
C  C55  1  0.18080000  0.84410000  0.46880000  1.0 -0.1935300749
C  C56  1  0.10820000  0.75090000  0.42920000  1.0 0.0901679839
C  C57  1  0.55780000  0.98640000  0.55260000  1.0 -0.0914871689
C  C58  1  0.40270000  0.96510000  0.52380000  1.0 -0.0914871689
C  C59  1  0.40520000  0.79100000  0.75290000  1.0 -0.0025403276
C  C60  1  0.22250000  0.86010000  0.76780000  1.0 0.0010699284
C  C61  1  0.31630000  0.93050000  0.83590000  1.0 -0.0025403276
C  C62  1  0.82210000  0.27340000  0.05590000  1.0 0.0901679839
C  C63  1  0.73820000  0.18030000  0.01870000  1.0 -0.0139802644
C  C64  1  0.59560000  0.16860000  0.00920000  1.0 0.0081837756
C  C65  1  0.54740000  0.25290000  0.03200000  1.0 -0.1387971164
C  C66  1  0.63860000  0.33960000  0.06930000  1.0 0.0010699284
C  C67  1  0.48920000  0.07140000  0.98900000  1.0 -0.0687005293
C  C68  1  0.53170000  0.98310000  0.93660000  1.0 -0.0498207189
C  C69  1  0.88140000  0.63610000  0.06280000  1.0 0.6205291975
C  C70  1  0.77670000  0.64870000  0.00120000  1.0 -0.3116575352
C  C71  1  0.70030000  0.54940000  0.94690000  1.0 -0.3116575352
C  C72  1  0.80140000  0.49490000  0.90497000  1.0 0.6205291975
C  C73  1  0.70840000  0.54750000  0.72850000  1.0 0.6285634566
C  C74  1  0.55290000  0.53940000  0.73330000  1.0 -0.3116575352
C  C75  1  0.46980000  0.43700000  0.73790000  1.0 -0.2995618653
C  C76  1  0.31780000  0.42980000  0.75330000  1.0 0.6285634566
C  C77  1  0.22440000  0.49460000  0.58280000  1.0 0.6492142606
C  C78  1  0.30810000  0.44190000  0.52200000  1.0 -0.2995618653
C  C79  1  0.21760000  0.34930000  0.46780000  1.0 -0.2901203107
C  C80  1  0.09370000  0.37230000  0.42450000  1.0 0.6371979643
C  C81  1  0.50100000  0.85140000  0.80830000  1.0 -0.1175390795
C  C82  1  0.45220000  0.92470000  0.85850000  1.0 0.0214091282
C  C83  1  0.46360000  0.87510000  0.82520000  1.0 -0.0139802644
C  C84  1  0.39590000  0.94140000  0.86250000  1.0 0.0289762471
C  C85  1  0.26110000  0.93740000  0.82800000  1.0 -0.1175390795
C  C86  1  0.87010000  0.26430000  0.07330000  1.0 -0.0025403276
C  C87  1  0.80840000  0.17080000  0.03270000  1.0 -0.1309907209
C  C88  1  0.66900000  0.14950000  0.00240000  1.0 0.0081837756
C  C89  1  0.60490000  0.22270000  0.00910000  1.0 -0.0264327606
C  C90  1  0.68200000  0.32020000  0.04950000  1.0 0.0901679839
C  C91  1  0.59500000  0.04250000  0.97840000  1.0 -0.0687005293
C  C92  1  0.43760000  0.01050000  0.94740000  1.0 -0.0498207189
N  N1  1  0.22790000  0.64860000  0.91410000  1.0 -0.1483694187
N  N2  1  0.24760000  0.80180000  0.22948000  1.0 -0.2655595314
N  N3  1  0.83730000  0.32730000  0.57984000  1.0 -0.2086127248
N  N4  1  0.72490000  0.21250000  0.26978000  1.0 -0.3558568429
N  N5  1  0.19190000  0.66040000  0.91800000  1.0 -0.1483694187
N  N6  1  0.77210000  0.35140000  0.08590000  1.0 -0.1387971164
N  N7  1  0.75240000  0.19820000  0.77052000  1.0 -0.2655595314
N  N8  1  0.16270000  0.67270000  0.42016000  1.0 -0.2086127248
N  N9  1  0.27510000  0.78750000  0.73022000  1.0 -0.3558568429
N  N10  1  0.80810000  0.33960000  0.08200000  1.0 -0.1483694187
O  O1  1  0.01810000  0.28903000  0.90447000  1.0 -0.5842081379
O  O2  1  0.13380000  0.44485000  0.92222000  1.0 -0.5018029681
O  O3  1  0.08410000  0.45613000  0.10915000  1.0 -0.5018029681
O  O4  1  0.23960000  0.59842000  0.11343000  1.0 -0.5612941217
O  O5  1  0.25550000  0.53155000  0.29543000  1.0 -0.5612941217
O  O6  1  0.21020000  0.36863000  0.25180000  1.0 -0.5612941217
O  O7  1  0.76570000  0.65410000  0.26590000  1.0 -0.5612941217
O  O8  1  0.71540000  0.49229000  0.21451000  1.0 -0.5506349873
O  O9  1  0.73190000  0.41217000  0.39520000  1.0 -0.5612941217
O  O10  1  0.87960000  0.55591000  0.39349000  1.0 -0.5276693177
O  O11  1  0.89890000  0.54135000  0.57619000  1.0 -0.5388842892
O  O12  1  0.00550000  0.70013000  0.60822000  1.0 -0.5506349873
O  O13  1  0.95630000  0.40952000  0.25594000  1.0 -0.7867213857
O  O14  1  0.01260000  0.60941000  0.24524000  1.0 -0.8194695782
O  O15  1  0.98190000  0.71097000  0.09553000  1.0 -0.5842081379
O  O16  1  0.86620000  0.55515000  0.07778000  1.0 -0.5018029681
O  O17  1  0.91590000  0.54387000  0.89085000  1.0 -0.5050484013
O  O18  1  0.76040000  0.40158000  0.88657000  1.0 -0.5612941217
O  O19  1  0.74450000  0.46845000  0.70457000  1.0 -0.5612941217
O  O20  1  0.78980000  0.63137000  0.74820000  1.0 -0.5612941217
O  O21  1  0.23430000  0.34590000  0.73410000  1.0 -0.5612941217
O  O22  1  0.28460000  0.50771000  0.78549000  1.0 -0.5506349873
O  O23  1  0.26810000  0.58783000  0.60480000  1.0 -0.5612941217
O  O24  1  0.12040000  0.44409000  0.60651000  1.0 -0.5276693177
O  O25  1  0.10110000  0.45865000  0.42381000  1.0 -0.5388842892
O  O26  1  0.99450000  0.29987000  0.39178000  1.0 -0.5506349873
O  O27  1  0.04370000  0.59048000  0.74406000  1.0 -0.7867213857
O  O28  1  0.98740000  0.39059000  0.75476000  1.0 -0.8194695782
