# DDEC6 charges by PACMAN v1.1 (https://github.com/mtap-research/PACMAN-charge/)
data_PUMYOO_FSR_pacman
_symmetry_space_group_name_H-M   'P 1'
_cell_length_a   9.25000000
_cell_length_b   28.29700000
_cell_length_c   17.54500000
_cell_angle_alpha   90.00000000
_cell_angle_beta   115.88900000
_cell_angle_gamma   90.00000000
_symmetry_Int_Tables_number   1
_chemical_formula_structural   CdH30C50S8(NO)4
_chemical_formula_sum   'Cd4 H120 C200 S32 N16 O16'
_cell_volume   4131.47415332
_cell_formula_units_Z   4
loop_
 _symmetry_equiv_pos_site_id
 _symmetry_equiv_pos_as_xyz
  1  'x, y, z'
loop_
 _atom_site_type_symbol
 _atom_site_label
 _atom_site_symmetry_multiplicity
 _atom_site_fract_x
 _atom_site_fract_y
 _atom_site_fract_z
 _atom_site_occupancy
 _atom_site_charge
Cd  Cd1  1  0.40755000  0.54652000  0.55603000  1.0 0.7471207302
Cd  Cd2  1  0.59245000  0.04652000  0.94397000  1.0 0.7471207302
Cd  Cd3  1  0.59245000  0.45348000  0.44397000  1.0 0.7471207302
Cd  Cd4  1  0.40755000  0.95348000  0.05603000  1.0 0.7471207302
H  H1  1  0.40845000  0.42043000  0.72831000  1.0 0.0992970917
H  H2  1  0.46552000  0.34741000  0.79730000  1.0 0.0992970917
H  H3  1  0.55642000  0.29229000  0.61034000  1.0 0.1096625514
H  H4  1  0.50136000  0.36533000  0.54181000  1.0 0.1164365183
H  H5  1  0.60768000  0.28904000  0.87207000  1.0 0.0992970917
H  H6  1  0.66463000  0.21652000  0.94120000  1.0 0.1096625514
H  H7  1  0.54172000  0.15144000  0.71533000  1.0 0.0992970917
H  H8  1  0.48967000  0.22489000  0.64798000  1.0 0.0992970917
H  H9  1  0.17993000  0.60016000  0.38265000  1.0 0.0992970917
H  H10  1  0.96247000  0.58592000  0.25192000  1.0 0.1337644528
H  H11  1  0.86817000  0.46716000  0.35078000  1.0 0.1401863924
H  H12  1  0.09603000  0.48294000  0.47561000  1.0 0.0714599509
H  H13  1  0.35654000  0.50442000  0.27117000  1.0 0.0902224474
H  H14  1  0.09136000  0.51114000  0.17424000  1.0 0.0618368223
H  H15  1  0.99533000  0.39202000  0.27055000  1.0 0.1096625514
H  H16  1  0.26598000  0.38829000  0.36569000  1.0 0.1096625514
H  H17  1  0.38381000  0.27325000  0.80310000  1.0 0.1096625514
H  H18  1  0.46340000  0.20447000  0.88804000  1.0 0.0992970917
H  H19  1  0.75418000  0.16837000  0.77700000  1.0 0.0992970917
H  H20  1  0.70766000  0.24244000  0.71032000  1.0 0.0992970917
H  H21  1  0.65083000  0.45904000  0.24665000  1.0 0.1401863924
H  H22  1  0.20170000  0.63958000  0.83723000  1.0 0.1337644528
H  H23  1  0.70529000  0.61731000  0.62166000  1.0 0.081946529
H  H24  1  0.96013000  0.63061000  0.73082000  1.0 0.0902224474
H  H25  1  0.91821000  0.50880000  0.83884000  1.0 0.0902224474
H  H26  1  0.66549000  0.49843000  0.72607000  1.0 0.1096625514
H  H27  1  0.20068000  0.59460000  0.36824000  1.0 0.0902224474
H  H28  1  0.94715000  0.58913000  0.25351000  1.0 0.1401863924
H  H29  1  0.88161000  0.46552000  0.35004000  1.0 0.1401863924
H  H30  1  0.13410000  0.47545000  0.46306000  1.0 0.0714599509
H  H31  1  0.59155000  0.92043000  0.77169000  1.0 0.0992970917
H  H32  1  0.53448000  0.84741000  0.70270000  1.0 0.0992970917
H  H33  1  0.44358000  0.79229000  0.88966000  1.0 0.1096625514
H  H34  1  0.49864000  0.86533000  0.95819000  1.0 0.1164365183
H  H35  1  0.39232000  0.78904000  0.62793000  1.0 0.0992970917
H  H36  1  0.33537000  0.71652000  0.55880000  1.0 0.1096625514
H  H37  1  0.45828000  0.65144000  0.78467000  1.0 0.0992970917
H  H38  1  0.51033000  0.72489000  0.85202000  1.0 0.0992970917
H  H39  1  0.82007000  0.10016000  0.11735000  1.0 0.0992970917
H  H40  1  0.03753000  0.08592000  0.24808000  1.0 0.1337644528
H  H41  1  0.13183000  0.96716000  0.14922000  1.0 0.1401863924
H  H42  1  0.90397000  0.98294000  0.02439000  1.0 0.0714599509
H  H43  1  0.64346000  0.00442000  0.22883000  1.0 0.0902224474
H  H44  1  0.90864000  0.01114000  0.32576000  1.0 0.0618368223
H  H45  1  0.00467000  0.89202000  0.22945000  1.0 0.1096625514
H  H46  1  0.73402000  0.88829000  0.13431000  1.0 0.1096625514
H  H47  1  0.61619000  0.77325000  0.69690000  1.0 0.1096625514
H  H48  1  0.53660000  0.70447000  0.61196000  1.0 0.0992970917
H  H49  1  0.24582000  0.66837000  0.72300000  1.0 0.0992970917
H  H50  1  0.29234000  0.74244000  0.78968000  1.0 0.0992970917
H  H51  1  0.34917000  0.95904000  0.25335000  1.0 0.1401863924
H  H52  1  0.79830000  0.13958000  0.66277000  1.0 0.1337644528
H  H53  1  0.29471000  0.11731000  0.87834000  1.0 0.081946529
H  H54  1  0.03987000  0.13061000  0.76918000  1.0 0.0902224474
H  H55  1  0.08179000  0.00880000  0.66116000  1.0 0.0902224474
H  H56  1  0.33451000  0.99843000  0.77393000  1.0 0.1096625514
H  H57  1  0.79932000  0.09460000  0.13176000  1.0 0.0902224474
H  H58  1  0.05285000  0.08913000  0.24649000  1.0 0.1337644528
H  H59  1  0.11839000  0.96552000  0.14996000  1.0 0.1401863924
H  H60  1  0.86590000  0.97545000  0.03694000  1.0 0.0714599509
H  H61  1  0.59155000  0.57957000  0.27169000  1.0 0.0992970917
H  H62  1  0.53448000  0.65259000  0.20270000  1.0 0.0992970917
H  H63  1  0.44358000  0.70771000  0.38966000  1.0 0.1096625514
H  H64  1  0.49864000  0.63467000  0.45819000  1.0 0.1164365183
H  H65  1  0.39232000  0.71096000  0.12793000  1.0 0.1096625514
H  H66  1  0.33537000  0.78348000  0.05880000  1.0 0.1096625514
H  H67  1  0.45828000  0.84856000  0.28467000  1.0 0.0992970917
H  H68  1  0.51033000  0.77511000  0.35202000  1.0 0.0992970917
H  H69  1  0.82007000  0.39984000  0.61735000  1.0 0.0992970917
H  H70  1  0.03753000  0.41408000  0.74808000  1.0 0.1337644528
H  H71  1  0.13183000  0.53284000  0.64922000  1.0 0.1401863924
H  H72  1  0.90397000  0.51706000  0.52439000  1.0 0.0714599509
H  H73  1  0.64346000  0.49558000  0.72883000  1.0 0.0902224474
H  H74  1  0.90864000  0.48886000  0.82576000  1.0 0.0618368223
H  H75  1  0.00467000  0.60798000  0.72945000  1.0 0.1096625514
H  H76  1  0.73402000  0.61171000  0.63431000  1.0 0.1096625514
H  H77  1  0.61619000  0.72675000  0.19690000  1.0 0.1096625514
H  H78  1  0.53660000  0.79553000  0.11196000  1.0 0.0992970917
H  H79  1  0.24582000  0.83163000  0.22300000  1.0 0.0992970917
H  H80  1  0.29234000  0.75756000  0.28968000  1.0 0.0992970917
H  H81  1  0.34917000  0.54096000  0.75335000  1.0 0.1401863924
H  H82  1  0.79830000  0.36042000  0.16277000  1.0 0.1337644528
H  H83  1  0.29471000  0.38269000  0.37834000  1.0 0.081946529
H  H84  1  0.03987000  0.36939000  0.26918000  1.0 0.0902224474
H  H85  1  0.08179000  0.49120000  0.16116000  1.0 0.0902224474
H  H86  1  0.33451000  0.50157000  0.27393000  1.0 0.1096625514
H  H87  1  0.79932000  0.40540000  0.63176000  1.0 0.0902224474
H  H88  1  0.05285000  0.41087000  0.74649000  1.0 0.1337644528
H  H89  1  0.11839000  0.53448000  0.64996000  1.0 0.1401863924
H  H90  1  0.86590000  0.52455000  0.53694000  1.0 0.0714599509
H  H91  1  0.40845000  0.07957000  0.22831000  1.0 0.0992970917
H  H92  1  0.46552000  0.15259000  0.29730000  1.0 0.0992970917
H  H93  1  0.55642000  0.20771000  0.11034000  1.0 0.0992970917
H  H94  1  0.50136000  0.13467000  0.04181000  1.0 0.1164365183
H  H95  1  0.60768000  0.21096000  0.37207000  1.0 0.1096625514
H  H96  1  0.66463000  0.28348000  0.44120000  1.0 0.1096625514
H  H97  1  0.54172000  0.34856000  0.21533000  1.0 0.0992970917
H  H98  1  0.48967000  0.27511000  0.14798000  1.0 0.0992970917
H  H99  1  0.17993000  0.89984000  0.88265000  1.0 0.0992970917
H  H100  1  0.96247000  0.91408000  0.75192000  1.0 0.1337644528
H  H101  1  0.86817000  0.03284000  0.85078000  1.0 0.1401863924
H  H102  1  0.09603000  0.01706000  0.97561000  1.0 0.0714599509
H  H103  1  0.35654000  0.99558000  0.77117000  1.0 0.0902224474
H  H104  1  0.09136000  0.98886000  0.67424000  1.0 0.0618368223
H  H105  1  0.99533000  0.10798000  0.77055000  1.0 0.1096625514
H  H106  1  0.26598000  0.11171000  0.86569000  1.0 0.1096625514
H  H107  1  0.38381000  0.22675000  0.30310000  1.0 0.1096625514
H  H108  1  0.46340000  0.29553000  0.38804000  1.0 0.0992970917
H  H109  1  0.75418000  0.33163000  0.27700000  1.0 0.0992970917
H  H110  1  0.70766000  0.25756000  0.21032000  1.0 0.0992970917
H  H111  1  0.65083000  0.04096000  0.74665000  1.0 0.1401863924
H  H112  1  0.20170000  0.86042000  0.33723000  1.0 0.1337644528
H  H113  1  0.70529000  0.88269000  0.12166000  1.0 0.081946529
H  H114  1  0.96013000  0.86939000  0.23082000  1.0 0.0902224474
H  H115  1  0.91821000  0.99120000  0.33884000  1.0 0.0902224474
H  H116  1  0.66549000  0.00157000  0.22607000  1.0 0.1096625514
H  H117  1  0.20068000  0.90540000  0.86824000  1.0 0.0902224474
H  H118  1  0.94715000  0.91087000  0.75351000  1.0 0.1401863924
H  H119  1  0.88161000  0.03448000  0.85004000  1.0 0.1401863924
H  H120  1  0.13410000  0.02455000  0.96306000  1.0 0.0714599509
C  C1  1  0.42300000  0.44780000  0.58820000  1.0 0.276321962
C  C2  1  0.45280000  0.40044000  0.62950000  1.0 -0.0184008912
C  C3  1  0.43990000  0.39456000  0.70440000  1.0 -0.2001614016
C  C4  1  0.47270000  0.35083000  0.74520000  1.0 -0.1876705842
C  C5  1  0.51600000  0.31202000  0.71050000  1.0 0.0618368223
C  C6  1  0.52670000  0.31824000  0.63480000  1.0 -0.1440852065
C  C7  1  0.49460000  0.36187000  0.59400000  1.0 -0.1275241919
C  C8  1  0.55140000  0.26545000  0.75440000  1.0 0.0398044531
C  C9  1  0.59750000  0.26110000  0.84000000  1.0 -0.0598338923
C  C10  1  0.62980000  0.21790000  0.88170000  1.0 -0.0792127777
C  C11  1  0.61070000  0.17725000  0.83570000  1.0 0.0101249847
C  C12  1  0.55720000  0.17960000  0.74750000  1.0 -0.0792127777
C  C13  1  0.52720000  0.22330000  0.70770000  1.0 -0.0598338923
C  C14  1  0.63380000  0.13020000  0.87810000  1.0 0.4107602607
C  C15  1  0.11950000  0.57190000  0.37490000  1.0 0.081946529
C  C16  1  0.98780000  0.56390000  0.29680000  1.0 -0.2108228683
C  C17  1  0.89440000  0.52390000  0.28510000  1.0 0.1096625514
C  C18  1  0.93320000  0.49390000  0.35450000  1.0 -0.1876705842
C  C19  1  0.06900000  0.50390000  0.42910000  1.0 0.0714599509
C  C20  1  0.76740000  0.50939000  0.19840000  1.0 0.0398044531
C  C21  1  0.63200000  0.47590000  0.19660000  1.0 -0.2366793719
C  C22  1  0.49390000  0.53810000  0.07250000  1.0 -0.1703136791
C  C23  1  0.38730000  0.55160000  0.99470000  1.0 -0.0097868991
C  C24  1  0.28170000  0.48180000  0.27240000  1.0 0.0101249847
C  C25  1  0.12350000  0.48620000  0.21450000  1.0 -0.090386936
C  C26  1  0.01130000  0.45395000  0.21520000  1.0 0.0531661041
C  C27  1  0.06700000  0.41619000  0.27100000  1.0 -0.0097868991
C  C28  1  0.22900000  0.41420000  0.32750000  1.0 0.0618368223
C  C29  1  0.83600000  0.46480000  0.16150000  1.0 -0.0526968208
C  C30  1  0.70130000  0.43310000  0.16650000  1.0 -0.1275241919
C  C31  1  0.46570000  0.25320000  0.80250000  1.0 -0.090386936
C  C32  1  0.50540000  0.21100000  0.84850000  1.0 -0.0598338923
C  C33  1  0.68330000  0.19000000  0.78490000  1.0 -0.0691493931
C  C34  1  0.65510000  0.23420000  0.74440000  1.0 -0.0691493931
C  C35  1  0.47200000  0.53700000  0.07700000  1.0 -0.1568280239
C  C36  1  0.38300000  0.56410000  0.00600000  1.0 0.0101249847
C  C37  1  0.23050000  0.61500000  0.87800000  1.0 -0.2171412878
C  C38  1  0.12700000  0.57820000  0.86740000  1.0 0.0101249847
C  C39  1  0.74940000  0.59500000  0.66640000  1.0 0.0531661041
C  C40  1  0.90170000  0.60310000  0.73150000  1.0 -0.0792127777
C  C41  1  0.96760000  0.57110000  0.79720000  1.0 0.0398044531
C  C42  1  0.87740000  0.53160000  0.79480000  1.0 -0.0404408215
C  C43  1  0.72630000  0.52570000  0.72730000  1.0 0.0618368223
C  C44  1  0.13370000  0.56840000  0.36470000  1.0 0.0618368223
C  C45  1  0.98360000  0.56510000  0.29560000  1.0 -0.2108228683
C  C46  1  0.88690000  0.52650000  0.28890000  1.0 0.1164365183
C  C47  1  0.94450000  0.49260000  0.35250000  1.0 -0.1876705842
C  C48  1  0.09480000  0.49870000  0.41980000  1.0 0.0902224474
C  C49  1  0.72880000  0.52100000  0.21770000  1.0 0.0398044531
C  C50  1  0.62350000  0.48400000  0.20650000  1.0 -0.2755107213
C  C51  1  0.57700000  0.94780000  0.91180000  1.0 0.276321962
C  C52  1  0.54720000  0.90044000  0.87050000  1.0 -0.0184008912
C  C53  1  0.56010000  0.89456000  0.79560000  1.0 -0.2001614016
C  C54  1  0.52730000  0.85083000  0.75480000  1.0 -0.1876705842
C  C55  1  0.48400000  0.81202000  0.78950000  1.0 0.0618368223
C  C56  1  0.47330000  0.81824000  0.86520000  1.0 -0.1440852065
C  C57  1  0.50540000  0.86187000  0.90600000  1.0 -0.1275241919
C  C58  1  0.44860000  0.76545000  0.74560000  1.0 0.0398044531
C  C59  1  0.40250000  0.76110000  0.66000000  1.0 -0.0598338923
C  C60  1  0.37020000  0.71790000  0.61830000  1.0 -0.0792127777
C  C61  1  0.38930000  0.67725000  0.66430000  1.0 0.0101249847
C  C62  1  0.44280000  0.67960000  0.75250000  1.0 -0.0792127777
C  C63  1  0.47280000  0.72330000  0.79230000  1.0 -0.0598338923
C  C64  1  0.36620000  0.63020000  0.62190000  1.0 0.4163877438
C  C65  1  0.88050000  0.07190000  0.12510000  1.0 0.081946529
C  C66  1  0.01220000  0.06390000  0.20320000  1.0 -0.2108228683
C  C67  1  0.10560000  0.02390000  0.21490000  1.0 0.1096625514
C  C68  1  0.06680000  0.99390000  0.14550000  1.0 -0.1876705842
C  C69  1  0.93100000  0.00390000  0.07090000  1.0 0.0714599509
C  C70  1  0.23260000  0.00939000  0.30160000  1.0 0.0398044531
C  C71  1  0.36800000  0.97590000  0.30340000  1.0 -0.2366793719
C  C72  1  0.50610000  0.03810000  0.42750000  1.0 -0.1703136791
C  C73  1  0.61270000  0.05160000  0.50530000  1.0 -0.0097868991
C  C74  1  0.71830000  0.98180000  0.22760000  1.0 0.0101249847
C  C75  1  0.87650000  0.98620000  0.28550000  1.0 -0.090386936
C  C76  1  0.98870000  0.95395000  0.28480000  1.0 0.0531661041
C  C77  1  0.93300000  0.91619000  0.22900000  1.0 -0.0097868991
C  C78  1  0.77100000  0.91420000  0.17250000  1.0 0.0618368223
C  C79  1  0.16400000  0.96480000  0.33850000  1.0 -0.0598338923
C  C80  1  0.29870000  0.93310000  0.33350000  1.0 -0.1275241919
C  C81  1  0.53430000  0.75320000  0.69750000  1.0 -0.090386936
C  C82  1  0.49460000  0.71100000  0.65150000  1.0 -0.0598338923
C  C83  1  0.31670000  0.69000000  0.71510000  1.0 -0.0691493931
C  C84  1  0.34490000  0.73420000  0.75560000  1.0 -0.0691493931
C  C85  1  0.52800000  0.03700000  0.42300000  1.0 -0.1568280239
C  C86  1  0.61700000  0.06410000  0.49400000  1.0 0.0101249847
C  C87  1  0.76950000  0.11500000  0.62200000  1.0 -0.2171412878
C  C88  1  0.87300000  0.07820000  0.63260000  1.0 0.0101249847
C  C89  1  0.25060000  0.09500000  0.83360000  1.0 0.0531661041
C  C90  1  0.09830000  0.10310000  0.76850000  1.0 -0.0792127777
C  C91  1  0.03240000  0.07110000  0.70280000  1.0 0.0398044531
C  C92  1  0.12260000  0.03160000  0.70520000  1.0 -0.0404408215
C  C93  1  0.27370000  0.02570000  0.77270000  1.0 0.0618368223
C  C94  1  0.86630000  0.06840000  0.13530000  1.0 0.0618368223
C  C95  1  0.01640000  0.06510000  0.20440000  1.0 -0.2108228683
C  C96  1  0.11310000  0.02650000  0.21110000  1.0 0.1164365183
C  C97  1  0.05550000  0.99260000  0.14750000  1.0 -0.1876705842
C  C98  1  0.90520000  0.99870000  0.08020000  1.0 0.0902224474
C  C99  1  0.27120000  0.02100000  0.28230000  1.0 0.0398044531
C  C100  1  0.37650000  0.98400000  0.29350000  1.0 -0.2755107213
C  C101  1  0.57700000  0.55220000  0.41180000  1.0 0.276321962
C  C102  1  0.54720000  0.59956000  0.37050000  1.0 -0.0184008912
C  C103  1  0.56010000  0.60544000  0.29560000  1.0 -0.2001614016
C  C104  1  0.52730000  0.64917000  0.25480000  1.0 -0.1844941158
C  C105  1  0.48400000  0.68798000  0.28950000  1.0 0.0618368223
C  C106  1  0.47330000  0.68176000  0.36520000  1.0 -0.1440852065
C  C107  1  0.50540000  0.63813000  0.40600000  1.0 -0.1275241919
C  C108  1  0.44860000  0.73455000  0.24560000  1.0 0.0398044531
C  C109  1  0.40250000  0.73890000  0.16000000  1.0 -0.0598338923
C  C110  1  0.37020000  0.78210000  0.11830000  1.0 -0.0792127777
C  C111  1  0.38930000  0.82275000  0.16430000  1.0 0.0101249847
C  C112  1  0.44280000  0.82040000  0.25250000  1.0 -0.0792127777
C  C113  1  0.47280000  0.77670000  0.29230000  1.0 -0.0598338923
C  C114  1  0.36620000  0.86980000  0.12190000  1.0 0.4107602607
C  C115  1  0.88050000  0.42810000  0.62510000  1.0 0.081946529
C  C116  1  0.01220000  0.43610000  0.70320000  1.0 -0.2108228683
C  C117  1  0.10560000  0.47610000  0.71490000  1.0 0.1096625514
C  C118  1  0.06680000  0.50610000  0.64550000  1.0 -0.1876705842
C  C119  1  0.93100000  0.49610000  0.57090000  1.0 0.0714599509
C  C120  1  0.23260000  0.49061000  0.80160000  1.0 0.0398044531
C  C121  1  0.36800000  0.52410000  0.80340000  1.0 -0.2366793719
C  C122  1  0.50610000  0.46190000  0.92750000  1.0 -0.1703136791
C  C123  1  0.61270000  0.44840000  0.00530000  1.0 -0.0097868991
C  C124  1  0.71830000  0.51820000  0.72760000  1.0 0.0101249847
C  C125  1  0.87650000  0.51380000  0.78550000  1.0 -0.090386936
C  C126  1  0.98870000  0.54605000  0.78480000  1.0 0.0531661041
C  C127  1  0.93300000  0.58381000  0.72900000  1.0 -0.0097868991
C  C128  1  0.77100000  0.58580000  0.67250000  1.0 0.0618368223
C  C129  1  0.16400000  0.53520000  0.83850000  1.0 -0.0598338923
C  C130  1  0.29870000  0.56690000  0.83350000  1.0 -0.1275241919
C  C131  1  0.53430000  0.74680000  0.19750000  1.0 -0.090386936
C  C132  1  0.49460000  0.78900000  0.15150000  1.0 -0.0598338923
C  C133  1  0.31670000  0.81000000  0.21510000  1.0 -0.0691493931
C  C134  1  0.34490000  0.76580000  0.25560000  1.0 -0.0691493931
C  C135  1  0.52800000  0.46300000  0.92300000  1.0 -0.1568280239
C  C136  1  0.61700000  0.43590000  0.99400000  1.0 0.0101249847
C  C137  1  0.76950000  0.38500000  0.12200000  1.0 -0.2171412878
C  C138  1  0.87300000  0.42180000  0.13260000  1.0 0.0101249847
C  C139  1  0.25060000  0.40500000  0.33360000  1.0 0.0531661041
C  C140  1  0.09830000  0.39690000  0.26850000  1.0 -0.0792127777
C  C141  1  0.03240000  0.42890000  0.20280000  1.0 0.0398044531
C  C142  1  0.12260000  0.46840000  0.20520000  1.0 -0.0404408215
C  C143  1  0.27370000  0.47430000  0.27270000  1.0 0.0618368223
C  C144  1  0.86630000  0.43160000  0.63530000  1.0 0.0618368223
C  C145  1  0.01640000  0.43490000  0.70440000  1.0 -0.2108228683
C  C146  1  0.11310000  0.47350000  0.71110000  1.0 0.1164365183
C  C147  1  0.05550000  0.50740000  0.64750000  1.0 -0.1876705842
C  C148  1  0.90520000  0.50130000  0.58020000  1.0 0.0902224474
C  C149  1  0.27120000  0.47900000  0.78230000  1.0 0.0398044531
C  C150  1  0.37650000  0.51600000  0.79350000  1.0 -0.2739984173
C  C151  1  0.42300000  0.05220000  0.08820000  1.0 0.276321962
C  C152  1  0.45280000  0.09956000  0.12950000  1.0 -0.0184008912
C  C153  1  0.43990000  0.10544000  0.20440000  1.0 -0.2001614016
C  C154  1  0.47270000  0.14917000  0.24520000  1.0 -0.1876705842
C  C155  1  0.51600000  0.18798000  0.21050000  1.0 0.0618368223
C  C156  1  0.52670000  0.18176000  0.13480000  1.0 -0.1440852065
C  C157  1  0.49460000  0.13813000  0.09400000  1.0 -0.1275241919
C  C158  1  0.55140000  0.23455000  0.25440000  1.0 0.0398044531
C  C159  1  0.59750000  0.23890000  0.34000000  1.0 -0.0598338923
C  C160  1  0.62980000  0.28210000  0.38170000  1.0 -0.0792127777
C  C161  1  0.61070000  0.32275000  0.33570000  1.0 0.0101249847
C  C162  1  0.55720000  0.32040000  0.24750000  1.0 -0.0792127777
C  C163  1  0.52720000  0.27670000  0.20770000  1.0 -0.0598338923
C  C164  1  0.63380000  0.36980000  0.37810000  1.0 0.4107602607
C  C165  1  0.11950000  0.92810000  0.87490000  1.0 0.081946529
C  C166  1  0.98780000  0.93610000  0.79680000  1.0 -0.2108228683
C  C167  1  0.89440000  0.97610000  0.78510000  1.0 0.1096625514
C  C168  1  0.93320000  0.00610000  0.85450000  1.0 -0.1876705842
C  C169  1  0.06900000  0.99610000  0.92910000  1.0 0.0714599509
C  C170  1  0.76740000  0.99061000  0.69840000  1.0 0.0398044531
C  C171  1  0.63200000  0.02410000  0.69660000  1.0 -0.2366793719
C  C172  1  0.49390000  0.96190000  0.57250000  1.0 -0.1703136791
C  C173  1  0.38730000  0.94840000  0.49470000  1.0 -0.0097868991
C  C174  1  0.28170000  0.01820000  0.77240000  1.0 0.0101249847
C  C175  1  0.12350000  0.01380000  0.71450000  1.0 -0.090386936
C  C176  1  0.01130000  0.04605000  0.71520000  1.0 0.0531661041
C  C177  1  0.06700000  0.08381000  0.77100000  1.0 -0.0097868991
C  C178  1  0.22900000  0.08580000  0.82750000  1.0 0.0618368223
C  C179  1  0.83600000  0.03520000  0.66150000  1.0 -0.0598338923
C  C180  1  0.70130000  0.06690000  0.66650000  1.0 -0.1275241919
C  C181  1  0.46570000  0.24680000  0.30250000  1.0 -0.090386936
C  C182  1  0.50540000  0.28900000  0.34850000  1.0 -0.0598338923
C  C183  1  0.68330000  0.31000000  0.28490000  1.0 -0.0691493931
C  C184  1  0.65510000  0.26580000  0.24440000  1.0 -0.0691493931
C  C185  1  0.47200000  0.96300000  0.57700000  1.0 -0.1568280239
C  C186  1  0.38300000  0.93590000  0.50600000  1.0 0.0101249847
C  C187  1  0.23050000  0.88500000  0.37800000  1.0 -0.2171412878
C  C188  1  0.12700000  0.92180000  0.36740000  1.0 0.0101249847
C  C189  1  0.74940000  0.90500000  0.16640000  1.0 0.0531661041
C  C190  1  0.90170000  0.89690000  0.23150000  1.0 -0.0792127777
C  C191  1  0.96760000  0.92890000  0.29720000  1.0 0.0398044531
C  C192  1  0.87740000  0.96840000  0.29480000  1.0 -0.0404408215
C  C193  1  0.72630000  0.97430000  0.22730000  1.0 0.0618368223
C  C194  1  0.13370000  0.93160000  0.86470000  1.0 0.0618368223
C  C195  1  0.98360000  0.93490000  0.79560000  1.0 -0.2108228683
C  C196  1  0.88690000  0.97350000  0.78890000  1.0 0.1164365183
C  C197  1  0.94450000  0.00740000  0.85250000  1.0 -0.1876705842
C  C198  1  0.09480000  0.00130000  0.91980000  1.0 0.0902224474
C  C199  1  0.72880000  0.97900000  0.71770000  1.0 0.0398044531
C  C200  1  0.62350000  0.01600000  0.70650000  1.0 -0.2739984173
S  S1  1  0.68760000  0.55940000  0.12880000  1.0 0.0902224474
S  S2  1  0.43372000  0.49788000  0.13012000  1.0 0.1567375879
S  S3  1  0.19080000  0.53113000  0.94890000  1.0 -0.0033283763
S  S4  1  0.42394000  0.59464000  0.93375000  1.0 0.1686815541
S  S5  1  0.67190000  0.56820000  0.14140000  1.0 0.0714599509
S  S6  1  0.44470000  0.48440000  0.11880000  1.0 0.1534051556
S  S7  1  0.41100000  0.61610000  0.96480000  1.0 0.0992970917
S  S8  1  0.18570000  0.52980000  0.94290000  1.0 -0.0097868991
S  S9  1  0.31240000  0.05940000  0.37120000  1.0 0.0902224474
S  S10  1  0.56628000  0.99788000  0.36988000  1.0 0.1567375879
S  S11  1  0.80920000  0.03113000  0.55110000  1.0 -0.0033283763
S  S12  1  0.57606000  0.09464000  0.56625000  1.0 0.1686815541
S  S13  1  0.32810000  0.06820000  0.35860000  1.0 0.0714599509
S  S14  1  0.55530000  0.98440000  0.38120000  1.0 0.1534051556
S  S15  1  0.58900000  0.11610000  0.53520000  1.0 0.0992970917
S  S16  1  0.81430000  0.02980000  0.55710000  1.0 -0.0033283763
S  S17  1  0.31240000  0.44060000  0.87120000  1.0 0.0902224474
S  S18  1  0.56628000  0.50212000  0.86988000  1.0 0.1567375879
S  S19  1  0.80920000  0.46887000  0.05110000  1.0 -0.0033283763
S  S20  1  0.57606000  0.40536000  0.06625000  1.0 0.1686815541
S  S21  1  0.32810000  0.43180000  0.85860000  1.0 0.0714599509
S  S22  1  0.55530000  0.51560000  0.88120000  1.0 0.1534051556
S  S23  1  0.58900000  0.38390000  0.03520000  1.0 0.0992970917
S  S24  1  0.81430000  0.47020000  0.05710000  1.0 -0.0097868991
S  S25  1  0.68760000  0.94060000  0.62880000  1.0 0.0902224474
S  S26  1  0.43372000  0.00212000  0.63012000  1.0 0.1567375879
S  S27  1  0.19080000  0.96887000  0.44890000  1.0 -0.0033283763
S  S28  1  0.42394000  0.90536000  0.43375000  1.0 0.1686815541
S  S29  1  0.67190000  0.93180000  0.64140000  1.0 0.0714599509
S  S30  1  0.44470000  0.01560000  0.61880000  1.0 0.1534051556
S  S31  1  0.41100000  0.88390000  0.46480000  1.0 0.0992970917
S  S32  1  0.18570000  0.97020000  0.44290000  1.0 -0.0097868991
N  N1  1  0.16320000  0.54134000  0.43890000  1.0 -0.1515766293
N  N2  1  0.33570000  0.44730000  0.33040000  1.0 -0.2108228683
N  N3  1  0.66370000  0.55690000  0.66470000  1.0 -0.2171412878
N  N4  1  0.18660000  0.53610000  0.42560000  1.0 -0.1515766293
N  N5  1  0.83680000  0.04134000  0.06110000  1.0 -0.1515766293
N  N6  1  0.66430000  0.94730000  0.16960000  1.0 -0.2108228683
N  N7  1  0.33630000  0.05690000  0.83530000  1.0 -0.2171412878
N  N8  1  0.81340000  0.03610000  0.07440000  1.0 -0.1515766293
N  N9  1  0.83680000  0.45866000  0.56110000  1.0 -0.1515766293
N  N10  1  0.66430000  0.55270000  0.66960000  1.0 -0.2108228683
N  N11  1  0.33630000  0.44310000  0.33530000  1.0 -0.2171412878
N  N12  1  0.81340000  0.46390000  0.57440000  1.0 -0.1515766293
N  N13  1  0.16320000  0.95866000  0.93890000  1.0 -0.1515766293
N  N14  1  0.33570000  0.05270000  0.83040000  1.0 -0.2108228683
N  N15  1  0.66370000  0.94310000  0.16470000  1.0 -0.2171412878
N  N16  1  0.18660000  0.96390000  0.92560000  1.0 -0.1515766293
O  O1  1  0.45168000  0.45512000  0.52578000  1.0 -0.5230259378
O  O2  1  0.37001000  0.48032000  0.61911000  1.0 -0.5230259378
O  O3  1  0.67315000  0.09519000  0.84725000  1.0 -0.5321537186
O  O4  1  0.60856000  0.12752000  0.94296000  1.0 -0.5094956685
O  O5  1  0.54832000  0.95512000  0.97422000  1.0 -0.5230259378
O  O6  1  0.62999000  0.98032000  0.88089000  1.0 -0.5230259378
O  O7  1  0.32685000  0.59519000  0.65275000  1.0 -0.5321537186
O  O8  1  0.39144000  0.62752000  0.55704000  1.0 -0.5094956685
O  O9  1  0.54832000  0.54488000  0.47422000  1.0 -0.5230259378
O  O10  1  0.62999000  0.51968000  0.38089000  1.0 -0.5230259378
O  O11  1  0.32685000  0.90481000  0.15275000  1.0 -0.5321537186
O  O12  1  0.39144000  0.87248000  0.05704000  1.0 -0.5094956685
O  O13  1  0.45168000  0.04488000  0.02578000  1.0 -0.5230259378
O  O14  1  0.37001000  0.01968000  0.11911000  1.0 -0.5230259378
O  O15  1  0.67315000  0.40481000  0.34725000  1.0 -0.5321537186
O  O16  1  0.60856000  0.37248000  0.44296000  1.0 -0.5094956685
