# DDEC6 charges by PACMAN v1.1 (https://github.com/mtap-research/PACMAN-charge/)
data_PUNSOH_ASR_pacman
_symmetry_space_group_name_H-M   'P 1'
_cell_length_a   8.82100000
_cell_length_b   20.98800000
_cell_length_c   11.50700000
_cell_angle_alpha   90.00000000
_cell_angle_beta   102.30700000
_cell_angle_gamma   90.00000000
_symmetry_Int_Tables_number   1
_chemical_formula_structural   LaH9C12(NO2)3
_chemical_formula_sum   'La4 H36 C48 N12 O24'
_cell_volume   2081.39372289
_cell_formula_units_Z   4
loop_
 _symmetry_equiv_pos_site_id
 _symmetry_equiv_pos_as_xyz
  1  'x, y, z'
loop_
 _atom_site_type_symbol
 _atom_site_label
 _atom_site_symmetry_multiplicity
 _atom_site_fract_x
 _atom_site_fract_y
 _atom_site_fract_z
 _atom_site_occupancy
 _atom_site_charge
La  La1  1  0.88557000  0.73783000  0.83201000  1.0 1.8168046546
La  La2  1  0.61443000  0.23783000  0.16799000  1.0 1.8168046546
La  La3  1  0.11443000  0.26217000  0.16799000  1.0 1.8168046546
La  La4  1  0.38557000  0.76217000  0.83201000  1.0 1.8168046546
H  H1  1  0.12910000  0.74870000  0.16850000  1.0 0.1314156749
H  H2  1  0.37090000  0.24870000  0.83150000  1.0 0.1314156749
H  H3  1  0.87090000  0.25130000  0.83150000  1.0 0.1314156749
H  H4  1  0.62910000  0.75130000  0.16850000  1.0 0.1314156749
H  H5  1  0.07690000  0.82090000  0.13830000  1.0 0.1370005195
H  H6  1  0.42310000  0.32090000  0.86170000  1.0 0.1370005195
H  H7  1  0.92310000  0.17910000  0.86170000  1.0 0.1370005195
H  H8  1  0.57690000  0.67910000  0.13830000  1.0 0.1370005195
H  H9  1  0.24880000  0.91200000  0.25110000  1.0 0.1370005195
H  H10  1  0.25120000  0.41200000  0.74890000  1.0 0.1370005195
H  H11  1  0.75120000  0.08800000  0.74890000  1.0 0.1370005195
H  H12  1  0.74880000  0.58800000  0.25110000  1.0 0.1370005195
H  H13  1  0.47160000  0.91350000  0.42390000  1.0 0.1314156749
H  H14  1  0.02840000  0.41350000  0.57610000  1.0 0.1314156749
H  H15  1  0.52840000  0.08650000  0.57610000  1.0 0.1314156749
H  H16  1  0.97160000  0.58650000  0.42390000  1.0 0.1314156749
H  H17  1  0.38820000  0.73350000  0.32610000  1.0 0.1054209692
H  H18  1  0.11180000  0.23350000  0.67390000  1.0 0.1054209692
H  H19  1  0.61180000  0.26650000  0.67390000  1.0 0.1054209692
H  H20  1  0.88820000  0.76650000  0.32610000  1.0 0.1054209692
H  H21  1  0.63370000  0.75190000  0.48630000  1.0 0.1370005195
H  H22  1  0.86630000  0.25190000  0.51370000  1.0 0.1370005195
H  H23  1  0.36630000  0.24810000  0.51370000  1.0 0.1370005195
H  H24  1  0.13370000  0.74810000  0.48630000  1.0 0.1370005195
H  H25  1  0.67880000  0.82450000  0.52090000  1.0 0.1370005195
H  H26  1  0.82120000  0.32450000  0.47910000  1.0 0.1370005195
H  H27  1  0.32120000  0.17550000  0.47910000  1.0 0.1370005195
H  H28  1  0.17880000  0.67550000  0.52090000  1.0 0.1370005195
H  H29  1  0.29920000  0.56770000  0.06710000  1.0 0.1160201502
H  H30  1  0.20080000  0.06770000  0.93290000  1.0 0.1160201502
H  H31  1  0.70080000  0.43230000  0.93290000  1.0 0.1160201502
H  H32  1  0.79920000  0.93230000  0.06710000  1.0 0.1160201502
H  H33  1  0.28680000  0.53900000  0.93710000  1.0 0.1314156749
H  H34  1  0.21320000  0.03900000  0.06290000  1.0 0.1314156749
H  H35  1  0.71320000  0.46100000  0.06290000  1.0 0.1314156749
H  H36  1  0.78680000  0.96100000  0.93710000  1.0 0.1314156749
C  C1  1  0.23600000  0.78910000  0.04300000  1.0 0.6013875676
C  C2  1  0.26400000  0.28910000  0.95700000  1.0 0.6013875676
C  C3  1  0.76400000  0.21090000  0.95700000  1.0 0.6013875676
C  C4  1  0.73600000  0.71090000  0.04300000  1.0 0.6013875676
C  C5  1  0.16690000  0.79160000  0.15300000  1.0 -0.2946135926
C  C6  1  0.33310000  0.29160000  0.84700000  1.0 -0.2946135926
C  C7  1  0.83310000  0.20840000  0.84700000  1.0 -0.2946135926
C  C8  1  0.66690000  0.70840000  0.15300000  1.0 -0.2946135926
C  C9  1  0.30500000  0.87620000  0.28820000  1.0 -0.1112857929
C  C10  1  0.19500000  0.37620000  0.71180000  1.0 -0.1112857929
C  C11  1  0.69500000  0.12380000  0.71180000  1.0 -0.1112857929
C  C12  1  0.80500000  0.62380000  0.28820000  1.0 -0.1112857929
C  C13  1  0.42640000  0.87680000  0.38200000  1.0 -0.0930074065
C  C14  1  0.07360000  0.37680000  0.61800000  1.0 -0.0930074065
C  C15  1  0.57360000  0.12320000  0.61800000  1.0 -0.0930074065
C  C16  1  0.92640000  0.62320000  0.38200000  1.0 -0.0930074065
C  C17  1  0.38110000  0.77860000  0.32900000  1.0 0.0177542807
C  C18  1  0.11890000  0.27860000  0.67100000  1.0 0.0177542807
C  C19  1  0.61890000  0.22140000  0.67100000  1.0 0.0177542807
C  C20  1  0.88110000  0.72140000  0.32900000  1.0 0.0177542807
C  C21  1  0.59230000  0.79340000  0.50630000  1.0 -0.2977988052
C  C22  1  0.90770000  0.29340000  0.49370000  1.0 -0.2977988052
C  C23  1  0.40770000  0.20660000  0.49370000  1.0 -0.2977988052
C  C24  1  0.09230000  0.70660000  0.50630000  1.0 -0.2977988052
C  C25  1  0.52900000  0.78640000  0.61780000  1.0 0.6113137228
C  C26  1  0.97100000  0.28640000  0.38220000  1.0 0.6113137228
C  C27  1  0.47100000  0.21360000  0.38220000  1.0 0.6113137228
C  C28  1  0.02900000  0.71360000  0.61780000  1.0 0.6113137228
C  C29  1  0.20160000  0.63010000  0.93490000  1.0 0.6388557923
C  C30  1  0.29840000  0.13010000  0.06510000  1.0 0.6388557923
C  C31  1  0.79840000  0.36990000  0.06510000  1.0 0.6388557923
C  C32  1  0.70160000  0.86990000  0.93490000  1.0 0.6388557923
C  C33  1  0.23010000  0.56380000  0.98740000  1.0 -0.2657325195
C  C34  1  0.26990000  0.06380000  0.01260000  1.0 -0.2657325195
C  C35  1  0.76990000  0.43620000  0.01260000  1.0 -0.2657325195
C  C36  1  0.73010000  0.93620000  0.98740000  1.0 -0.2657325195
C  C37  1  0.08900000  0.48880000  0.89900000  1.0 -0.1640054139
C  C38  1  0.41100000  0.98880000  0.10100000  1.0 -0.1640054139
C  C39  1  0.91100000  0.51120000  0.10100000  1.0 -0.1640054139
C  C40  1  0.58900000  0.01120000  0.89900000  1.0 -0.1640054139
C  C41  1  0.04200000  0.54350000  0.11100000  1.0 -0.1504283774
C  C42  1  0.45800000  0.04350000  0.88900000  1.0 -0.1504283774
C  C43  1  0.95800000  0.45650000  0.88900000  1.0 -0.1504283774
C  C44  1  0.54200000  0.95650000  0.11100000  1.0 -0.1504283774
C  C45  1  0.00700000  0.48520000  0.95700000  1.0 0.0030593534
C  C46  1  0.49300000  0.98520000  0.04300000  1.0 0.0052778383
C  C47  1  0.99300000  0.51480000  0.04300000  1.0 0.0052778383
C  C48  1  0.50700000  0.01480000  0.95700000  1.0 0.0030593534
N  N1  1  0.27900000  0.81300000  0.25710000  1.0 0.0560507027
N  N2  1  0.22100000  0.31300000  0.74290000  1.0 0.0560507027
N  N3  1  0.72100000  0.18700000  0.74290000  1.0 0.0560507027
N  N4  1  0.77900000  0.68700000  0.25710000  1.0 0.0560507027
N  N5  1  0.47250000  0.81510000  0.40590000  1.0 0.0560507027
N  N6  1  0.02750000  0.31510000  0.59410000  1.0 0.0560507027
N  N7  1  0.52750000  0.18490000  0.59410000  1.0 0.0560507027
N  N8  1  0.97250000  0.68490000  0.40590000  1.0 0.0560507027
N  N9  1  0.10020000  0.52880000  0.99930000  1.0 0.0941360534
N  N10  1  0.39980000  0.02880000  0.00070000  1.0 0.0941360534
N  N11  1  0.89980000  0.47120000  0.00070000  1.0 0.0941360534
N  N12  1  0.60020000  0.97120000  0.99930000  1.0 0.0941360534
O  O1  1  0.14130000  0.78099000  0.94470000  1.0 -0.6627851056
O  O2  1  0.35870000  0.28099000  0.05530000  1.0 -0.6627851056
O  O3  1  0.85870000  0.21901000  0.05530000  1.0 -0.6627851056
O  O4  1  0.64130000  0.71901000  0.94470000  1.0 -0.6627851056
O  O5  1  0.37780000  0.79310000  0.05220000  1.0 -0.5680909979
O  O6  1  0.12220000  0.29310000  0.94780000  1.0 -0.5680909979
O  O7  1  0.62220000  0.20690000  0.94780000  1.0 -0.5680909979
O  O8  1  0.87780000  0.70690000  0.05220000  1.0 -0.5680909979
O  O9  1  0.39240000  0.80030000  0.61720000  1.0 -0.5853140282
O  O10  1  0.10760000  0.30030000  0.38280000  1.0 -0.5848160314
O  O11  1  0.60760000  0.19970000  0.38280000  1.0 -0.5848160314
O  O12  1  0.89240000  0.69970000  0.61720000  1.0 -0.5853140282
O  O13  1  0.62110000  0.76548000  0.70910000  1.0 -0.6759940463
O  O14  1  0.87890000  0.26548000  0.29090000  1.0 -0.6759940463
O  O15  1  0.37890000  0.23452000  0.29090000  1.0 -0.6759940463
O  O16  1  0.12110000  0.73452000  0.70910000  1.0 -0.6759940463
O  O17  1  0.06670000  0.64581000  0.89580000  1.0 -0.5680909979
O  O18  1  0.43330000  0.14581000  0.10420000  1.0 -0.5680909979
O  O19  1  0.93330000  0.35419000  0.10420000  1.0 -0.5680909979
O  O20  1  0.56670000  0.85419000  0.89580000  1.0 -0.5680909979
O  O21  1  0.32240000  0.66066000  0.93190000  1.0 -0.6233142096
O  O22  1  0.17760000  0.16066000  0.06810000  1.0 -0.6233142096
O  O23  1  0.67760000  0.33934000  0.06810000  1.0 -0.6233142096
O  O24  1  0.82240000  0.83934000  0.93190000  1.0 -0.6233142096
