# DDEC6 charges by PACMAN v1.1 (https://github.com/mtap-research/PACMAN-charge/)
data_PURJES_FSR_pacman
_symmetry_space_group_name_H-M   'P 1'
_cell_length_a   6.93140000
_cell_length_b   12.38200000
_cell_length_c   27.73800000
_cell_angle_alpha   96.64100000
_cell_angle_beta   91.23100000
_cell_angle_gamma   104.22100000
_symmetry_Int_Tables_number   1
_chemical_formula_structural   Zn2H31C36NO14
_chemical_formula_sum   'Zn4 H62 C72 N2 O28'
_cell_volume   2289.08670390
_cell_formula_units_Z   2
loop_
 _symmetry_equiv_pos_site_id
 _symmetry_equiv_pos_as_xyz
  1  'x, y, z'
loop_
 _atom_site_type_symbol
 _atom_site_label
 _atom_site_symmetry_multiplicity
 _atom_site_fract_x
 _atom_site_fract_y
 _atom_site_fract_z
 _atom_site_occupancy
 _atom_site_charge
Zn  Zn1  1  0.70347000  0.57231000  0.50363000  1.0 0.9121044688
Zn  Zn2  1  0.29653000  0.42769000  0.49637000  1.0 0.9121044688
Zn  Zn3  1  0.98890000  0.36483000  0.00899000  1.0 0.8777891211
Zn  Zn4  1  0.01110000  0.63517000  0.99101000  1.0 0.8777891211
H  H1  1  0.04610000  0.61570000  0.39760000  1.0 0.1317836406
H  H2  1  0.95390000  0.38430000  0.60240000  1.0 0.1317836406
H  H3  1  0.95990000  0.72430000  0.34120000  1.0 0.1201499192
H  H4  1  0.04010000  0.27570000  0.65880000  1.0 0.1201499192
H  H5  1  0.53920000  0.89050000  0.33980000  1.0 0.1317836406
H  H6  1  0.46080000  0.10950000  0.66020000  1.0 0.1317836406
H  H7  1  0.62240000  0.78610000  0.39670000  1.0 0.1201499192
H  H8  1  0.37760000  0.21390000  0.60330000  1.0 0.1201499192
H  H9  1  0.90860000  0.86010000  0.30180000  1.0 0.109312264
H  H10  1  0.09140000  0.13990000  0.69820000  1.0 0.109312264
H  H11  1  0.98640000  0.78800000  0.25800000  1.0 0.109312264
H  H12  1  0.01360000  0.21200000  0.74200000  1.0 0.109312264
H  H13  1  0.08950000  0.08190000  0.30440000  1.0 0.109312264
H  H14  1  0.91050000  0.91810000  0.69560000  1.0 0.109312264
H  H15  1  0.02010000  0.12460000  0.25610000  1.0 0.109312264
H  H16  1  0.97990000  0.87540000  0.74390000  1.0 0.109312264
H  H17  1  0.46190000  0.06170000  0.32000000  1.0 0.1201499192
H  H18  1  0.53810000  0.93830000  0.68000000  1.0 0.1201499192
H  H19  1  0.37720000  0.19170000  0.37720000  1.0 0.1201499192
H  H20  1  0.62280000  0.80830000  0.62280000  1.0 0.1201499192
H  H21  1  0.95020000  0.37090000  0.39140000  1.0 0.1317836406
H  H22  1  0.04980000  0.62910000  0.60860000  1.0 0.1317836406
H  H23  1  0.03690000  0.23930000  0.33550000  1.0 0.1201499192
H  H24  1  0.96310000  0.76070000  0.66450000  1.0 0.1201499192
H  H25  1  0.70370000  0.87970000  0.22780000  1.0 0.1001564873
H  H26  1  0.29630000  0.12030000  0.77220000  1.0 0.1001564873
H  H27  1  0.80150000  0.96920000  0.19200000  1.0 0.1001564873
H  H28  1  0.19850000  0.03080000  0.80800000  1.0 0.1001564873
H  H29  1  0.87510000  0.64480000  0.12270000  1.0 0.1403424541
H  H30  1  0.12490000  0.35520000  0.87730000  1.0 0.1403424541
H  H31  1  0.61760000  0.52340000  0.07250000  1.0 0.1317836406
H  H32  1  0.38240000  0.47660000  0.92750000  1.0 0.1317836406
H  H33  1  0.25720000  0.72860000  0.10690000  1.0 0.1201499192
H  H34  1  0.74280000  0.27140000  0.89310000  1.0 0.1201499192
H  H35  1  0.51070000  0.84790000  0.15920000  1.0 0.1201499192
H  H36  1  0.48930000  0.15210000  0.84080000  1.0 0.1201499192
H  H37  1  0.31470000  0.01920000  0.24120000  1.0 0.1001564873
H  H38  1  0.68530000  0.98080000  0.75880000  1.0 0.1001564873
H  H39  1  0.22570000  0.91330000  0.20090000  1.0 0.109312264
H  H40  1  0.77430000  0.08670000  0.79910000  1.0 0.109312264
H  H41  1  0.55300000  0.06450000  0.19250000  1.0 0.1201499192
H  H42  1  0.44700000  0.93550000  0.80750000  1.0 0.1201499192
H  H43  1  0.80250000  0.16150000  0.14690000  1.0 0.109312264
H  H44  1  0.19750000  0.83850000  0.85310000  1.0 0.109312264
H  H45  1  0.39520000  0.28580000  0.07960000  1.0 0.1201499192
H  H46  1  0.60480000  0.71420000  0.92040000  1.0 0.1201499192
H  H47  1  0.15080000  0.19460000  0.12720000  1.0 0.1403424541
H  H48  1  0.84920000  0.80540000  0.87280000  1.0 0.1403424541
H  H49  1  0.30130000  0.25400000  0.99360000  1.0 0.109312264
H  H50  1  0.69870000  0.74600000  0.00640000  1.0 0.109312264
H  H51  1  0.04500000  0.94440000  0.94320000  1.0 0.1403424541
H  H52  1  0.95500000  0.05560000  0.05680000  1.0 0.1403424541
H  H53  1  0.07200000  0.01340000  0.89740000  1.0 0.1317836406
H  H54  1  0.92800000  0.98660000  0.10260000  1.0 0.1317836406
H  H55  1  0.92640000  0.03890000  0.93890000  1.0 0.1403424541
H  H56  1  0.07360000  0.96110000  0.06110000  1.0 0.1403424541
H  H57  1  0.51570000  0.14510000  0.97950000  1.0 0.1403424541
H  H58  1  0.48430000  0.85490000  0.02050000  1.0 0.1403424541
H  H59  1  0.46720000  0.06810000  0.92820000  1.0 0.1403424541
H  H60  1  0.53280000  0.93190000  0.07180000  1.0 0.1403424541
H  H61  1  0.41690000  0.01340000  0.97730000  1.0 0.1317836406
H  H62  1  0.58310000  0.98660000  0.02270000  1.0 0.1317836406
C  C1  1  0.39820000  0.62160000  0.43940000  1.0 0.5695739053
C  C2  1  0.60180000  0.37840000  0.56060000  1.0 0.5695739053
C  C3  1  0.34310000  0.69010000  0.40340000  1.0 -0.0613645483
C  C4  1  0.65690000  0.30990000  0.59660000  1.0 -0.0613645483
C  C5  1  0.14670000  0.67250000  0.38620000  1.0 -0.0613645483
C  C6  1  0.85330000  0.32750000  0.61380000  1.0 -0.0613645483
C  C7  1  0.09500000  0.73650000  0.35230000  1.0 -0.2379668727
C  C8  1  0.90500000  0.26350000  0.64770000  1.0 -0.2379668727
C  C9  1  0.24000000  0.81710000  0.33530000  1.0 0.2472356316
C  C10  1  0.76000000  0.18290000  0.66470000  1.0 0.2472356316
C  C11  1  0.43830000  0.83490000  0.35190000  1.0 -0.2094293274
C  C12  1  0.56170000  0.16510000  0.64810000  1.0 -0.2094293274
C  C13  1  0.48730000  0.77280000  0.38540000  1.0 -0.0832917839
C  C14  1  0.51270000  0.22720000  0.61460000  1.0 -0.0832917839
C  C15  1  0.01330000  0.86230000  0.27800000  1.0 -0.096268598
C  C16  1  0.98670000  0.13770000  0.72200000  1.0 -0.096268598
C  C17  1  0.01190000  0.95270000  0.24600000  1.0 0.0873767771
C  C18  1  0.98810000  0.04730000  0.75400000  1.0 0.0873767771
C  C19  1  0.99140000  0.06230000  0.27630000  1.0 -0.0832917839
C  C20  1  0.00860000  0.93770000  0.72370000  1.0 -0.0832917839
C  C21  1  0.76050000  0.13640000  0.32370000  1.0 0.2472356316
C  C22  1  0.23950000  0.86360000  0.67630000  1.0 0.2472356316
C  C23  1  0.56210000  0.12380000  0.33530000  1.0 -0.2245651148
C  C24  1  0.43790000  0.87620000  0.66470000  1.0 -0.2245651148
C  C25  1  0.51220000  0.20170000  0.36890000  1.0 -0.0910324687
C  C26  1  0.48780000  0.79830000  0.63110000  1.0 -0.0910324687
C  C27  1  0.65240000  0.29330000  0.39070000  1.0 -0.0419979157
C  C28  1  0.34760000  0.70670000  0.60930000  1.0 -0.0419979157
C  C29  1  0.85090000  0.30700000  0.37730000  1.0 -0.0613645483
C  C30  1  0.14910000  0.69300000  0.62270000  1.0 -0.0613645483
C  C31  1  0.90250000  0.22910000  0.34420000  1.0 -0.2379668727
C  C32  1  0.09750000  0.77090000  0.65580000  1.0 -0.2379668727
C  C33  1  0.59780000  0.37410000  0.42960000  1.0 0.5695739053
C  C34  1  0.40220000  0.62590000  0.57040000  1.0 0.5695739053
C  C35  1  0.82400000  0.90840000  0.20990000  1.0 -0.0832917839
C  C36  1  0.17600000  0.09160000  0.79010000  1.0 -0.0832917839
C  C37  1  0.70960000  0.75350000  0.14720000  1.0 0.2472356316
C  C38  1  0.29040000  0.24650000  0.85280000  1.0 0.2472356316
C  C39  1  0.74780000  0.66020000  0.12030000  1.0 -0.2094293274
C  C40  1  0.25220000  0.33980000  0.87970000  1.0 -0.2094293274
C  C41  1  0.59550000  0.58980000  0.08970000  1.0 -0.0695815608
C  C42  1  0.40450000  0.41020000  0.91030000  1.0 -0.0695815608
C  C43  1  0.41600000  0.61340000  0.08390000  1.0 -0.0419979157
C  C44  1  0.58400000  0.38660000  0.91610000  1.0 -0.0419979157
C  C45  1  0.38230000  0.71100000  0.11050000  1.0 -0.0910324687
C  C46  1  0.61770000  0.28900000  0.88950000  1.0 -0.0910324687
C  C47  1  0.53170000  0.78140000  0.14180000  1.0 -0.2501897253
C  C48  1  0.46830000  0.21860000  0.85820000  1.0 -0.2501897253
C  C49  1  0.24500000  0.53730000  0.05270000  1.0 0.5797813348
C  C50  1  0.75500000  0.46270000  0.94730000  1.0 0.5797813348
C  C51  1  0.19920000  0.98200000  0.21850000  1.0 -0.0910324687
C  C52  1  0.80080000  0.01800000  0.78150000  1.0 -0.0910324687
C  C53  1  0.32890000  0.11560000  0.16200000  1.0 0.2472356316
C  C54  1  0.67110000  0.88440000  0.83800000  1.0 0.2472356316
C  C55  1  0.52100000  0.10850000  0.16910000  1.0 -0.2501897253
C  C56  1  0.47900000  0.89150000  0.83090000  1.0 -0.2501897253
C  C57  1  0.66890000  0.16610000  0.14190000  1.0 -0.0910324687
C  C58  1  0.33110000  0.83390000  0.85810000  1.0 -0.0910324687
C  C59  1  0.62360000  0.23000000  0.10750000  1.0 -0.0419979157
C  C60  1  0.37640000  0.77000000  0.89250000  1.0 -0.0419979157
C  C61  1  0.42760000  0.24040000  0.10230000  1.0 -0.0832917839
C  C62  1  0.57240000  0.75960000  0.89770000  1.0 -0.0832917839
C  C63  1  0.28240000  0.18530000  0.13000000  1.0 -0.2005122043
C  C64  1  0.71760000  0.81470000  0.87000000  1.0 -0.2005122043
C  C65  1  0.77780000  0.28150000  0.07420000  1.0 0.5421984009
C  C66  1  0.22220000  0.71850000  0.92580000  1.0 0.5421984009
C  C67  1  0.19100000  0.20010000  0.97700000  1.0 0.3001331501
C  C68  1  0.80900000  0.79990000  0.02300000  1.0 0.3001331501
C  C69  1  0.05100000  0.01770000  0.93240000  1.0 -0.3481475301
C  C70  1  0.94900000  0.98230000  0.06760000  1.0 -0.3481475301
C  C71  1  0.42200000  0.08020000  0.96120000  1.0 -0.3670778163
C  C72  1  0.57800000  0.91980000  0.03880000  1.0 -0.3670778163
N  N1  1  0.21700000  0.10200000  0.95870000  1.0 0.0394821931
N  N2  1  0.78300000  0.89800000  0.04130000  1.0 0.0394821931
O  O1  1  0.98650000  0.65600000  0.50790000  1.0 -0.1221093125
O  O2  1  0.01350000  0.34400000  0.49210000  1.0 -0.1221093125
O  O3  1  0.57390000  0.64630000  0.45560000  1.0 -0.5313576646
O  O4  1  0.42610000  0.35370000  0.54440000  1.0 -0.5249306746
O  O5  1  0.26740000  0.54320000  0.45190000  1.0 -0.4929006137
O  O6  1  0.73260000  0.45680000  0.54810000  1.0 -0.4929006137
O  O7  1  0.20620000  0.88730000  0.30280000  1.0 -0.2005122043
O  O8  1  0.79380000  0.11270000  0.69720000  1.0 -0.2005122043
O  O9  1  0.79570000  0.04830000  0.29320000  1.0 -0.1943549774
O  O10  1  0.20430000  0.95170000  0.70680000  1.0 -0.1943549774
O  O11  1  0.72800000  0.45400000  0.44750000  1.0 -0.4712699242
O  O12  1  0.27200000  0.54600000  0.55250000  1.0 -0.4712699242
O  O13  1  0.41930000  0.35000000  0.44180000  1.0 -0.5409997888
O  O14  1  0.58070000  0.65000000  0.55820000  1.0 -0.5409997888
O  O15  1  0.86620000  0.81920000  0.17680000  1.0 -0.2005122043
O  O16  1  0.13380000  0.18080000  0.82320000  1.0 -0.2005122043
O  O17  1  0.26830000  0.44700000  0.03260000  1.0 -0.5082649775
O  O18  1  0.73170000  0.55300000  0.96740000  1.0 -0.5082649775
O  O19  1  0.08060000  0.56670000  0.04930000  1.0 -0.581189055
O  O20  1  0.91940000  0.43330000  0.95070000  1.0 -0.581189055
O  O21  1  0.16770000  0.05690000  0.18460000  1.0 -0.2005122043
O  O22  1  0.83230000  0.94310000  0.81540000  1.0 -0.2005122043
O  O23  1  0.95430000  0.28320000  0.08210000  1.0 -0.5313576646
O  O24  1  0.04570000  0.71680000  0.91790000  1.0 -0.5313576646
O  O25  1  0.72170000  0.32280000  0.03790000  1.0 -0.5469052382
O  O26  1  0.27830000  0.67720000  0.96210000  1.0 -0.5469052382
O  O27  1  0.03350000  0.22440000  0.97340000  1.0 -0.4189755208
O  O28  1  0.96650000  0.77560000  0.02660000  1.0 -0.4189755208
