# DDEC6 charges by PACMAN v1.1 (https://github.com/mtap-research/PACMAN-charge/)
data_PURNIB_ASR_pacman
_symmetry_space_group_name_H-M   'P 1'
_cell_length_a   13.35370000
_cell_length_b   13.35370000
_cell_length_c   22.47770000
_cell_angle_alpha   82.34500000
_cell_angle_beta   97.65500000
_cell_angle_gamma   133.95300000
_symmetry_Int_Tables_number   1
_chemical_formula_structural   KCu2SiH20W12C24(N4O17)2
_chemical_formula_sum   'K2 Cu4 Si2 H40 W24 C48 N16 O68'
_cell_volume   2855.19416119
_cell_formula_units_Z   2
loop_
 _symmetry_equiv_pos_site_id
 _symmetry_equiv_pos_as_xyz
  1  'x, y, z'
loop_
 _atom_site_type_symbol
 _atom_site_label
 _atom_site_symmetry_multiplicity
 _atom_site_fract_x
 _atom_site_fract_y
 _atom_site_fract_z
 _atom_site_occupancy
 _atom_site_charge
K  K1  1  0.32380000  0.32380000  0.75000000  1.0 0.902007485
K  K2  1  0.67620000  0.67620000  0.25000000  1.0 0.902007485
Cu  Cu1  1  0.39261000  0.26371000  0.97013000  1.0 0.8063660359
Cu  Cu2  1  0.26371000  0.39261000  0.52987000  1.0 0.8063660359
Cu  Cu3  1  0.60739000  0.73629000  0.02987000  1.0 0.8063660359
Cu  Cu4  1  0.73629000  0.60739000  0.47013000  1.0 0.8063660359
Si  Si1  1  0.82090000  0.82090000  0.75000000  1.0 1.6137620455
Si  Si2  1  0.17910000  0.17910000  0.25000000  1.0 1.6137620455
H  H1  1  0.64150000  0.31390000  0.92970000  1.0 0.1105810077
H  H2  1  0.31390000  0.64150000  0.57030000  1.0 0.1105810077
H  H3  1  0.35850000  0.68610000  0.07030000  1.0 0.1105810077
H  H4  1  0.68610000  0.35850000  0.42970000  1.0 0.1105810077
H  H5  1  0.62000000  0.11340000  0.08380000  1.0 0.1210526556
H  H6  1  0.11340000  0.62000000  0.41620000  1.0 0.1210526556
H  H7  1  0.38000000  0.88660000  0.91620000  1.0 0.1210526556
H  H8  1  0.88660000  0.38000000  0.58380000  1.0 0.1210526556
H  H9  1  0.42980000  0.10720000  0.07820000  1.0 0.1210526556
H  H10  1  0.10720000  0.42980000  0.42180000  1.0 0.1210526556
H  H11  1  0.57020000  0.89280000  0.92180000  1.0 0.1210526556
H  H12  1  0.89280000  0.57020000  0.57820000  1.0 0.1210526556
H  H13  1  0.74710000  0.08970000  0.03550000  1.0 0.1210526556
H  H14  1  0.08970000  0.74710000  0.46450000  1.0 0.1210526556
H  H15  1  0.25290000  0.91030000  0.96450000  1.0 0.1210526556
H  H16  1  0.91030000  0.25290000  0.53550000  1.0 0.1210526556
H  H17  1  0.87200000  0.42300000  0.93020000  1.0 0.1105810077
H  H18  1  0.42300000  0.87200000  0.56980000  1.0 0.1105810077
H  H19  1  0.12800000  0.57700000  0.06980000  1.0 0.1105810077
H  H20  1  0.57700000  0.12800000  0.43020000  1.0 0.1105810077
H  H21  1  0.10580000  0.17260000  0.97740000  1.0 0.1210526556
H  H22  1  0.17260000  0.10580000  0.52260000  1.0 0.1210526556
H  H23  1  0.89420000  0.82740000  0.02260000  1.0 0.1210526556
H  H24  1  0.82740000  0.89420000  0.47740000  1.0 0.1210526556
H  H25  1  0.29240000  0.56120000  0.92640000  1.0 0.1105810077
H  H26  1  0.56120000  0.29240000  0.57360000  1.0 0.1105810077
H  H27  1  0.70760000  0.43880000  0.07360000  1.0 0.1105810077
H  H28  1  0.43880000  0.70760000  0.42640000  1.0 0.1105810077
H  H29  1  0.46530000  0.54530000  0.93140000  1.0 0.1025779035
H  H30  1  0.54530000  0.46530000  0.56860000  1.0 0.1025779035
H  H31  1  0.53470000  0.45470000  0.06860000  1.0 0.1025779035
H  H32  1  0.45470000  0.53470000  0.43140000  1.0 0.1025779035
H  H33  1  0.94580000  0.14540000  0.01580000  1.0 0.1385291972
H  H34  1  0.14540000  0.94580000  0.48420000  1.0 0.1385291972
H  H35  1  0.05420000  0.85460000  0.98420000  1.0 0.1385291972
H  H36  1  0.85460000  0.05420000  0.51580000  1.0 0.1385291972
H  H37  1  0.06660000  0.47560000  0.91050000  1.0 0.1025779035
H  H38  1  0.47560000  0.06660000  0.58950000  1.0 0.1025779035
H  H39  1  0.93340000  0.52440000  0.08950000  1.0 0.1025779035
H  H40  1  0.52440000  0.93340000  0.41050000  1.0 0.1025779035
W  W1  1  0.95198000  0.67422000  0.82105000  1.0 2.3012561446
W  W2  1  0.67422000  0.95198000  0.67895000  1.0 2.3012561446
W  W3  1  0.04802000  0.32578000  0.17895000  1.0 2.3012561446
W  W4  1  0.32578000  0.04802000  0.32105000  1.0 2.3012561446
W  W5  1  0.79034000  0.87994000  0.89179000  1.0 2.351673091
W  W6  1  0.87994000  0.79034000  0.60821000  1.0 2.351673091
W  W7  1  0.20966000  0.12006000  0.10821000  1.0 2.351673091
W  W8  1  0.12006000  0.20966000  0.39179000  1.0 2.351673091
W  W9  1  0.10426000  0.02062000  0.85690000  1.0 2.3717324382
W  W10  1  0.02062000  0.10426000  0.64310000  1.0 2.3717324382
W  W11  1  0.89574000  0.97938000  0.14310000  1.0 2.3717324382
W  W12  1  0.97938000  0.89574000  0.35690000  1.0 2.3717324382
W  W13  1  0.63716000  0.53422000  0.85373000  1.0 2.3891019469
W  W14  1  0.53422000  0.63716000  0.64627000  1.0 2.3891019469
W  W15  1  0.36284000  0.46578000  0.14627000  1.0 2.3891019469
W  W16  1  0.46578000  0.36284000  0.35373000  1.0 2.3891019469
W  W17  1  0.14884000  0.96964000  0.70824000  1.0 2.3265726214
W  W18  1  0.96964000  0.14884000  0.79176000  1.0 2.3377897387
W  W19  1  0.85116000  0.03036000  0.29176000  1.0 2.3265726214
W  W20  1  0.03036000  0.85116000  0.20824000  1.0 2.3231625205
W  W21  1  0.68209000  0.49423000  0.71967000  1.0 2.2827083713
W  W22  1  0.49423000  0.68209000  0.78033000  1.0 2.2827083713
W  W23  1  0.31791000  0.50577000  0.28033000  1.0 2.2827083713
W  W24  1  0.50577000  0.31791000  0.21967000  1.0 2.2827083713
C  C1  1  0.61300000  0.26400000  0.96670000  1.0 0.0356002303
C  C2  1  0.26400000  0.61300000  0.53330000  1.0 0.0356002303
C  C3  1  0.38700000  0.73600000  0.03330000  1.0 0.0356002303
C  C4  1  0.73600000  0.38700000  0.46670000  1.0 0.0356002303
C  C5  1  0.60100000  0.15220000  0.05260000  1.0 -0.1317922378
C  C6  1  0.15220000  0.60100000  0.44740000  1.0 -0.1317922378
C  C7  1  0.39900000  0.84780000  0.94740000  1.0 -0.1317922378
C  C8  1  0.84780000  0.39900000  0.55260000  1.0 -0.1317922378
C  C9  1  0.49500000  0.14880000  0.04950000  1.0 -0.0442250036
C  C10  1  0.14880000  0.49500000  0.45050000  1.0 -0.0442250036
C  C11  1  0.50500000  0.85120000  0.95050000  1.0 -0.0442250036
C  C12  1  0.85120000  0.50500000  0.54950000  1.0 -0.0442250036
C  C13  1  0.79180000  0.25400000  0.98640000  1.0 0.1385291972
C  C14  1  0.25400000  0.79180000  0.51360000  1.0 0.1385291972
C  C15  1  0.20820000  0.74600000  0.01360000  1.0 0.1385291972
C  C16  1  0.74600000  0.20820000  0.48640000  1.0 0.1385291972
C  C17  1  0.81230000  0.16810000  0.01110000  1.0 -0.163693046
C  C18  1  0.16810000  0.81230000  0.48890000  1.0 -0.163693046
C  C19  1  0.18770000  0.83190000  0.98890000  1.0 -0.163693046
C  C20  1  0.83190000  0.18770000  0.51110000  1.0 -0.163693046
C  C21  1  0.88790000  0.36770000  0.94790000  1.0 -0.188368907
C  C22  1  0.36770000  0.88790000  0.55210000  1.0 -0.188368907
C  C23  1  0.11210000  0.63230000  0.05210000  1.0 -0.188368907
C  C24  1  0.63230000  0.11210000  0.44790000  1.0 -0.188368907
C  C25  1  0.17320000  0.26660000  0.96540000  1.0 0.0823616518
C  C26  1  0.26660000  0.17320000  0.53460000  1.0 0.0823616518
C  C27  1  0.82680000  0.73340000  0.03460000  1.0 0.0823616518
C  C28  1  0.73340000  0.82680000  0.46540000  1.0 0.0823616518
C  C29  1  0.27650000  0.48150000  0.93720000  1.0 -0.1099438088
C  C30  1  0.48150000  0.27650000  0.56280000  1.0 -0.1099438088
C  C31  1  0.72350000  0.51850000  0.06280000  1.0 -0.1099438088
C  C32  1  0.51850000  0.72350000  0.43720000  1.0 -0.1099438088
C  C33  1  0.37200000  0.47280000  0.94000000  1.0 -0.0442250036
C  C34  1  0.47280000  0.37200000  0.56000000  1.0 -0.0442250036
C  C35  1  0.62800000  0.52720000  0.06000000  1.0 -0.0442250036
C  C36  1  0.52720000  0.62800000  0.44000000  1.0 -0.0442250036
C  C37  1  0.02720000  0.31660000  0.96180000  1.0 0.1385291972
C  C38  1  0.31660000  0.02720000  0.53820000  1.0 0.1385291972
C  C39  1  0.97280000  0.68340000  0.03820000  1.0 0.1385291972
C  C40  1  0.68340000  0.97280000  0.46180000  1.0 0.1385291972
C  C41  1  0.93030000  0.20130000  0.99890000  1.0 -0.1471312249
C  C42  1  0.20130000  0.93030000  0.50110000  1.0 -0.1471312249
C  C43  1  0.06970000  0.79870000  0.00110000  1.0 -0.1471312249
C  C44  1  0.79870000  0.06970000  0.49890000  1.0 -0.1471312249
C  C45  1  0.00310000  0.39890000  0.93600000  1.0 -0.1796741242
C  C46  1  0.39890000  0.00310000  0.56400000  1.0 -0.1796741242
C  C47  1  0.99690000  0.60110000  0.06400000  1.0 -0.1796741242
C  C48  1  0.60110000  0.99690000  0.43600000  1.0 -0.1796741242
N  N1  1  0.50240000  0.21800000  0.99640000  1.0 -0.3166430647
N  N2  1  0.21800000  0.50240000  0.50360000  1.0 -0.3166430647
N  N3  1  0.49760000  0.78200000  0.00360000  1.0 -0.3166430647
N  N4  1  0.78200000  0.49760000  0.49640000  1.0 -0.3166430647
N  N5  1  0.67390000  0.22350000  0.00150000  1.0 -0.0114770767
N  N6  1  0.22350000  0.67390000  0.49850000  1.0 -0.0114770767
N  N7  1  0.32610000  0.77650000  0.99850000  1.0 -0.0114770767
N  N8  1  0.77650000  0.32610000  0.50150000  1.0 -0.0114770767
N  N9  1  0.30820000  0.34000000  0.95740000  1.0 -0.3035194704
N  N10  1  0.34000000  0.30820000  0.54260000  1.0 -0.3035194704
N  N11  1  0.69180000  0.66000000  0.04260000  1.0 -0.3035194704
N  N12  1  0.66000000  0.69180000  0.45740000  1.0 -0.3035194704
N  N13  1  0.15360000  0.35420000  0.95300000  1.0 0.0022258593
N  N14  1  0.35420000  0.15360000  0.54700000  1.0 0.0022258593
N  N15  1  0.84640000  0.64580000  0.04700000  1.0 0.0022258593
N  N16  1  0.64580000  0.84640000  0.45300000  1.0 0.0022258593
O  O1  1  0.79770000  0.56110000  0.87380000  1.0 -0.9200156683
O  O2  1  0.56110000  0.79770000  0.62620000  1.0 -0.9200156683
O  O3  1  0.20230000  0.43890000  0.12620000  1.0 -0.9200156683
O  O4  1  0.43890000  0.20230000  0.37380000  1.0 -0.9200156683
O  O5  1  0.83480000  0.52840000  0.76620000  1.0 -0.9931927973
O  O6  1  0.52840000  0.83480000  0.73380000  1.0 -0.9931927973
O  O7  1  0.16520000  0.47160000  0.23380000  1.0 -0.9931927973
O  O8  1  0.47160000  0.16520000  0.26620000  1.0 -0.9931927973
O  O9  1  0.63000000  0.80520000  0.84260000  1.0 -0.9282636696
O  O10  1  0.80520000  0.63000000  0.65740000  1.0 -0.9282636696
O  O11  1  0.37000000  0.19480000  0.15740000  1.0 -0.9282636696
O  O12  1  0.19480000  0.37000000  0.34260000  1.0 -0.9282636696
O  O13  1  0.57970000  0.41250000  0.79320000  1.0 -1.0076476688
O  O14  1  0.41250000  0.57970000  0.70680000  1.0 -1.0076476688
O  O15  1  0.42030000  0.58750000  0.20680000  1.0 -1.0076476688
O  O16  1  0.58750000  0.42030000  0.29320000  1.0 -1.0076476688
O  O17  1  0.05970000  0.79950000  0.75470000  1.0 -0.9777111838
O  O18  1  0.79950000  0.05970000  0.74530000  1.0 -0.9777111838
O  O19  1  0.94030000  0.20050000  0.24530000  1.0 -0.9777111838
O  O20  1  0.20050000  0.94030000  0.25470000  1.0 -0.9777111838
O  O21  1  0.87060000  0.06160000  0.86450000  1.0 -0.9097590004
O  O22  1  0.06160000  0.87060000  0.63550000  1.0 -0.9200156683
O  O23  1  0.12940000  0.93840000  0.13550000  1.0 -0.9200156683
O  O24  1  0.93840000  0.12940000  0.36450000  1.0 -0.9097590004
O  O25  1  0.17540000  0.12220000  0.66490000  1.0 -0.9777111838
O  O26  1  0.12220000  0.17540000  0.83510000  1.0 -0.9777111838
O  O27  1  0.82460000  0.87780000  0.33510000  1.0 -0.9777111838
O  O28  1  0.87780000  0.82460000  0.16490000  1.0 -0.9777111838
O  O29  1  0.73280000  0.70200000  0.89160000  1.0 -0.9097590004
O  O30  1  0.70200000  0.73280000  0.60840000  1.0 -0.9097590004
O  O31  1  0.26720000  0.29800000  0.10840000  1.0 -0.9097590004
O  O32  1  0.29800000  0.26720000  0.39160000  1.0 -0.9097590004
O  O33  1  0.89270000  0.92870000  0.80390000  1.0 -1.1221372241
O  O34  1  0.92870000  0.89270000  0.69610000  1.0 -1.1221372241
O  O35  1  0.10730000  0.07130000  0.19610000  1.0 -1.1221372241
O  O36  1  0.07130000  0.10730000  0.30390000  1.0 -1.1221372241
O  O37  1  0.17110000  0.04650000  0.78180000  1.0 -0.9931927973
O  O38  1  0.04650000  0.17110000  0.71820000  1.0 -0.9931927973
O  O39  1  0.82890000  0.95350000  0.21820000  1.0 -0.9931927973
O  O40  1  0.95350000  0.82890000  0.28180000  1.0 -0.9931927973
O  O41  1  0.97570000  0.95990000  0.91660000  1.0 -0.8964383656
O  O42  1  0.95990000  0.97570000  0.58340000  1.0 -0.8964383656
O  O43  1  0.02430000  0.04010000  0.08340000  1.0 -0.8964383656
O  O44  1  0.04010000  0.02430000  0.41660000  1.0 -0.8964383656
O  O45  1  0.52010000  0.55730000  0.81460000  1.0 -0.9747858996
O  O46  1  0.55730000  0.52010000  0.68540000  1.0 -0.9747858996
O  O47  1  0.47990000  0.44270000  0.18540000  1.0 -0.9747858996
O  O48  1  0.44270000  0.47990000  0.31460000  1.0 -0.9747858996
O  O49  1  0.78290000  0.67910000  0.77760000  1.0 -1.1221372241
O  O50  1  0.67910000  0.78290000  0.72240000  1.0 -1.1221372241
O  O51  1  0.21710000  0.32090000  0.22240000  1.0 -1.1221372241
O  O52  1  0.32090000  0.21710000  0.27760000  1.0 -1.1279385442
O  O53  1  0.02410000  0.83410000  0.85970000  1.0 -0.9282636696
O  O54  1  0.83410000  0.02410000  0.64030000  1.0 -0.9282636696
O  O55  1  0.97590000  0.16590000  0.14030000  1.0 -0.9282636696
O  O56  1  0.16590000  0.97590000  0.35970000  1.0 -0.9282636696
O  O57  1  0.53370000  0.41030000  0.91070000  1.0 -0.7891790027
O  O58  1  0.41030000  0.53370000  0.58930000  1.0 -0.7891790027
O  O59  1  0.46630000  0.58970000  0.08930000  1.0 -0.7891790027
O  O60  1  0.58970000  0.46630000  0.41070000  1.0 -0.7891790027
O  O61  1  0.73270000  0.85910000  0.96100000  1.0 -0.7825441862
O  O62  1  0.85910000  0.73270000  0.53900000  1.0 -0.7825441862
O  O63  1  0.26730000  0.14090000  0.03900000  1.0 -0.7825441862
O  O64  1  0.14090000  0.26730000  0.46100000  1.0 -0.7825441862
O  O65  1  0.25130000  0.09650000  0.90350000  1.0 -0.7661217803
O  O66  1  0.09650000  0.25130000  0.59650000  1.0 -0.7661217803
O  O67  1  0.74870000  0.90350000  0.09650000  1.0 -0.7661217803
O  O68  1  0.90350000  0.74870000  0.40350000  1.0 -0.7661217803
