# DDEC6 charges by PACMAN v1.1 (https://github.com/mtap-research/PACMAN-charge/)
data_PURNEX_FSR_pacman
_symmetry_space_group_name_H-M   'P 1'
_cell_length_a   13.42950000
_cell_length_b   13.42950000
_cell_length_c   19.98250000
_cell_angle_alpha   81.26310000
_cell_angle_beta   98.73690000
_cell_angle_gamma   133.52700000
_symmetry_Int_Tables_number   1
_chemical_formula_structural   CuSiH10W12C12(NO10)4
_chemical_formula_sum   'Cu2 Si2 H20 W24 C24 N8 O80'
_cell_volume   2577.03918713
_cell_formula_units_Z   2
loop_
 _symmetry_equiv_pos_site_id
 _symmetry_equiv_pos_as_xyz
  1  'x, y, z'
loop_
 _atom_site_type_symbol
 _atom_site_label
 _atom_site_symmetry_multiplicity
 _atom_site_fract_x
 _atom_site_fract_y
 _atom_site_fract_z
 _atom_site_occupancy
 _atom_site_charge
Cu  Cu1  1  0.00000000  0.00000000  0.00000000  1.0 0.9868917991
Cu  Cu2  1  0.00000000  0.00000000  0.50000000  1.0 0.9868917991
Si  Si1  1  0.50000000  0.50000000  0.25000000  1.0 1.6321939756
Si  Si2  1  0.50000000  0.50000000  0.75000000  1.0 1.6321939756
H  H1  1  0.10260000  0.29840000  0.98140000  1.0 0.1445871521
H  H2  1  0.29840000  0.10260000  0.51860000  1.0 0.1445871521
H  H3  1  0.89740000  0.70160000  0.01860000  1.0 0.1445871521
H  H4  1  0.70160000  0.89740000  0.48140000  1.0 0.1445871521
H  H5  1  0.76610000  0.12690000  0.07380000  1.0 0.1525427629
H  H6  1  0.12690000  0.76610000  0.42620000  1.0 0.1525427629
H  H7  1  0.23390000  0.87310000  0.92620000  1.0 0.1525427629
H  H8  1  0.87310000  0.23390000  0.57380000  1.0 0.1525427629
H  H9  1  0.77010000  0.94690000  0.06810000  1.0 0.1290456732
H  H10  1  0.94690000  0.77010000  0.43190000  1.0 0.1290456732
H  H11  1  0.22990000  0.05310000  0.93190000  1.0 0.1290456732
H  H12  1  0.05310000  0.22990000  0.56810000  1.0 0.1290456732
H  H13  1  0.09560000  0.46100000  0.93380000  1.0 0.1606483464
H  H14  1  0.46100000  0.09560000  0.56620000  1.0 0.1606483464
H  H15  1  0.90440000  0.53900000  0.06620000  1.0 0.1606483464
H  H16  1  0.53900000  0.90440000  0.43380000  1.0 0.1606483464
H  H17  1  0.86430000  0.34030000  0.08670000  1.0 0.1525427629
H  H18  1  0.34030000  0.86430000  0.41330000  1.0 0.1525427629
H  H19  1  0.13570000  0.65970000  0.91330000  1.0 0.1525427629
H  H20  1  0.65970000  0.13570000  0.58670000  1.0 0.1525427629
W  W1  1  0.83186000  0.62516000  0.28968000  1.0 2.380412959
W  W2  1  0.62516000  0.83186000  0.21032000  1.0 2.380412959
W  W3  1  0.16814000  0.37484000  0.71032000  1.0 2.380412959
W  W4  1  0.37484000  0.16814000  0.78968000  1.0 2.380412959
W  W5  1  0.62895000  0.39197000  0.17189000  1.0 2.3983717093
W  W6  1  0.39197000  0.62895000  0.32811000  1.0 2.3983717093
W  W7  1  0.37105000  0.60803000  0.82811000  1.0 2.3983717093
W  W8  1  0.60803000  0.37105000  0.67189000  1.0 2.3983717093
W  W9  1  0.27359000  0.24419000  0.13224000  1.0 2.4264489342
W  W10  1  0.24419000  0.27359000  0.36776000  1.0 2.4264489342
W  W11  1  0.72641000  0.75581000  0.86776000  1.0 2.4264489342
W  W12  1  0.75581000  0.72641000  0.63224000  1.0 2.4264489342
W  W13  1  0.37223000  0.16887000  0.30142000  1.0 2.4062570064
W  W14  1  0.16887000  0.37223000  0.19858000  1.0 2.4062570064
W  W15  1  0.62777000  0.83113000  0.69858000  1.0 2.3983717093
W  W16  1  0.83113000  0.62777000  0.80142000  1.0 2.3983717093
W  W17  1  0.76438000  0.71568000  0.13669000  1.0 2.4062570064
W  W18  1  0.71568000  0.76438000  0.36331000  1.0 2.4062570064
W  W19  1  0.23562000  0.28432000  0.86331000  1.0 2.4062570064
W  W20  1  0.28432000  0.23562000  0.63669000  1.0 2.4062570064
W  W21  1  0.56501000  0.41125000  0.41479000  1.0 2.380412959
W  W22  1  0.41125000  0.56501000  0.08521000  1.0 2.380412959
W  W23  1  0.43499000  0.58875000  0.58521000  1.0 2.380412959
W  W24  1  0.58875000  0.43499000  0.91479000  1.0 2.380412959
C  C1  1  0.02090000  0.23450000  0.00320000  1.0 0.121614479
C  C2  1  0.23450000  0.02090000  0.49680000  1.0 0.121614479
C  C3  1  0.97910000  0.76550000  0.99680000  1.0 0.121614479
C  C4  1  0.76550000  0.97910000  0.50320000  1.0 0.121614479
C  C5  1  0.83300000  0.13880000  0.05490000  1.0 -0.0698847618
C  C6  1  0.13880000  0.83300000  0.44510000  1.0 -0.0698847618
C  C7  1  0.16700000  0.86120000  0.94510000  1.0 -0.0698847618
C  C8  1  0.86120000  0.16700000  0.55490000  1.0 -0.0698847618
C  C9  1  0.83530000  0.03830000  0.05170000  1.0 0.0400874829
C  C10  1  0.03830000  0.83530000  0.44830000  1.0 0.0400874829
C  C11  1  0.16470000  0.96170000  0.94830000  1.0 0.0400874829
C  C12  1  0.96170000  0.16470000  0.55170000  1.0 0.0400874829
C  C13  1  0.05730000  0.47710000  0.96040000  1.0 -0.1273325454
C  C14  1  0.47710000  0.05730000  0.53960000  1.0 -0.1273325454
C  C15  1  0.94270000  0.52290000  0.03960000  1.0 -0.1273325454
C  C16  1  0.52290000  0.94270000  0.46040000  1.0 -0.1273325454
C  C17  1  0.97670000  0.38230000  0.01220000  1.0 0.1606483464
C  C18  1  0.38230000  0.97670000  0.48780000  1.0 0.1606483464
C  C19  1  0.02330000  0.61770000  0.98780000  1.0 0.1606483464
C  C20  1  0.61770000  0.02330000  0.51220000  1.0 0.1606483464
C  C21  1  0.91910000  0.40490000  0.05200000  1.0 -0.1164196949
C  C22  1  0.40490000  0.91910000  0.44800000  1.0 -0.1164196949
C  C23  1  0.08090000  0.59510000  0.94800000  1.0 -0.1164196949
C  C24  1  0.59510000  0.08090000  0.55200000  1.0 -0.1164196949
N  N1  1  0.95140000  0.09740000  0.01970000  1.0 -0.2662223275
N  N2  1  0.09740000  0.95140000  0.48030000  1.0 -0.2662223275
N  N3  1  0.04860000  0.90260000  0.98030000  1.0 -0.2662223275
N  N4  1  0.90260000  0.04860000  0.51970000  1.0 -0.2662223275
N  N5  1  0.94770000  0.26010000  0.02490000  1.0 0.0400874829
N  N6  1  0.26010000  0.94770000  0.47510000  1.0 0.0400874829
N  N7  1  0.05230000  0.73990000  0.97510000  1.0 0.0400874829
N  N8  1  0.73990000  0.05230000  0.52490000  1.0 0.0400874829
O  O1  1  0.63650000  0.54810000  0.22180000  1.0 -1.051984496
O  O2  1  0.54810000  0.63650000  0.27820000  1.0 -1.051984496
O  O3  1  0.36350000  0.45190000  0.77820000  1.0 -1.051984496
O  O4  1  0.45190000  0.36350000  0.72180000  1.0 -1.051984496
O  O5  1  0.48540000  0.23680000  0.38280000  1.0 -0.8591338963
O  O6  1  0.23680000  0.48540000  0.11720000  1.0 -0.8591338963
O  O7  1  0.51460000  0.76320000  0.61720000  1.0 -0.8591338963
O  O8  1  0.76320000  0.51460000  0.88280000  1.0 -0.8591338963
O  O9  1  0.38320000  0.44280000  0.18970000  1.0 -1.0656166743
O  O10  1  0.44280000  0.38320000  0.31030000  1.0 -1.0656166743
O  O11  1  0.61680000  0.55720000  0.81030000  1.0 -1.0656166743
O  O12  1  0.55720000  0.61680000  0.68970000  1.0 -1.0656166743
O  O13  1  0.13630000  0.23430000  0.15260000  1.0 -0.8447199534
O  O14  1  0.23430000  0.13630000  0.34740000  1.0 -0.8447199534
O  O15  1  0.86370000  0.76570000  0.84740000  1.0 -0.8447199534
O  O16  1  0.76570000  0.86370000  0.65260000  1.0 -0.8447199534
O  O17  1  0.79060000  0.49320000  0.23870000  1.0 -0.8591338963
O  O18  1  0.49320000  0.79060000  0.26130000  1.0 -0.8591338963
O  O19  1  0.20940000  0.50680000  0.76130000  1.0 -0.8591338963
O  O20  1  0.50680000  0.20940000  0.73870000  1.0 -0.8591338963
O  O21  1  0.52500000  0.27040000  0.24930000  1.0 -0.8886987488
O  O22  1  0.27040000  0.52500000  0.25070000  1.0 -0.8886987488
O  O23  1  0.47500000  0.72960000  0.75070000  1.0 -0.8886987488
O  O24  1  0.72960000  0.47500000  0.74930000  1.0 -0.8886987488
O  O25  1  0.74140000  0.81500000  0.17860000  1.0 -0.8687969318
O  O26  1  0.81500000  0.74140000  0.32140000  1.0 -0.8687969318
O  O27  1  0.25860000  0.18500000  0.82140000  1.0 -0.8687969318
O  O28  1  0.18500000  0.25860000  0.67860000  1.0 -0.8687969318
O  O29  1  0.89150000  0.74570000  0.20640000  1.0 -0.8278072397
O  O30  1  0.74570000  0.89150000  0.29360000  1.0 -0.8278072397
O  O31  1  0.10850000  0.25430000  0.79360000  1.0 -0.8278072397
O  O32  1  0.25430000  0.10850000  0.70640000  1.0 -0.8278072397
O  O33  1  0.38980000  0.32640000  0.43690000  1.0 -0.8278072397
O  O34  1  0.32640000  0.38980000  0.06310000  1.0 -0.8278072397
O  O35  1  0.61020000  0.67360000  0.56310000  1.0 -0.8278072397
O  O36  1  0.67360000  0.61020000  0.93690000  1.0 -0.8278072397
O  O37  1  0.73330000  0.55930000  0.11590000  1.0 -0.8496739934
O  O38  1  0.55930000  0.73330000  0.38410000  1.0 -0.8496739934
O  O39  1  0.26670000  0.44070000  0.88410000  1.0 -0.8496739934
O  O40  1  0.44070000  0.26670000  0.61590000  1.0 -0.8496739934
O  O41  1  0.27740000  0.16600000  0.21770000  1.0 -0.8591338963
O  O42  1  0.16600000  0.27740000  0.28230000  1.0 -0.8591338963
O  O43  1  0.72260000  0.83400000  0.78230000  1.0 -0.8591338963
O  O44  1  0.83400000  0.72260000  0.71770000  1.0 -0.8591338963
O  O45  1  0.58830000  0.62830000  0.09140000  1.0 -0.8496739934
O  O46  1  0.62830000  0.58830000  0.40860000  1.0 -0.8496739934
O  O47  1  0.41170000  0.37170000  0.90860000  1.0 -0.8496739934
O  O48  1  0.37170000  0.41170000  0.59140000  1.0 -0.8496739934
O  O49  1  0.45980000  0.32340000  0.12780000  1.0 -0.8687969318
O  O50  1  0.32340000  0.45980000  0.37220000  1.0 -0.8687969318
O  O51  1  0.54020000  0.67660000  0.87220000  1.0 -0.8687969318
O  O52  1  0.67660000  0.54020000  0.62780000  1.0 -0.8687969318
O  O53  1  0.71320000  0.49520000  0.35460000  1.0 -0.8687969318
O  O54  1  0.49520000  0.71320000  0.14540000  1.0 -0.8687969318
O  O55  1  0.28680000  0.50480000  0.64540000  1.0 -0.8687969318
O  O56  1  0.50480000  0.28680000  0.85460000  1.0 -0.8687969318
O  O57  1  0.98750000  0.68810000  0.32390000  1.0 -0.6082645384
O  O58  1  0.68810000  0.98750000  0.17610000  1.0 -0.6082645384
O  O59  1  0.01250000  0.31190000  0.67610000  1.0 -0.6048763464
O  O60  1  0.31190000  0.01250000  0.82390000  1.0 -0.6082645384
O  O61  1  0.65770000  0.30470000  0.14110000  1.0 -0.5739684473
O  O62  1  0.30470000  0.65770000  0.35890000  1.0 -0.5739684473
O  O63  1  0.34230000  0.69530000  0.85890000  1.0 -0.5739684473
O  O64  1  0.69530000  0.34230000  0.64110000  1.0 -0.5739684473
O  O65  1  0.31750000  0.01150000  0.30590000  1.0 -0.5904121469
O  O66  1  0.01150000  0.31750000  0.19410000  1.0 -0.5904121469
O  O67  1  0.68250000  0.98850000  0.69410000  1.0 -0.5904121469
O  O68  1  0.98850000  0.68250000  0.80590000  1.0 -0.5904121469
O  O69  1  0.63130000  0.40210000  0.49290000  1.0 -0.6082645384
O  O70  1  0.40210000  0.63130000  0.00710000  1.0 -0.6082645384
O  O71  1  0.36870000  0.59790000  0.50710000  1.0 -0.6082645384
O  O72  1  0.59790000  0.36870000  0.99290000  1.0 -0.6082645384
O  O73  1  0.18070000  0.10910000  0.07950000  1.0 -0.7398484718
O  O74  1  0.10910000  0.18070000  0.42050000  1.0 -0.7398484718
O  O75  1  0.81930000  0.89090000  0.92050000  1.0 -0.7398484718
O  O76  1  0.89090000  0.81930000  0.57950000  1.0 -0.7398484718
O  O77  1  0.87430000  0.83490000  0.07600000  1.0 -0.7160200547
O  O78  1  0.83490000  0.87430000  0.42400000  1.0 -0.7160200547
O  O79  1  0.12570000  0.16510000  0.92400000  1.0 -0.7160200547
O  O80  1  0.16510000  0.12570000  0.57600000  1.0 -0.7160200547
