# DDEC6 charges by PACMAN v1.1 (https://github.com/mtap-research/PACMAN-charge/)
data_PURQID_ASR_pacman
_symmetry_space_group_name_H-M   'P 1'
_cell_length_a   12.12940000
_cell_length_b   12.12940000
_cell_length_c   16.44700000
_cell_angle_alpha   67.71620000
_cell_angle_beta   112.28400000
_cell_angle_gamma   131.86500000
_symmetry_Int_Tables_number   1
_chemical_formula_structural   NaCe2H20(C4O5)4
_chemical_formula_sum   'Na2 Ce4 H40 C32 O40'
_cell_volume   1639.26352472
_cell_formula_units_Z   2
loop_
 _symmetry_equiv_pos_site_id
 _symmetry_equiv_pos_as_xyz
  1  'x, y, z'
loop_
 _atom_site_type_symbol
 _atom_site_label
 _atom_site_symmetry_multiplicity
 _atom_site_fract_x
 _atom_site_fract_y
 _atom_site_fract_z
 _atom_site_occupancy
 _atom_site_charge
Na  Na1  1  0.89430000  0.89430000  0.25000000  1.0 0.8780477647
Na  Na2  1  0.10570000  0.10570000  0.75000000  1.0 0.8780477647
Ce  Ce1  1  0.94824000  0.27734000  0.20608000  1.0 1.8376817111
Ce  Ce2  1  0.27734000  0.94824000  0.29392000  1.0 1.8376817111
Ce  Ce3  1  0.05176000  0.72266000  0.79392000  1.0 1.8376817111
Ce  Ce4  1  0.72266000  0.05176000  0.70608000  1.0 1.8376817111
H  H1  1  0.45180000  0.07980000  0.00350000  1.0 0.1211628433
H  H2  1  0.07980000  0.45180000  0.49650000  1.0 0.1211628433
H  H3  1  0.54820000  0.92020000  0.99650000  1.0 0.1211628433
H  H4  1  0.92020000  0.54820000  0.50350000  1.0 0.1211628433
H  H5  1  0.27990000  0.81810000  0.05000000  1.0 0.1493905246
H  H6  1  0.81810000  0.27990000  0.45000000  1.0 0.1493905246
H  H7  1  0.72010000  0.18190000  0.95000000  1.0 0.1493905246
H  H8  1  0.18190000  0.72010000  0.55000000  1.0 0.1493905246
H  H9  1  0.41270000  0.81470000  0.11910000  1.0 0.1493905246
H  H10  1  0.81470000  0.41270000  0.38090000  1.0 0.1493905246
H  H11  1  0.58730000  0.18530000  0.88090000  1.0 0.1493905246
H  H12  1  0.18530000  0.58730000  0.61910000  1.0 0.1493905246
H  H13  1  0.95710000  0.17210000  0.95350000  1.0 0.1493905246
H  H14  1  0.17210000  0.95710000  0.54650000  1.0 0.1493905246
H  H15  1  0.04290000  0.82790000  0.04650000  1.0 0.1493905246
H  H16  1  0.82790000  0.04290000  0.45350000  1.0 0.1493905246
H  H17  1  0.12900000  0.24800000  0.00070000  1.0 0.1493905246
H  H18  1  0.24800000  0.12900000  0.49930000  1.0 0.1493905246
H  H19  1  0.87100000  0.75200000  0.99930000  1.0 0.1493905246
H  H20  1  0.75200000  0.87100000  0.50070000  1.0 0.1493905246
H  H21  1  0.88330000  0.93790000  0.04500000  1.0 0.1211628433
H  H22  1  0.93790000  0.88330000  0.45500000  1.0 0.1211628433
H  H23  1  0.11670000  0.06210000  0.95500000  1.0 0.1211628433
H  H24  1  0.06210000  0.11670000  0.54500000  1.0 0.1211628433
H  H25  1  0.09200000  0.59800000  0.15100000  1.0 0.3882214729
H  H26  1  0.59800000  0.09200000  0.34900000  1.0 0.3882214729
H  H27  1  0.90800000  0.40200000  0.84900000  1.0 0.3882214729
H  H28  1  0.40200000  0.90800000  0.65100000  1.0 0.3882214729
H  H29  1  0.20900000  0.43100000  0.26900000  1.0 0.3772919182
H  H30  1  0.43100000  0.20900000  0.23100000  1.0 0.3772919182
H  H31  1  0.79100000  0.56900000  0.73100000  1.0 0.3772919182
H  H32  1  0.56900000  0.79100000  0.76900000  1.0 0.3772919182
H  H33  1  0.94300000  0.48900000  0.16100000  1.0 0.3508510444
H  H34  1  0.48900000  0.94300000  0.33900000  1.0 0.3508510444
H  H35  1  0.05700000  0.51100000  0.83900000  1.0 0.3508510444
H  H36  1  0.51100000  0.05700000  0.66100000  1.0 0.3508510444
H  H37  1  0.31200000  0.48800000  0.21600000  1.0 0.3882214729
H  H38  1  0.48800000  0.31200000  0.28400000  1.0 0.3882214729
H  H39  1  0.68800000  0.51200000  0.78400000  1.0 0.3882214729
H  H40  1  0.51200000  0.68800000  0.71600000  1.0 0.3882214729
C  C1  1  0.63990000  0.11170000  0.09360000  1.0 0.6062652472
C  C2  1  0.11170000  0.63990000  0.40640000  1.0 0.6062652472
C  C3  1  0.36010000  0.88830000  0.90640000  1.0 0.6062652472
C  C4  1  0.88830000  0.36010000  0.59360000  1.0 0.6062652472
C  C5  1  0.48980000  0.01940000  0.03510000  1.0 -0.1115558833
C  C6  1  0.01940000  0.48980000  0.46490000  1.0 -0.1115558833
C  C7  1  0.51020000  0.98060000  0.96490000  1.0 -0.1115558833
C  C8  1  0.98060000  0.51020000  0.53510000  1.0 -0.1115558833
C  C9  1  0.37710000  0.87650000  0.09030000  1.0 -0.3358318504
C  C10  1  0.87650000  0.37710000  0.40970000  1.0 -0.3358318504
C  C11  1  0.62290000  0.12350000  0.90970000  1.0 -0.3358318504
C  C12  1  0.12350000  0.62290000  0.59030000  1.0 -0.3358318504
C  C13  1  0.35030000  0.90290000  0.16310000  1.0 0.6243379716
C  C14  1  0.90290000  0.35030000  0.33690000  1.0 0.6243379716
C  C15  1  0.64970000  0.09710000  0.83690000  1.0 0.6243379716
C  C16  1  0.09710000  0.64970000  0.66310000  1.0 0.6243379716
C  C17  1  0.00400000  0.20820000  0.07770000  1.0 0.653151438
C  C18  1  0.20820000  0.00400000  0.42230000  1.0 0.653151438
C  C19  1  0.99600000  0.79180000  0.92230000  1.0 0.653151438
C  C20  1  0.79180000  0.99600000  0.57770000  1.0 0.653151438
C  C21  1  0.02400000  0.16940000  0.01080000  1.0 -0.3470122289
C  C22  1  0.16940000  0.02400000  0.48920000  1.0 -0.3470122289
C  C23  1  0.97600000  0.83060000  0.98920000  1.0 -0.3470122289
C  C24  1  0.83060000  0.97600000  0.51080000  1.0 -0.3470122289
C  C25  1  0.99080000  0.01620000  0.03730000  1.0 -0.1115558833
C  C26  1  0.01620000  0.99080000  0.46270000  1.0 -0.1115558833
C  C27  1  0.00920000  0.98380000  0.96270000  1.0 -0.1115558833
C  C28  1  0.98380000  0.00920000  0.53730000  1.0 -0.1115558833
C  C29  1  0.08580000  0.99820000  0.12330000  1.0 0.595700771
C  C30  1  0.99820000  0.08580000  0.37670000  1.0 0.595700771
C  C31  1  0.91420000  0.00180000  0.87670000  1.0 0.595700771
C  C32  1  0.00180000  0.91420000  0.62330000  1.0 0.595700771
O  O1  1  0.69650000  0.04490000  0.14820000  1.0 -0.6165027913
O  O2  1  0.04490000  0.69650000  0.35180000  1.0 -0.6165027913
O  O3  1  0.30350000  0.95510000  0.85180000  1.0 -0.6165027913
O  O4  1  0.95510000  0.30350000  0.64820000  1.0 -0.6165027913
O  O5  1  0.71450000  0.25310000  0.08780000  1.0 -0.5795626587
O  O6  1  0.25310000  0.71450000  0.41220000  1.0 -0.5795626587
O  O7  1  0.28550000  0.74690000  0.91220000  1.0 -0.5795626587
O  O8  1  0.74690000  0.28550000  0.58780000  1.0 -0.5795626587
O  O9  1  0.23930000  0.78910000  0.20280000  1.0 -0.5985751744
O  O10  1  0.78910000  0.23930000  0.29720000  1.0 -0.5985751744
O  O11  1  0.76070000  0.21090000  0.79720000  1.0 -0.5985751744
O  O12  1  0.21090000  0.76070000  0.70280000  1.0 -0.5985751744
O  O13  1  0.43350000  0.02810000  0.18220000  1.0 -0.5274613794
O  O14  1  0.02810000  0.43350000  0.31780000  1.0 -0.5274613794
O  O15  1  0.56650000  0.97190000  0.81780000  1.0 -0.5274613794
O  O16  1  0.97190000  0.56650000  0.68220000  1.0 -0.5274613794
O  O17  1  0.00760000  0.14400000  0.15930000  1.0 -0.6562038954
O  O18  1  0.14400000  0.00760000  0.34070000  1.0 -0.6562038954
O  O19  1  0.99240000  0.85600000  0.84070000  1.0 -0.6562038954
O  O20  1  0.85600000  0.99240000  0.65930000  1.0 -0.6562038954
O  O21  1  0.99340000  0.31560000  0.05330000  1.0 -0.5795626587
O  O22  1  0.31560000  0.99340000  0.44670000  1.0 -0.5795626587
O  O23  1  0.00660000  0.68440000  0.94670000  1.0 -0.5795626587
O  O24  1  0.68440000  0.00660000  0.55330000  1.0 -0.5795626587
O  O25  1  0.02120000  0.87580000  0.18160000  1.0 -0.6834713217
O  O26  1  0.87580000  0.02120000  0.31840000  1.0 -0.6834713217
O  O27  1  0.97880000  0.12420000  0.81840000  1.0 -0.6834713217
O  O28  1  0.12420000  0.97880000  0.68160000  1.0 -0.6834713217
O  O29  1  0.22450000  0.09650000  0.13670000  1.0 -0.5795626587
O  O30  1  0.09650000  0.22450000  0.36330000  1.0 -0.5795626587
O  O31  1  0.77550000  0.90350000  0.86330000  1.0 -0.5795626587
O  O32  1  0.90350000  0.77550000  0.63670000  1.0 -0.5795626587
O  O33  1  0.00320000  0.53280000  0.12640000  1.0 -0.668899193
O  O34  1  0.53280000  0.00320000  0.37360000  1.0 -0.668899193
O  O35  1  0.99680000  0.46720000  0.87360000  1.0 -0.668899193
O  O36  1  0.46720000  0.99680000  0.62640000  1.0 -0.668899193
O  O37  1  0.23580000  0.47820000  0.21790000  1.0 -0.7048771378
O  O38  1  0.47820000  0.23580000  0.28210000  1.0 -0.7048771378
O  O39  1  0.76420000  0.52180000  0.78210000  1.0 -0.7048771378
O  O40  1  0.52180000  0.76420000  0.71790000  1.0 -0.7048771378
