# DDEC6 charges by PACMAN v1.1 (https://github.com/mtap-research/PACMAN-charge/)
data_PURTAA_FSR_pacman
_symmetry_space_group_name_H-M   'P 1'
_cell_length_a   11.97000000
_cell_length_b   13.26860000
_cell_length_c   20.19470000
_cell_angle_alpha   82.90700000
_cell_angle_beta   73.46200000
_cell_angle_gamma   66.48300000
_symmetry_Int_Tables_number   1
_chemical_formula_structural   Cu2H40C50N8O13
_chemical_formula_sum   'Cu4 H80 C100 N16 O26'
_cell_volume   2819.17733864
_cell_formula_units_Z   2
loop_
 _symmetry_equiv_pos_site_id
 _symmetry_equiv_pos_as_xyz
  1  'x, y, z'
loop_
 _atom_site_type_symbol
 _atom_site_label
 _atom_site_symmetry_multiplicity
 _atom_site_fract_x
 _atom_site_fract_y
 _atom_site_fract_z
 _atom_site_occupancy
 _atom_site_charge
Cu  Cu1  1  0.97185000  0.71907000  0.24327000  1.0 0.7434035814
Cu  Cu2  1  0.47229000  0.21274000  0.24688000  1.0 0.6191997803
Cu  Cu3  1  0.02815000  0.28093000  0.75673000  1.0 0.7434035814
Cu  Cu4  1  0.52771000  0.78726000  0.75312000  1.0 0.6191997803
H  H1  1  0.67450000  0.51360000  0.24820000  1.0 0.1312018416
H  H2  1  0.53490000  0.58080000  0.34950000  1.0 0.1372393495
H  H3  1  0.32520000  0.64060000  0.36060000  1.0 0.1312018416
H  H4  1  0.33350000  0.43990000  0.03060000  1.0 0.1227565251
H  H5  1  0.30310000  0.60230000  0.97020000  1.0 0.1312018416
H  H6  1  0.32620000  0.74150000  0.01100000  1.0 0.1312018416
H  H7  1  0.84120000  0.92160000  0.32170000  1.0 0.1094711933
H  H8  1  0.86130000  0.08440000  0.32870000  1.0 0.1312018416
H  H9  1  0.13410000  0.01290000  0.15870000  1.0 0.1312018416
H  H10  1  0.11720000  0.84690000  0.15720000  1.0 0.1013506791
H  H11  1  0.02010000  0.16430000  0.31530000  1.0 0.0803074051
H  H12  1  0.11000000  0.16390000  0.24070000  1.0 0.087612341
H  H13  1  0.84370000  0.26440000  0.27380000  1.0 0.1013506791
H  H14  1  0.93020000  0.25910000  0.19790000  1.0 0.0803074051
H  H15  1  0.10110000  0.33660000  0.18080000  1.0 0.1227565251
H  H16  1  0.10680000  0.51070000  0.17470000  1.0 0.1013506791
H  H17  1  0.82620000  0.59590000  0.33810000  1.0 0.1094711933
H  H18  1  0.81260000  0.42760000  0.34580000  1.0 0.1312018416
H  H19  1  0.23490000  0.92760000  0.32290000  1.0 0.1312018416
H  H20  1  0.33000000  0.86150000  0.21470000  1.0 0.1312018416
H  H21  1  0.54690000  0.79810000  0.17600000  1.0 0.1312018416
H  H22  1  0.66380000  0.03660000  0.44820000  1.0 0.1372393495
H  H23  1  0.71120000  0.88530000  0.52170000  1.0 0.1312018416
H  H24  1  0.68940000  0.72970000  0.50060000  1.0 0.1227565251
H  H25  1  0.68180000  0.27480000  0.16540000  1.0 0.1094711933
H  H26  1  0.86550000  0.20770000  0.08260000  1.0 0.1312018416
H  H27  1  0.81160000  0.92990000  0.08970000  1.0 0.1480546906
H  H28  1  0.62310000  0.00660000  0.17110000  1.0 0.1094711933
H  H29  1  0.03690000  0.05380000  0.03690000  1.0 0.1227565251
H  H30  1  0.03480000  0.93630000  0.05400000  1.0 0.1227565251
H  H31  1  0.94590000  0.52890000  0.44680000  1.0 0.1312018416
H  H32  1  0.95440000  0.42500000  0.49330000  1.0 0.1227565251
H  H33  1  0.21400000  0.49710000  0.41760000  1.0 0.1372393495
H  H34  1  0.37940000  0.40150000  0.33050000  1.0 0.1094711933
H  H35  1  0.23180000  0.19170000  0.33000000  1.0 0.1094711933
H  H36  1  0.05840000  0.28330000  0.41330000  1.0 0.1312018416
H  H37  1  0.09750000  0.17330000  0.19770000  1.0 0.087612341
H  H38  1  0.96020000  0.21810000  0.18660000  1.0 0.0803074051
H  H39  1  0.01410000  0.21380000  0.31740000  1.0 0.0803074051
H  H40  1  0.87520000  0.24560000  0.31130000  1.0 0.087612341
H  H41  1  0.32550000  0.48640000  0.75180000  1.0 0.1312018416
H  H42  1  0.46510000  0.41920000  0.65050000  1.0 0.1372393495
H  H43  1  0.67480000  0.35940000  0.63940000  1.0 0.1312018416
H  H44  1  0.66650000  0.56010000  0.96940000  1.0 0.1227565251
H  H45  1  0.69690000  0.39770000  0.02980000  1.0 0.1312018416
H  H46  1  0.67380000  0.25850000  0.98900000  1.0 0.1312018416
H  H47  1  0.15880000  0.07840000  0.67830000  1.0 0.1094711933
H  H48  1  0.13870000  0.91560000  0.67130000  1.0 0.1312018416
H  H49  1  0.86590000  0.98710000  0.84130000  1.0 0.1312018416
H  H50  1  0.88280000  0.15310000  0.84280000  1.0 0.1013506791
H  H51  1  0.97990000  0.83570000  0.68470000  1.0 0.0803074051
H  H52  1  0.89000000  0.83610000  0.75930000  1.0 0.087612341
H  H53  1  0.15630000  0.73560000  0.72620000  1.0 0.1013506791
H  H54  1  0.06980000  0.74090000  0.80210000  1.0 0.0803074051
H  H55  1  0.89890000  0.66340000  0.81920000  1.0 0.1227565251
H  H56  1  0.89320000  0.48930000  0.82530000  1.0 0.1013506791
H  H57  1  0.17380000  0.40410000  0.66190000  1.0 0.1094711933
H  H58  1  0.18740000  0.57240000  0.65420000  1.0 0.1312018416
H  H59  1  0.76510000  0.07240000  0.67710000  1.0 0.1312018416
H  H60  1  0.67000000  0.13850000  0.78530000  1.0 0.1312018416
H  H61  1  0.45310000  0.20190000  0.82400000  1.0 0.1312018416
H  H62  1  0.33620000  0.96340000  0.55180000  1.0 0.1372393495
H  H63  1  0.28880000  0.11470000  0.47830000  1.0 0.1312018416
H  H64  1  0.31060000  0.27030000  0.49940000  1.0 0.1227565251
H  H65  1  0.31820000  0.72520000  0.83460000  1.0 0.1094711933
H  H66  1  0.13450000  0.79230000  0.91740000  1.0 0.1312018416
H  H67  1  0.18840000  0.07010000  0.91030000  1.0 0.1480546906
H  H68  1  0.37690000  0.99340000  0.82890000  1.0 0.1094711933
H  H69  1  0.96310000  0.94620000  0.96310000  1.0 0.1227565251
H  H70  1  0.96520000  0.06370000  0.94600000  1.0 0.1227565251
H  H71  1  0.05410000  0.47110000  0.55320000  1.0 0.1312018416
H  H72  1  0.04560000  0.57500000  0.50670000  1.0 0.1227565251
H  H73  1  0.78600000  0.50290000  0.58240000  1.0 0.1372393495
H  H74  1  0.62060000  0.59850000  0.66950000  1.0 0.1094711933
H  H75  1  0.76820000  0.80830000  0.67000000  1.0 0.1094711933
H  H76  1  0.94160000  0.71670000  0.58670000  1.0 0.1312018416
H  H77  1  0.90250000  0.82670000  0.80230000  1.0 0.087612341
H  H78  1  0.03980000  0.78190000  0.81340000  1.0 0.0803074051
H  H79  1  0.98590000  0.78620000  0.68260000  1.0 0.0803074051
H  H80  1  0.12480000  0.75440000  0.68870000  1.0 0.087612341
C  C1  1  0.58840000  0.53880000  0.25220000  1.0 -0.0809126602
C  C2  1  0.50600000  0.57810000  0.31180000  1.0 -0.1109081679
C  C3  1  0.38130000  0.61410000  0.31830000  1.0 -0.1020377451
C  C4  1  0.33500000  0.61260000  0.26350000  1.0 -0.0710294311
C  C5  1  0.41990000  0.57070000  0.19990000  1.0 0.0803074051
C  C6  1  0.38820000  0.56750000  0.13440000  1.0 0.0597759783
C  C7  1  0.37540000  0.48240000  0.10990000  1.0 -0.0875228295
C  C8  1  0.34310000  0.49690000  0.04790000  1.0 -0.1237354078
C  C9  1  0.32500000  0.59380000  0.01170000  1.0 -0.1109081679
C  C10  1  0.33860000  0.67560000  0.03570000  1.0 -0.0710294311
C  C11  1  0.19450000  0.65450000  0.27230000  1.0 0.546619701
C  C12  1  0.39780000  0.37440000  0.14830000  1.0 0.4413415468
C  C13  1  0.90350000  0.93820000  0.28850000  1.0 0.0803074051
C  C14  1  0.91450000  0.03740000  0.29230000  1.0 -0.2576569789
C  C15  1  0.00020000  0.06680000  0.24470000  1.0 0.1227565251
C  C16  1  0.07450000  0.99550000  0.19360000  1.0 -0.2745836549
C  C17  1  0.06290000  0.89560000  0.19260000  1.0 0.0431153285
C  C18  1  0.02700000  0.16560000  0.26620000  1.0 -0.0809126602
C  C19  1  0.92600000  0.26160000  0.24640000  1.0 -0.0875228295
C  C20  1  0.95110000  0.36540000  0.26160000  1.0 0.1312018416
C  C21  1  0.04170000  0.38970000  0.21260000  1.0 -0.2792889797
C  C22  1  0.04640000  0.49430000  0.20960000  1.0 0.1013506791
C  C23  1  0.88170000  0.54320000  0.30520000  1.0 0.0597759783
C  C24  1  0.87250000  0.44270000  0.30980000  1.0 -0.2576569789
C  C25  1  0.32240000  0.90140000  0.30730000  1.0 -0.0875228295
C  C26  1  0.37780000  0.86290000  0.24350000  1.0 -0.1269527697
C  C27  1  0.50760000  0.82500000  0.22060000  1.0 -0.0875228295
C  C28  1  0.58020000  0.82620000  0.26220000  1.0 -0.0710294311
C  C29  1  0.51790000  0.86890000  0.32890000  1.0 0.0803074051
C  C30  1  0.57850000  0.88070000  0.38040000  1.0 0.0597759783
C  C31  1  0.59620000  0.97390000  0.38970000  1.0 -0.0710294311
C  C32  1  0.64900000  0.97520000  0.44190000  1.0 -0.0809126602
C  C33  1  0.67990000  0.88380000  0.48480000  1.0 -0.1109081679
C  C34  1  0.66440000  0.79200000  0.47310000  1.0 -0.0527174608
C  C35  1  0.72110000  0.78420000  0.23440000  1.0 0.5556319034
C  C36  1  0.56070000  0.07430000  0.34280000  1.0 0.5449930108
C  C37  1  0.70780000  0.20410000  0.14950000  1.0 0.0597759783
C  C38  1  0.81970000  0.16350000  0.10030000  1.0 -0.2438808256
C  C39  1  0.86660000  0.05440000  0.07620000  1.0 0.1372393495
C  C40  1  0.78790000  0.00110000  0.10410000  1.0 -0.1826468878
C  C41  1  0.67310000  0.04740000  0.15350000  1.0 0.1013506791
C  C42  1  0.99310000  0.00700000  0.03420000  1.0 -0.2206307226
C  C43  1  0.99880000  0.47310000  0.47270000  1.0 -0.2206307226
C  C44  1  0.10970000  0.40890000  0.42300000  1.0 0.1480546906
C  C45  1  0.21260000  0.43690000  0.39910000  1.0 -0.1826468878
C  C46  1  0.31350000  0.37730000  0.34810000  1.0 0.087612341
C  C47  1  0.22690000  0.25550000  0.34740000  1.0 0.0341838761
C  C48  1  0.12190000  0.31050000  0.39690000  1.0 -0.2311125719
C  C49  1  0.01100000  0.18190000  0.21900000  1.0 -0.0875228295
C  C50  1  0.95800000  0.24510000  0.28720000  1.0 -0.0710294311
C  C51  1  0.41160000  0.46120000  0.74780000  1.0 -0.0809126602
C  C52  1  0.49400000  0.42190000  0.68820000  1.0 -0.1109081679
C  C53  1  0.61870000  0.38590000  0.68170000  1.0 -0.1020377451
C  C54  1  0.66500000  0.38740000  0.73650000  1.0 -0.0710294311
C  C55  1  0.58010000  0.42930000  0.80010000  1.0 0.0803074051
C  C56  1  0.61180000  0.43250000  0.86560000  1.0 0.0597759783
C  C57  1  0.62460000  0.51760000  0.89010000  1.0 -0.0875228295
C  C58  1  0.65690000  0.50310000  0.95210000  1.0 -0.1237354078
C  C59  1  0.67500000  0.40620000  0.98830000  1.0 -0.1109081679
C  C60  1  0.66140000  0.32440000  0.96430000  1.0 -0.0710294311
C  C61  1  0.80550000  0.34550000  0.72770000  1.0 0.546619701
C  C62  1  0.60220000  0.62560000  0.85170000  1.0 0.4413415468
C  C63  1  0.09650000  0.06180000  0.71150000  1.0 0.087612341
C  C64  1  0.08550000  0.96260000  0.70770000  1.0 -0.2576569789
C  C65  1  0.99980000  0.93320000  0.75530000  1.0 0.1227565251
C  C66  1  0.92550000  0.00450000  0.80640000  1.0 -0.2745836549
C  C67  1  0.93710000  0.10440000  0.80740000  1.0 0.0431153285
C  C68  1  0.97300000  0.83440000  0.73380000  1.0 -0.0710294311
C  C69  1  0.07400000  0.73840000  0.75360000  1.0 -0.0875228295
C  C70  1  0.04890000  0.63460000  0.73840000  1.0 0.1312018416
C  C71  1  0.95830000  0.61030000  0.78740000  1.0 -0.2792889797
C  C72  1  0.95360000  0.50570000  0.79040000  1.0 0.1013506791
C  C73  1  0.11830000  0.45680000  0.69480000  1.0 0.0597759783
C  C74  1  0.12750000  0.55730000  0.69020000  1.0 -0.2576569789
C  C75  1  0.67760000  0.09860000  0.69270000  1.0 -0.0875228295
C  C76  1  0.62220000  0.13710000  0.75650000  1.0 -0.1269527697
C  C77  1  0.49240000  0.17500000  0.77940000  1.0 -0.0875228295
C  C78  1  0.41980000  0.17380000  0.73780000  1.0 -0.0710294311
C  C79  1  0.48210000  0.13110000  0.67110000  1.0 0.0803074051
C  C80  1  0.42150000  0.11930000  0.61960000  1.0 0.0597759783
C  C81  1  0.40380000  0.02610000  0.61030000  1.0 -0.0710294311
C  C82  1  0.35100000  0.02480000  0.55810000  1.0 -0.0809126602
C  C83  1  0.32010000  0.11620000  0.51520000  1.0 -0.1109081679
C  C84  1  0.33560000  0.20800000  0.52690000  1.0 -0.0527174608
C  C85  1  0.27890000  0.21580000  0.76560000  1.0 0.5556319034
C  C86  1  0.43930000  0.92570000  0.65720000  1.0 0.546619701
C  C87  1  0.29220000  0.79590000  0.85050000  1.0 0.0597759783
C  C88  1  0.18030000  0.83650000  0.89970000  1.0 -0.2453062856
C  C89  1  0.13340000  0.94560000  0.92380000  1.0 0.1372393495
C  C90  1  0.21210000  0.99890000  0.89590000  1.0 -0.1826468878
C  C91  1  0.32690000  0.95260000  0.84650000  1.0 0.1013506791
C  C92  1  0.00690000  0.99300000  0.96580000  1.0 -0.2206307226
C  C93  1  0.00120000  0.52690000  0.52730000  1.0 -0.2206307226
C  C94  1  0.89030000  0.59110000  0.57700000  1.0 0.1480546906
C  C95  1  0.78740000  0.56310000  0.60090000  1.0 -0.1826468878
C  C96  1  0.68650000  0.62270000  0.65190000  1.0 0.087612341
C  C97  1  0.77310000  0.74450000  0.65260000  1.0 0.0341838761
C  C98  1  0.87810000  0.68950000  0.60310000  1.0 -0.2311125719
C  C99  1  0.98900000  0.81810000  0.78100000  1.0 -0.0809126602
C  C100  1  0.04200000  0.75490000  0.71280000  1.0 -0.0809126602
N  N1  1  0.54550000  0.53550000  0.19620000  1.0 0.2822254873
N  N2  1  0.37020000  0.66320000  0.09560000  1.0 0.2991346693
N  N3  1  0.97850000  0.86670000  0.23930000  1.0 -0.1988970512
N  N4  1  0.96730000  0.56850000  0.25510000  1.0 -0.2062935406
N  N5  1  0.39060000  0.90320000  0.34990000  1.0 0.2877351916
N  N6  1  0.61290000  0.79060000  0.42150000  1.0 0.2991346693
N  N7  1  0.63480000  0.14920000  0.17550000  1.0 -0.2206307226
N  N8  1  0.32130000  0.28690000  0.32290000  1.0 -0.1988970512
N  N9  1  0.45450000  0.46450000  0.80380000  1.0 0.2822254873
N  N10  1  0.62980000  0.33680000  0.90440000  1.0 0.2991346693
N  N11  1  0.02150000  0.13330000  0.76070000  1.0 -0.1988970512
N  N12  1  0.03270000  0.43150000  0.74490000  1.0 -0.2062935406
N  N13  1  0.60940000  0.09680000  0.65010000  1.0 0.2877351916
N  N14  1  0.38710000  0.20940000  0.57850000  1.0 0.2991346693
N  N15  1  0.36520000  0.85080000  0.82450000  1.0 -0.2206307226
N  N16  1  0.67870000  0.71310000  0.67710000  1.0 -0.1988970512
O  O1  1  0.15670000  0.65440000  0.22030000  1.0 -0.5258603418
O  O2  1  0.12320000  0.68790000  0.33070000  1.0 -0.5565297329
O  O3  1  0.62570000  0.49550000  0.13540000  1.0 -0.4985644543
O  O4  1  0.38430000  0.74170000  0.11770000  1.0 -0.4104661816
O  O5  1  0.44190000  0.35700000  0.19960000  1.0 -0.5258603418
O  O6  1  0.34700000  0.31600000  0.13390000  1.0 -0.0809126602
O  O7  1  0.78570000  0.78570000  0.27430000  1.0 -0.5410611057
O  O8  1  0.76710000  0.74830000  0.17450000  1.0 -0.5509786033
O  O9  1  0.33520000  0.93960000  0.41310000  1.0 -0.4609308564
O  O10  1  0.59590000  0.70330000  0.41210000  1.0 -0.4704563194
O  O11  1  0.50620000  0.07350000  0.29870000  1.0 -0.5127958083
O  O12  1  0.58860000  0.15130000  0.35210000  1.0 -0.5410611057
O  O13  1  0.40400000  0.29780000  0.11380000  1.0 -0.0639465661
O  O14  1  0.84330000  0.34560000  0.77970000  1.0 -0.524593147
O  O15  1  0.87680000  0.31210000  0.66930000  1.0 -0.5565297329
O  O16  1  0.37430000  0.50450000  0.86460000  1.0 -0.4985644543
O  O17  1  0.61570000  0.25830000  0.88230000  1.0 -0.4104661816
O  O18  1  0.55810000  0.64300000  0.80040000  1.0 -0.5258603418
O  O19  1  0.65300000  0.68400000  0.86610000  1.0 -0.0809126602
O  O20  1  0.21430000  0.21430000  0.72570000  1.0 -0.5410611057
O  O21  1  0.23290000  0.25170000  0.82550000  1.0 -0.5509786033
O  O22  1  0.66480000  0.06040000  0.58690000  1.0 -0.4609308564
O  O23  1  0.40410000  0.29670000  0.58790000  1.0 -0.4704563194
O  O24  1  0.49380000  0.92650000  0.70130000  1.0 -0.5127958083
O  O25  1  0.41140000  0.84870000  0.64790000  1.0 -0.5410611057
O  O26  1  0.59600000  0.70220000  0.88620000  1.0 -0.0710294311
