# DDEC6 charges by PACMAN v1.1 (https://github.com/mtap-research/PACMAN-charge/)
data_PUSFAN_FSR_pacman
_symmetry_space_group_name_H-M   'P 1'
_cell_length_a   10.49750000
_cell_length_b   10.49750000
_cell_length_c   33.11600000
_cell_angle_alpha   87.36210000
_cell_angle_beta   92.63790000
_cell_angle_gamma   106.63500000
_symmetry_Int_Tables_number   1
_chemical_formula_structural   CoSn3H29C15N6O
_chemical_formula_sum   'Co4 Sn12 H116 C60 N24 O4'
_cell_volume   3490.80687386
_cell_formula_units_Z   4
loop_
 _symmetry_equiv_pos_site_id
 _symmetry_equiv_pos_as_xyz
  1  'x, y, z'
loop_
 _atom_site_type_symbol
 _atom_site_label
 _atom_site_symmetry_multiplicity
 _atom_site_fract_x
 _atom_site_fract_y
 _atom_site_fract_z
 _atom_site_occupancy
 _atom_site_charge
Co  Co1  1  0.69137000  0.38495000  0.64334000  1.0 0.0711724762
Co  Co2  1  0.38495000  0.69137000  0.85666000  1.0 0.0711724762
Co  Co3  1  0.30863000  0.61505000  0.35666000  1.0 0.0711724762
Co  Co4  1  0.61505000  0.30863000  0.14334000  1.0 0.0711724762
Sn  Sn1  1  0.14430000  0.48882000  0.72588000  1.0 1.1924284453
Sn  Sn2  1  0.25934000  0.38012000  0.55814000  1.0 1.1924284453
Sn  Sn3  1  0.69570000  0.88532000  0.64754000  1.0 1.1924284453
Sn  Sn4  1  0.48882000  0.14430000  0.77412000  1.0 1.1924284453
Sn  Sn5  1  0.38012000  0.25934000  0.94186000  1.0 1.1924284453
Sn  Sn6  1  0.88532000  0.69570000  0.85246000  1.0 1.1924284453
Sn  Sn7  1  0.85570000  0.51118000  0.27412000  1.0 1.1924284453
Sn  Sn8  1  0.74066000  0.61988000  0.44186000  1.0 1.1924284453
Sn  Sn9  1  0.30430000  0.11468000  0.35246000  1.0 1.1924284453
Sn  Sn10  1  0.51118000  0.85570000  0.22588000  1.0 1.1924284453
Sn  Sn11  1  0.61988000  0.74066000  0.05814000  1.0 1.1924284453
Sn  Sn12  1  0.11468000  0.30430000  0.14754000  1.0 1.1924284453
H  H1  1  0.52400000  0.78660000  0.70250000  1.0 0.1981199445
H  H2  1  0.77970000  0.91770000  0.57530000  1.0 0.1823239363
H  H3  1  0.34190000  0.63450000  0.54530000  1.0 0.1823239363
H  H4  1  0.04240000  0.29200000  0.59850000  1.0 0.1891549356
H  H5  1  0.40580000  0.60220000  0.58660000  1.0 0.1823239363
H  H6  1  0.30100000  0.53640000  0.66560000  1.0 0.1891549356
H  H7  1  0.36200000  0.45780000  0.69890000  1.0 0.1981199445
H  H8  1  0.62440000  0.87940000  0.57170000  1.0 0.1891549356
H  H9  1  0.24330000  0.38250000  0.67060000  1.0 0.1981199445
H  H10  1  0.44780000  0.77120000  0.66040000  1.0 0.1823239363
H  H11  1  0.25650000  0.60770000  0.58460000  1.0 0.1823239363
H  H12  1  0.69560000  0.76940000  0.58060000  1.0 0.1823239363
H  H13  1  0.05370000  0.17750000  0.57160000  1.0 0.1727435817
H  H14  1  0.48580000  0.90800000  0.68130000  1.0 0.1891549356
H  H15  1  0.13950000  0.20830000  0.61130000  1.0 0.1891549356
H  H16  1  0.86290000  0.04250000  0.69720000  1.0 0.1891549356
H  H17  1  0.89530000  0.90590000  0.69920000  1.0 0.1891549356
H  H18  1  0.94600000  0.00820000  0.66330000  1.0 0.1891549356
H  H19  1  0.10390000  0.69930000  0.75590000  1.0 0.1891549356
H  H20  1  0.00020000  0.65620000  0.72020000  1.0 0.1981199445
H  H21  1  0.14690000  0.73610000  0.71140000  1.0 0.1891549356
H  H22  1  0.11800000  0.33060000  0.78930000  1.0 0.1981199445
H  H23  1  0.05410000  0.24350000  0.75210000  1.0 0.1981199445
H  H24  1  0.97500000  0.33020000  0.77280000  1.0 0.1891549356
H  H25  1  0.36530000  0.37170000  0.48950000  1.0 0.1823239363
H  H26  1  0.30410000  0.22530000  0.50600000  1.0 0.1823239363
H  H27  1  0.44460000  0.30940000  0.52280000  1.0 0.1891549356
H  H28  1  0.05700000  0.35500000  0.50600000  1.0 0.3012201343
H  H29  1  0.13400000  0.46800000  0.49250000  1.0 0.3275640686
H  H30  1  0.78660000  0.52400000  0.79750000  1.0 0.1981199445
H  H31  1  0.91770000  0.77970000  0.92470000  1.0 0.1823239363
H  H32  1  0.63450000  0.34190000  0.95470000  1.0 0.1823239363
H  H33  1  0.29200000  0.04240000  0.90150000  1.0 0.1891549356
H  H34  1  0.60220000  0.40580000  0.91340000  1.0 0.1823239363
H  H35  1  0.53640000  0.30100000  0.83440000  1.0 0.1891549356
H  H36  1  0.45780000  0.36200000  0.80110000  1.0 0.1981199445
H  H37  1  0.87940000  0.62440000  0.92830000  1.0 0.1891549356
H  H38  1  0.38250000  0.24330000  0.82940000  1.0 0.1981199445
H  H39  1  0.77120000  0.44780000  0.83960000  1.0 0.1823239363
H  H40  1  0.60770000  0.25650000  0.91540000  1.0 0.1891549356
H  H41  1  0.76940000  0.69560000  0.91940000  1.0 0.1891549356
H  H42  1  0.17750000  0.05370000  0.92840000  1.0 0.1727435817
H  H43  1  0.90800000  0.48580000  0.81870000  1.0 0.1891549356
H  H44  1  0.20830000  0.13950000  0.88870000  1.0 0.1891549356
H  H45  1  0.04250000  0.86290000  0.80280000  1.0 0.1891549356
H  H46  1  0.90590000  0.89530000  0.80080000  1.0 0.1891549356
H  H47  1  0.00820000  0.94600000  0.83670000  1.0 0.1891549356
H  H48  1  0.69930000  0.10390000  0.74410000  1.0 0.1891549356
H  H49  1  0.65620000  0.00020000  0.77980000  1.0 0.1981199445
H  H50  1  0.73610000  0.14690000  0.78860000  1.0 0.1891549356
H  H51  1  0.33060000  0.11800000  0.71070000  1.0 0.1981199445
H  H52  1  0.24350000  0.05410000  0.74790000  1.0 0.1891549356
H  H53  1  0.33020000  0.97500000  0.72720000  1.0 0.1891549356
H  H54  1  0.37170000  0.36530000  0.01050000  1.0 0.1823239363
H  H55  1  0.22530000  0.30410000  0.99400000  1.0 0.1823239363
H  H56  1  0.30940000  0.44460000  0.97720000  1.0 0.1891549356
H  H57  1  0.35500000  0.05700000  0.99400000  1.0 0.3012201343
H  H58  1  0.46800000  0.13400000  0.00750000  1.0 0.3275640686
H  H59  1  0.47600000  0.21340000  0.29750000  1.0 0.1981199445
H  H60  1  0.22030000  0.08230000  0.42470000  1.0 0.1823239363
H  H61  1  0.65810000  0.36550000  0.45470000  1.0 0.1823239363
H  H62  1  0.95760000  0.70800000  0.40150000  1.0 0.1891549356
H  H63  1  0.59420000  0.39780000  0.41340000  1.0 0.1823239363
H  H64  1  0.69900000  0.46360000  0.33440000  1.0 0.1891549356
H  H65  1  0.63800000  0.54220000  0.30110000  1.0 0.1981199445
H  H66  1  0.37560000  0.12060000  0.42830000  1.0 0.1891549356
H  H67  1  0.75670000  0.61750000  0.32940000  1.0 0.1981199445
H  H68  1  0.55220000  0.22880000  0.33960000  1.0 0.1823239363
H  H69  1  0.74350000  0.39230000  0.41540000  1.0 0.1891549356
H  H70  1  0.30440000  0.23060000  0.41940000  1.0 0.1823239363
H  H71  1  0.94630000  0.82250000  0.42840000  1.0 0.1727435817
H  H72  1  0.51420000  0.09200000  0.31870000  1.0 0.1891549356
H  H73  1  0.86050000  0.79170000  0.38870000  1.0 0.1891549356
H  H74  1  0.13710000  0.95750000  0.30280000  1.0 0.1891549356
H  H75  1  0.10470000  0.09410000  0.30080000  1.0 0.1891549356
H  H76  1  0.05400000  0.99180000  0.33670000  1.0 0.1891549356
H  H77  1  0.89610000  0.30070000  0.24410000  1.0 0.1891549356
H  H78  1  0.99980000  0.34380000  0.27980000  1.0 0.1981199445
H  H79  1  0.85310000  0.26390000  0.28860000  1.0 0.1891549356
H  H80  1  0.88200000  0.66940000  0.21070000  1.0 0.1981199445
H  H81  1  0.94590000  0.75650000  0.24790000  1.0 0.1891549356
H  H82  1  0.02500000  0.66980000  0.22720000  1.0 0.1891549356
H  H83  1  0.63470000  0.62830000  0.51050000  1.0 0.1823239363
H  H84  1  0.69590000  0.77470000  0.49400000  1.0 0.1823239363
H  H85  1  0.55540000  0.69060000  0.47720000  1.0 0.1891549356
H  H86  1  0.94300000  0.64500000  0.49400000  1.0 0.3012201343
H  H87  1  0.86600000  0.53200000  0.50750000  1.0 0.3275640686
H  H88  1  0.21340000  0.47600000  0.20250000  1.0 0.1981199445
H  H89  1  0.08230000  0.22030000  0.07530000  1.0 0.1823239363
H  H90  1  0.36550000  0.65810000  0.04530000  1.0 0.1823239363
H  H91  1  0.70800000  0.95760000  0.09850000  1.0 0.1891549356
H  H92  1  0.39780000  0.59420000  0.08660000  1.0 0.1823239363
H  H93  1  0.46360000  0.69900000  0.16560000  1.0 0.1891549356
H  H94  1  0.54220000  0.63800000  0.19890000  1.0 0.1981199445
H  H95  1  0.12060000  0.37560000  0.07170000  1.0 0.1891549356
H  H96  1  0.61750000  0.75670000  0.17060000  1.0 0.1981199445
H  H97  1  0.22880000  0.55220000  0.16040000  1.0 0.1823239363
H  H98  1  0.39230000  0.74350000  0.08460000  1.0 0.1891549356
H  H99  1  0.23060000  0.30440000  0.08060000  1.0 0.1823239363
H  H100  1  0.82250000  0.94630000  0.07160000  1.0 0.1727435817
H  H101  1  0.09200000  0.51420000  0.18130000  1.0 0.1891549356
H  H102  1  0.79170000  0.86050000  0.11130000  1.0 0.1891549356
H  H103  1  0.95750000  0.13710000  0.19720000  1.0 0.1891549356
H  H104  1  0.09410000  0.10470000  0.19920000  1.0 0.1891549356
H  H105  1  0.99180000  0.05400000  0.16330000  1.0 0.1891549356
H  H106  1  0.30070000  0.89610000  0.25590000  1.0 0.1891549356
H  H107  1  0.34380000  0.99980000  0.22020000  1.0 0.1981199445
H  H108  1  0.26390000  0.85310000  0.21140000  1.0 0.1891549356
H  H109  1  0.66940000  0.88200000  0.28930000  1.0 0.1981199445
H  H110  1  0.75650000  0.94590000  0.25210000  1.0 0.1891549356
H  H111  1  0.66980000  0.02500000  0.27280000  1.0 0.1891549356
H  H112  1  0.62830000  0.63470000  0.98950000  1.0 0.1823239363
H  H113  1  0.77470000  0.69590000  0.00600000  1.0 0.1823239363
H  H114  1  0.69060000  0.55540000  0.02280000  1.0 0.1891549356
H  H115  1  0.64500000  0.94300000  0.00600000  1.0 0.3012201343
H  H116  1  0.53200000  0.86600000  0.99250000  1.0 0.3275640686
C  C1  1  0.70840000  0.56480000  0.65164000  1.0 0.0988640762
C  C2  1  0.86400000  0.40640000  0.66586000  1.0 0.0988640762
C  C3  1  0.51960000  0.35960000  0.62011000  1.0 0.1079733637
C  C4  1  0.67840000  0.20580000  0.63620000  1.0 0.0988640762
C  C5  1  0.75950000  0.43050000  0.59140000  1.0 0.021619203
C  C6  1  0.33980000  0.61980000  0.80516000  1.0 0.0988640762
C  C7  1  0.51310000  0.83030000  0.67720000  1.0 -0.7821787263
C  C8  1  0.87420000  0.97240000  0.68140000  1.0 -0.7821787263
C  C9  1  0.69850000  0.85910000  0.58520000  1.0 -0.7737828638
C  C10  1  0.09120000  0.66960000  0.72850000  1.0 -0.7905946589
C  C11  1  0.28200000  0.46280000  0.68470000  1.0 -0.7821787263
C  C12  1  0.06180000  0.32500000  0.76560000  1.0 -0.7905946589
C  C13  1  0.10200000  0.24640000  0.58880000  1.0 -0.7905946589
C  C14  1  0.32430000  0.58430000  0.57040000  1.0 -0.7905946589
C  C15  1  0.35730000  0.31270000  0.51310000  1.0 -0.7905946589
C  C16  1  0.56480000  0.70840000  0.84836000  1.0 0.0988640762
C  C17  1  0.40640000  0.86400000  0.83414000  1.0 0.0988640762
C  C18  1  0.35960000  0.51960000  0.87989000  1.0 0.1079733637
C  C19  1  0.20580000  0.67840000  0.86380000  1.0 0.0988640762
C  C20  1  0.43050000  0.75950000  0.90860000  1.0 0.021619203
C  C21  1  0.61980000  0.33980000  0.69484000  1.0 0.0988640762
C  C22  1  0.83030000  0.51310000  0.82280000  1.0 -0.7821787263
C  C23  1  0.97240000  0.87420000  0.81860000  1.0 -0.7821787263
C  C24  1  0.85910000  0.69850000  0.91480000  1.0 -0.7737828638
C  C25  1  0.66960000  0.09120000  0.77150000  1.0 -0.7905946589
C  C26  1  0.46280000  0.28200000  0.81530000  1.0 -0.7821787263
C  C27  1  0.32500000  0.06180000  0.73440000  1.0 -0.7905946589
C  C28  1  0.24640000  0.10200000  0.91120000  1.0 -0.7821787263
C  C29  1  0.58430000  0.32430000  0.92960000  1.0 -0.7905946589
C  C30  1  0.31270000  0.35730000  0.98690000  1.0 -0.7905946589
C  C31  1  0.29160000  0.43520000  0.34836000  1.0 0.0988640762
C  C32  1  0.13600000  0.59360000  0.33414000  1.0 0.0988640762
C  C33  1  0.48040000  0.64040000  0.37989000  1.0 0.1079733637
C  C34  1  0.32160000  0.79420000  0.36380000  1.0 0.0988640762
C  C35  1  0.24050000  0.56950000  0.40860000  1.0 0.021619203
C  C36  1  0.66020000  0.38020000  0.19484000  1.0 0.0988640762
C  C37  1  0.48690000  0.16970000  0.32280000  1.0 -0.7821787263
C  C38  1  0.12580000  0.02760000  0.31860000  1.0 -0.7821787263
C  C39  1  0.30150000  0.14090000  0.41480000  1.0 -0.7737828638
C  C40  1  0.90880000  0.33040000  0.27150000  1.0 -0.7905946589
C  C41  1  0.71800000  0.53720000  0.31530000  1.0 -0.7821787263
C  C42  1  0.93820000  0.67500000  0.23440000  1.0 -0.7905946589
C  C43  1  0.89800000  0.75360000  0.41120000  1.0 -0.7821787263
C  C44  1  0.67570000  0.41570000  0.42960000  1.0 -0.7905946589
C  C45  1  0.64270000  0.68730000  0.48690000  1.0 -0.7905946589
C  C46  1  0.43520000  0.29160000  0.15164000  1.0 0.0988640762
C  C47  1  0.59360000  0.13600000  0.16586000  1.0 0.0988640762
C  C48  1  0.64040000  0.48040000  0.12011000  1.0 0.1079733637
C  C49  1  0.79420000  0.32160000  0.13620000  1.0 0.0988640762
C  C50  1  0.56950000  0.24050000  0.09140000  1.0 0.021619203
C  C51  1  0.38020000  0.66020000  0.30516000  1.0 0.0988640762
C  C52  1  0.16970000  0.48690000  0.17720000  1.0 -0.7821787263
C  C53  1  0.02760000  0.12580000  0.18140000  1.0 -0.7821787263
C  C54  1  0.14090000  0.30150000  0.08520000  1.0 -0.7737828638
C  C55  1  0.33040000  0.90880000  0.22850000  1.0 -0.7905946589
C  C56  1  0.53720000  0.71800000  0.18470000  1.0 -0.7821787263
C  C57  1  0.67500000  0.93820000  0.26560000  1.0 -0.7905946589
C  C58  1  0.75360000  0.89800000  0.08880000  1.0 -0.7821787263
C  C59  1  0.41570000  0.67570000  0.07040000  1.0 -0.7905946589
C  C60  1  0.68730000  0.64270000  0.01310000  1.0 -0.7905946589
N  N1  1  0.71830000  0.67470000  0.65753000  1.0 -0.3803974162
N  N2  1  0.96740000  0.41840000  0.68030000  1.0 -0.3697014596
N  N3  1  0.41590000  0.34410000  0.60516000  1.0 -0.355894513
N  N4  1  0.67190000  0.09550000  0.63370000  1.0 -0.3697014596
N  N5  1  0.79780000  0.45900000  0.55913000  1.0 -0.3803974162
N  N6  1  0.30830000  0.57150000  0.77500000  1.0 -0.3697014596
N  N7  1  0.67470000  0.71830000  0.84247000  1.0 -0.3803974162
N  N8  1  0.41840000  0.96740000  0.81970000  1.0 -0.3697014596
N  N9  1  0.34410000  0.41590000  0.89484000  1.0 -0.355894513
N  N10  1  0.09550000  0.67190000  0.86630000  1.0 -0.3697014596
N  N11  1  0.45900000  0.79780000  0.94087000  1.0 -0.3803974162
N  N12  1  0.57150000  0.30830000  0.72500000  1.0 -0.3697014596
N  N13  1  0.28170000  0.32530000  0.34247000  1.0 -0.3803974162
N  N14  1  0.03260000  0.58160000  0.31970000  1.0 -0.3697014596
N  N15  1  0.58410000  0.65590000  0.39484000  1.0 -0.355894513
N  N16  1  0.32810000  0.90450000  0.36630000  1.0 -0.3697014596
N  N17  1  0.20220000  0.54100000  0.44087000  1.0 -0.3803974162
N  N18  1  0.69170000  0.42850000  0.22500000  1.0 -0.3697014596
N  N19  1  0.32530000  0.28170000  0.15753000  1.0 -0.3803974162
N  N20  1  0.58160000  0.03260000  0.18030000  1.0 -0.3697014596
N  N21  1  0.65590000  0.58410000  0.10516000  1.0 -0.355894513
N  N22  1  0.90450000  0.32810000  0.13370000  1.0 -0.3697014596
N  N23  1  0.54100000  0.20220000  0.05913000  1.0 -0.3803974162
N  N24  1  0.42850000  0.69170000  0.27500000  1.0 -0.3697014596
O  O1  1  0.10920000  0.42560000  0.51333000  1.0 -0.5995379831
O  O2  1  0.42560000  0.10920000  0.98667000  1.0 -0.5995379831
O  O3  1  0.89080000  0.57440000  0.48667000  1.0 -0.5995379831
O  O4  1  0.57440000  0.89080000  0.01333000  1.0 -0.5995379831
