# DDEC6 charges by PACMAN v1.1 (https://github.com/mtap-research/PACMAN-charge/)
data_PUSJUK_ASR_pacman
_symmetry_space_group_name_H-M   'P 1'
_cell_length_a   13.76220000
_cell_length_b   13.76220000
_cell_length_c   13.76220000
_cell_angle_alpha   143.82100000
_cell_angle_beta   109.07800000
_cell_angle_gamma   82.29770000
_symmetry_Int_Tables_number   1
_chemical_formula_structural   Cr2NiH24C32N4O3
_chemical_formula_sum   'Cr4 Ni2 H48 C64 N8 O6'
_cell_volume   1414.24325852
_cell_formula_units_Z   2
loop_
 _symmetry_equiv_pos_site_id
 _symmetry_equiv_pos_as_xyz
  1  'x, y, z'
loop_
 _atom_site_type_symbol
 _atom_site_label
 _atom_site_symmetry_multiplicity
 _atom_site_fract_x
 _atom_site_fract_y
 _atom_site_fract_z
 _atom_site_occupancy
 _atom_site_charge
Cr  Cr1  1  0.37210000  0.89730000  0.69420000  1.0 0.5056323638
Cr  Cr2  1  0.20310000  0.67790000  0.30580000  1.0 0.491757684
Cr  Cr3  1  0.62790000  0.32210000  0.52520000  1.0 0.5031337371
Cr  Cr4  1  0.79690000  0.10270000  0.47480000  1.0 0.5031337371
Ni  Ni1  1  0.28170000  0.28170000  0.00000000  1.0 0.5733104577
Ni  Ni2  1  0.71830000  0.71830000  0.00000000  1.0 0.5750587216
H  H1  1  0.90150000  0.13340000  0.86870000  1.0 0.1092434438
H  H2  1  0.26470000  0.03280000  0.13130000  1.0 0.1092434438
H  H3  1  0.67050000  0.47860000  0.35730000  1.0 0.1163139758
H  H4  1  0.12130000  0.31320000  0.64270000  1.0 0.1163139758
H  H5  1  0.50010000  0.30690000  0.17760000  1.0 0.091898196
H  H6  1  0.12930000  0.32250000  0.82240000  1.0 0.091898196
H  H7  1  0.56050000  0.77840000  0.37490000  1.0 0.1283527544
H  H8  1  0.40350000  0.18560000  0.62510000  1.0 0.1283527544
H  H9  1  0.39680000  0.60370000  0.19550000  1.0 0.1092434438
H  H10  1  0.40820000  0.20130000  0.80450000  1.0 0.1092434438
H  H11  1  0.97360000  0.78570000  0.45050000  1.0 0.1092434438
H  H12  1  0.33520000  0.52310000  0.54950000  1.0 0.1092434438
H  H13  1  0.14190000  0.93180000  0.61790000  1.0 0.091898196
H  H14  1  0.31390000  0.52400000  0.38210000  1.0 0.091898196
H  H15  1  0.08090000  0.31320000  0.02610000  1.0 0.0533242231
H  H16  1  0.28710000  0.05480000  0.97390000  1.0 0.0533242231
H  H17  1  0.00300000  0.76510000  0.58410000  1.0 0.1163139758
H  H18  1  0.18100000  0.41890000  0.41590000  1.0 0.1163139758
H  H19  1  0.17360000  0.92700000  0.73920000  1.0 0.091898196
H  H20  1  0.18780000  0.43440000  0.26080000  1.0 0.091898196
H  H21  1  0.05070000  0.31750000  0.92660000  1.0 0.0694631356
H  H22  1  0.39090000  0.12410000  0.07340000  1.0 0.0694631356
H  H23  1  0.88030000  0.15570000  0.77160000  1.0 0.1092434438
H  H24  1  0.38410000  0.10870000  0.22840000  1.0 0.1092434438
H  H25  1  0.09850000  0.96720000  0.23190000  1.0 0.1092434438
H  H26  1  0.73530000  0.86660000  0.76810000  1.0 0.1092434438
H  H27  1  0.32950000  0.68680000  0.80810000  1.0 0.1163139758
H  H28  1  0.87870000  0.52140000  0.19190000  1.0 0.1163139758
H  H29  1  0.49990000  0.67750000  0.80680000  1.0 0.091898196
H  H30  1  0.87070000  0.69310000  0.19320000  1.0 0.091898196
H  H31  1  0.43950000  0.81440000  0.21790000  1.0 0.1283527544
H  H32  1  0.59650000  0.22160000  0.78210000  1.0 0.1283527544
H  H33  1  0.60320000  0.79870000  0.20690000  1.0 0.1092434438
H  H34  1  0.59180000  0.39630000  0.79310000  1.0 0.1092434438
H  H35  1  0.02640000  0.47690000  0.81210000  1.0 0.1092434438
H  H36  1  0.66480000  0.21430000  0.18790000  1.0 0.1092434438
H  H37  1  0.85810000  0.47600000  0.78990000  1.0 0.091898196
H  H38  1  0.68610000  0.06820000  0.21010000  1.0 0.091898196
H  H39  1  0.91910000  0.94520000  0.23230000  1.0 0.0533242231
H  H40  1  0.71290000  0.68680000  0.76770000  1.0 0.0533242231
H  H41  1  0.99700000  0.58110000  0.76210000  1.0 0.1163139758
H  H42  1  0.81900000  0.23490000  0.23790000  1.0 0.1163139758
H  H43  1  0.82640000  0.56560000  0.75340000  1.0 0.091898196
H  H44  1  0.81220000  0.07300000  0.24660000  1.0 0.091898196
H  H45  1  0.94930000  0.87590000  0.26680000  1.0 0.0694631356
H  H46  1  0.60910000  0.68250000  0.73320000  1.0 0.0694631356
H  H47  1  0.11970000  0.89130000  0.27540000  1.0 0.1092434438
H  H48  1  0.61590000  0.84430000  0.72460000  1.0 0.1092434438
C  C1  1  0.92560000  0.94480000  0.66280000  1.0 0.1092434438
C  C2  1  0.28200000  0.26280000  0.33720000  1.0 0.1092434438
C  C3  1  0.95000000  0.08600000  0.81000000  1.0 -0.0761619876
C  C4  1  0.27600000  0.14000000  0.19000000  1.0 -0.0761619876
C  C5  1  0.81590000  0.83950000  0.57040000  1.0 -0.2244132342
C  C6  1  0.26910000  0.24550000  0.42960000  1.0 -0.2244132342
C  C7  1  0.73150000  0.74140000  0.47210000  1.0 -0.1357312719
C  C8  1  0.26930000  0.25940000  0.52790000  1.0 -0.1357312719
C  C9  1  0.63030000  0.64530000  0.37700000  1.0 0.1510020723
C  C10  1  0.26830000  0.25330000  0.62300000  1.0 0.1510020723
C  C11  1  0.61320000  0.50220000  0.32100000  1.0 -0.2012781421
C  C12  1  0.18120000  0.29220000  0.67900000  1.0 -0.2012781421
C  C13  1  0.51320000  0.40150000  0.21570000  1.0 0.0175045464
C  C14  1  0.18580000  0.29750000  0.78430000  1.0 0.0175045464
C  C15  1  0.55040000  0.68110000  0.33333333  1.0 -0.1516751381
C  C16  1  0.34780000  0.21710000  0.66666667  1.0 -0.1516751381
C  C17  1  0.45370000  0.57750000  0.22820000  1.0 0.0694631356
C  C18  1  0.34930000  0.22550000  0.77180000  1.0 0.0694631356
C  C19  1  0.99600000  0.88800000  0.57600000  1.0 -0.1087834252
C  C20  1  0.31200000  0.42000000  0.42400000  1.0 -0.1087834252
C  C21  1  0.09220000  0.98020000  0.67400000  1.0 0.0148553044
C  C22  1  0.30620000  0.41820000  0.32600000  1.0 0.0148553044
C  C23  1  0.06360000  0.19560000  0.91000000  1.0 0.0694631356
C  C24  1  0.28560000  0.15360000  0.09000000  1.0 0.0694631356
C  C25  1  0.01320000  0.87720000  0.65400000  1.0 -0.0725013534
C  C26  1  0.22320000  0.35920000  0.34600000  1.0 -0.0725013534
C  C27  1  0.11400000  0.97380000  0.74620000  1.0 -0.0042948159
C  C28  1  0.22760000  0.36780000  0.25380000  1.0 -0.0042948159
C  C29  1  0.04110000  0.20570000  0.85740000  1.0 -0.0205499804
C  C30  1  0.34830000  0.18370000  0.14260000  1.0 -0.0205499804
C  C31  1  0.93980000  0.10900000  0.76480000  1.0 -0.0979769094
C  C32  1  0.34420000  0.17500000  0.23520000  1.0 -0.0979769094
C  C33  1  0.07440000  0.73720000  0.01920000  1.0 0.1092434438
C  C34  1  0.71800000  0.05520000  0.98080000  1.0 0.1092434438
C  C35  1  0.05000000  0.86000000  0.13600000  1.0 -0.0761619876
C  C36  1  0.72400000  0.91400000  0.86400000  1.0 -0.0761619876
C  C37  1  0.18410000  0.75450000  0.02360000  1.0 -0.2244132342
C  C38  1  0.73090000  0.16050000  0.97640000  1.0 -0.2244132342
C  C39  1  0.26850000  0.74060000  0.00990000  1.0 -0.1357312719
C  C40  1  0.73070000  0.25860000  0.99010000  1.0 -0.1357312719
C  C41  1  0.36970000  0.74670000  0.01500000  1.0 0.1510020723
C  C42  1  0.73170000  0.35470000  0.98500000  1.0 0.1510020723
C  C43  1  0.38680000  0.70780000  0.88900000  1.0 -0.2012781421
C  C44  1  0.81880000  0.49780000  0.11100000  1.0 -0.2012781421
C  C45  1  0.48680000  0.70250000  0.88830000  1.0 0.0175045464
C  C46  1  0.81420000  0.59850000  0.11170000  1.0 0.0175045464
C  C47  1  0.44960000  0.78290000  0.13070000  1.0 -0.1516751381
C  C48  1  0.65220000  0.31890000  0.86930000  1.0 -0.1516751381
C  C49  1  0.54630000  0.77450000  0.12380000  1.0 0.0694631356
C  C50  1  0.65070000  0.42250000  0.87620000  1.0 0.0694631356
C  C51  1  0.00400000  0.58000000  0.89200000  1.0 -0.1087834252
C  C52  1  0.68800000  0.11200000  0.10800000  1.0 -0.1087834252
C  C53  1  0.90780000  0.58180000  0.88800000  1.0 0.0148553044
C  C54  1  0.69380000  0.01980000  0.11200000  1.0 0.0175045464
C  C55  1  0.93640000  0.84640000  0.13200000  1.0 0.0694631356
C  C56  1  0.71440000  0.80440000  0.86800000  1.0 0.0694631356
C  C57  1  0.98680000  0.64080000  0.86400000  1.0 -0.0725013534
C  C58  1  0.77680000  0.12280000  0.13600000  1.0 -0.0725013534
C  C59  1  0.88600000  0.63220000  0.85980000  1.0 -0.0042948159
C  C60  1  0.77240000  0.02620000  0.14020000  1.0 -0.0042948159
C  C61  1  0.95890000  0.81630000  0.16460000  1.0 -0.0205499804
C  C62  1  0.65170000  0.79430000  0.83540000  1.0 -0.0205499804
C  C63  1  0.06020000  0.82500000  0.16920000  1.0 -0.0979769094
C  C64  1  0.65580000  0.89100000  0.83080000  1.0 -0.0979769094
N  N1  1  0.43260000  0.43810000  0.16650000  1.0 -0.2376954401
N  N2  1  0.27160000  0.26610000  0.83350000  1.0 -0.2376954401
N  N3  1  0.12820000  0.13710000  0.84710000  1.0 -0.1087834252
N  N4  1  0.29000000  0.28110000  0.15290000  1.0 -0.1087834252
N  N5  1  0.56740000  0.73390000  0.00550000  1.0 -0.2376954401
N  N6  1  0.72840000  0.56190000  0.99450000  1.0 -0.2376954401
N  N7  1  0.87180000  0.71890000  0.00890000  1.0 -0.1087834252
N  N8  1  0.71000000  0.86290000  0.99110000  1.0 -0.1087834252
O  O1  1  0.34510000  0.07570000  0.85180000  1.0 -0.6379801998
O  O2  1  0.22390000  0.49330000  0.14820000  1.0 -0.6379801998
O  O3  1  0.25880000  0.75880000  0.50000000  1.0 -0.6776234577
O  O4  1  0.65490000  0.50670000  0.73060000  1.0 -0.6379801998
O  O5  1  0.77610000  0.92430000  0.26940000  1.0 -0.6379801998
O  O6  1  0.74120000  0.24120000  0.50000000  1.0 -0.6776234577
