# DDEC6 charges by PACMAN v1.1 (https://github.com/mtap-research/PACMAN-charge/)
data_PUTYAE_FSR_pacman
_symmetry_space_group_name_H-M   'P 1'
_cell_length_a   12.65200000
_cell_length_b   12.65200000
_cell_length_c   12.36200000
_cell_angle_alpha   90.00000000
_cell_angle_beta   90.00000000
_cell_angle_gamma   90.00000000
_symmetry_Int_Tables_number   1
_chemical_formula_structural   AgH6(C2N)6
_chemical_formula_sum   'Ag4 H24 C48 N24'
_cell_volume   1978.82371165
_cell_formula_units_Z   4
loop_
 _symmetry_equiv_pos_site_id
 _symmetry_equiv_pos_as_xyz
  1  'x, y, z'
loop_
 _atom_site_type_symbol
 _atom_site_label
 _atom_site_symmetry_multiplicity
 _atom_site_fract_x
 _atom_site_fract_y
 _atom_site_fract_z
 _atom_site_occupancy
 _atom_site_charge
Ag  Ag1  1  0.87088000  0.87088000  0.00000000  1.0 0.2494451358
Ag  Ag2  1  0.12912000  0.12912000  0.50000000  1.0 0.2494451358
Ag  Ag3  1  0.37088000  0.62912000  0.75000000  1.0 0.2494451358
Ag  Ag4  1  0.62912000  0.37088000  0.25000000  1.0 0.2494451358
H  H1  1  0.04250000  0.66960000  0.02890000  1.0 0.1108723663
H  H2  1  0.95750000  0.33040000  0.52890000  1.0 0.1108723663
H  H3  1  0.16960000  0.45750000  0.77890000  1.0 0.1108723663
H  H4  1  0.83040000  0.54250000  0.27890000  1.0 0.1108723663
H  H5  1  0.66960000  0.04250000  0.97110000  1.0 0.1108723663
H  H6  1  0.33040000  0.95750000  0.47110000  1.0 0.1108723663
H  H7  1  0.54250000  0.83040000  0.72110000  1.0 0.1108723663
H  H8  1  0.45750000  0.16960000  0.22110000  1.0 0.1108723663
H  H9  1  0.84100000  0.07980000  0.82290000  1.0 0.1108723663
H  H10  1  0.15900000  0.92020000  0.32290000  1.0 0.1108723663
H  H11  1  0.57980000  0.65900000  0.57290000  1.0 0.1108723663
H  H12  1  0.42020000  0.34100000  0.07290000  1.0 0.1108723663
H  H13  1  0.07980000  0.84100000  0.17710000  1.0 0.1108723663
H  H14  1  0.92020000  0.15900000  0.67710000  1.0 0.1108723663
H  H15  1  0.34100000  0.42020000  0.92710000  1.0 0.1108723663
H  H16  1  0.65900000  0.57980000  0.42710000  1.0 0.1108723663
H  H17  1  0.19610000  0.59990000  0.96270000  1.0 0.1108723663
H  H18  1  0.80390000  0.40010000  0.46270000  1.0 0.1108723663
H  H19  1  0.09990000  0.30390000  0.71270000  1.0 0.1108723663
H  H20  1  0.90010000  0.69610000  0.21270000  1.0 0.1108723663
H  H21  1  0.59990000  0.19610000  0.03730000  1.0 0.1108723663
H  H22  1  0.40010000  0.80390000  0.53730000  1.0 0.1108723663
H  H23  1  0.69610000  0.90010000  0.78730000  1.0 0.1108723663
H  H24  1  0.30390000  0.09990000  0.28730000  1.0 0.1108723663
C  C1  1  0.07410000  0.70210000  0.96970000  1.0 -0.0119414707
C  C2  1  0.92590000  0.29790000  0.46970000  1.0 -0.0119414707
C  C3  1  0.20210000  0.42590000  0.71970000  1.0 -0.0119414707
C  C4  1  0.79790000  0.57410000  0.21970000  1.0 -0.0119414707
C  C5  1  0.70210000  0.07410000  0.03030000  1.0 -0.0119414707
C  C6  1  0.29790000  0.92590000  0.53030000  1.0 -0.0119414707
C  C7  1  0.57410000  0.79790000  0.78030000  1.0 -0.0119414707
C  C8  1  0.42590000  0.20210000  0.28030000  1.0 -0.0119414707
C  C9  1  0.07660000  0.82960000  0.84170000  1.0 0.0738804444
C  C10  1  0.92340000  0.17040000  0.34170000  1.0 0.0738804444
C  C11  1  0.32960000  0.42340000  0.59170000  1.0 0.0738804444
C  C12  1  0.67040000  0.57660000  0.09170000  1.0 0.0738804444
C  C13  1  0.82960000  0.07660000  0.15830000  1.0 0.0738804444
C  C14  1  0.17040000  0.92340000  0.65830000  1.0 0.0738804444
C  C15  1  0.57660000  0.67040000  0.90830000  1.0 0.0738804444
C  C16  1  0.42340000  0.32960000  0.40830000  1.0 0.0738804444
C  C17  1  0.02910000  0.92340000  0.79510000  1.0 0.0853729725
C  C18  1  0.97090000  0.07660000  0.29510000  1.0 0.0853729725
C  C19  1  0.42340000  0.47090000  0.54510000  1.0 0.0853729725
C  C20  1  0.57660000  0.52910000  0.04510000  1.0 0.0853729725
C  C21  1  0.92340000  0.02910000  0.20490000  1.0 0.0853729725
C  C22  1  0.07660000  0.97090000  0.70490000  1.0 0.0853729725
C  C23  1  0.52910000  0.57660000  0.95490000  1.0 0.0853729725
C  C24  1  0.47090000  0.42340000  0.45490000  1.0 0.0853729725
C  C25  1  0.90160000  0.04930000  0.79410000  1.0 -0.0119414707
C  C26  1  0.09840000  0.95070000  0.29410000  1.0 -0.0119414707
C  C27  1  0.54930000  0.59840000  0.54410000  1.0 -0.0119414707
C  C28  1  0.45070000  0.40160000  0.04410000  1.0 -0.0119414707
C  C29  1  0.04930000  0.90160000  0.20590000  1.0 -0.0119414707
C  C30  1  0.95070000  0.09840000  0.70590000  1.0 -0.0119414707
C  C31  1  0.40160000  0.45070000  0.95590000  1.0 -0.0119414707
C  C32  1  0.59840000  0.54930000  0.45590000  1.0 -0.0119414707
C  C33  1  0.16640000  0.65820000  0.92850000  1.0 -0.0375177319
C  C34  1  0.83360000  0.34180000  0.42850000  1.0 -0.0375177319
C  C35  1  0.15820000  0.33360000  0.67850000  1.0 -0.0375177319
C  C36  1  0.84180000  0.66640000  0.17850000  1.0 -0.0375177319
C  C37  1  0.65820000  0.16640000  0.07150000  1.0 -0.0375177319
C  C38  1  0.34180000  0.83360000  0.57150000  1.0 -0.0375177319
C  C39  1  0.66640000  0.84180000  0.82150000  1.0 -0.0375177319
C  C40  1  0.33360000  0.15820000  0.32150000  1.0 -0.0375177319
C  C41  1  0.16650000  0.78620000  0.79780000  1.0 0.0799334228
C  C42  1  0.83350000  0.21380000  0.29780000  1.0 0.0799334228
C  C43  1  0.28620000  0.33350000  0.54780000  1.0 0.0799334228
C  C44  1  0.71380000  0.66650000  0.04780000  1.0 0.0799334228
C  C45  1  0.78620000  0.16650000  0.20220000  1.0 0.0799334228
C  C46  1  0.21380000  0.83350000  0.70220000  1.0 0.0799334228
C  C47  1  0.66650000  0.71380000  0.95220000  1.0 0.0799334228
C  C48  1  0.33350000  0.28620000  0.45220000  1.0 0.0799334228
N  N1  1  0.02950000  0.78620000  0.92980000  1.0 -0.2037267954
N  N2  1  0.97050000  0.21380000  0.42980000  1.0 -0.2037267954
N  N3  1  0.28620000  0.47050000  0.67980000  1.0 -0.2037267954
N  N4  1  0.71380000  0.52950000  0.17980000  1.0 -0.2037267954
N  N5  1  0.78620000  0.02950000  0.07020000  1.0 -0.2037267954
N  N6  1  0.21380000  0.97050000  0.57020000  1.0 -0.2037267954
N  N7  1  0.52950000  0.71380000  0.82020000  1.0 -0.2037267954
N  N8  1  0.47050000  0.28620000  0.32020000  1.0 -0.2037267954
N  N9  1  0.93810000  0.96170000  0.83770000  1.0 -0.2175916628
N  N10  1  0.06190000  0.03830000  0.33770000  1.0 -0.2175916628
N  N11  1  0.46170000  0.56190000  0.58770000  1.0 -0.2175916628
N  N12  1  0.53830000  0.43810000  0.08770000  1.0 -0.2175916628
N  N13  1  0.96170000  0.93810000  0.16230000  1.0 -0.2175916628
N  N14  1  0.03830000  0.06190000  0.66230000  1.0 -0.2175916628
N  N15  1  0.43810000  0.53830000  0.91230000  1.0 -0.2175916628
N  N16  1  0.56190000  0.46170000  0.41230000  1.0 -0.2175916628
N  N17  1  0.21360000  0.69840000  0.84020000  1.0 -0.213807375
N  N18  1  0.78640000  0.30160000  0.34020000  1.0 -0.213807375
N  N19  1  0.19840000  0.28640000  0.59020000  1.0 -0.213807375
N  N20  1  0.80160000  0.71360000  0.09020000  1.0 -0.213807375
N  N21  1  0.69840000  0.21360000  0.15980000  1.0 -0.213807375
N  N22  1  0.30160000  0.78640000  0.65980000  1.0 -0.213807375
N  N23  1  0.71360000  0.80160000  0.90980000  1.0 -0.213807375
N  N24  1  0.28640000  0.19840000  0.40980000  1.0 -0.213807375
