# DDEC6 charges by PACMAN v1.1 (https://github.com/mtap-research/PACMAN-charge/)
data_PUWCIT_FSR_pacman
_symmetry_space_group_name_H-M   'P 1'
_cell_length_a   17.05210000
_cell_length_b   17.05210000
_cell_length_c   17.05210000
_cell_angle_alpha   126.85800000
_cell_angle_beta   110.00100000
_cell_angle_gamma   93.33200000
_symmetry_Int_Tables_number   1
_chemical_formula_structural   Zn2H28C38O13
_chemical_formula_sum   'Zn4 H56 C76 O26'
_cell_volume   3491.94249197
_cell_formula_units_Z   2
loop_
 _symmetry_equiv_pos_site_id
 _symmetry_equiv_pos_as_xyz
  1  'x, y, z'
loop_
 _atom_site_type_symbol
 _atom_site_label
 _atom_site_symmetry_multiplicity
 _atom_site_fract_x
 _atom_site_fract_y
 _atom_site_fract_z
 _atom_site_occupancy
 _atom_site_charge
Zn  Zn1  1  0.79270000  0.46620000  0.32650000  1.0 0.8033899917
Zn  Zn2  1  0.63970000  0.46620000  0.17350000  1.0 0.8033899917
Zn  Zn3  1  0.36030000  0.53380000  0.82650000  1.0 0.8033899917
Zn  Zn4  1  0.20730000  0.53380000  0.67350000  1.0 0.8033899917
H  H1  1  0.07390000  0.39600000  0.94890000  1.0 0.1204257493
H  H2  1  0.94710000  0.12500000  0.55110000  1.0 0.1204257493
H  H3  1  0.94710000  0.39600000  0.82210000  1.0 0.1204257493
H  H4  1  0.07390000  0.12500000  0.67790000  1.0 0.1204257493
H  H5  1  0.06840000  0.30110000  0.94350000  1.0 0.0991987317
H  H6  1  0.85760000  0.12490000  0.55650000  1.0 0.0991987317
H  H7  1  0.85760000  0.30110000  0.73270000  1.0 0.0991987317
H  H8  1  0.06840000  0.12490000  0.76730000  1.0 0.0991987317
H  H9  1  0.84390000  0.13380000  0.71010000  1.0 0.1204257493
H  H10  1  0.92370000  0.13380000  0.78990000  1.0 0.1204257493
H  H11  1  0.08650000  0.28540000  0.69890000  1.0 0.1100029471
H  H12  1  0.08650000  0.38760000  0.80110000  1.0 0.1100029471
H  H13  1  0.18430000  0.24100000  0.94330000  1.0 0.1295329174
H  H14  1  0.79770000  0.24100000  0.55670000  1.0 0.1295329174
H  H15  1  0.33680000  0.29360000  0.04320000  1.0 0.1204257493
H  H16  1  0.75040000  0.29360000  0.45680000  1.0 0.1204257493
H  H17  1  0.38100000  0.44220000  0.93880000  1.0 0.1100029471
H  H18  1  0.00340000  0.44220000  0.56120000  1.0 0.1100029471
H  H19  1  0.22880000  0.38740000  0.84140000  1.0 0.1295329174
H  H20  1  0.04600000  0.38740000  0.65860000  1.0 0.1295329174
H  H21  1  0.00270000  0.32620000  0.02650000  1.0 0.1204257493
H  H22  1  0.79970000  0.97620000  0.47350000  1.0 0.1204257493
H  H23  1  0.79970000  0.32620000  0.82350000  1.0 0.1204257493
H  H24  1  0.00270000  0.97620000  0.67650000  1.0 0.1204257493
H  H25  1  0.93660000  0.36940000  0.13780000  1.0 0.1295329174
H  H26  1  0.73160000  0.79880000  0.36220000  1.0 0.1295329174
H  H27  1  0.73160000  0.36940000  0.93280000  1.0 0.1295329174
H  H28  1  0.93660000  0.79880000  0.56720000  1.0 0.1295329174
H  H29  1  0.05290000  0.60400000  0.17790000  1.0 0.1204257493
H  H30  1  0.92610000  0.87500000  0.32210000  1.0 0.1204257493
H  H31  1  0.92610000  0.60400000  0.05110000  1.0 0.1204257493
H  H32  1  0.05290000  0.87500000  0.44890000  1.0 0.1204257493
H  H33  1  0.14240000  0.69890000  0.26730000  1.0 0.0991987317
H  H34  1  0.93160000  0.87510000  0.23270000  1.0 0.0991987317
H  H35  1  0.93160000  0.69890000  0.05650000  1.0 0.0991987317
H  H36  1  0.14240000  0.87510000  0.44350000  1.0 0.0991987317
H  H37  1  0.07630000  0.86620000  0.21010000  1.0 0.1204257493
H  H38  1  0.15610000  0.86620000  0.28990000  1.0 0.1204257493
H  H39  1  0.91350000  0.71460000  0.30110000  1.0 0.1100029471
H  H40  1  0.91350000  0.61240000  0.19890000  1.0 0.1100029471
H  H41  1  0.20230000  0.75900000  0.44330000  1.0 0.1295329174
H  H42  1  0.81570000  0.75900000  0.05670000  1.0 0.1295329174
H  H43  1  0.24960000  0.70640000  0.54320000  1.0 0.1204257493
H  H44  1  0.66320000  0.70640000  0.95680000  1.0 0.1204257493
H  H45  1  0.99660000  0.55780000  0.43880000  1.0 0.1100029471
H  H46  1  0.61900000  0.55780000  0.06120000  1.0 0.1100029471
H  H47  1  0.95400000  0.61260000  0.34140000  1.0 0.1295329174
H  H48  1  0.77120000  0.61260000  0.15860000  1.0 0.1295329174
H  H49  1  0.20030000  0.67380000  0.17650000  1.0 0.1204257493
H  H50  1  0.99730000  0.02380000  0.32350000  1.0 0.1204257493
H  H51  1  0.99730000  0.67380000  0.97350000  1.0 0.1204257493
H  H52  1  0.20030000  0.02380000  0.52650000  1.0 0.1204257493
H  H53  1  0.26840000  0.63060000  0.06720000  1.0 0.1295329174
H  H54  1  0.06340000  0.20120000  0.43280000  1.0 0.1295329174
H  H55  1  0.06340000  0.63060000  0.86220000  1.0 0.1295329174
H  H56  1  0.26840000  0.20120000  0.63780000  1.0 0.1295329174
C  C1  1  0.08780000  0.27250000  0.81530000  1.0 0.1884002342
C  C2  1  0.95720000  0.27250000  0.68470000  1.0 0.1884002342
C  C3  1  0.04940000  0.31840000  0.89560000  1.0 -0.3064216943
C  C4  1  0.92280000  0.15380000  0.60440000  1.0 -0.3064216943
C  C5  1  0.92280000  0.31840000  0.76900000  1.0 -0.3064216943
C  C6  1  0.04940000  0.15380000  0.73100000  1.0 -0.3064216943
C  C7  1  0.94790000  0.27850000  0.83060000  1.0 0.1699926211
C  C8  1  0.94790000  0.11730000  0.66940000  1.0 0.1699926211
C  C9  1  0.90920000  0.15920000  0.75000000  1.0 -0.2811949597
C  C10  1  0.05920000  0.30920000  0.75000000  1.0 -0.296769862
C  C11  1  0.19000000  0.31080000  0.87920000  1.0 0.0599751981
C  C12  1  0.93160000  0.31080000  0.62080000  1.0 0.0599751981
C  C13  1  0.22260000  0.28310000  0.93950000  1.0 -0.1688765445
C  C14  1  0.84360000  0.28310000  0.56050000  1.0 -0.1688765445
C  C15  1  0.31090000  0.31160000  0.99930000  1.0 -0.0911622392
C  C16  1  0.81230000  0.31160000  0.50070000  1.0 -0.0911622392
C  C17  1  0.37160000  0.36900000  0.00260000  1.0 -0.0680814059
C  C18  1  0.86640000  0.36900000  0.49740000  1.0 -0.0680814059
C  C19  1  0.34320000  0.39900000  0.94420000  1.0 -0.0911622392
C  C20  1  0.95480000  0.39900000  0.55580000  1.0 -0.0911622392
C  C21  1  0.25430000  0.36790000  0.88640000  1.0 -0.1645137416
C  C22  1  0.98150000  0.36790000  0.61360000  1.0 -0.1645137416
C  C23  1  0.47110000  0.39410000  0.07700000  1.0 0.4223085
C  C24  1  0.81710000  0.39410000  0.42300000  1.0 0.4223085
C  C25  1  0.90880000  0.31740000  0.90860000  1.0 0.0599751981
C  C26  1  0.90880000  0.00020000  0.59140000  1.0 0.0599751981
C  C27  1  0.94420000  0.33310000  0.00310000  1.0 -0.1688765445
C  C28  1  0.83000000  0.94110000  0.49690000  1.0 -0.1688765445
C  C29  1  0.83000000  0.33310000  0.88890000  1.0 -0.1688765445
C  C30  1  0.94420000  0.94110000  0.61110000  1.0 -0.1688765445
C  C31  1  0.90460000  0.36070000  0.07050000  1.0 -0.0911622392
C  C32  1  0.79020000  0.83410000  0.42950000  1.0 -0.0911622392
C  C33  1  0.79020000  0.36070000  0.95610000  1.0 -0.0911622392
C  C34  1  0.90460000  0.83410000  0.54390000  1.0 -0.0911622392
C  C35  1  0.82590000  0.37610000  0.05020000  1.0 -0.0225168242
C  C36  1  0.82590000  0.77570000  0.44980000  1.0 -0.0225168242
C  C37  1  0.78300000  0.40470000  0.12170000  1.0 0.5770547046
C  C38  1  0.78300000  0.66130000  0.37830000  1.0 0.5770547046
C  C39  1  0.04280000  0.72750000  0.31530000  1.0 0.1884002342
C  C40  1  0.91220000  0.72750000  0.18470000  1.0 0.1884002342
C  C41  1  0.07720000  0.68160000  0.23100000  1.0 -0.3064216943
C  C42  1  0.95060000  0.84620000  0.26900000  1.0 -0.3064216943
C  C43  1  0.95060000  0.68160000  0.10440000  1.0 -0.3064216943
C  C44  1  0.07720000  0.84620000  0.39560000  1.0 -0.3064216943
C  C45  1  0.05210000  0.72150000  0.16940000  1.0 0.1699926211
C  C46  1  0.05210000  0.88270000  0.33060000  1.0 0.1699926211
C  C47  1  0.09080000  0.84080000  0.25000000  1.0 -0.2811949597
C  C48  1  0.94080000  0.69080000  0.25000000  1.0 -0.296769862
C  C49  1  0.06840000  0.68920000  0.37920000  1.0 0.0599751981
C  C50  1  0.81000000  0.68920000  0.12080000  1.0 0.0599751981
C  C51  1  0.15640000  0.71690000  0.43950000  1.0 -0.1688765445
C  C52  1  0.77740000  0.71690000  0.06050000  1.0 -0.1688765445
C  C53  1  0.18770000  0.68840000  0.49930000  1.0 -0.0911622392
C  C54  1  0.68910000  0.68840000  0.00070000  1.0 -0.0911622392
C  C55  1  0.13360000  0.63100000  0.50260000  1.0 -0.0680814059
C  C56  1  0.62840000  0.63100000  0.99740000  1.0 -0.0680814059
C  C57  1  0.04520000  0.60100000  0.44420000  1.0 -0.0911622392
C  C58  1  0.65680000  0.60100000  0.05580000  1.0 -0.0911622392
C  C59  1  0.01850000  0.63210000  0.38640000  1.0 -0.1645137416
C  C60  1  0.74570000  0.63210000  0.11360000  1.0 -0.1645137416
C  C61  1  0.18290000  0.60590000  0.57700000  1.0 0.4223085
C  C62  1  0.52890000  0.60590000  0.92300000  1.0 0.4223085
C  C63  1  0.09120000  0.68260000  0.09140000  1.0 0.0599751981
C  C64  1  0.09120000  0.99980000  0.40860000  1.0 0.0599751981
C  C65  1  0.17000000  0.66690000  0.11110000  1.0 -0.1688765445
C  C66  1  0.05580000  0.05890000  0.38890000  1.0 -0.1688765445
C  C67  1  0.05580000  0.66690000  0.99690000  1.0 -0.1688765445
C  C68  1  0.17000000  0.05890000  0.50310000  1.0 -0.1688765445
C  C69  1  0.20980000  0.63930000  0.04390000  1.0 -0.0911622392
C  C70  1  0.09540000  0.16590000  0.45610000  1.0 -0.0911622392
C  C71  1  0.09540000  0.63930000  0.92950000  1.0 -0.0911622392
C  C72  1  0.20980000  0.16590000  0.57050000  1.0 -0.0911622392
C  C73  1  0.17410000  0.62390000  0.94980000  1.0 -0.0225168242
C  C74  1  0.17410000  0.22430000  0.55020000  1.0 -0.0225168242
C  C75  1  0.21700000  0.59530000  0.87830000  1.0 0.5770547046
C  C76  1  0.21700000  0.33870000  0.62170000  1.0 0.5770547046
O  O1  1  0.82380000  0.41700000  0.20540000  1.0 -0.5002156244
O  O2  1  0.71160000  0.61840000  0.29460000  1.0 -0.5002156244
O  O3  1  0.71160000  0.41700000  0.09320000  1.0 -0.5002156244
O  O4  1  0.82380000  0.61840000  0.40680000  1.0 -0.5002156244
O  O5  1  0.66500000  0.41500000  0.25000000  1.0 -0.653758143
O  O6  1  0.52090000  0.41290000  0.04720000  1.0 -0.054614515
O  O7  1  0.86570000  0.47370000  0.45280000  1.0 -0.054614515
O  O8  1  0.86570000  0.41290000  0.39200000  1.0 -0.054614515
O  O9  1  0.52090000  0.47370000  0.10800000  1.0 -0.054614515
O  O10  1  0.50080000  0.32070000  0.04210000  1.0 -0.2377151297
O  O11  1  0.77860000  0.45870000  0.45790000  1.0 -0.2377151297
O  O12  1  0.77860000  0.32070000  0.31990000  1.0 -0.2377151297
O  O13  1  0.50080000  0.45870000  0.18010000  1.0 -0.2377151297
O  O14  1  0.28840000  0.58300000  0.90680000  1.0 -0.5002156244
O  O15  1  0.17620000  0.38160000  0.59320000  1.0 -0.5002156244
O  O16  1  0.17620000  0.58300000  0.79460000  1.0 -0.5002156244
O  O17  1  0.28840000  0.38160000  0.70540000  1.0 -0.5002156244
O  O18  1  0.33500000  0.58500000  0.75000000  1.0 -0.653758143
O  O19  1  0.13430000  0.58710000  0.60800000  1.0 -0.054614515
O  O20  1  0.47910000  0.52630000  0.89200000  1.0 -0.054614515
O  O21  1  0.47910000  0.58710000  0.95280000  1.0 -0.054614515
O  O22  1  0.13430000  0.52630000  0.54720000  1.0 -0.054614515
O  O23  1  0.22140000  0.67930000  0.68010000  1.0 -0.2377151297
O  O24  1  0.49920000  0.54130000  0.81990000  1.0 -0.2377151297
O  O25  1  0.49920000  0.67930000  0.95790000  1.0 -0.2377151297
O  O26  1  0.22140000  0.54130000  0.54210000  1.0 -0.2377151297
