# DDEC6 charges by PACMAN v1.1 (https://github.com/mtap-research/PACMAN-charge/)
data_PUWDIU_FSR_pacman
_symmetry_space_group_name_H-M   'P 1'
_cell_length_a   17.11500000
_cell_length_b   17.11500000
_cell_length_c   17.11500000
_cell_angle_alpha   105.76100000
_cell_angle_beta   105.76100000
_cell_angle_gamma   117.17700000
_symmetry_Int_Tables_number   1
_chemical_formula_structural   Zn3H7C23N2O17
_chemical_formula_sum   'Zn12 H28 C92 N8 O68'
_cell_volume   3806.30976387
_cell_formula_units_Z   4
loop_
 _symmetry_equiv_pos_site_id
 _symmetry_equiv_pos_as_xyz
  1  'x, y, z'
loop_
 _atom_site_type_symbol
 _atom_site_label
 _atom_site_symmetry_multiplicity
 _atom_site_fract_x
 _atom_site_fract_y
 _atom_site_fract_z
 _atom_site_occupancy
 _atom_site_charge
Zn  Zn1  1  0.24525000  0.37745000  0.62270000  1.0 0.8874935786
Zn  Zn2  1  0.62255000  0.24525000  0.86780000  1.0 0.8874935786
Zn  Zn3  1  0.25475000  0.87745000  0.13220000  1.0 0.8874935786
Zn  Zn4  1  0.75475000  0.62255000  0.37730000  1.0 0.8874935786
Zn  Zn5  1  0.12255000  0.25475000  0.37730000  1.0 0.8874935786
Zn  Zn6  1  0.37745000  0.75475000  0.13220000  1.0 0.8874935786
Zn  Zn7  1  0.74525000  0.12255000  0.86780000  1.0 0.8874935786
Zn  Zn8  1  0.87745000  0.74525000  0.62270000  1.0 0.8874935786
Zn  Zn9  1  0.30477000  0.48535000  0.50000000  1.0 0.947219042
Zn  Zn10  1  0.80477000  0.30477000  0.81942000  1.0 0.947219042
Zn  Zn11  1  0.48535000  0.98535000  0.18058000  1.0 0.947219042
Zn  Zn12  1  0.98535000  0.80477000  0.50000000  1.0 0.947219042
H  H1  1  0.48520000  0.34120000  0.69280000  1.0 0.1311406382
H  H2  1  0.79240000  0.48520000  0.14400000  1.0 0.1311406382
H  H3  1  0.14840000  0.84120000  0.85600000  1.0 0.1311406382
H  H4  1  0.64840000  0.79240000  0.30720000  1.0 0.1311406382
H  H5  1  0.29240000  0.14840000  0.30720000  1.0 0.1311406382
H  H6  1  0.34120000  0.64840000  0.85600000  1.0 0.1311406382
H  H7  1  0.98520000  0.29240000  0.14400000  1.0 0.1311406382
H  H8  1  0.84120000  0.98520000  0.69280000  1.0 0.1311406382
H  H9  1  0.75100000  0.44780000  0.68980000  1.0 0.1311406382
H  H10  1  0.06120000  0.75100000  0.30320000  1.0 0.1311406382
H  H11  1  0.25800000  0.94780000  0.69680000  1.0 0.1311406382
H  H12  1  0.75800000  0.06120000  0.31020000  1.0 0.1311406382
H  H13  1  0.56120000  0.25800000  0.31020000  1.0 0.1311406382
H  H14  1  0.44780000  0.75800000  0.69680000  1.0 0.1311406382
H  H15  1  0.25100000  0.56120000  0.30320000  1.0 0.1311406382
H  H16  1  0.94780000  0.25100000  0.68980000  1.0 0.1311406382
H  H17  1  0.59000000  0.55310000  0.61090000  1.0 0.1138583774
H  H18  1  0.97910000  0.59000000  0.03690000  1.0 0.1138583774
H  H19  1  0.44220000  0.05310000  0.96310000  1.0 0.1138583774
H  H20  1  0.94220000  0.97910000  0.38910000  1.0 0.1138583774
H  H21  1  0.47910000  0.44220000  0.38910000  1.0 0.1138583774
H  H22  1  0.55310000  0.94220000  0.96310000  1.0 0.1138583774
H  H23  1  0.09000000  0.47910000  0.03690000  1.0 0.1138583774
H  H24  1  0.05310000  0.09000000  0.61090000  1.0 0.1138583774
H  H25  1  0.49590000  0.59370000  0.50000000  1.0 0.182575559
H  H26  1  0.99590000  0.49590000  0.90220000  1.0 0.182575559
H  H27  1  0.59370000  0.09370000  0.09780000  1.0 0.182575559
H  H28  1  0.09370000  0.99590000  0.50000000  1.0 0.182575559
C  C1  1  0.52110000  0.44220000  0.64610000  1.0 -0.0182478243
C  C2  1  0.87500000  0.52110000  0.07890000  1.0 -0.0182478243
C  C3  1  0.29610000  0.94220000  0.92110000  1.0 -0.0182478243
C  C4  1  0.79610000  0.87500000  0.35390000  1.0 -0.0182478243
C  C5  1  0.37500000  0.29610000  0.35390000  1.0 -0.0182478243
C  C6  1  0.44220000  0.79610000  0.92110000  1.0 -0.0182478243
C  C7  1  0.02110000  0.37500000  0.07890000  1.0 -0.0182478243
C  C8  1  0.94220000  0.02110000  0.64610000  1.0 -0.0182478243
C  C9  1  0.53510000  0.38350000  0.68080000  1.0 -0.1129017139
C  C10  1  0.85430000  0.53510000  0.15160000  1.0 -0.1129017139
C  C11  1  0.20270000  0.88350000  0.84840000  1.0 -0.1129017139
C  C12  1  0.70270000  0.85430000  0.31920000  1.0 -0.1129017139
C  C13  1  0.35430000  0.20270000  0.31920000  1.0 -0.1129017139
C  C14  1  0.38350000  0.70270000  0.84840000  1.0 -0.1129017139
C  C15  1  0.03510000  0.35430000  0.15160000  1.0 -0.1129017139
C  C16  1  0.88350000  0.03510000  0.68080000  1.0 -0.1129017139
C  C17  1  0.62040000  0.38590000  0.69910000  1.0 -0.0020022518
C  C18  1  0.92130000  0.62040000  0.23450000  1.0 -0.0020022518
C  C19  1  0.18680000  0.88590000  0.76550000  1.0 -0.0020022518
C  C20  1  0.68680000  0.92130000  0.30090000  1.0 -0.0020022518
C  C21  1  0.42130000  0.18680000  0.30090000  1.0 -0.0020022518
C  C22  1  0.38590000  0.68680000  0.76550000  1.0 -0.0020022518
C  C23  1  0.12040000  0.42130000  0.23450000  1.0 -0.0020022518
C  C24  1  0.88590000  0.12040000  0.69910000  1.0 -0.0020022518
C  C25  1  0.69430000  0.44950000  0.68240000  1.0 -0.1342549689
C  C26  1  0.01190000  0.69430000  0.24480000  1.0 -0.1342549689
C  C27  1  0.26710000  0.94950000  0.75520000  1.0 -0.1342549689
C  C28  1  0.76710000  0.01190000  0.31760000  1.0 -0.1342549689
C  C29  1  0.51190000  0.26710000  0.31760000  1.0 -0.1342549689
C  C30  1  0.44950000  0.76710000  0.75520000  1.0 -0.1342549689
C  C31  1  0.19430000  0.51190000  0.24480000  1.0 -0.1342549689
C  C32  1  0.94950000  0.19430000  0.68240000  1.0 -0.1342549689
C  C33  1  0.68220000  0.51190000  0.65070000  1.0 -0.0020022518
C  C34  1  0.03150000  0.68220000  0.17030000  1.0 -0.0020022518
C  C35  1  0.36120000  0.01190000  0.82970000  1.0 -0.0020022518
C  C36  1  0.86120000  0.03150000  0.34930000  1.0 -0.0020022518
C  C37  1  0.53150000  0.36120000  0.34930000  1.0 -0.0020022518
C  C38  1  0.51190000  0.86120000  0.82970000  1.0 -0.0020022518
C  C39  1  0.18220000  0.53150000  0.17030000  1.0 -0.0020022518
C  C40  1  0.01190000  0.18220000  0.65070000  1.0 -0.0020022518
C  C41  1  0.59780000  0.50990000  0.63250000  1.0 -0.1342549689
C  C42  1  0.96530000  0.59780000  0.08790000  1.0 -0.1342549689
C  C43  1  0.37740000  0.00990000  0.91210000  1.0 -0.1342549689
C  C44  1  0.87740000  0.96530000  0.36750000  1.0 -0.1342549689
C  C45  1  0.46530000  0.37740000  0.36750000  1.0 -0.1342549689
C  C46  1  0.50990000  0.87740000  0.91210000  1.0 -0.1342549689
C  C47  1  0.09780000  0.46530000  0.08790000  1.0 -0.1342549689
C  C48  1  0.00990000  0.09780000  0.63250000  1.0 -0.1342549689
C  C49  1  0.42770000  0.43800000  0.62250000  1.0 0.5981602351
C  C50  1  0.80520000  0.42770000  0.98970000  1.0 0.5981602351
C  C51  1  0.31550000  0.93800000  0.01030000  1.0 0.5981602351
C  C52  1  0.81550000  0.80520000  0.37750000  1.0 0.5981602351
C  C53  1  0.30520000  0.31550000  0.37750000  1.0 0.5981602351
C  C54  1  0.43800000  0.81550000  0.01030000  1.0 0.5981602351
C  C55  1  0.92770000  0.30520000  0.98970000  1.0 0.5981602351
C  C56  1  0.93800000  0.92770000  0.62250000  1.0 0.5981602351
C  C57  1  0.63940000  0.32410000  0.73890000  1.0 0.5903313438
C  C58  1  0.90050000  0.63940000  0.31530000  1.0 0.5903313438
C  C59  1  0.08520000  0.82410000  0.68470000  1.0 0.5903313438
C  C60  1  0.58520000  0.90050000  0.26110000  1.0 0.5903313438
C  C61  1  0.40050000  0.08520000  0.26110000  1.0 0.5903313438
C  C62  1  0.32410000  0.58520000  0.68470000  1.0 0.5903313438
C  C63  1  0.13940000  0.40050000  0.31530000  1.0 0.5903313438
C  C64  1  0.82410000  0.13940000  0.73890000  1.0 0.5903313438
C  C65  1  0.76710000  0.58450000  0.63960000  1.0 0.5471108759
C  C66  1  0.12750000  0.76710000  0.18260000  1.0 0.5471108759
C  C67  1  0.44490000  0.08450000  0.81740000  1.0 0.5471108759
C  C68  1  0.94490000  0.12750000  0.36040000  1.0 0.5471108759
C  C69  1  0.62750000  0.44490000  0.36040000  1.0 0.5471108759
C  C70  1  0.58450000  0.94490000  0.81740000  1.0 0.5471108759
C  C71  1  0.26710000  0.62750000  0.18260000  1.0 0.5471108759
C  C72  1  0.08450000  0.26710000  0.63960000  1.0 0.5471108759
C  C73  1  0.47390000  0.63310000  0.50000000  1.0 0.1237263212
C  C74  1  0.97390000  0.47390000  0.84080000  1.0 0.1237263212
C  C75  1  0.63310000  0.13310000  0.15920000  1.0 0.1311406382
C  C76  1  0.13310000  0.97390000  0.50000000  1.0 0.1311406382
C  C77  1  0.53370000  0.80350000  0.52420000  1.0 0.0648326109
C  C78  1  0.00950000  0.53370000  0.73020000  1.0 0.0669666521
C  C79  1  0.77930000  0.30350000  0.26980000  1.0 0.0669666521
C  C80  1  0.27930000  0.00950000  0.47580000  1.0 0.0669666521
C  C81  1  0.50950000  0.77930000  0.47580000  1.0 0.0648326109
C  C82  1  0.80350000  0.27930000  0.26980000  1.0 0.0669666521
C  C83  1  0.03370000  0.50950000  0.73020000  1.0 0.0669666521
C  C84  1  0.30350000  0.03370000  0.52420000  1.0 0.0669666521
C  C85  1  0.65100000  0.75160000  0.53260000  1.0 -0.0650246834
C  C86  1  0.11840000  0.65100000  0.89940000  1.0 -0.0612284387
C  C87  1  0.71900000  0.25160000  0.10060000  1.0 -0.0612284387
C  C88  1  0.21900000  0.11840000  0.46740000  1.0 -0.0612284387
C  C89  1  0.61840000  0.71900000  0.46740000  1.0 -0.0650246834
C  C90  1  0.75160000  0.21900000  0.10060000  1.0 -0.0612284387
C  C91  1  0.15100000  0.61840000  0.89940000  1.0 -0.0612284387
C  C92  1  0.25160000  0.15100000  0.53260000  1.0 -0.0612284387
N  N1  1  0.55220000  0.72680000  0.52600000  1.0 0.1617050342
N  N2  1  0.02620000  0.55220000  0.82540000  1.0 0.1617050342
N  N3  1  0.70080000  0.22680000  0.17460000  1.0 0.1617050342
N  N4  1  0.20080000  0.02620000  0.47400000  1.0 0.1617050342
N  N5  1  0.52620000  0.70080000  0.47400000  1.0 0.1653150449
N  N6  1  0.72680000  0.20080000  0.17460000  1.0 0.1617050342
N  N7  1  0.05220000  0.52620000  0.82540000  1.0 0.1617050342
N  N8  1  0.22680000  0.05220000  0.52600000  1.0 0.1617050342
O  O1  1  0.03820000  0.39040000  0.50000000  1.0 -0.1757365485
O  O2  1  0.53820000  0.03820000  0.64780000  1.0 -0.1731696298
O  O3  1  0.39040000  0.89040000  0.35220000  1.0 -0.1757365485
O  O4  1  0.89040000  0.53820000  0.50000000  1.0 -0.1757365485
O  O5  1  0.42110000  0.49710000  0.59680000  1.0 -0.5820499232
O  O6  1  0.82430000  0.42110000  0.92400000  1.0 -0.5820499232
O  O7  1  0.40030000  0.99710000  0.07600000  1.0 -0.5820499232
O  O8  1  0.90030000  0.82430000  0.40320000  1.0 -0.5820499232
O  O9  1  0.32430000  0.40030000  0.40320000  1.0 -0.5820499232
O  O10  1  0.49710000  0.90030000  0.07600000  1.0 -0.5820499232
O  O11  1  0.92110000  0.32430000  0.92400000  1.0 -0.5820499232
O  O12  1  0.99710000  0.92110000  0.59680000  1.0 -0.5820499232
O  O13  1  0.36270000  0.37520000  0.63510000  1.0 -0.5283372795
O  O14  1  0.72760000  0.36270000  0.98750000  1.0 -0.5283372795
O  O15  1  0.24010000  0.87520000  0.01250000  1.0 -0.5283372795
O  O16  1  0.74010000  0.72760000  0.36490000  1.0 -0.5283372795
O  O17  1  0.22760000  0.24010000  0.36490000  1.0 -0.5283372795
O  O18  1  0.37520000  0.74010000  0.01250000  1.0 -0.5283372795
O  O19  1  0.86270000  0.22760000  0.98750000  1.0 -0.5283372795
O  O20  1  0.87520000  0.86270000  0.63510000  1.0 -0.5283372795
O  O21  1  0.69590000  0.30400000  0.72610000  1.0 -0.508934023
O  O22  1  0.96980000  0.69590000  0.39190000  1.0 -0.508934023
O  O23  1  0.07790000  0.80400000  0.60810000  1.0 -0.508934023
O  O24  1  0.57790000  0.96980000  0.27390000  1.0 -0.508934023
O  O25  1  0.46980000  0.07790000  0.27390000  1.0 -0.508934023
O  O26  1  0.30400000  0.57790000  0.60810000  1.0 -0.508934023
O  O27  1  0.19590000  0.46980000  0.39190000  1.0 -0.508934023
O  O28  1  0.80400000  0.19590000  0.72610000  1.0 -0.508934023
O  O29  1  0.59220000  0.29920000  0.78560000  1.0 -0.5612406155
O  O30  1  0.80660000  0.59220000  0.29300000  1.0 -0.5612406155
O  O31  1  0.01360000  0.79920000  0.70700000  1.0 -0.5612406155
O  O32  1  0.51360000  0.80660000  0.21440000  1.0 -0.5612406155
O  O33  1  0.30660000  0.01360000  0.21440000  1.0 -0.5612406155
O  O34  1  0.29920000  0.51360000  0.70700000  1.0 -0.5612406155
O  O35  1  0.09220000  0.30660000  0.29300000  1.0 -0.5612406155
O  O36  1  0.79920000  0.09220000  0.78560000  1.0 -0.5612406155
O  O37  1  0.83140000  0.57260000  0.63680000  1.0 -0.401807042
O  O38  1  0.19460000  0.83140000  0.25880000  1.0 -0.401807042
O  O39  1  0.43580000  0.07260000  0.74120000  1.0 -0.401807042
O  O40  1  0.93580000  0.19460000  0.36320000  1.0 -0.401807042
O  O41  1  0.69460000  0.43580000  0.36320000  1.0 -0.401807042
O  O42  1  0.57260000  0.93580000  0.74120000  1.0 -0.401807042
O  O43  1  0.33140000  0.69460000  0.25880000  1.0 -0.401807042
O  O44  1  0.07260000  0.33140000  0.63680000  1.0 -0.401807042
O  O45  1  0.76480000  0.65830000  0.63610000  1.0 -0.5365620722
O  O46  1  0.12870000  0.76480000  0.10650000  1.0 -0.5365620722
O  O47  1  0.52220000  0.15830000  0.89350000  1.0 -0.5365620722
O  O48  1  0.02220000  0.12870000  0.36390000  1.0 -0.5365620722
O  O49  1  0.62870000  0.52220000  0.36390000  1.0 -0.5365620722
O  O50  1  0.65830000  0.02220000  0.89350000  1.0 -0.5365620722
O  O51  1  0.26480000  0.62870000  0.10650000  1.0 -0.5365620722
O  O52  1  0.15830000  0.26480000  0.63610000  1.0 -0.5365620722
O  O53  1  0.40250000  0.61030000  0.50000000  1.0 -0.3029516061
O  O54  1  0.90250000  0.40250000  0.79220000  1.0 -0.3029516061
O  O55  1  0.61030000  0.11030000  0.20780000  1.0 -0.3029516061
O  O56  1  0.11030000  0.90250000  0.50000000  1.0 -0.3029516061
O  O57  1  0.18930000  0.36470000  0.50000000  1.0 -0.5612406155
O  O58  1  0.68930000  0.18930000  0.82460000  1.0 -0.5612406155
O  O59  1  0.36470000  0.86470000  0.17540000  1.0 -0.5612406155
O  O60  1  0.86470000  0.68930000  0.50000000  1.0 -0.5612406155
O  O61  1  0.12810000  0.38750000  0.56820000  1.0 0.2479768002
O  O62  1  0.55990000  0.12810000  0.74060000  1.0 0.2479768002
O  O63  1  0.31930000  0.88750000  0.25940000  1.0 0.2479768002
O  O64  1  0.81930000  0.55990000  0.43180000  1.0 0.2479768002
O  O65  1  0.05990000  0.31930000  0.43180000  1.0 0.2479768002
O  O66  1  0.38750000  0.81930000  0.25940000  1.0 0.2479768002
O  O67  1  0.62810000  0.05990000  0.74060000  1.0 0.2479768002
O  O68  1  0.88750000  0.62810000  0.56820000  1.0 0.2479768002
