# DDEC6 charges by PACMAN v1.1 (https://github.com/mtap-research/PACMAN-charge/)
data_QADKAH_FSR_pacman
_symmetry_space_group_name_H-M   'P 1'
_cell_length_a   8.79238000
_cell_length_b   8.79238000
_cell_length_c   18.99010000
_cell_angle_alpha   84.59260000
_cell_angle_beta   95.40740000
_cell_angle_gamma   108.74000000
_symmetry_Int_Tables_number   1
_chemical_formula_structural   V2P2H6C3O10
_chemical_formula_sum   'V8 P8 H24 C12 O40'
_cell_volume   1380.84527335
_cell_formula_units_Z   4
loop_
 _symmetry_equiv_pos_site_id
 _symmetry_equiv_pos_as_xyz
  1  'x, y, z'
loop_
 _atom_site_type_symbol
 _atom_site_label
 _atom_site_symmetry_multiplicity
 _atom_site_fract_x
 _atom_site_fract_y
 _atom_site_fract_z
 _atom_site_occupancy
 _atom_site_charge
V  V1  1  0.22990000  0.54070000  0.91060000  1.0 1.9802151749
V  V2  1  0.54070000  0.22990000  0.58940000  1.0 1.9802151749
V  V3  1  0.77010000  0.45930000  0.08940000  1.0 1.9802151749
V  V4  1  0.45930000  0.77010000  0.41060000  1.0 1.9802151749
V  V5  1  0.21630000  0.67150000  0.71920000  1.0 1.9802151749
V  V6  1  0.67150000  0.21630000  0.78080000  1.0 1.9802151749
V  V7  1  0.78370000  0.32850000  0.28080000  1.0 1.9802151749
V  V8  1  0.32850000  0.78370000  0.21920000  1.0 1.9802151749
P  P1  1  0.84000000  0.41020000  0.92510000  1.0 1.4563824067
P  P2  1  0.41020000  0.84000000  0.57490000  1.0 1.4563824067
P  P3  1  0.16000000  0.58980000  0.07490000  1.0 1.4563824067
P  P4  1  0.58980000  0.16000000  0.42510000  1.0 1.4563824067
P  P5  1  0.50130000  0.83370000  0.83060000  1.0 1.4432810376
P  P6  1  0.83370000  0.50130000  0.66940000  1.0 1.4432810376
P  P7  1  0.49870000  0.16630000  0.16940000  1.0 1.4432810376
P  P8  1  0.16630000  0.49870000  0.33060000  1.0 1.4432810376
H  H1  1  0.91270000  0.68550000  0.93170000  1.0 0.162111733
H  H2  1  0.68550000  0.91270000  0.56830000  1.0 0.162111733
H  H3  1  0.08730000  0.31450000  0.06830000  1.0 0.162111733
H  H4  1  0.31450000  0.08730000  0.43170000  1.0 0.162111733
H  H5  1  0.91280000  0.64500000  0.85300000  1.0 0.162111733
H  H6  1  0.64500000  0.91280000  0.64700000  1.0 0.162111733
H  H7  1  0.08720000  0.35500000  0.14700000  1.0 0.162111733
H  H8  1  0.35500000  0.08720000  0.35300000  1.0 0.162111733
H  H9  1  0.76410000  0.85010000  0.81740000  1.0 0.162111733
H  H10  1  0.85010000  0.76410000  0.68260000  1.0 0.162111733
H  H11  1  0.23590000  0.14990000  0.18260000  1.0 0.162111733
H  H12  1  0.14990000  0.23590000  0.31740000  1.0 0.162111733
H  H13  1  0.74440000  0.87800000  0.89590000  1.0 0.162111733
H  H14  1  0.87800000  0.74440000  0.60410000  1.0 0.162111733
H  H15  1  0.25560000  0.12200000  0.10410000  1.0 0.162111733
H  H16  1  0.12200000  0.25560000  0.39590000  1.0 0.162111733
H  H17  1  0.62730000  0.60190000  0.92090000  1.0 0.1118439984
H  H18  1  0.60190000  0.62730000  0.57910000  1.0 0.1118439984
H  H19  1  0.37270000  0.39810000  0.07910000  1.0 0.1118439984
H  H20  1  0.39810000  0.37270000  0.42090000  1.0 0.1118439984
H  H21  1  0.63100000  0.56920000  0.84150000  1.0 0.1118439984
H  H22  1  0.56920000  0.63100000  0.65850000  1.0 0.1118439984
H  H23  1  0.36900000  0.43080000  0.15850000  1.0 0.1118439984
H  H24  1  0.43080000  0.36900000  0.34150000  1.0 0.1118439984
C  C1  1  0.85330000  0.61450000  0.89540000  1.0 -0.4887155464
C  C2  1  0.61450000  0.85330000  0.60460000  1.0 -0.4887155464
C  C3  1  0.14670000  0.38550000  0.10460000  1.0 -0.4887155464
C  C4  1  0.38550000  0.14670000  0.39540000  1.0 -0.4887155464
C  C5  1  0.69560000  0.81140000  0.85670000  1.0 -0.4817177524
C  C6  1  0.81140000  0.69560000  0.64330000  1.0 -0.4817177524
C  C7  1  0.30440000  0.18860000  0.14330000  1.0 -0.4817177524
C  C8  1  0.18860000  0.30440000  0.35670000  1.0 -0.4817177524
C  C9  1  0.68830000  0.63730000  0.87910000  1.0 -0.0639519414
C  C10  1  0.63730000  0.68830000  0.62090000  1.0 -0.0639519414
C  C11  1  0.31170000  0.36270000  0.12090000  1.0 -0.0639519414
C  C12  1  0.36270000  0.31170000  0.37910000  1.0 -0.0639519414
O  O1  1  0.77820000  0.37100000  0.99940000  1.0 -0.7812656855
O  O2  1  0.37100000  0.77820000  0.50060000  1.0 -0.7812656855
O  O3  1  0.22180000  0.62900000  0.00060000  1.0 -0.7812656855
O  O4  1  0.62900000  0.22180000  0.49940000  1.0 -0.7812656855
O  O5  1  0.00750000  0.39190000  0.92410000  1.0 -0.7812656855
O  O6  1  0.39190000  0.00750000  0.57590000  1.0 -0.7812656855
O  O7  1  0.99250000  0.60810000  0.07590000  1.0 -0.7812656855
O  O8  1  0.60810000  0.99250000  0.42410000  1.0 -0.7812656855
O  O9  1  0.44180000  0.75280000  0.76120000  1.0 -0.7812656855
O  O10  1  0.75280000  0.44180000  0.73880000  1.0 -0.7812656855
O  O11  1  0.55820000  0.24720000  0.23880000  1.0 -0.7812656855
O  O12  1  0.24720000  0.55820000  0.26120000  1.0 -0.7812656855
O  O13  1  0.38830000  0.75410000  0.89020000  1.0 -0.7812656855
O  O14  1  0.75410000  0.38830000  0.60980000  1.0 -0.7812656855
O  O15  1  0.61170000  0.24590000  0.10980000  1.0 -0.7812656855
O  O16  1  0.24590000  0.61170000  0.39020000  1.0 -0.7812656855
O  O17  1  0.71750000  0.29530000  0.87680000  1.0 -0.7463717332
O  O18  1  0.29530000  0.71750000  0.62320000  1.0 -0.7463717332
O  O19  1  0.28250000  0.70470000  0.12320000  1.0 -0.7463717332
O  O20  1  0.70470000  0.28250000  0.37680000  1.0 -0.7463717332
O  O21  1  0.51940000  0.01360000  0.82410000  1.0 -0.7428749075
O  O22  1  0.01360000  0.51940000  0.67590000  1.0 -0.7428749075
O  O23  1  0.48060000  0.98640000  0.17590000  1.0 -0.7428749075
O  O24  1  0.98640000  0.48060000  0.32410000  1.0 -0.7428749075
O  O25  1  0.15850000  0.82330000  0.72800000  1.0 -0.596997576
O  O26  1  0.82330000  0.15850000  0.77200000  1.0 -0.596997576
O  O27  1  0.84150000  0.17670000  0.27200000  1.0 -0.596997576
O  O28  1  0.17670000  0.84150000  0.22800000  1.0 -0.596997576
O  O29  1  0.33240000  0.41900000  0.92450000  1.0 -0.6069082936
O  O30  1  0.41900000  0.33240000  0.57550000  1.0 -0.6069082936
O  O31  1  0.66760000  0.58100000  0.07550000  1.0 -0.6069082936
O  O32  1  0.58100000  0.66760000  0.42450000  1.0 -0.6069082936
O  O33  1  0.15780000  0.53960000  0.80950000  1.0 -1.0189400484
O  O34  1  0.53960000  0.15780000  0.69050000  1.0 -1.0189400484
O  O35  1  0.84220000  0.46040000  0.19050000  1.0 -1.0189400484
O  O36  1  0.46040000  0.84220000  0.30950000  1.0 -1.0189400484
O  O37  1  0.29250000  0.43250000  0.69770000  1.0 0.1393118183
O  O38  1  0.43250000  0.29250000  0.80230000  1.0 0.1393118183
O  O39  1  0.70750000  0.56750000  0.30230000  1.0 0.1393118183
O  O40  1  0.56750000  0.70750000  0.19770000  1.0 0.1393118183
