# DDEC6 charges by PACMAN v1.1 (https://github.com/mtap-research/PACMAN-charge/)
data_QADKAH01_ASR_pacman
_symmetry_space_group_name_H-M   'P 1'
_cell_length_a   9.05393000
_cell_length_b   9.05393000
_cell_length_c   18.51500000
_cell_angle_alpha   80.90230000
_cell_angle_beta   99.09770000
_cell_angle_gamma   110.73900000
_symmetry_Int_Tables_number   1
_chemical_formula_structural   V3P2H6(CO3)3
_chemical_formula_sum   'V12 P8 H24 C12 O36'
_cell_volume   1392.94394888
_cell_formula_units_Z   4
loop_
 _symmetry_equiv_pos_site_id
 _symmetry_equiv_pos_as_xyz
  1  'x, y, z'
loop_
 _atom_site_type_symbol
 _atom_site_label
 _atom_site_symmetry_multiplicity
 _atom_site_fract_x
 _atom_site_fract_y
 _atom_site_fract_z
 _atom_site_occupancy
 _atom_site_charge
V  V1  1  0.78500000  0.45020000  0.09290000  1.0 1.7976187499
V  V2  1  0.45020000  0.78500000  0.40710000  1.0 1.7976187499
V  V3  1  0.21500000  0.54980000  0.90710000  1.0 1.7976187499
V  V4  1  0.54980000  0.21500000  0.59290000  1.0 1.7976187499
V  V5  1  0.79610000  0.31150000  0.28330000  1.0 1.1360997588
V  V6  1  0.31150000  0.79610000  0.21670000  1.0 1.1360997588
V  V7  1  0.20390000  0.68850000  0.71670000  1.0 1.1360997588
V  V8  1  0.68850000  0.20390000  0.78330000  1.0 1.1273874194
V  V9  1  0.38960000  0.77420000  0.21950000  1.0 1.1273874194
V  V10  1  0.77420000  0.38960000  0.28050000  1.0 1.1273874194
V  V11  1  0.61040000  0.22580000  0.78050000  1.0 1.1273874194
V  V12  1  0.22580000  0.61040000  0.71950000  1.0 1.1273874194
P  P1  1  0.16340000  0.59500000  0.07470000  1.0 1.4231067331
P  P2  1  0.59500000  0.16340000  0.42530000  1.0 1.4231067331
P  P3  1  0.83660000  0.40500000  0.92530000  1.0 1.4231067331
P  P4  1  0.40500000  0.83660000  0.57470000  1.0 1.4231067331
P  P5  1  0.49640000  0.17180000  0.16670000  1.0 1.3982954056
P  P6  1  0.17180000  0.49640000  0.33333333  1.0 1.3982954056
P  P7  1  0.50360000  0.82820000  0.83330000  1.0 1.3982954056
P  P8  1  0.82820000  0.50360000  0.66666667  1.0 1.3982954056
H  H1  1  0.09370000  0.32490000  0.07570000  1.0 0.1522307315
H  H2  1  0.32490000  0.09370000  0.42430000  1.0 0.1522307315
H  H3  1  0.90630000  0.67510000  0.92430000  1.0 0.1522307315
H  H4  1  0.67510000  0.90630000  0.57570000  1.0 0.1522307315
H  H5  1  0.11240000  0.36800000  0.15610000  1.0 0.1622027525
H  H6  1  0.36800000  0.11240000  0.34390000  1.0 0.1622027525
H  H7  1  0.88760000  0.63200000  0.84390000  1.0 0.1622027525
H  H8  1  0.63200000  0.88760000  0.65610000  1.0 0.1622027525
H  H9  1  0.24930000  0.16310000  0.18630000  1.0 0.1622027525
H  H10  1  0.16310000  0.24930000  0.31370000  1.0 0.1622027525
H  H11  1  0.75070000  0.83690000  0.81370000  1.0 0.1622027525
H  H12  1  0.83690000  0.75070000  0.68630000  1.0 0.1622027525
H  H13  1  0.25100000  0.14700000  0.10350000  1.0 0.1622027525
H  H14  1  0.14700000  0.25100000  0.39650000  1.0 0.1622027525
H  H15  1  0.74900000  0.85300000  0.89650000  1.0 0.1622027525
H  H16  1  0.85300000  0.74900000  0.60350000  1.0 0.1622027525
H  H17  1  0.37780000  0.42220000  0.08040000  1.0 0.0813993731
H  H18  1  0.42220000  0.37780000  0.41960000  1.0 0.0813993731
H  H19  1  0.62220000  0.57780000  0.91960000  1.0 0.0813993731
H  H20  1  0.57780000  0.62220000  0.58040000  1.0 0.0813993731
H  H21  1  0.38610000  0.44090000  0.16390000  1.0 0.1166857363
H  H22  1  0.44090000  0.38610000  0.33610000  1.0 0.1166857363
H  H23  1  0.61390000  0.55910000  0.83610000  1.0 0.1166857363
H  H24  1  0.55910000  0.61390000  0.66390000  1.0 0.1166857363
C  C1  1  0.16040000  0.39800000  0.11030000  1.0 -0.5183283656
C  C2  1  0.39800000  0.16040000  0.38970000  1.0 -0.5183283656
C  C3  1  0.83960000  0.60200000  0.88970000  1.0 -0.5183283656
C  C4  1  0.60200000  0.83960000  0.61030000  1.0 -0.5183283656
C  C5  1  0.31000000  0.20560000  0.14440000  1.0 -0.4905827312
C  C6  1  0.20560000  0.31000000  0.35560000  1.0 -0.4905827312
C  C7  1  0.69000000  0.79440000  0.85560000  1.0 -0.4905827312
C  C8  1  0.79440000  0.69000000  0.64440000  1.0 -0.4905827312
C  C9  1  0.32350000  0.38010000  0.12420000  1.0 -0.0619146197
C  C10  1  0.38010000  0.32350000  0.37580000  1.0 -0.0619146197
C  C11  1  0.67650000  0.61990000  0.87580000  1.0 -0.0619146197
C  C12  1  0.61990000  0.67650000  0.62420000  1.0 -0.0619146197
O  O1  1  0.21530000  0.63450000  0.99710000  1.0 -0.7850301235
O  O2  1  0.63450000  0.21530000  0.50290000  1.0 -0.7850301235
O  O3  1  0.78470000  0.36550000  0.00290000  1.0 -0.7850301235
O  O4  1  0.36550000  0.78470000  0.49710000  1.0 -0.7850301235
O  O5  1  0.99710000  0.60290000  0.07340000  1.0 -0.7968761592
O  O6  1  0.60290000  0.99710000  0.42660000  1.0 -0.7968761592
O  O7  1  0.00290000  0.39710000  0.92660000  1.0 -0.7968761592
O  O8  1  0.39710000  0.00290000  0.57340000  1.0 -0.7968761592
O  O9  1  0.57340000  0.24100000  0.23860000  1.0 -0.7693482905
O  O10  1  0.24100000  0.57340000  0.26140000  1.0 -0.7693482905
O  O11  1  0.42660000  0.75900000  0.76140000  1.0 -0.7693482905
O  O12  1  0.75900000  0.42660000  0.73860000  1.0 -0.7693482905
O  O13  1  0.59730000  0.25430000  0.10290000  1.0 -0.7693482905
O  O14  1  0.25430000  0.59730000  0.39710000  1.0 -0.7693482905
O  O15  1  0.40270000  0.74570000  0.89710000  1.0 -0.7693482905
O  O16  1  0.74570000  0.40270000  0.60290000  1.0 -0.7693482905
O  O17  1  0.28630000  0.71590000  0.12110000  1.0 -0.7331755727
O  O18  1  0.71590000  0.28630000  0.37890000  1.0 -0.7331755727
O  O19  1  0.71370000  0.28410000  0.87890000  1.0 -0.7331755727
O  O20  1  0.28410000  0.71370000  0.62110000  1.0 -0.7331755727
O  O21  1  0.46390000  0.99410000  0.17150000  1.0 -0.7197368114
O  O22  1  0.99410000  0.46390000  0.32850000  1.0 -0.7197368114
O  O23  1  0.53610000  0.00590000  0.82850000  1.0 -0.7197368114
O  O24  1  0.00590000  0.53610000  0.67150000  1.0 -0.7197368114
O  O25  1  0.84100000  0.15460000  0.28800000  1.0 -0.5965284674
O  O26  1  0.15460000  0.84100000  0.21200000  1.0 -0.5965284674
O  O27  1  0.15900000  0.84540000  0.71200000  1.0 -0.5965284674
O  O28  1  0.84540000  0.15900000  0.78800000  1.0 -0.5965284674
O  O29  1  0.85230000  0.40770000  0.18530000  1.0 -0.9254919856
O  O30  1  0.40770000  0.85230000  0.31470000  1.0 -0.9254919856
O  O31  1  0.14770000  0.59230000  0.81470000  1.0 -0.9254919856
O  O32  1  0.59230000  0.14770000  0.68530000  1.0 -0.9254919856
O  O33  1  0.74070000  0.55330000  0.27360000  1.0 -0.5508926629
O  O34  1  0.55330000  0.74070000  0.22640000  1.0 -0.5508926629
O  O35  1  0.25930000  0.44670000  0.72640000  1.0 -0.5508926629
O  O36  1  0.44670000  0.25930000  0.77360000  1.0 -0.5508926629
