# DDEC6 charges by PACMAN v1.1 (https://github.com/mtap-research/PACMAN-charge/)
data_QAJJOD_ASR_pacman
_symmetry_space_group_name_H-M   'P 1'
_cell_length_a   18.99930000
_cell_length_b   18.99930000
_cell_length_c   18.99930000
_cell_angle_alpha   60.00000000
_cell_angle_beta   60.00000000
_cell_angle_gamma   60.00000000
_symmetry_Int_Tables_number   1
_chemical_formula_structural   Zr3(C9O2)10
_chemical_formula_sum   'Zr6 C180 O40'
_cell_volume   4849.50937426
_cell_formula_units_Z   2
loop_
 _symmetry_equiv_pos_site_id
 _symmetry_equiv_pos_as_xyz
  1  'x, y, z'
loop_
 _atom_site_type_symbol
 _atom_site_label
 _atom_site_symmetry_multiplicity
 _atom_site_fract_x
 _atom_site_fract_y
 _atom_site_fract_z
 _atom_site_occupancy
 _atom_site_charge
Zr  Zr1  1  0.09204000  0.90796000  0.09204000  1.0 2.0069170514
Zr  Zr2  1  0.90796000  0.09204000  0.90796000  1.0 2.0069170514
Zr  Zr3  1  0.09204000  0.09204000  0.90796000  1.0 2.0069170514
Zr  Zr4  1  0.90796000  0.90796000  0.09204000  1.0 2.0069170514
Zr  Zr5  1  0.90796000  0.09204000  0.09204000  1.0 2.0069170514
Zr  Zr6  1  0.09204000  0.90796000  0.90796000  1.0 2.0069170514
C  C1  1  0.00000000  0.00000000  0.23448000  1.0 0.5085079143
C  C2  1  0.00000000  0.00000000  0.76552000  1.0 0.5085079143
C  C3  1  0.23448000  0.76552000  0.00000000  1.0 0.5085079143
C  C4  1  0.76552000  0.23448000  0.00000000  1.0 0.5085079143
C  C5  1  0.23448000  0.00000000  0.00000000  1.0 0.5085079143
C  C6  1  0.76552000  0.00000000  0.00000000  1.0 0.5085079143
C  C7  1  0.00000000  0.23448000  0.76552000  1.0 0.5085079143
C  C8  1  0.00000000  0.76552000  0.23448000  1.0 0.5085079143
C  C9  1  0.00000000  0.23448000  0.00000000  1.0 0.5085079143
C  C10  1  0.00000000  0.76552000  0.00000000  1.0 0.5085079143
C  C11  1  0.76552000  0.00000000  0.23448000  1.0 0.5085079143
C  C12  1  0.23448000  0.00000000  0.76552000  1.0 0.5085079143
C  C13  1  0.00000000  0.00000000  0.31334000  1.0 -0.056016777
C  C14  1  0.00000000  0.00000000  0.68666000  1.0 -0.056016777
C  C15  1  0.31334000  0.68666000  0.00000000  1.0 -0.056016777
C  C16  1  0.68666000  0.31334000  0.00000000  1.0 -0.056016777
C  C17  1  0.31334000  0.00000000  0.00000000  1.0 -0.056016777
C  C18  1  0.68666000  0.00000000  0.00000000  1.0 -0.056016777
C  C19  1  0.00000000  0.31334000  0.68666000  1.0 -0.056016777
C  C20  1  0.00000000  0.68666000  0.31334000  1.0 -0.056016777
C  C21  1  0.00000000  0.31334000  0.00000000  1.0 -0.056016777
C  C22  1  0.00000000  0.68666000  0.00000000  1.0 -0.056016777
C  C23  1  0.68666000  0.00000000  0.31334000  1.0 -0.056016777
C  C24  1  0.31334000  0.00000000  0.68666000  1.0 -0.056016777
C  C25  1  0.00000000  0.00000000  0.46078000  1.0 -0.0117816742
C  C26  1  0.00000000  0.00000000  0.53922000  1.0 -0.0117816742
C  C27  1  0.46078000  0.53922000  0.00000000  1.0 -0.0117816742
C  C28  1  0.53922000  0.46078000  0.00000000  1.0 -0.0117816742
C  C29  1  0.46078000  0.00000000  0.00000000  1.0 -0.0117816742
C  C30  1  0.53922000  0.00000000  0.00000000  1.0 -0.0117816742
C  C31  1  0.00000000  0.46078000  0.53922000  1.0 -0.0117816742
C  C32  1  0.00000000  0.53922000  0.46078000  1.0 -0.0117816742
C  C33  1  0.00000000  0.46078000  0.00000000  1.0 -0.0117816742
C  C34  1  0.00000000  0.53922000  0.00000000  1.0 -0.0117816742
C  C35  1  0.53922000  0.00000000  0.46078000  1.0 -0.0117816742
C  C36  1  0.46078000  0.00000000  0.53922000  1.0 -0.0117816742
C  C37  1  0.04555000  0.92705000  0.43737000  1.0 0.0110858831
C  C38  1  0.92705000  0.04555000  0.59003000  1.0 0.0110858831
C  C39  1  0.43737000  0.59003000  0.04555000  1.0 0.0221698368
C  C40  1  0.59003000  0.43737000  0.92705000  1.0 0.0110858831
C  C41  1  0.43737000  0.04555000  0.92705000  1.0 0.0110858831
C  C42  1  0.59003000  0.92705000  0.04555000  1.0 0.0110858831
C  C43  1  0.04555000  0.43737000  0.59003000  1.0 0.0110858831
C  C44  1  0.92705000  0.59003000  0.43737000  1.0 0.0110858831
C  C45  1  0.92705000  0.43737000  0.04555000  1.0 0.0221698368
C  C46  1  0.04555000  0.59003000  0.92705000  1.0 0.0110858831
C  C47  1  0.59003000  0.04555000  0.43737000  1.0 0.0110858831
C  C48  1  0.43737000  0.92705000  0.59003000  1.0 0.0110858831
C  C49  1  0.95445000  0.07295000  0.40997000  1.0 0.0110858831
C  C50  1  0.07295000  0.95445000  0.56263000  1.0 0.0110858831
C  C51  1  0.56263000  0.40997000  0.07295000  1.0 0.0110858831
C  C52  1  0.40997000  0.56263000  0.95445000  1.0 0.0110858831
C  C53  1  0.56263000  0.95445000  0.40997000  1.0 0.0110858831
C  C54  1  0.40997000  0.07295000  0.56263000  1.0 0.0110858831
C  C55  1  0.95445000  0.56263000  0.07295000  1.0 0.0221698368
C  C56  1  0.07295000  0.40997000  0.95445000  1.0 0.0110858831
C  C57  1  0.07295000  0.56263000  0.40997000  1.0 0.0110858831
C  C58  1  0.95445000  0.40997000  0.56263000  1.0 0.0110858831
C  C59  1  0.40997000  0.95445000  0.07295000  1.0 0.0110858831
C  C60  1  0.56263000  0.07295000  0.95445000  1.0 0.0110858831
C  C61  1  0.95445000  0.07295000  0.56263000  1.0 0.0110858831
C  C62  1  0.07295000  0.95445000  0.40997000  1.0 0.0110858831
C  C63  1  0.56263000  0.40997000  0.95445000  1.0 0.0110858831
C  C64  1  0.40997000  0.56263000  0.07295000  1.0 0.0110858831
C  C65  1  0.56263000  0.95445000  0.07295000  1.0 0.0110858831
C  C66  1  0.40997000  0.07295000  0.95445000  1.0 0.0110858831
C  C67  1  0.95445000  0.56263000  0.40997000  1.0 0.0221698368
C  C68  1  0.07295000  0.40997000  0.56263000  1.0 0.0110858831
C  C69  1  0.07295000  0.56263000  0.95445000  1.0 0.0110858831
C  C70  1  0.95445000  0.40997000  0.07295000  1.0 0.0110858831
C  C71  1  0.40997000  0.95445000  0.56263000  1.0 0.0110858831
C  C72  1  0.56263000  0.07295000  0.40997000  1.0 0.0110858831
C  C73  1  0.04555000  0.92705000  0.59003000  1.0 0.0110858831
C  C74  1  0.92705000  0.04555000  0.43737000  1.0 0.0110858831
C  C75  1  0.43737000  0.59003000  0.92705000  1.0 0.0110858831
C  C76  1  0.59003000  0.43737000  0.04555000  1.0 0.0110858831
C  C77  1  0.43737000  0.04555000  0.59003000  1.0 0.0110858831
C  C78  1  0.59003000  0.92705000  0.43737000  1.0 0.0110858831
C  C79  1  0.04555000  0.43737000  0.92705000  1.0 0.0110858831
C  C80  1  0.92705000  0.59003000  0.04555000  1.0 0.0110858831
C  C81  1  0.92705000  0.43737000  0.59003000  1.0 0.0110858831
C  C82  1  0.04555000  0.59003000  0.43737000  1.0 0.0110858831
C  C83  1  0.59003000  0.04555000  0.92705000  1.0 0.0110858831
C  C84  1  0.43737000  0.92705000  0.04555000  1.0 0.0221698368
C  C85  1  0.04628000  0.92612000  0.36404000  1.0 -0.0022966793
C  C86  1  0.92612000  0.04628000  0.66356000  1.0 -0.0022966793
C  C87  1  0.36404000  0.66356000  0.04628000  1.0 -0.0022966793
C  C88  1  0.66356000  0.36404000  0.92612000  1.0 -0.0022966793
C  C89  1  0.36404000  0.04628000  0.92612000  1.0 -0.0022966793
C  C90  1  0.66356000  0.92612000  0.04628000  1.0 -0.0022966793
C  C91  1  0.04628000  0.36404000  0.66356000  1.0 -0.0022966793
C  C92  1  0.92612000  0.66356000  0.36404000  1.0 -0.0022966793
C  C93  1  0.92612000  0.36404000  0.04628000  1.0 -0.0022966793
C  C94  1  0.04628000  0.66356000  0.92612000  1.0 -0.0022966793
C  C95  1  0.66356000  0.04628000  0.36404000  1.0 -0.0022966793
C  C96  1  0.36404000  0.92612000  0.66356000  1.0 -0.0022966793
C  C97  1  0.95372000  0.07388000  0.33644000  1.0 -0.0022966793
C  C98  1  0.07388000  0.95372000  0.63596000  1.0 -0.0022966793
C  C99  1  0.63596000  0.33644000  0.07388000  1.0 -0.0022966793
C  C100  1  0.33644000  0.63596000  0.95372000  1.0 -0.0022966793
C  C101  1  0.63596000  0.95372000  0.33644000  1.0 -0.0022966793
C  C102  1  0.33644000  0.07388000  0.63596000  1.0 -0.0022966793
C  C103  1  0.95372000  0.63596000  0.07388000  1.0 -0.0022966793
C  C104  1  0.07388000  0.33644000  0.95372000  1.0 -0.0022966793
C  C105  1  0.07388000  0.63596000  0.33644000  1.0 -0.0022966793
C  C106  1  0.95372000  0.33644000  0.63596000  1.0 -0.0022966793
C  C107  1  0.33644000  0.95372000  0.07388000  1.0 0.0003601704
C  C108  1  0.63596000  0.07388000  0.95372000  1.0 -0.0022966793
C  C109  1  0.95372000  0.07388000  0.63596000  1.0 -0.0022966793
C  C110  1  0.07388000  0.95372000  0.33644000  1.0 -0.0022966793
C  C111  1  0.63596000  0.33644000  0.95372000  1.0 -0.0022966793
C  C112  1  0.33644000  0.63596000  0.07388000  1.0 -0.0022966793
C  C113  1  0.63596000  0.95372000  0.07388000  1.0 0.0003601704
C  C114  1  0.33644000  0.07388000  0.95372000  1.0 -0.0022966793
C  C115  1  0.95372000  0.63596000  0.33644000  1.0 -0.0022966793
C  C116  1  0.07388000  0.33644000  0.63596000  1.0 -0.0022966793
C  C117  1  0.07388000  0.63596000  0.95372000  1.0 -0.0022966793
C  C118  1  0.95372000  0.33644000  0.07388000  1.0 -0.0022966793
C  C119  1  0.33644000  0.95372000  0.63596000  1.0 -0.0022966793
C  C120  1  0.63596000  0.07388000  0.33644000  1.0 -0.0022966793
C  C121  1  0.04628000  0.92612000  0.66356000  1.0 -0.0022966793
C  C122  1  0.92612000  0.04628000  0.36404000  1.0 -0.0022966793
C  C123  1  0.36404000  0.66356000  0.92612000  1.0 -0.0022966793
C  C124  1  0.66356000  0.36404000  0.04628000  1.0 -0.0022966793
C  C125  1  0.36404000  0.04628000  0.66356000  1.0 -0.0022966793
C  C126  1  0.66356000  0.92612000  0.36404000  1.0 -0.0022966793
C  C127  1  0.04628000  0.36404000  0.92612000  1.0 -0.0022966793
C  C128  1  0.92612000  0.66356000  0.04628000  1.0 -0.0022966793
C  C129  1  0.92612000  0.36404000  0.66356000  1.0 -0.0022966793
C  C130  1  0.04628000  0.66356000  0.36404000  1.0 -0.0022966793
C  C131  1  0.66356000  0.04628000  0.92612000  1.0 -0.0022966793
C  C132  1  0.36404000  0.92612000  0.04628000  1.0 -0.0022966793
C  C133  1  0.09980000  0.83160000  0.35260000  1.0 0.0221698368
C  C134  1  0.83160000  0.09980000  0.71600000  1.0 0.0258668655
C  C135  1  0.35260000  0.71600000  0.09980000  1.0 0.0221698368
C  C136  1  0.71600000  0.35260000  0.83160000  1.0 0.0258668655
C  C137  1  0.35260000  0.09980000  0.83160000  1.0 0.0258668655
C  C138  1  0.71600000  0.83160000  0.09980000  1.0 0.0221698368
C  C139  1  0.09980000  0.35260000  0.71600000  1.0 0.0258668655
C  C140  1  0.83160000  0.71600000  0.35260000  1.0 0.0221698368
C  C141  1  0.83160000  0.35260000  0.09980000  1.0 0.0221698368
C  C142  1  0.09980000  0.71600000  0.83160000  1.0 0.0221698368
C  C143  1  0.71600000  0.09980000  0.35260000  1.0 0.0221698368
C  C144  1  0.35260000  0.83160000  0.71600000  1.0 0.0221698368
C  C145  1  0.90020000  0.16840000  0.28400000  1.0 0.0221698368
C  C146  1  0.16840000  0.90020000  0.64740000  1.0 0.0221698368
C  C147  1  0.64740000  0.28400000  0.16840000  1.0 0.0221698368
C  C148  1  0.28400000  0.64740000  0.90020000  1.0 0.0258668655
C  C149  1  0.64740000  0.90020000  0.28400000  1.0 0.0221698368
C  C150  1  0.28400000  0.16840000  0.64740000  1.0 0.0221698368
C  C151  1  0.90020000  0.64740000  0.16840000  1.0 0.0221698368
C  C152  1  0.16840000  0.28400000  0.90020000  1.0 0.0221698368
C  C153  1  0.16840000  0.64740000  0.28400000  1.0 0.0221698368
C  C154  1  0.90020000  0.28400000  0.64740000  1.0 0.0221698368
C  C155  1  0.28400000  0.90020000  0.16840000  1.0 0.0221698368
C  C156  1  0.64740000  0.16840000  0.90020000  1.0 0.0258668655
C  C157  1  0.90020000  0.16840000  0.64740000  1.0 0.0221698368
C  C158  1  0.16840000  0.90020000  0.28400000  1.0 0.0221698368
C  C159  1  0.64740000  0.28400000  0.90020000  1.0 0.0221698368
C  C160  1  0.28400000  0.64740000  0.16840000  1.0 0.0221698368
C  C161  1  0.64740000  0.90020000  0.16840000  1.0 0.0221698368
C  C162  1  0.28400000  0.16840000  0.90020000  1.0 0.0258668655
C  C163  1  0.90020000  0.64740000  0.28400000  1.0 0.0221698368
C  C164  1  0.16840000  0.28400000  0.64740000  1.0 0.0221698368
C  C165  1  0.16840000  0.64740000  0.90020000  1.0 0.0221698368
C  C166  1  0.90020000  0.28400000  0.16840000  1.0 0.0221698368
C  C167  1  0.28400000  0.90020000  0.64740000  1.0 0.0221698368
C  C168  1  0.64740000  0.16840000  0.28400000  1.0 0.0221698368
C  C169  1  0.09980000  0.83160000  0.71600000  1.0 0.0221698368
C  C170  1  0.83160000  0.09980000  0.35260000  1.0 0.0221698368
C  C171  1  0.35260000  0.71600000  0.83160000  1.0 0.0258668655
C  C172  1  0.71600000  0.35260000  0.09980000  1.0 0.0221698368
C  C173  1  0.35260000  0.09980000  0.71600000  1.0 0.0258668655
C  C174  1  0.71600000  0.83160000  0.35260000  1.0 0.0221698368
C  C175  1  0.09980000  0.35260000  0.83160000  1.0 0.0258668655
C  C176  1  0.83160000  0.71600000  0.09980000  1.0 0.0221698368
C  C177  1  0.83160000  0.35260000  0.71600000  1.0 0.0258668655
C  C178  1  0.09980000  0.71600000  0.35260000  1.0 0.0221698368
C  C179  1  0.71600000  0.09980000  0.83160000  1.0 0.0258668655
C  C180  1  0.35260000  0.83160000  0.09980000  1.0 0.0221698368
O  O1  1  0.05935000  0.94065000  0.20407000  1.0 -0.5805681329
O  O2  1  0.94065000  0.05935000  0.79593000  1.0 -0.5805681329
O  O3  1  0.20407000  0.79593000  0.05935000  1.0 -0.5805681329
O  O4  1  0.79593000  0.20407000  0.94065000  1.0 -0.5805681329
O  O5  1  0.20407000  0.05935000  0.94065000  1.0 -0.5805681329
O  O6  1  0.79593000  0.94065000  0.05935000  1.0 -0.5805681329
O  O7  1  0.05935000  0.20407000  0.79593000  1.0 -0.5805681329
O  O8  1  0.94065000  0.79593000  0.20407000  1.0 -0.5805681329
O  O9  1  0.94065000  0.20407000  0.05935000  1.0 -0.5805681329
O  O10  1  0.05935000  0.79593000  0.94065000  1.0 -0.5805681329
O  O11  1  0.79593000  0.05935000  0.20407000  1.0 -0.5805681329
O  O12  1  0.20407000  0.94065000  0.79593000  1.0 -0.5805681329
O  O13  1  0.94065000  0.05935000  0.20407000  1.0 -0.5805681329
O  O14  1  0.05935000  0.94065000  0.79593000  1.0 -0.5805681329
O  O15  1  0.79593000  0.20407000  0.05935000  1.0 -0.5805681329
O  O16  1  0.20407000  0.79593000  0.94065000  1.0 -0.5805681329
O  O17  1  0.79593000  0.94065000  0.20407000  1.0 -0.5805681329
O  O18  1  0.20407000  0.05935000  0.79593000  1.0 -0.5805681329
O  O19  1  0.94065000  0.79593000  0.05935000  1.0 -0.5805681329
O  O20  1  0.05935000  0.20407000  0.94065000  1.0 -0.5805681329
O  O21  1  0.05935000  0.79593000  0.20407000  1.0 -0.5805681329
O  O22  1  0.94065000  0.20407000  0.79593000  1.0 -0.5805681329
O  O23  1  0.20407000  0.94065000  0.05935000  1.0 -0.5805681329
O  O24  1  0.79593000  0.05935000  0.94065000  1.0 -0.5805681329
O  O25  1  0.03865000  0.88405000  0.03865000  1.0 -0.3454452436
O  O26  1  0.88405000  0.03865000  0.03865000  1.0 -0.3443166297
O  O27  1  0.03865000  0.03865000  0.03865000  1.0 -0.3454452436
O  O28  1  0.03865000  0.03865000  0.88405000  1.0 -0.3454452436
O  O29  1  0.96135000  0.11595000  0.96135000  1.0 -0.3443166297
O  O30  1  0.11595000  0.96135000  0.96135000  1.0 -0.3454452436
O  O31  1  0.96135000  0.96135000  0.11595000  1.0 -0.3443166297
O  O32  1  0.96135000  0.96135000  0.96135000  1.0 -0.3443166297
O  O33  1  0.05189000  0.84433000  0.05189000  1.0 -0.2785581182
O  O34  1  0.84433000  0.05189000  0.05189000  1.0 -0.2785581182
O  O35  1  0.05189000  0.05189000  0.05189000  1.0 -0.2785581182
O  O36  1  0.05189000  0.05189000  0.84433000  1.0 -0.2785581182
O  O37  1  0.94811000  0.15567000  0.94811000  1.0 -0.2785581182
O  O38  1  0.15567000  0.94811000  0.94811000  1.0 -0.2785581182
O  O39  1  0.94811000  0.94811000  0.15567000  1.0 -0.2785581182
O  O40  1  0.94811000  0.94811000  0.94811000  1.0 -0.2785581182
