# DDEC6 charges by PACMAN v1.1 (https://github.com/mtap-research/PACMAN-charge/)
data_QAJKAO_FSR_pacman
_symmetry_space_group_name_H-M   'P 1'
_cell_length_a   13.46780000
_cell_length_b   13.46780000
_cell_length_c   18.31710000
_cell_angle_alpha   90.00000000
_cell_angle_beta   90.00000000
_cell_angle_gamma   120.00000000
_symmetry_Int_Tables_number   1
_chemical_formula_structural   V4P7H13O24
_chemical_formula_sum   'V16 P28 H52 O96'
_cell_volume   2877.27031359
_cell_formula_units_Z   4
loop_
 _symmetry_equiv_pos_site_id
 _symmetry_equiv_pos_as_xyz
  1  'x, y, z'
loop_
 _atom_site_type_symbol
 _atom_site_label
 _atom_site_symmetry_multiplicity
 _atom_site_fract_x
 _atom_site_fract_y
 _atom_site_fract_z
 _atom_site_occupancy
 _atom_site_charge
V  V1  1  0.43529000  0.14332000  0.45823000  1.0 1.8018978308
V  V2  1  0.85668000  0.29197000  0.45823000  1.0 1.8018978308
V  V3  1  0.70803000  0.56471000  0.45823000  1.0 1.8018978308
V  V4  1  0.14332000  0.43529000  0.04177000  1.0 1.8018978308
V  V5  1  0.70803000  0.14332000  0.95823000  1.0 1.8018978308
V  V6  1  0.43529000  0.29197000  0.95823000  1.0 1.8018978308
V  V7  1  0.56471000  0.85668000  0.54177000  1.0 1.8018978308
V  V8  1  0.14332000  0.70803000  0.54177000  1.0 1.8018978308
V  V9  1  0.29197000  0.43529000  0.54177000  1.0 1.8018978308
V  V10  1  0.85668000  0.56471000  0.95823000  1.0 1.8018978308
V  V11  1  0.29197000  0.85668000  0.04177000  1.0 1.8018978308
V  V12  1  0.56471000  0.70803000  0.04177000  1.0 1.8018978308
V  V13  1  0.00000000  0.00000000  0.50000000  1.0 1.7811657061
V  V14  1  0.00000000  0.00000000  0.00000000  1.0 1.7811657061
V  V15  1  0.00000000  0.00000000  0.25000000  1.0 1.8229974379
V  V16  1  0.00000000  0.00000000  0.75000000  1.0 1.8229974379
P  P1  1  0.18832000  0.02928000  0.37115000  1.0 1.3059391305
P  P2  1  0.97072000  0.15904000  0.37115000  1.0 1.3059391305
P  P3  1  0.84096000  0.81168000  0.37115000  1.0 1.3059391305
P  P4  1  0.02928000  0.18832000  0.12885000  1.0 1.3059391305
P  P5  1  0.84096000  0.02928000  0.87115000  1.0 1.3059391305
P  P6  1  0.18832000  0.15904000  0.87115000  1.0 1.3059391305
P  P7  1  0.81168000  0.97072000  0.62885000  1.0 1.3059391305
P  P8  1  0.02928000  0.84096000  0.62885000  1.0 1.3039117923
P  P9  1  0.15904000  0.18832000  0.62885000  1.0 1.3059391305
P  P10  1  0.97072000  0.81168000  0.87115000  1.0 1.3059391305
P  P11  1  0.15904000  0.97072000  0.12885000  1.0 1.3059391305
P  P12  1  0.81168000  0.84096000  0.12885000  1.0 1.3059391305
P  P13  1  0.49605000  0.36972000  0.55432000  1.0 1.3485671948
P  P14  1  0.63028000  0.12633000  0.55432000  1.0 1.3485671948
P  P15  1  0.87367000  0.50395000  0.55432000  1.0 1.3485671948
P  P16  1  0.36972000  0.49605000  0.94568000  1.0 1.3485671948
P  P17  1  0.87367000  0.36972000  0.05432000  1.0 1.3485671948
P  P18  1  0.49605000  0.12633000  0.05432000  1.0 1.3485671948
P  P19  1  0.50395000  0.63028000  0.44568000  1.0 1.3485671948
P  P20  1  0.36972000  0.87367000  0.44568000  1.0 1.3485671948
P  P21  1  0.12633000  0.49605000  0.44568000  1.0 1.3485671948
P  P22  1  0.63028000  0.50395000  0.05432000  1.0 1.3485671948
P  P23  1  0.12633000  0.63028000  0.94568000  1.0 1.3485671948
P  P24  1  0.50395000  0.87367000  0.94568000  1.0 1.3485671948
P  P25  1  0.66666667  0.33333333  0.36331000  1.0 1.3157256117
P  P26  1  0.33333333  0.66666667  0.13669000  1.0 1.3157256117
P  P27  1  0.66666667  0.33333333  0.86331000  1.0 1.3157256117
P  P28  1  0.33333333  0.66666667  0.63669000  1.0 1.3157256117
H  H1  1  0.19300000  0.93200000  0.34700000  1.0 -0.1232997393
H  H2  1  0.06800000  0.26100000  0.34700000  1.0 -0.1232997393
H  H3  1  0.73900000  0.80700000  0.34700000  1.0 -0.1232997393
H  H4  1  0.93200000  0.19300000  0.15300000  1.0 -0.1232997393
H  H5  1  0.73900000  0.93200000  0.84700000  1.0 -0.1232997393
H  H6  1  0.19300000  0.26100000  0.84700000  1.0 -0.1232997393
H  H7  1  0.80700000  0.06800000  0.65300000  1.0 -0.1232997393
H  H8  1  0.93200000  0.73900000  0.65300000  1.0 -0.1232997393
H  H9  1  0.26100000  0.19300000  0.65300000  1.0 -0.1232997393
H  H10  1  0.06800000  0.80700000  0.84700000  1.0 -0.1232997393
H  H11  1  0.26100000  0.06800000  0.15300000  1.0 -0.1232997393
H  H12  1  0.80700000  0.73900000  0.15300000  1.0 -0.1232997393
H  H13  1  0.50100000  0.31300000  0.62000000  1.0 -0.1232997393
H  H14  1  0.68700000  0.18800000  0.62000000  1.0 -0.1260036061
H  H15  1  0.81200000  0.49900000  0.62000000  1.0 -0.1232997393
H  H16  1  0.31300000  0.50100000  0.88000000  1.0 -0.1260036061
H  H17  1  0.81200000  0.31300000  0.12000000  1.0 -0.1232997393
H  H18  1  0.50100000  0.18800000  0.12000000  1.0 -0.1232997393
H  H19  1  0.49900000  0.68700000  0.38000000  1.0 -0.1232997393
H  H20  1  0.31300000  0.81200000  0.38000000  1.0 -0.1232997393
H  H21  1  0.18800000  0.50100000  0.38000000  1.0 -0.1232997393
H  H22  1  0.68700000  0.49900000  0.12000000  1.0 -0.1260036061
H  H23  1  0.18800000  0.68700000  0.88000000  1.0 -0.1232997393
H  H24  1  0.49900000  0.81200000  0.88000000  1.0 -0.1232997393
H  H25  1  0.66666667  0.33333333  0.29123000  1.0 -0.1089626009
H  H26  1  0.33333333  0.66666667  0.20877000  1.0 -0.1089626009
H  H27  1  0.66666667  0.33333333  0.79123000  1.0 -0.1089626009
H  H28  1  0.33333333  0.66666667  0.70877000  1.0 -0.1089626009
H  H29  1  0.28400000  0.99300000  0.53200000  1.0 0.3605209249
H  H30  1  0.00700000  0.29100000  0.53200000  1.0 0.3605209249
H  H31  1  0.70900000  0.71600000  0.53200000  1.0 0.3605209249
H  H32  1  0.99300000  0.28400000  0.96800000  1.0 0.3605209249
H  H33  1  0.70900000  0.99300000  0.03200000  1.0 0.3605209249
H  H34  1  0.28400000  0.29100000  0.03200000  1.0 0.3605209249
H  H35  1  0.71600000  0.00700000  0.46800000  1.0 0.3605209249
H  H36  1  0.99300000  0.70900000  0.46800000  1.0 0.3605209249
H  H37  1  0.29100000  0.28400000  0.46800000  1.0 0.3605209249
H  H38  1  0.00700000  0.71600000  0.03200000  1.0 0.3605209249
H  H39  1  0.29100000  0.00700000  0.96800000  1.0 0.3605209249
H  H40  1  0.71600000  0.70900000  0.96800000  1.0 0.3605209249
H  H41  1  0.25790000  0.07120000  0.54460000  1.0 0.3605209249
H  H42  1  0.92880000  0.18670000  0.54460000  1.0 0.3605209249
H  H43  1  0.81330000  0.74210000  0.54460000  1.0 0.3605209249
H  H44  1  0.07120000  0.25790000  0.95540000  1.0 0.3605209249
H  H45  1  0.81330000  0.07120000  0.04460000  1.0 0.3605209249
H  H46  1  0.25790000  0.18670000  0.04460000  1.0 0.3605209249
H  H47  1  0.74210000  0.92880000  0.45540000  1.0 0.3605209249
H  H48  1  0.07120000  0.81330000  0.45540000  1.0 0.3605209249
H  H49  1  0.18670000  0.25790000  0.45540000  1.0 0.3605209249
H  H50  1  0.92880000  0.74210000  0.04460000  1.0 0.3605209249
H  H51  1  0.18670000  0.92880000  0.95540000  1.0 0.3605209249
H  H52  1  0.74210000  0.81330000  0.95540000  1.0 0.3605209249
O  O1  1  0.30880000  0.12400000  0.39168000  1.0 -0.7594998235
O  O2  1  0.87600000  0.18480000  0.39168000  1.0 -0.7594998235
O  O3  1  0.81520000  0.69120000  0.39168000  1.0 -0.7594998235
O  O4  1  0.12400000  0.30880000  0.10832000  1.0 -0.7594998235
O  O5  1  0.81520000  0.12400000  0.89168000  1.0 -0.7594998235
O  O6  1  0.30880000  0.18480000  0.89168000  1.0 -0.7594998235
O  O7  1  0.69120000  0.87600000  0.60832000  1.0 -0.7594998235
O  O8  1  0.12400000  0.81520000  0.60832000  1.0 -0.7594998235
O  O9  1  0.18480000  0.30880000  0.60832000  1.0 -0.7594998235
O  O10  1  0.87600000  0.69120000  0.89168000  1.0 -0.7594998235
O  O11  1  0.18480000  0.87600000  0.10832000  1.0 -0.7594998235
O  O12  1  0.69120000  0.81520000  0.10832000  1.0 -0.7594998235
O  O13  1  0.43310000  0.28250000  0.49394000  1.0 -0.7680022464
O  O14  1  0.71750000  0.15060000  0.49394000  1.0 -0.7680022464
O  O15  1  0.84940000  0.56690000  0.49394000  1.0 -0.7680022464
O  O16  1  0.28250000  0.43310000  0.00606000  1.0 -0.7680022464
O  O17  1  0.84940000  0.28250000  0.99394000  1.0 -0.7680022464
O  O18  1  0.43310000  0.15060000  0.99394000  1.0 -0.7680022464
O  O19  1  0.56690000  0.71750000  0.50606000  1.0 -0.7680022464
O  O20  1  0.28250000  0.84940000  0.50606000  1.0 -0.7680022464
O  O21  1  0.15060000  0.43310000  0.50606000  1.0 -0.7680022464
O  O22  1  0.71750000  0.56690000  0.99394000  1.0 -0.7680022464
O  O23  1  0.15060000  0.71750000  0.00606000  1.0 -0.7680022464
O  O24  1  0.56690000  0.84940000  0.00606000  1.0 -0.7680022464
O  O25  1  0.61910000  0.45330000  0.53504000  1.0 -0.7680022464
O  O26  1  0.54670000  0.16580000  0.53504000  1.0 -0.7680022464
O  O27  1  0.83420000  0.38090000  0.53504000  1.0 -0.7680022464
O  O28  1  0.45330000  0.61910000  0.96496000  1.0 -0.7680022464
O  O29  1  0.83420000  0.45330000  0.03504000  1.0 -0.7680022464
O  O30  1  0.61910000  0.16580000  0.03504000  1.0 -0.7680022464
O  O31  1  0.38090000  0.54670000  0.46496000  1.0 -0.7680022464
O  O32  1  0.45330000  0.83420000  0.46496000  1.0 -0.7680022464
O  O33  1  0.16580000  0.61910000  0.46496000  1.0 -0.7680022464
O  O34  1  0.54670000  0.38090000  0.03504000  1.0 -0.7680022464
O  O35  1  0.16580000  0.54670000  0.96496000  1.0 -0.7680022464
O  O36  1  0.38090000  0.83420000  0.96496000  1.0 -0.7680022464
O  O37  1  0.42850000  0.42750000  0.57650000  1.0 -0.7680022464
O  O38  1  0.57250000  0.00100000  0.57650000  1.0 -0.7680022464
O  O39  1  0.99900000  0.57150000  0.57650000  1.0 -0.7680022464
O  O40  1  0.42750000  0.42850000  0.92350000  1.0 -0.7680022464
O  O41  1  0.99900000  0.42750000  0.07650000  1.0 -0.7680022464
O  O42  1  0.42850000  0.00100000  0.07650000  1.0 -0.7680022464
O  O43  1  0.57150000  0.57250000  0.42350000  1.0 -0.7680022464
O  O44  1  0.42750000  0.99900000  0.42350000  1.0 -0.7680022464
O  O45  1  0.00100000  0.42850000  0.42350000  1.0 -0.7680022464
O  O46  1  0.57250000  0.57150000  0.07650000  1.0 -0.7680022464
O  O47  1  0.00100000  0.57250000  0.92350000  1.0 -0.7680022464
O  O48  1  0.57150000  0.99900000  0.92350000  1.0 -0.7680022464
O  O49  1  0.55290000  0.22760000  0.38396000  1.0 -0.7258586152
O  O50  1  0.77240000  0.32530000  0.38396000  1.0 -0.7258586152
O  O51  1  0.67470000  0.44710000  0.38396000  1.0 -0.7258586152
O  O52  1  0.22760000  0.55290000  0.11604000  1.0 -0.7258586152
O  O53  1  0.67470000  0.22760000  0.88396000  1.0 -0.7258586152
O  O54  1  0.55290000  0.32530000  0.88396000  1.0 -0.7258586152
O  O55  1  0.44710000  0.77240000  0.61604000  1.0 -0.7258586152
O  O56  1  0.22760000  0.67470000  0.61604000  1.0 -0.7247281203
O  O57  1  0.32530000  0.55290000  0.61604000  1.0 -0.7258586152
O  O58  1  0.77240000  0.44710000  0.88396000  1.0 -0.7247281203
O  O59  1  0.32530000  0.77240000  0.11604000  1.0 -0.7258586152
O  O60  1  0.44710000  0.67470000  0.11604000  1.0 -0.7247281203
O  O61  1  0.31040000  0.05460000  0.53795000  1.0 -0.601877583
O  O62  1  0.94540000  0.25580000  0.53795000  1.0 -0.601877583
O  O63  1  0.74420000  0.68960000  0.53795000  1.0 -0.601877583
O  O64  1  0.05460000  0.31040000  0.96205000  1.0 -0.601877583
O  O65  1  0.74420000  0.05460000  0.03795000  1.0 -0.601877583
O  O66  1  0.31040000  0.25580000  0.03795000  1.0 -0.601877583
O  O67  1  0.68960000  0.94540000  0.46205000  1.0 -0.601877583
O  O68  1  0.05460000  0.74420000  0.46205000  1.0 -0.601877583
O  O69  1  0.25580000  0.31040000  0.46205000  1.0 -0.601877583
O  O70  1  0.94540000  0.68960000  0.03795000  1.0 -0.601877583
O  O71  1  0.25580000  0.94540000  0.96205000  1.0 -0.601877583
O  O72  1  0.68960000  0.74420000  0.96205000  1.0 -0.601877583
O  O73  1  0.11150000  0.97860000  0.43833000  1.0 -0.7824898491
O  O74  1  0.02140000  0.13290000  0.43833000  1.0 -0.7824898491
O  O75  1  0.86710000  0.88850000  0.43833000  1.0 -0.7824898491
O  O76  1  0.97860000  0.11150000  0.06167000  1.0 -0.7824898491
O  O77  1  0.86710000  0.97860000  0.93833000  1.0 -0.7824898491
O  O78  1  0.11150000  0.13290000  0.93833000  1.0 -0.7824898491
O  O79  1  0.88850000  0.02140000  0.56167000  1.0 -0.7824898491
O  O80  1  0.97860000  0.86710000  0.56167000  1.0 -0.7824898491
O  O81  1  0.13290000  0.11150000  0.56167000  1.0 -0.7824898491
O  O82  1  0.02140000  0.88850000  0.93833000  1.0 -0.7824898491
O  O83  1  0.13290000  0.02140000  0.06167000  1.0 -0.7824898491
O  O84  1  0.88850000  0.86710000  0.06167000  1.0 -0.7824898491
O  O85  1  0.14110000  0.07480000  0.31273000  1.0 -0.7594998235
O  O86  1  0.92520000  0.06630000  0.31273000  1.0 -0.7594998235
O  O87  1  0.93370000  0.85890000  0.31273000  1.0 -0.7594998235
O  O88  1  0.07480000  0.14110000  0.18727000  1.0 -0.7594998235
O  O89  1  0.93370000  0.07480000  0.81273000  1.0 -0.7594998235
O  O90  1  0.14110000  0.06630000  0.81273000  1.0 -0.7594998235
O  O91  1  0.85890000  0.92520000  0.68727000  1.0 -0.7594998235
O  O92  1  0.07480000  0.93370000  0.68727000  1.0 -0.7594998235
O  O93  1  0.06630000  0.14110000  0.68727000  1.0 -0.7594998235
O  O94  1  0.92520000  0.85890000  0.81273000  1.0 -0.7594998235
O  O95  1  0.06630000  0.92520000  0.18727000  1.0 -0.7594998235
O  O96  1  0.85890000  0.93370000  0.18727000  1.0 -0.7594998235
