# DDEC6 charges by PACMAN v1.1 (https://github.com/mtap-research/PACMAN-charge/)
data_QAKFIU_ion_pacman
_symmetry_space_group_name_H-M   'P 1'
_cell_length_a   7.52660000
_cell_length_b   17.41300000
_cell_length_c   27.84100000
_cell_angle_alpha   90.00000000
_cell_angle_beta   90.00000000
_cell_angle_gamma   90.00000000
_symmetry_Int_Tables_number   1
_chemical_formula_structural   ZnH11C18N3O8
_chemical_formula_sum   'Zn8 H88 C144 N24 O64'
_cell_volume   3648.86055336
_cell_formula_units_Z   8
loop_
 _symmetry_equiv_pos_site_id
 _symmetry_equiv_pos_as_xyz
  1  'x, y, z'
loop_
 _atom_site_type_symbol
 _atom_site_label
 _atom_site_symmetry_multiplicity
 _atom_site_fract_x
 _atom_site_fract_y
 _atom_site_fract_z
 _atom_site_occupancy
 _atom_site_charge
Zn  Zn1  1  0.19368000  0.73386000  0.40253000  1.0 0.831764815
Zn  Zn2  1  0.30632000  0.26614000  0.90253000  1.0 0.831764815
Zn  Zn3  1  0.69368000  0.76614000  0.90253000  1.0 0.831764815
Zn  Zn4  1  0.80632000  0.23386000  0.40253000  1.0 0.831764815
Zn  Zn5  1  0.30632000  0.23386000  0.09747000  1.0 0.831764815
Zn  Zn6  1  0.19368000  0.76614000  0.59747000  1.0 0.831764815
Zn  Zn7  1  0.80632000  0.26614000  0.59747000  1.0 0.831764815
Zn  Zn8  1  0.69368000  0.73386000  0.09747000  1.0 0.831764815
H  H1  1  0.12740000  0.74110000  0.15170000  1.0 0.1381994697
H  H2  1  0.37260000  0.25890000  0.65170000  1.0 0.1381994697
H  H3  1  0.62740000  0.75890000  0.65170000  1.0 0.1381994697
H  H4  1  0.87260000  0.24110000  0.15170000  1.0 0.1381994697
H  H5  1  0.15510000  0.81390000  0.30410000  1.0 0.111566038
H  H6  1  0.34490000  0.18610000  0.80410000  1.0 0.111566038
H  H7  1  0.65510000  0.68610000  0.80410000  1.0 0.111566038
H  H8  1  0.84490000  0.31390000  0.30410000  1.0 0.111566038
H  H9  1  0.17170000  0.78220000  0.22400000  1.0 0.1285019383
H  H10  1  0.32830000  0.21780000  0.72400000  1.0 0.1285019383
H  H11  1  0.67170000  0.71780000  0.72400000  1.0 0.1285019383
H  H12  1  0.82830000  0.28220000  0.22400000  1.0 0.1285019383
H  H13  1  0.33810000  0.54020000  0.19360000  1.0 0.1381994697
H  H14  1  0.16190000  0.45980000  0.69360000  1.0 0.1381994697
H  H15  1  0.83810000  0.95980000  0.69360000  1.0 0.1381994697
H  H16  1  0.66190000  0.04020000  0.19360000  1.0 0.1381994697
H  H17  1  0.35130000  0.50260000  0.11480000  1.0 0.1285019383
H  H18  1  0.14870000  0.49740000  0.61480000  1.0 0.1285019383
H  H19  1  0.85130000  0.99740000  0.61480000  1.0 0.1285019383
H  H20  1  0.64870000  0.00260000  0.11480000  1.0 0.1285019383
H  H21  1  0.14000000  0.69880000  0.07340000  1.0 0.1381994697
H  H22  1  0.36000000  0.30120000  0.57340000  1.0 0.1381994697
H  H23  1  0.64000000  0.80120000  0.57340000  1.0 0.1381994697
H  H24  1  0.86000000  0.19880000  0.07340000  1.0 0.1381994697
H  H25  1  0.17710000  0.46650000  0.04730000  1.0 0.1381994697
H  H26  1  0.32290000  0.53350000  0.54730000  1.0 0.1381994697
H  H27  1  0.67710000  0.03350000  0.54730000  1.0 0.1381994697
H  H28  1  0.82290000  0.96650000  0.04730000  1.0 0.1381994697
H  H29  1  0.36550000  0.67620000  0.01400000  1.0 0.1490197532
H  H30  1  0.13450000  0.32380000  0.51400000  1.0 0.1490197532
H  H31  1  0.86550000  0.82380000  0.51400000  1.0 0.1490197532
H  H32  1  0.63450000  0.17620000  0.01400000  1.0 0.1490197532
H  H33  1  0.34690000  0.51090000  0.91320000  1.0 0.111566038
H  H34  1  0.15310000  0.48910000  0.41320000  1.0 0.111566038
H  H35  1  0.84690000  0.98910000  0.41320000  1.0 0.111566038
H  H36  1  0.65310000  0.01090000  0.91320000  1.0 0.111566038
H  H37  1  0.26550000  0.56470000  0.26250000  1.0 0.1285019383
H  H38  1  0.23450000  0.43530000  0.76250000  1.0 0.1285019383
H  H39  1  0.76550000  0.93530000  0.76250000  1.0 0.1285019383
H  H40  1  0.73450000  0.06470000  0.26250000  1.0 0.1285019383
H  H41  1  0.25430000  0.60190000  0.34100000  1.0 0.111566038
H  H42  1  0.24570000  0.39810000  0.84100000  1.0 0.111566038
H  H43  1  0.75430000  0.89810000  0.84100000  1.0 0.111566038
H  H44  1  0.74570000  0.10190000  0.34100000  1.0 0.111566038
H  H45  1  0.37260000  0.24110000  0.34830000  1.0 0.1381994697
H  H46  1  0.12740000  0.75890000  0.84830000  1.0 0.1381994697
H  H47  1  0.87260000  0.25890000  0.84830000  1.0 0.1381994697
H  H48  1  0.62740000  0.74110000  0.34830000  1.0 0.1381994697
H  H49  1  0.34490000  0.31390000  0.19590000  1.0 0.111566038
H  H50  1  0.15510000  0.68610000  0.69590000  1.0 0.111566038
H  H51  1  0.84490000  0.18610000  0.69590000  1.0 0.111566038
H  H52  1  0.65510000  0.81390000  0.19590000  1.0 0.111566038
H  H53  1  0.32830000  0.28220000  0.27600000  1.0 0.1285019383
H  H54  1  0.17170000  0.71780000  0.77600000  1.0 0.1285019383
H  H55  1  0.82830000  0.21780000  0.77600000  1.0 0.1285019383
H  H56  1  0.67170000  0.78220000  0.27600000  1.0 0.1285019383
H  H57  1  0.16190000  0.04020000  0.30640000  1.0 0.1381994697
H  H58  1  0.33810000  0.95980000  0.80640000  1.0 0.1381994697
H  H59  1  0.66190000  0.45980000  0.80640000  1.0 0.1381994697
H  H60  1  0.83810000  0.54020000  0.30640000  1.0 0.1381994697
H  H61  1  0.14870000  0.00260000  0.38520000  1.0 0.1285019383
H  H62  1  0.35130000  0.99740000  0.88520000  1.0 0.1285019383
H  H63  1  0.64870000  0.49740000  0.88520000  1.0 0.1285019383
H  H64  1  0.85130000  0.50260000  0.38520000  1.0 0.1285019383
H  H65  1  0.36000000  0.19880000  0.42660000  1.0 0.1381994697
H  H66  1  0.14000000  0.80120000  0.92660000  1.0 0.1381994697
H  H67  1  0.86000000  0.30120000  0.92660000  1.0 0.1381994697
H  H68  1  0.64000000  0.69880000  0.42660000  1.0 0.1381994697
H  H69  1  0.32290000  0.96650000  0.45270000  1.0 0.1381994697
H  H70  1  0.17710000  0.03350000  0.95270000  1.0 0.1381994697
H  H71  1  0.82290000  0.53350000  0.95270000  1.0 0.1381994697
H  H72  1  0.67710000  0.46650000  0.45270000  1.0 0.1381994697
H  H73  1  0.13450000  0.17620000  0.48600000  1.0 0.1490197532
H  H74  1  0.36550000  0.82380000  0.98600000  1.0 0.1490197532
H  H75  1  0.63450000  0.32380000  0.98600000  1.0 0.1490197532
H  H76  1  0.86550000  0.67620000  0.48600000  1.0 0.1490197532
H  H77  1  0.15310000  0.01090000  0.58680000  1.0 0.111566038
H  H78  1  0.34690000  0.98910000  0.08680000  1.0 0.111566038
H  H79  1  0.65310000  0.48910000  0.08680000  1.0 0.111566038
H  H80  1  0.84690000  0.51090000  0.58680000  1.0 0.111566038
H  H81  1  0.23450000  0.06470000  0.23750000  1.0 0.1285019383
H  H82  1  0.26550000  0.93530000  0.73750000  1.0 0.1285019383
H  H83  1  0.73450000  0.43530000  0.73750000  1.0 0.1285019383
H  H84  1  0.76550000  0.56470000  0.23750000  1.0 0.1285019383
H  H85  1  0.24570000  0.10190000  0.15900000  1.0 0.111566038
H  H86  1  0.25430000  0.89810000  0.65900000  1.0 0.111566038
H  H87  1  0.74570000  0.39810000  0.65900000  1.0 0.111566038
H  H88  1  0.75430000  0.60190000  0.15900000  1.0 0.111566038
C  C1  1  0.17270000  0.69260000  0.14486000  1.0 -0.1790540704
C  C2  1  0.32730000  0.30740000  0.64486000  1.0 -0.1790540704
C  C3  1  0.67270000  0.80740000  0.64486000  1.0 -0.1790540704
C  C4  1  0.82730000  0.19260000  0.14486000  1.0 -0.1790540704
C  C5  1  0.17870000  0.76320000  0.29561000  1.0 0.0930950377
C  C6  1  0.32130000  0.23680000  0.79561000  1.0 0.0930950377
C  C7  1  0.67870000  0.73680000  0.79561000  1.0 0.0930950377
C  C8  1  0.82130000  0.26320000  0.29561000  1.0 0.0930950377
C  C9  1  0.18790000  0.74440000  0.24722000  1.0 -0.1790540704
C  C10  1  0.31210000  0.25560000  0.74722000  1.0 -0.1790540704
C  C11  1  0.68790000  0.75560000  0.74722000  1.0 -0.1790540704
C  C12  1  0.81210000  0.24440000  0.24722000  1.0 -0.1790540704
C  C13  1  0.22150000  0.66920000  0.23345000  1.0 0.1158901058
C  C14  1  0.27850000  0.33080000  0.73345000  1.0 0.1158901058
C  C15  1  0.72150000  0.83080000  0.73345000  1.0 0.1158901058
C  C16  1  0.77850000  0.16920000  0.23345000  1.0 0.1158901058
C  C17  1  0.23240000  0.64510000  0.18227000  1.0 0.111566038
C  C18  1  0.26760000  0.35490000  0.68227000  1.0 0.111566038
C  C19  1  0.73240000  0.85490000  0.68227000  1.0 0.111566038
C  C20  1  0.76760000  0.14510000  0.18227000  1.0 0.111566038
C  C21  1  0.29850000  0.57340000  0.16968000  1.0 -0.1790540704
C  C22  1  0.20150000  0.42660000  0.66968000  1.0 -0.1790540704
C  C23  1  0.79850000  0.92660000  0.66968000  1.0 -0.1790540704
C  C24  1  0.70150000  0.07340000  0.16968000  1.0 -0.1790540704
C  C25  1  0.30620000  0.55070000  0.12250000  1.0 0.0491224216
C  C26  1  0.19380000  0.44930000  0.62250000  1.0 0.0491224216
C  C27  1  0.80620000  0.94930000  0.62250000  1.0 0.0491224216
C  C28  1  0.69380000  0.05070000  0.12250000  1.0 0.0491224216
C  C29  1  0.18130000  0.66730000  0.09793000  1.0 0.0578860297
C  C30  1  0.31870000  0.33270000  0.59793000  1.0 0.0578860297
C  C31  1  0.68130000  0.83270000  0.59793000  1.0 0.0578860297
C  C32  1  0.81870000  0.16730000  0.09793000  1.0 0.0578860297
C  C33  1  0.26650000  0.57460000  0.03715000  1.0 0.1599475049
C  C34  1  0.23350000  0.42540000  0.53715000  1.0 0.1599475049
C  C35  1  0.76650000  0.92540000  0.53715000  1.0 0.1599475049
C  C36  1  0.73350000  0.07460000  0.03715000  1.0 0.1599475049
C  C37  1  0.22470000  0.50010000  0.02472000  1.0 -0.1689569004
C  C38  1  0.27530000  0.49990000  0.52472000  1.0 -0.1689569004
C  C39  1  0.72470000  0.99990000  0.52472000  1.0 -0.1689569004
C  C40  1  0.77530000  0.00010000  0.02472000  1.0 -0.1689569004
C  C41  1  0.33820000  0.62630000  0.00466000  1.0 -0.1511326678
C  C42  1  0.16180000  0.37370000  0.50466000  1.0 -0.1511326678
C  C43  1  0.83820000  0.87370000  0.50466000  1.0 -0.1511326678
C  C44  1  0.66180000  0.12630000  0.00466000  1.0 -0.1511326678
C  C45  1  0.36840000  0.60200000  0.95777000  1.0 0.0130604027
C  C46  1  0.13160000  0.39800000  0.45777000  1.0 0.0130604027
C  C47  1  0.86840000  0.89800000  0.45777000  1.0 0.0130604027
C  C48  1  0.63160000  0.10200000  0.95777000  1.0 0.0130604027
C  C49  1  0.32670000  0.52710000  0.94457000  1.0 -0.1268839169
C  C50  1  0.17330000  0.47290000  0.44457000  1.0 -0.1268839169
C  C51  1  0.82670000  0.97290000  0.44457000  1.0 -0.1268839169
C  C52  1  0.67330000  0.02710000  0.94457000  1.0 -0.1268839169
C  C53  1  0.22350000  0.39310000  0.96362000  1.0 0.5416764669
C  C54  1  0.27650000  0.60690000  0.46362000  1.0 0.5416764669
C  C55  1  0.72350000  0.10690000  0.46362000  1.0 0.5416764669
C  C56  1  0.77650000  0.89310000  0.96362000  1.0 0.5416764669
C  C57  1  0.25540000  0.47620000  0.97767000  1.0 -0.0031727665
C  C58  1  0.24460000  0.52380000  0.47767000  1.0 -0.0031727665
C  C59  1  0.75540000  0.02380000  0.47767000  1.0 -0.0031727665
C  C60  1  0.74460000  0.97620000  0.97767000  1.0 -0.0031727665
C  C61  1  0.46780000  0.65290000  0.92301000  1.0 0.5458653025
C  C62  1  0.03220000  0.34710000  0.42301000  1.0 0.5458653025
C  C63  1  0.96780000  0.84710000  0.42301000  1.0 0.5458653025
C  C64  1  0.53220000  0.15290000  0.92301000  1.0 0.5458653025
C  C65  1  0.24440000  0.61590000  0.26997000  1.0 -0.1881779678
C  C66  1  0.25560000  0.38410000  0.76997000  1.0 -0.1881779678
C  C67  1  0.74440000  0.88410000  0.76997000  1.0 -0.1881779678
C  C68  1  0.75560000  0.11590000  0.26997000  1.0 -0.1881779678
C  C69  1  0.23600000  0.63850000  0.31724000  1.0 0.080823924
C  C70  1  0.26400000  0.36150000  0.81724000  1.0 0.080823924
C  C71  1  0.73600000  0.86150000  0.81724000  1.0 0.080823924
C  C72  1  0.76400000  0.13850000  0.31724000  1.0 0.080823924
C  C73  1  0.32730000  0.19260000  0.35514000  1.0 -0.1689569004
C  C74  1  0.17270000  0.80740000  0.85514000  1.0 -0.1790540704
C  C75  1  0.82730000  0.30740000  0.85514000  1.0 -0.1790540704
C  C76  1  0.67270000  0.69260000  0.35514000  1.0 -0.1790540704
C  C77  1  0.32130000  0.26320000  0.20439000  1.0 0.0930950377
C  C78  1  0.17870000  0.73680000  0.70439000  1.0 0.0930950377
C  C79  1  0.82130000  0.23680000  0.70439000  1.0 0.0930950377
C  C80  1  0.67870000  0.76320000  0.20439000  1.0 0.0930950377
C  C81  1  0.31210000  0.24440000  0.25278000  1.0 -0.1790540704
C  C82  1  0.18790000  0.75560000  0.75278000  1.0 -0.1790540704
C  C83  1  0.81210000  0.25560000  0.75278000  1.0 -0.1790540704
C  C84  1  0.68790000  0.74440000  0.25278000  1.0 -0.1790540704
C  C85  1  0.27850000  0.16920000  0.26655000  1.0 0.1158901058
C  C86  1  0.22150000  0.83080000  0.76655000  1.0 0.1158901058
C  C87  1  0.77850000  0.33080000  0.76655000  1.0 0.1158901058
C  C88  1  0.72150000  0.66920000  0.26655000  1.0 0.1158901058
C  C89  1  0.26760000  0.14510000  0.31773000  1.0 0.111566038
C  C90  1  0.23240000  0.85490000  0.81773000  1.0 0.111566038
C  C91  1  0.76760000  0.35490000  0.81773000  1.0 0.111566038
C  C92  1  0.73240000  0.64510000  0.31773000  1.0 0.111566038
C  C93  1  0.20150000  0.07340000  0.33032000  1.0 -0.1790540704
C  C94  1  0.29850000  0.92660000  0.83032000  1.0 -0.1790540704
C  C95  1  0.70150000  0.42660000  0.83032000  1.0 -0.1790540704
C  C96  1  0.79850000  0.57340000  0.33032000  1.0 -0.1790540704
C  C97  1  0.19380000  0.05070000  0.37750000  1.0 0.0491224216
C  C98  1  0.30620000  0.94930000  0.87750000  1.0 0.0491224216
C  C99  1  0.69380000  0.44930000  0.87750000  1.0 0.0491224216
C  C100  1  0.80620000  0.55070000  0.37750000  1.0 0.0491224216
C  C101  1  0.31870000  0.16730000  0.40207000  1.0 0.0578860297
C  C102  1  0.18130000  0.83270000  0.90207000  1.0 0.0578860297
C  C103  1  0.81870000  0.33270000  0.90207000  1.0 0.0578860297
C  C104  1  0.68130000  0.66730000  0.40207000  1.0 0.0578860297
C  C105  1  0.23350000  0.07460000  0.46285000  1.0 0.1599475049
C  C106  1  0.26650000  0.92540000  0.96285000  1.0 0.1599475049
C  C107  1  0.73350000  0.42540000  0.96285000  1.0 0.1599475049
C  C108  1  0.76650000  0.57460000  0.46285000  1.0 0.1599475049
C  C109  1  0.27530000  0.00010000  0.47528000  1.0 -0.1689569004
C  C110  1  0.22470000  0.99990000  0.97528000  1.0 -0.1689569004
C  C111  1  0.77530000  0.49990000  0.97528000  1.0 -0.1689569004
C  C112  1  0.72470000  0.50010000  0.47528000  1.0 -0.1689569004
C  C113  1  0.16180000  0.12630000  0.49534000  1.0 -0.1511326678
C  C114  1  0.33820000  0.87370000  0.99534000  1.0 -0.1511326678
C  C115  1  0.66180000  0.37370000  0.99534000  1.0 -0.1511326678
C  C116  1  0.83820000  0.62630000  0.49534000  1.0 -0.1511326678
C  C117  1  0.13160000  0.10200000  0.54223000  1.0 0.0130604027
C  C118  1  0.36840000  0.89800000  0.04223000  1.0 0.0130604027
C  C119  1  0.63160000  0.39800000  0.04223000  1.0 0.0130604027
C  C120  1  0.86840000  0.60200000  0.54223000  1.0 0.0130604027
C  C121  1  0.17330000  0.02710000  0.55543000  1.0 -0.1268839169
C  C122  1  0.32670000  0.97290000  0.05543000  1.0 -0.1268839169
C  C123  1  0.67330000  0.47290000  0.05543000  1.0 -0.1268839169
C  C124  1  0.82670000  0.52710000  0.55543000  1.0 -0.1268839169
C  C125  1  0.27650000  0.89310000  0.53638000  1.0 0.5416764669
C  C126  1  0.22350000  0.10690000  0.03638000  1.0 0.5416764669
C  C127  1  0.77650000  0.60690000  0.03638000  1.0 0.5416764669
C  C128  1  0.72350000  0.39310000  0.53638000  1.0 0.5416764669
C  C129  1  0.24460000  0.97620000  0.52233000  1.0 -0.0031727665
C  C130  1  0.25540000  0.02380000  0.02233000  1.0 -0.0031727665
C  C131  1  0.74460000  0.52380000  0.02233000  1.0 -0.0031727665
C  C132  1  0.75540000  0.47620000  0.52233000  1.0 -0.0031727665
C  C133  1  0.03220000  0.15290000  0.57699000  1.0 0.5458653025
C  C134  1  0.46780000  0.84710000  0.07699000  1.0 0.5458653025
C  C135  1  0.53220000  0.34710000  0.07699000  1.0 0.5458653025
C  C136  1  0.96780000  0.65290000  0.57699000  1.0 0.5458653025
C  C137  1  0.25560000  0.11590000  0.23003000  1.0 -0.1881779678
C  C138  1  0.24440000  0.88410000  0.73003000  1.0 -0.1881779678
C  C139  1  0.75560000  0.38410000  0.73003000  1.0 -0.1881779678
C  C140  1  0.74440000  0.61590000  0.23003000  1.0 -0.1881779678
C  C141  1  0.26400000  0.13850000  0.18276000  1.0 0.080823924
C  C142  1  0.23600000  0.86150000  0.68276000  1.0 0.080823924
C  C143  1  0.76400000  0.36150000  0.68276000  1.0 0.080823924
C  C144  1  0.73600000  0.63850000  0.18276000  1.0 0.080823924
N  N1  1  0.20250000  0.71120000  0.33063000  1.0 -0.2523198099
N  N2  1  0.29750000  0.28880000  0.83063000  1.0 -0.2523198099
N  N3  1  0.70250000  0.78880000  0.83063000  1.0 -0.2523198099
N  N4  1  0.79750000  0.21120000  0.33063000  1.0 -0.2523198099
N  N5  1  0.24870000  0.59782000  0.08723000  1.0 0.0686532833
N  N6  1  0.25130000  0.40218000  0.58723000  1.0 0.0686532833
N  N7  1  0.74870000  0.90218000  0.58723000  1.0 0.0686532833
N  N8  1  0.75130000  0.09782000  0.08723000  1.0 0.0686532833
N  N9  1  0.29750000  0.21120000  0.16937000  1.0 -0.2523198099
N  N10  1  0.20250000  0.78880000  0.66937000  1.0 -0.2523198099
N  N11  1  0.79750000  0.28880000  0.66937000  1.0 -0.2523198099
N  N12  1  0.70250000  0.71120000  0.16937000  1.0 -0.2523198099
N  N13  1  0.25130000  0.09782000  0.41277000  1.0 0.0686532833
N  N14  1  0.24870000  0.90218000  0.91277000  1.0 0.0686532833
N  N15  1  0.75130000  0.40218000  0.91277000  1.0 0.0686532833
N  N16  1  0.74870000  0.59782000  0.41277000  1.0 0.0686532833
N  N17  1  0.95930000  0.42670000  0.15733000  1.0 0.5800965928
N  N18  1  0.54070000  0.92670000  0.34267000  1.0 0.5800965928
N  N19  1  0.54070000  0.57330000  0.65733000  1.0 0.5800965928
N  N20  1  0.95930000  0.07330000  0.84267000  1.0 0.5800965928
N  N21  1  0.04070000  0.57330000  0.84267000  1.0 0.5800965928
N  N22  1  0.45930000  0.07330000  0.65733000  1.0 0.5800965928
N  N23  1  0.45930000  0.42670000  0.34267000  1.0 0.5800965928
N  N24  1  0.04070000  0.92670000  0.15733000  1.0 0.5800965928
O  O1  1  0.40230000  0.79679000  0.42135000  1.0 -0.3420944012
O  O2  1  0.09770000  0.20321000  0.92135000  1.0 -0.3420944012
O  O3  1  0.90230000  0.70321000  0.92135000  1.0 -0.3420944012
O  O4  1  0.59770000  0.29679000  0.42135000  1.0 -0.3420944012
O  O5  1  0.48920000  0.72294000  0.93593000  1.0 -0.5282421656
O  O6  1  0.01080000  0.27706000  0.43593000  1.0 -0.5282421656
O  O7  1  0.98920000  0.77706000  0.43593000  1.0 -0.5282421656
O  O8  1  0.51080000  0.22294000  0.93593000  1.0 -0.5282421656
O  O9  1  0.29290000  0.37337000  0.92366000  1.0 -0.5822249599
O  O10  1  0.20710000  0.62663000  0.42366000  1.0 -0.5822249599
O  O11  1  0.79290000  0.12663000  0.42366000  1.0 -0.5822249599
O  O12  1  0.70710000  0.87337000  0.92366000  1.0 -0.5822249599
O  O13  1  0.13640000  0.35057000  0.98972000  1.0 -0.4001957573
O  O14  1  0.36360000  0.64943000  0.48972000  1.0 -0.4001957573
O  O15  1  0.63640000  0.14943000  0.48972000  1.0 -0.4001957573
O  O16  1  0.86360000  0.85057000  0.98972000  1.0 -0.4001957573
O  O17  1  0.53290000  0.62550000  0.88655000  1.0 -0.5365271888
O  O18  1  0.96710000  0.37450000  0.38655000  1.0 -0.5365271888
O  O19  1  0.03290000  0.87450000  0.38655000  1.0 -0.5365271888
O  O20  1  0.46710000  0.12550000  0.88655000  1.0 -0.5365271888
O  O21  1  0.09770000  0.29679000  0.07865000  1.0 -0.3420944012
O  O22  1  0.40230000  0.70321000  0.57865000  1.0 -0.3420944012
O  O23  1  0.59770000  0.20321000  0.57865000  1.0 -0.3420944012
O  O24  1  0.90230000  0.79679000  0.07865000  1.0 -0.3420944012
O  O25  1  0.01080000  0.22294000  0.56407000  1.0 -0.5282421656
O  O26  1  0.48920000  0.77706000  0.06407000  1.0 -0.5282421656
O  O27  1  0.51080000  0.27706000  0.06407000  1.0 -0.5282421656
O  O28  1  0.98920000  0.72294000  0.56407000  1.0 -0.5282421656
O  O29  1  0.20710000  0.87337000  0.57634000  1.0 -0.5822249599
O  O30  1  0.29290000  0.12663000  0.07634000  1.0 -0.5822249599
O  O31  1  0.70710000  0.62663000  0.07634000  1.0 -0.5822249599
O  O32  1  0.79290000  0.37337000  0.57634000  1.0 -0.5822249599
O  O33  1  0.36360000  0.85057000  0.51028000  1.0 -0.4001957573
O  O34  1  0.13640000  0.14943000  0.01028000  1.0 -0.4001957573
O  O35  1  0.86360000  0.64943000  0.01028000  1.0 -0.4001957573
O  O36  1  0.63640000  0.35057000  0.51028000  1.0 -0.4001957573
O  O37  1  0.96710000  0.12550000  0.61345000  1.0 -0.5365271888
O  O38  1  0.53290000  0.87450000  0.11345000  1.0 -0.5365271888
O  O39  1  0.46710000  0.37450000  0.11345000  1.0 -0.5365271888
O  O40  1  0.03290000  0.62550000  0.61345000  1.0 -0.5365271888
O  O41  1  0.00820000  0.43910000  0.11700000  1.0 -0.2820455231
O  O42  1  0.98970000  0.36800000  0.17150000  1.0 -0.2555644758
O  O43  1  0.91060000  0.47790000  0.18030000  1.0 -0.320058836
O  O44  1  0.49180000  0.93910000  0.38300000  1.0 -0.2820455231
O  O45  1  0.51030000  0.86800000  0.32850000  1.0 -0.2555644758
O  O46  1  0.58940000  0.97790000  0.31970000  1.0 -0.320058836
O  O47  1  0.49180000  0.56090000  0.61700000  1.0 -0.2820455231
O  O48  1  0.51030000  0.63200000  0.67150000  1.0 -0.2523198099
O  O49  1  0.58940000  0.52210000  0.68030000  1.0 -0.320058836
O  O50  1  0.00820000  0.06090000  0.88300000  1.0 -0.2820455231
O  O51  1  0.98970000  0.13200000  0.82850000  1.0 -0.2523198099
O  O52  1  0.91060000  0.02210000  0.81970000  1.0 -0.320058836
O  O53  1  0.99180000  0.56090000  0.88300000  1.0 -0.2820455231
O  O54  1  0.01030000  0.63200000  0.82850000  1.0 -0.2523198099
O  O55  1  0.08940000  0.52210000  0.81970000  1.0 -0.320058836
O  O56  1  0.50820000  0.06090000  0.61700000  1.0 -0.2820455231
O  O57  1  0.48970000  0.13200000  0.67150000  1.0 -0.2523198099
O  O58  1  0.41060000  0.02210000  0.68030000  1.0 -0.320058836
O  O59  1  0.50820000  0.43910000  0.38300000  1.0 -0.2820455231
O  O60  1  0.48970000  0.36800000  0.32850000  1.0 -0.2523198099
O  O61  1  0.41060000  0.47790000  0.31970000  1.0 -0.320058836
O  O62  1  0.99180000  0.93910000  0.11700000  1.0 -0.2820455231
O  O63  1  0.01030000  0.86800000  0.17150000  1.0 -0.2555644758
O  O64  1  0.08940000  0.97790000  0.18030000  1.0 -0.320058836
