# DDEC6 charges by PACMAN v1.1 (https://github.com/mtap-research/PACMAN-charge/)
data_QALWUV_ASR_pacman
_symmetry_space_group_name_H-M   'P 1'
_cell_length_a   19.67960000
_cell_length_b   15.56840000
_cell_length_c   30.59510000
_cell_angle_alpha   90.00000000
_cell_angle_beta   114.82100000
_cell_angle_gamma   90.00000000
_symmetry_Int_Tables_number   1
_chemical_formula_structural   FeSn2H18(C2N)6
_chemical_formula_sum   'Fe8 Sn16 H144 C96 N48'
_cell_volume   8507.81315708
_cell_formula_units_Z   8
loop_
 _symmetry_equiv_pos_site_id
 _symmetry_equiv_pos_as_xyz
  1  'x, y, z'
loop_
 _atom_site_type_symbol
 _atom_site_label
 _atom_site_symmetry_multiplicity
 _atom_site_fract_x
 _atom_site_fract_y
 _atom_site_fract_z
 _atom_site_occupancy
 _atom_site_charge
Fe  Fe1  1  0.62881000  0.96030000  0.86994000  1.0 -0.0091240989
Fe  Fe2  1  0.62881000  0.53970000  0.36994000  1.0 -0.0164514485
Fe  Fe3  1  0.37119000  0.03970000  0.13006000  1.0 -0.0091240989
Fe  Fe4  1  0.37119000  0.46030000  0.63006000  1.0 -0.0091240989
Fe  Fe5  1  0.88086000  0.48820000  0.12480000  1.0 -0.0016170385
Fe  Fe6  1  0.88086000  0.01180000  0.62480000  1.0 -0.0091240989
Fe  Fe7  1  0.11914000  0.51180000  0.87520000  1.0 -0.0016170385
Fe  Fe8  1  0.11914000  0.98820000  0.37520000  1.0 0.0028959081
Sn  Sn1  1  0.76301000  0.72816000  0.99590000  1.0 1.1686210467
Sn  Sn2  1  0.76301000  0.77184000  0.49590000  1.0 1.1686210467
Sn  Sn3  1  0.23699000  0.27184000  0.00410000  1.0 1.1771097776
Sn  Sn4  1  0.23699000  0.22816000  0.50410000  1.0 1.1686210467
Sn  Sn5  1  0.01157000  0.26573000  0.26469000  1.0 1.1686210467
Sn  Sn6  1  0.01157000  0.23427000  0.76469000  1.0 1.1686210467
Sn  Sn7  1  0.98843000  0.73427000  0.73531000  1.0 1.1686210467
Sn  Sn8  1  0.98843000  0.76573000  0.23531000  1.0 1.1686210467
Sn  Sn9  1  0.53816000  0.67135000  0.76436000  1.0 1.1686210467
Sn  Sn10  1  0.53816000  0.82865000  0.26436000  1.0 1.1627566215
Sn  Sn11  1  0.46184000  0.32865000  0.23564000  1.0 1.1686210467
Sn  Sn12  1  0.46184000  0.17135000  0.73564000  1.0 1.1627566215
Sn  Sn13  1  0.75288000  0.99042000  0.74622000  1.0 1.1627566215
Sn  Sn14  1  0.75288000  0.50958000  0.24622000  1.0 1.1627566215
Sn  Sn15  1  0.24712000  0.00958000  0.25378000  1.0 1.1686210467
Sn  Sn16  1  0.24712000  0.49042000  0.75378000  1.0 1.1686210467
H  H1  1  0.90810000  0.70900000  0.03720000  1.0 0.1965777114
H  H2  1  0.90810000  0.79100000  0.53720000  1.0 0.1965777114
H  H3  1  0.09190000  0.29100000  0.96280000  1.0 0.1965777114
H  H4  1  0.09190000  0.20900000  0.46280000  1.0 0.1965777114
H  H5  1  0.89070000  0.80860000  0.02450000  1.0 0.1895680208
H  H6  1  0.89070000  0.69140000  0.52450000  1.0 0.1895680208
H  H7  1  0.10930000  0.19140000  0.97550000  1.0 0.1895680208
H  H8  1  0.10930000  0.30860000  0.47550000  1.0 0.1895680208
H  H9  1  0.88480000  0.76910000  0.07110000  1.0 0.1817858578
H  H10  1  0.88480000  0.73090000  0.57110000  1.0 0.1817858578
H  H11  1  0.11520000  0.23090000  0.92890000  1.0 0.1817858578
H  H12  1  0.11520000  0.26910000  0.42890000  1.0 0.1817858578
H  H13  1  0.70740000  0.69400000  0.90400000  1.0 0.1895680208
H  H14  1  0.70740000  0.80600000  0.40400000  1.0 0.1895680208
H  H15  1  0.29260000  0.30600000  0.09600000  1.0 0.1895680208
H  H16  1  0.29260000  0.19400000  0.59600000  1.0 0.1895680208
H  H17  1  0.77550000  0.62930000  0.93080000  1.0 0.1895680208
H  H18  1  0.77550000  0.87070000  0.43080000  1.0 0.1895680208
H  H19  1  0.22450000  0.37070000  0.06920000  1.0 0.1895680208
H  H20  1  0.22450000  0.12930000  0.56920000  1.0 0.1895680208
H  H21  1  0.69560000  0.61120000  0.93100000  1.0 0.1895680208
H  H22  1  0.69560000  0.88880000  0.43100000  1.0 0.1895680208
H  H23  1  0.30440000  0.38880000  0.06900000  1.0 0.1895680208
H  H24  1  0.30440000  0.11120000  0.56900000  1.0 0.1895680208
H  H25  1  0.66080000  0.72250000  0.02890000  1.0 0.1895680208
H  H26  1  0.66080000  0.77750000  0.52890000  1.0 0.1965777114
H  H27  1  0.33920000  0.27750000  0.97110000  1.0 0.1895680208
H  H28  1  0.33920000  0.22250000  0.47110000  1.0 0.1965777114
H  H29  1  0.70390000  0.81230000  0.04490000  1.0 0.1817858578
H  H30  1  0.70390000  0.68770000  0.54490000  1.0 0.1817858578
H  H31  1  0.29610000  0.18770000  0.95510000  1.0 0.1817858578
H  H32  1  0.29610000  0.31230000  0.45510000  1.0 0.1817858578
H  H33  1  0.64070000  0.80010000  0.99120000  1.0 0.1965777114
H  H34  1  0.64070000  0.69990000  0.49120000  1.0 0.1965777114
H  H35  1  0.35930000  0.19990000  0.00880000  1.0 0.1965777114
H  H36  1  0.35930000  0.30010000  0.50880000  1.0 0.1965777114
H  H37  1  0.13620000  0.29410000  0.25620000  1.0 0.1817858578
H  H38  1  0.13620000  0.20590000  0.75620000  1.0 0.1895680208
H  H39  1  0.86380000  0.70590000  0.74380000  1.0 0.1817858578
H  H40  1  0.86380000  0.79410000  0.24380000  1.0 0.1817858578
H  H41  1  0.14350000  0.33720000  0.30550000  1.0 0.1895680208
H  H42  1  0.14350000  0.16280000  0.80550000  1.0 0.1895680208
H  H43  1  0.85650000  0.66280000  0.69450000  1.0 0.1895680208
H  H44  1  0.85650000  0.83720000  0.19450000  1.0 0.1895680208
H  H45  1  0.15540000  0.23590000  0.30310000  1.0 0.1895680208
H  H46  1  0.15540000  0.26410000  0.80310000  1.0 0.1895680208
H  H47  1  0.84460000  0.76410000  0.69690000  1.0 0.1895680208
H  H48  1  0.84460000  0.73590000  0.19690000  1.0 0.1895680208
H  H49  1  0.93900000  0.38380000  0.28880000  1.0 0.1895680208
H  H50  1  0.93900000  0.11620000  0.78880000  1.0 0.1895680208
H  H51  1  0.06100000  0.61620000  0.71120000  1.0 0.1895680208
H  H52  1  0.06100000  0.88380000  0.21120000  1.0 0.1895680208
H  H53  1  0.91890000  0.29260000  0.30440000  1.0 0.1895680208
H  H54  1  0.91890000  0.20740000  0.80440000  1.0 0.1895680208
H  H55  1  0.08110000  0.70740000  0.69560000  1.0 0.1895680208
H  H56  1  0.08110000  0.79260000  0.19560000  1.0 0.1895680208
H  H57  1  0.99650000  0.33840000  0.33720000  1.0 0.1895680208
H  H58  1  0.99650000  0.16160000  0.83720000  1.0 0.1895680208
H  H59  1  0.00350000  0.66160000  0.66280000  1.0 0.1895680208
H  H60  1  0.00350000  0.83840000  0.16280000  1.0 0.1895680208
H  H61  1  0.92980000  0.13180000  0.22280000  1.0 0.1895680208
H  H62  1  0.92980000  0.36820000  0.72280000  1.0 0.1895680208
H  H63  1  0.07020000  0.86820000  0.77720000  1.0 0.1895680208
H  H64  1  0.07020000  0.63180000  0.27720000  1.0 0.1895680208
H  H65  1  0.90400000  0.20960000  0.18510000  1.0 0.1895680208
H  H66  1  0.90400000  0.29040000  0.68510000  1.0 0.1895680208
H  H67  1  0.09600000  0.79040000  0.81490000  1.0 0.1895680208
H  H68  1  0.09600000  0.70960000  0.31490000  1.0 0.1895680208
H  H69  1  0.97810000  0.15650000  0.19360000  1.0 0.1817858578
H  H70  1  0.97810000  0.34350000  0.69360000  1.0 0.1817858578
H  H71  1  0.02190000  0.84350000  0.80640000  1.0 0.1817858578
H  H72  1  0.02190000  0.65650000  0.30640000  1.0 0.1817858578
H  H73  1  0.46820000  0.72840000  0.67610000  1.0 0.1895680208
H  H74  1  0.46820000  0.77160000  0.17610000  1.0 0.1895680208
H  H75  1  0.53180000  0.27160000  0.32390000  1.0 0.1895680208
H  H76  1  0.53180000  0.22840000  0.82390000  1.0 0.1895680208
H  H77  1  0.42870000  0.76940000  0.70750000  1.0 0.1895680208
H  H78  1  0.42870000  0.73060000  0.20750000  1.0 0.1895680208
H  H79  1  0.57130000  0.23060000  0.29250000  1.0 0.1895680208
H  H80  1  0.57130000  0.26940000  0.79250000  1.0 0.1895680208
H  H81  1  0.50540000  0.80900000  0.71030000  1.0 0.1817858578
H  H82  1  0.50540000  0.69100000  0.21030000  1.0 0.1817858578
H  H83  1  0.49460000  0.19100000  0.28970000  1.0 0.1817858578
H  H84  1  0.49460000  0.30900000  0.78970000  1.0 0.1817858578
H  H85  1  0.65420000  0.60290000  0.75760000  1.0 0.1895680208
H  H86  1  0.65420000  0.89710000  0.25760000  1.0 0.1895680208
H  H87  1  0.34580000  0.39710000  0.24240000  1.0 0.1895680208
H  H88  1  0.34580000  0.10290000  0.74240000  1.0 0.1895680208
H  H89  1  0.67810000  0.69580000  0.78160000  1.0 0.1817858578
H  H90  1  0.67810000  0.80420000  0.28160000  1.0 0.1817858578
H  H91  1  0.32190000  0.30420000  0.21840000  1.0 0.1817858578
H  H92  1  0.32190000  0.19580000  0.71840000  1.0 0.1817858578
H  H93  1  0.67420000  0.61610000  0.81350000  1.0 0.1817858578
H  H94  1  0.67420000  0.88390000  0.31350000  1.0 0.1817858578
H  H95  1  0.32580000  0.38390000  0.18650000  1.0 0.1817858578
H  H96  1  0.32580000  0.11610000  0.68650000  1.0 0.1817858578
H  H97  1  0.43960000  0.64120000  0.79880000  1.0 0.1817858578
H  H98  1  0.43960000  0.85880000  0.29880000  1.0 0.1817858578
H  H99  1  0.56040000  0.35880000  0.20120000  1.0 0.1817858578
H  H100  1  0.56040000  0.14120000  0.70120000  1.0 0.1817858578
H  H101  1  0.48300000  0.55340000  0.80080000  1.0 0.1817858578
H  H102  1  0.48300000  0.94660000  0.30080000  1.0 0.1817858578
H  H103  1  0.51700000  0.44660000  0.19920000  1.0 0.1817858578
H  H104  1  0.51700000  0.05340000  0.69920000  1.0 0.1817858578
H  H105  1  0.52100000  0.62530000  0.84110000  1.0 0.1895680208
H  H106  1  0.52100000  0.87470000  0.34110000  1.0 0.1895680208
H  H107  1  0.47900000  0.37470000  0.15890000  1.0 0.1895680208
H  H108  1  0.47900000  0.12530000  0.65890000  1.0 0.1895680208
H  H109  1  0.86340000  0.88070000  0.77620000  1.0 0.1895680208
H  H110  1  0.86340000  0.61930000  0.27620000  1.0 0.1895680208
H  H111  1  0.13660000  0.11930000  0.22380000  1.0 0.1895680208
H  H112  1  0.13660000  0.38070000  0.72380000  1.0 0.1895680208
H  H113  1  0.87200000  0.94050000  0.82070000  1.0 0.1965777114
H  H114  1  0.87200000  0.55950000  0.32070000  1.0 0.1895680208
H  H115  1  0.12800000  0.05950000  0.17930000  1.0 0.1965777114
H  H116  1  0.12800000  0.44050000  0.67930000  1.0 0.1965777114
H  H117  1  0.89810000  0.97500000  0.78090000  1.0 0.1895680208
H  H118  1  0.89810000  0.52500000  0.28090000  1.0 0.1895680208
H  H119  1  0.10190000  0.02500000  0.21910000  1.0 0.1895680208
H  H120  1  0.10190000  0.47500000  0.71910000  1.0 0.1895680208
H  H121  1  0.68760000  0.13880000  0.71810000  1.0 0.1895680208
H  H122  1  0.68760000  0.36120000  0.21810000  1.0 0.1895680208
H  H123  1  0.31240000  0.86120000  0.28190000  1.0 0.1895680208
H  H124  1  0.31240000  0.63880000  0.78190000  1.0 0.1895680208
H  H125  1  0.77600000  0.15320000  0.73760000  1.0 0.1817858578
H  H126  1  0.77600000  0.34680000  0.23760000  1.0 0.1817858578
H  H127  1  0.22400000  0.84680000  0.26240000  1.0 0.1817858578
H  H128  1  0.22400000  0.65320000  0.76240000  1.0 0.1817858578
H  H129  1  0.73860000  0.14440000  0.77480000  1.0 0.1895680208
H  H130  1  0.73860000  0.35560000  0.27480000  1.0 0.1817858578
H  H131  1  0.26140000  0.85560000  0.22520000  1.0 0.1817858578
H  H132  1  0.26140000  0.64440000  0.72520000  1.0 0.1817858578
H  H133  1  0.64700000  0.87780000  0.73100000  1.0 0.1895680208
H  H134  1  0.64700000  0.62220000  0.23100000  1.0 0.1895680208
H  H135  1  0.35300000  0.12220000  0.26900000  1.0 0.1895680208
H  H136  1  0.35300000  0.37780000  0.76900000  1.0 0.1895680208
H  H137  1  0.67940000  0.86260000  0.69160000  1.0 0.1895680208
H  H138  1  0.67940000  0.63740000  0.19160000  1.0 0.1895680208
H  H139  1  0.32060000  0.13740000  0.30840000  1.0 0.1895680208
H  H140  1  0.32060000  0.36260000  0.80840000  1.0 0.1895680208
H  H141  1  0.62120000  0.93870000  0.68470000  1.0 0.1895680208
H  H142  1  0.62120000  0.56130000  0.18470000  1.0 0.1895680208
H  H143  1  0.37880000  0.06130000  0.31530000  1.0 0.1895680208
H  H144  1  0.37880000  0.43870000  0.81530000  1.0 0.1895680208
C  C1  1  0.87689000  0.75770000  0.03779000  1.0 -0.7295700196
C  C2  1  0.87689000  0.74230000  0.53779000  1.0 -0.7189462724
C  C3  1  0.12311000  0.24230000  0.96221000  1.0 -0.7189462724
C  C4  1  0.12311000  0.25770000  0.46221000  1.0 -0.7189462724
C  C5  1  0.73114000  0.65600000  0.93184000  1.0 -0.7189462724
C  C6  1  0.73114000  0.84400000  0.43184000  1.0 -0.7189462724
C  C7  1  0.26886000  0.34400000  0.06816000  1.0 -0.7189462724
C  C8  1  0.26886000  0.15600000  0.56816000  1.0 -0.7189462724
C  C9  1  0.68110000  0.77160000  0.01820000  1.0 -0.7189462724
C  C10  1  0.68110000  0.72840000  0.51820000  1.0 -0.7189462724
C  C11  1  0.31890000  0.22840000  0.98180000  1.0 -0.714873195
C  C12  1  0.31890000  0.27160000  0.48180000  1.0 -0.7189462724
C  C13  1  0.12711000  0.28590000  0.28511000  1.0 -0.7608150565
C  C14  1  0.12711000  0.21410000  0.78511000  1.0 -0.7608150565
C  C15  1  0.87289000  0.71410000  0.71489000  1.0 -0.7608150565
C  C16  1  0.87289000  0.78590000  0.21489000  1.0 -0.7608150565
C  C17  1  0.95948000  0.32860000  0.30408000  1.0 -0.7608150565
C  C18  1  0.95948000  0.17140000  0.80408000  1.0 -0.7529788815
C  C19  1  0.04052000  0.67140000  0.69592000  1.0 -0.7608150565
C  C20  1  0.04052000  0.82860000  0.19592000  1.0 -0.7529788815
C  C21  1  0.94718000  0.17930000  0.20908000  1.0 -0.739122391
C  C22  1  0.94718000  0.32070000  0.70908000  1.0 -0.739122391
C  C23  1  0.05282000  0.82070000  0.79092000  1.0 -0.739122391
C  C24  1  0.05282000  0.67930000  0.29092000  1.0 -0.739122391
C  C25  1  0.47684000  0.75590000  0.70684000  1.0 -0.7295700196
C  C26  1  0.47684000  0.74410000  0.20684000  1.0 -0.7295700196
C  C27  1  0.52316000  0.24410000  0.29316000  1.0 -0.7295700196
C  C28  1  0.52316000  0.25590000  0.79316000  1.0 -0.7295700196
C  C29  1  0.65126000  0.64270000  0.78156000  1.0 -0.739122391
C  C30  1  0.65126000  0.85730000  0.28156000  1.0 -0.739122391
C  C31  1  0.34874000  0.35730000  0.21844000  1.0 -0.739122391
C  C32  1  0.34874000  0.14270000  0.71844000  1.0 -0.739122391
C  C33  1  0.48889000  0.61530000  0.80699000  1.0 -0.7529788815
C  C34  1  0.48889000  0.88470000  0.30699000  1.0 -0.7529788815
C  C35  1  0.51111000  0.38470000  0.19301000  1.0 -0.7529788815
C  C36  1  0.51111000  0.11530000  0.69301000  1.0 -0.7529788815
C  C37  1  0.86111000  0.93990000  0.78641000  1.0 -0.7608150565
C  C38  1  0.86111000  0.56010000  0.28641000  1.0 -0.7608150565
C  C39  1  0.13889000  0.06010000  0.21359000  1.0 -0.7608150565
C  C40  1  0.13889000  0.43990000  0.71359000  1.0 -0.7608150565
C  C41  1  0.73656000  0.12470000  0.74386000  1.0 -0.7529788815
C  C42  1  0.73656000  0.37530000  0.24386000  1.0 -0.7529788815
C  C43  1  0.26344000  0.87530000  0.25614000  1.0 -0.7608150565
C  C44  1  0.26344000  0.62470000  0.75614000  1.0 -0.7529788815
C  C45  1  0.66310000  0.90600000  0.70830000  1.0 -0.7608150565
C  C46  1  0.66310000  0.59400000  0.20830000  1.0 -0.7608150565
C  C47  1  0.33690000  0.09400000  0.29170000  1.0 -0.7608150565
C  C48  1  0.33690000  0.40600000  0.79170000  1.0 -0.7608150565
C  C49  1  0.70536000  0.89653000  0.92057000  1.0 0.1567439732
C  C50  1  0.70536000  0.60347000  0.42057000  1.0 0.1567439732
C  C51  1  0.29464000  0.10347000  0.07943000  1.0 0.1500900822
C  C52  1  0.29464000  0.39653000  0.57943000  1.0 0.1500900822
C  C53  1  0.59435000  0.85180000  0.83698000  1.0 0.1289159861
C  C54  1  0.59435000  0.64820000  0.33698000  1.0 0.1289159861
C  C55  1  0.40565000  0.14820000  0.16302000  1.0 0.1289159861
C  C56  1  0.40565000  0.35180000  0.66302000  1.0 0.1289159861
C  C57  1  0.54911000  0.02050000  0.81933000  1.0 0.1500900822
C  C58  1  0.54911000  0.47950000  0.31933000  1.0 0.1500900822
C  C59  1  0.45089000  0.97950000  0.18067000  1.0 0.1500900822
C  C60  1  0.45089000  0.52050000  0.68067000  1.0 0.1500900822
C  C61  1  0.68856000  0.97410000  0.83387000  1.0 0.1234682497
C  C62  1  0.68856000  0.52590000  0.33387000  1.0 0.1289159861
C  C63  1  0.31144000  0.02590000  0.16613000  1.0 0.1289159861
C  C64  1  0.31144000  0.47410000  0.66613000  1.0 0.1234682497
C  C65  1  0.66469000  0.07100000  0.89996000  1.0 -0.0375328775
C  C66  1  0.66469000  0.42900000  0.39996000  1.0 -0.0326904024
C  C67  1  0.33531000  0.92900000  0.10004000  1.0 -0.0326904024
C  C68  1  0.33531000  0.57100000  0.60004000  1.0 -0.0375328775
C  C69  1  0.56951000  0.94480000  0.90641000  1.0 -0.0164514485
C  C70  1  0.56951000  0.55520000  0.40641000  1.0 -0.0091240989
C  C71  1  0.43049000  0.05520000  0.09359000  1.0 -0.0091240989
C  C72  1  0.43049000  0.44480000  0.59359000  1.0 -0.0164514485
C  C73  1  0.81535000  0.55865000  0.07246000  1.0 0.1500900822
C  C74  1  0.81535000  0.94135000  0.57246000  1.0 0.1500900822
C  C75  1  0.18465000  0.44135000  0.92754000  1.0 0.1500900822
C  C76  1  0.18465000  0.05865000  0.42754000  1.0 0.1500900822
C  C77  1  0.94577000  0.41810000  0.17758000  1.0 0.1500900822
C  C78  1  0.94577000  0.08190000  0.67758000  1.0 0.1500900822
C  C79  1  0.05423000  0.58190000  0.82242000  1.0 0.1500900822
C  C80  1  0.05423000  0.91810000  0.32242000  1.0 0.1500900822
C  C81  1  0.92917000  0.59120000  0.15902000  1.0 0.1289159861
C  C82  1  0.92917000  0.90880000  0.65902000  1.0 0.1289159861
C  C83  1  0.07083000  0.40880000  0.84098000  1.0 0.1289159861
C  C84  1  0.07083000  0.09120000  0.34098000  1.0 0.1289159861
C  C85  1  0.81696000  0.49440000  0.15847000  1.0 0.1500900822
C  C86  1  0.81696000  0.00560000  0.65847000  1.0 0.1433251944
C  C87  1  0.18304000  0.50560000  0.84153000  1.0 0.1433251944
C  C88  1  0.18304000  0.99440000  0.34153000  1.0 0.1433251944
C  C89  1  0.94760000  0.48904000  0.09285000  1.0 -0.0091240989
C  C90  1  0.94760000  0.01096000  0.59285000  1.0 -0.0164514485
C  C91  1  0.05240000  0.51096000  0.90715000  1.0 -0.0164514485
C  C92  1  0.05240000  0.98904000  0.40715000  1.0 -0.0164514485
C  C93  1  0.83148000  0.38336000  0.09315000  1.0 -0.0523708689
C  C94  1  0.83148000  0.11664000  0.59315000  1.0 -0.0523708689
C  C95  1  0.16852000  0.61664000  0.90685000  1.0 -0.0523708689
C  C96  1  0.16852000  0.88336000  0.40685000  1.0 -0.0523708689
N  N1  1  0.74577000  0.85325000  0.95073000  1.0 -0.3332917991
N  N2  1  0.74577000  0.64675000  0.45073000  1.0 -0.3386119096
N  N3  1  0.25423000  0.14675000  0.04927000  1.0 -0.3332917991
N  N4  1  0.25423000  0.35325000  0.54927000  1.0 -0.3332917991
N  N5  1  0.57542000  0.78820000  0.81665000  1.0 -0.3466893636
N  N6  1  0.57542000  0.71180000  0.31665000  1.0 -0.3466893636
N  N7  1  0.42458000  0.21180000  0.18335000  1.0 -0.3466893636
N  N8  1  0.42458000  0.28820000  0.68335000  1.0 -0.3466893636
N  N9  1  0.50390000  0.05810000  0.78890000  1.0 -0.3386119096
N  N10  1  0.50390000  0.44190000  0.28890000  1.0 -0.3386119096
N  N11  1  0.49610000  0.94190000  0.21110000  1.0 -0.3386119096
N  N12  1  0.49610000  0.55810000  0.71110000  1.0 -0.3386119096
N  N13  1  0.72228000  0.98150000  0.81113000  1.0 -0.3386119096
N  N14  1  0.72228000  0.51850000  0.31113000  1.0 -0.3466893636
N  N15  1  0.27772000  0.01850000  0.18887000  1.0 -0.3466893636
N  N16  1  0.27772000  0.48150000  0.68887000  1.0 -0.3466893636
N  N17  1  0.68422000  0.13751000  0.91633000  1.0 -0.1584652926
N  N18  1  0.68422000  0.36249000  0.41633000  1.0 -0.1655570122
N  N19  1  0.31578000  0.86249000  0.08367000  1.0 -0.1655570122
N  N20  1  0.31578000  0.63751000  0.58367000  1.0 -0.1584652926
N  N21  1  0.53771000  0.93450000  0.92993000  1.0 -0.2316215985
N  N22  1  0.53771000  0.56550000  0.42993000  1.0 -0.2456788722
N  N23  1  0.46229000  0.06550000  0.07007000  1.0 -0.2385290765
N  N24  1  0.46229000  0.43450000  0.57007000  1.0 -0.2385290765
N  N25  1  0.78021000  0.60388000  0.04172000  1.0 -0.3386119096
N  N26  1  0.78021000  0.89612000  0.54172000  1.0 -0.3386119096
N  N27  1  0.21979000  0.39612000  0.95828000  1.0 -0.3386119096
N  N28  1  0.21979000  0.10388000  0.45828000  1.0 -0.3386119096
N  N29  1  0.97986000  0.37510000  0.20942000  1.0 -0.3386119096
N  N30  1  0.97986000  0.12490000  0.70942000  1.0 -0.3386119096
N  N31  1  0.02014000  0.62490000  0.79058000  1.0 -0.3386119096
N  N32  1  0.02014000  0.87510000  0.29058000  1.0 -0.3386119096
N  N33  1  0.95638000  0.65200000  0.18023000  1.0 -0.3466893636
N  N34  1  0.95638000  0.84800000  0.68023000  1.0 -0.3466893636
N  N35  1  0.04362000  0.34800000  0.81977000  1.0 -0.3466893636
N  N36  1  0.04362000  0.15200000  0.31977000  1.0 -0.3466893636
N  N37  1  0.78288000  0.49910000  0.18098000  1.0 -0.3466893636
N  N38  1  0.78288000  0.00090000  0.68098000  1.0 -0.3466893636
N  N39  1  0.21712000  0.50090000  0.81902000  1.0 -0.3466893636
N  N40  1  0.21712000  0.99910000  0.31902000  1.0 -0.3466893636
N  N41  1  0.98545000  0.49360000  0.07276000  1.0 -0.2456788722
N  N42  1  0.98545000  0.00640000  0.57276000  1.0 -0.2385290765
N  N43  1  0.01455000  0.50640000  0.92724000  1.0 -0.2316215985
N  N44  1  0.01455000  0.99360000  0.42724000  1.0 -0.2316215985
N  N45  1  0.80349000  0.32000000  0.07589000  1.0 -0.1506674814
N  N46  1  0.80349000  0.18000000  0.57589000  1.0 -0.1584652926
N  N47  1  0.19651000  0.68000000  0.92411000  1.0 -0.1584652926
N  N48  1  0.19651000  0.82000000  0.42411000  1.0 -0.1506674814
