# DDEC6 charges by PACMAN v1.1 (https://github.com/mtap-research/PACMAN-charge/)
data_QAQLUS_ASR_pacman
_symmetry_space_group_name_H-M   'P 1'
_cell_length_a   15.54770000
_cell_length_b   17.49900000
_cell_length_c   20.74500000
_cell_angle_alpha   96.74200000
_cell_angle_beta   97.21000000
_cell_angle_gamma   97.82100000
_symmetry_Int_Tables_number   1
_chemical_formula_structural   KNa3Sc4Sb2W18(C2O17)4
_chemical_formula_sum   'K2 Na6 Sc8 Sb4 W36 C16 O136'
_cell_volume   5495.19161759
_cell_formula_units_Z   2
loop_
 _symmetry_equiv_pos_site_id
 _symmetry_equiv_pos_as_xyz
  1  'x, y, z'
loop_
 _atom_site_type_symbol
 _atom_site_label
 _atom_site_symmetry_multiplicity
 _atom_site_fract_x
 _atom_site_fract_y
 _atom_site_fract_z
 _atom_site_occupancy
 _atom_site_charge
K  K1  1  0.92840000  0.78810000  0.81380000  1.0 0.8674016789
K  K2  1  0.07160000  0.21190000  0.18620000  1.0 0.8674016789
Na  Na1  1  0.34410000  0.74700000  0.79410000  1.0 0.8649777567
Na  Na2  1  0.54270000  0.59750000  0.75320000  1.0 0.8800233399
Na  Na3  1  0.13670000  0.60670000  0.78980000  1.0 0.832253704
Na  Na4  1  0.65590000  0.25300000  0.20590000  1.0 0.8674016789
Na  Na5  1  0.45730000  0.40250000  0.24680000  1.0 0.8800233399
Na  Na6  1  0.86330000  0.39330000  0.21020000  1.0 0.832253704
Sc  Sc1  1  0.10170000  0.91200000  0.93030000  1.0 1.7909765338
Sc  Sc2  1  0.75210000  0.57910000  0.68060000  1.0 1.7909765338
Sc  Sc3  1  0.72360000  0.83140000  0.87290000  1.0 1.7982614632
Sc  Sc4  1  0.61190000  0.46000000  0.41380000  1.0 1.7909765338
Sc  Sc5  1  0.89830000  0.08800000  0.06970000  1.0 1.7982614632
Sc  Sc6  1  0.24790000  0.42090000  0.31940000  1.0 1.7909765338
Sc  Sc7  1  0.27640000  0.16860000  0.12710000  1.0 1.7982614632
Sc  Sc8  1  0.38810000  0.54000000  0.58620000  1.0 1.7838063037
Sb  Sb1  1  0.60336000  0.65535000  0.53557000  1.0 1.2700857019
Sb  Sb2  1  0.91170000  0.85945000  0.03810000  1.0 1.2700857019
Sb  Sb3  1  0.39664000  0.34465000  0.46443000  1.0 1.2700857019
Sb  Sb4  1  0.08830000  0.14055000  0.96190000  1.0 1.2700857019
W  W1  1  0.89971000  0.01017000  0.88756000  1.0 2.3835074102
W  W2  1  0.78010000  0.94288000  0.14970000  1.0 2.4098642563
W  W3  1  0.68301000  0.76937000  0.69184000  1.0 2.3905341421
W  W4  1  0.60027000  0.88315000  0.58781000  1.0 2.4098642563
W  W5  1  0.11770000  0.80547000  0.13922000  1.0 2.3628393208
W  W6  1  0.42406000  0.58070000  0.41367000  1.0 2.446636418
W  W7  1  0.79643000  0.76255000  0.17808000  1.0 2.3905341421
W  W8  1  0.81820000  0.67667000  0.94311000  1.0 2.3835074102
W  W9  1  0.42295000  0.77030000  0.46676000  1.0 2.4098642563
W  W10  1  0.93425000  0.64610000  0.08294000  1.0 2.3439657485
W  W11  1  0.46912000  0.74617000  0.64136000  1.0 2.3495310103
W  W12  1  0.68421000  0.79481000  0.03697000  1.0 2.4318599497
W  W13  1  0.99497000  0.90808000  0.22571000  1.0 2.3747131621
W  W14  1  0.75737000  0.64237000  0.42144000  1.0 2.4098642563
W  W15  1  0.03543000  0.71930000  0.96818000  1.0 2.3495310103
W  W16  1  0.83414000  0.71396000  0.57567000  1.0 2.3998326098
W  W17  1  0.55973000  0.72118000  0.36240000  1.0 2.3998326098
W  W18  1  0.75297000  0.82792000  0.47187000  1.0 2.3040063178
W  W19  1  0.10029000  0.98983000  0.11244000  1.0 2.3835074102
W  W20  1  0.21990000  0.05712000  0.85030000  1.0 2.4098642563
W  W21  1  0.31699000  0.23063000  0.30816000  1.0 2.3998326098
W  W22  1  0.39973000  0.11685000  0.41219000  1.0 2.4184152877
W  W23  1  0.88230000  0.19453000  0.86078000  1.0 2.3628393208
W  W24  1  0.57594000  0.41930000  0.58633000  1.0 2.4405432736
W  W25  1  0.20357000  0.23745000  0.82192000  1.0 2.3998326098
W  W26  1  0.18180000  0.32333000  0.05689000  1.0 2.3905341421
W  W27  1  0.57705000  0.22970000  0.53324000  1.0 2.4098642563
W  W28  1  0.06575000  0.35390000  0.91706000  1.0 2.3495310103
W  W29  1  0.53088000  0.25383000  0.35864000  1.0 2.3495310103
W  W30  1  0.31579000  0.20519000  0.96303000  1.0 2.4405432736
W  W31  1  0.00503000  0.09192000  0.77429000  1.0 2.3835074102
W  W32  1  0.24263000  0.35763000  0.57856000  1.0 2.4098642563
W  W33  1  0.96457000  0.28070000  0.03182000  1.0 2.3495310103
W  W34  1  0.16586000  0.28604000  0.42433000  1.0 2.3998326098
W  W35  1  0.44027000  0.27882000  0.63760000  1.0 2.4098642563
W  W36  1  0.24703000  0.17208000  0.52813000  1.0 2.286701182
C  C1  1  0.54410000  0.75800000  0.84760000  1.0 0.500156263
C  C2  1  0.53630000  0.84410000  0.83840000  1.0 0.4811328446
C  C3  1  0.74790000  0.39830000  0.34660000  1.0 0.3672000115
C  C4  1  0.69050000  0.42020000  0.29680000  1.0 0.3672000115
C  C5  1  0.17910000  0.81210000  0.83350000  1.0 0.4708802199
C  C6  1  0.24400000  0.82260000  0.89940000  1.0 0.4643237387
C  C7  1  0.93500000  0.63300000  0.73840000  1.0 0.4811328446
C  C8  1  0.93300000  0.55200000  0.70400000  1.0 0.4871810869
C  C9  1  0.45590000  0.24200000  0.15240000  1.0 0.500156263
C  C10  1  0.46370000  0.15590000  0.16160000  1.0 0.4811328446
C  C11  1  0.25210000  0.60170000  0.65340000  1.0 0.3672000115
C  C12  1  0.30950000  0.57980000  0.70320000  1.0 0.3672000115
C  C13  1  0.82090000  0.18790000  0.16650000  1.0 0.4708802199
C  C14  1  0.75600000  0.17740000  0.10060000  1.0 0.4708802199
C  C15  1  0.06500000  0.36700000  0.26160000  1.0 0.4871810869
C  C16  1  0.06700000  0.44800000  0.29600000  1.0 0.4871810869
O  O1  1  0.46690000  0.86180000  0.82040000  1.0 -0.4326583549
O  O2  1  0.47130000  0.70790000  0.84050000  1.0 -0.5904380883
O  O3  1  0.81660000  0.36720000  0.33333333  1.0 -0.4326583549
O  O4  1  0.69720000  0.39950000  0.23300000  1.0 -0.5814360286
O  O5  1  0.56000000  0.76590000  0.71120000  1.0 -0.9063595886
O  O6  1  0.92000000  0.74510000  0.02090000  1.0 -1.0215453014
O  O7  1  0.52210000  0.68090000  0.45930000  1.0 -1.0386315106
O  O8  1  0.52490000  0.84780000  0.51120000  1.0 -0.9588479603
O  O9  1  0.47310000  0.78560000  0.38750000  1.0 -1.0481759513
O  O10  1  0.07950000  0.98770000  0.20480000  1.0 -0.9588479603
O  O11  1  0.89850000  0.95780000  0.19950000  1.0 -0.9808850492
O  O12  1  0.41060000  0.56600000  0.49630000  1.0 -0.9408586825
O  O13  1  0.33230000  0.51880000  0.36400000  1.0 -0.9588479603
O  O14  1  0.67150000  0.87370000  0.66820000  1.0 -0.9191439951
O  O15  1  0.80940000  0.93340000  0.87050000  1.0 -0.9191439951
O  O16  1  0.61890000  0.73980000  0.86010000  1.0 -0.6475632394
O  O17  1  0.84760000  0.60740000  0.01180000  1.0 -1.0000420774
O  O18  1  0.00570000  0.87890000  0.11350000  1.0 -1.0319360102
O  O19  1  0.01940000  0.71820000  0.13430000  1.0 -0.9408586825
O  O20  1  0.93010000  0.66360000  0.91280000  1.0 -0.9707759177
O  O21  1  0.98950000  0.95910000  0.89960000  1.0 -0.9408586825
O  O22  1  0.51100000  0.52430000  0.40530000  1.0 -0.9408586825
O  O23  1  0.41330000  0.74380000  0.55250000  1.0 -0.9310375298
O  O24  1  0.81580000  0.76280000  0.90250000  1.0 -1.0107349903
O  O25  1  0.01760000  0.63710000  0.02180000  1.0 -0.9707759177
O  O26  1  0.76080000  0.85830000  0.20430000  1.0 -0.9905597831
O  O27  1  0.17450000  0.90710000  0.14060000  1.0 -0.9512429689
O  O28  1  0.10750000  0.77620000  0.04960000  1.0 -0.9512429689
O  O29  1  0.82050000  0.98900000  0.08280000  1.0 -0.9905597831
O  O30  1  0.64700000  0.80610000  0.41890000  1.0 -0.9512429689
O  O31  1  0.90040000  0.04820000  0.97060000  1.0 -0.9191439951
O  O32  1  0.00430000  0.67630000  0.76240000  1.0 -0.5669083054
O  O33  1  0.11270000  0.85040000  0.83680000  1.0 -0.6825515831
O  O34  1  0.69530000  0.55950000  0.45070000  1.0 -0.9905597831
O  O35  1  0.86010000  0.51650000  0.67630000  1.0 -0.5904380883
O  O36  1  0.70920000  0.71000000  0.50630000  1.0 -1.0215453014
O  O37  1  0.73440000  0.80000000  0.77270000  1.0 -0.9063595886
O  O38  1  0.69550000  0.87300000  0.53950000  1.0 -0.9707759177
O  O39  1  0.91360000  0.81260000  0.21310000  1.0 -0.9905597831
O  O40  1  0.46940000  0.64230000  0.62430000  1.0 -0.9707759177
O  O41  1  0.36030000  0.67660000  0.42410000  1.0 -0.9512429689
O  O42  1  0.64680000  0.65830000  0.37050000  1.0 -0.9512429689
O  O43  1  0.02150000  0.80980000  0.93780000  1.0 -1.0000420774
O  O44  1  0.78140000  0.62190000  0.59640000  1.0 -1.0107349903
O  O45  1  0.63120000  0.46290000  0.31370000  1.0 -0.6475632394
O  O46  1  0.59670000  0.75100000  0.59600000  1.0 -1.0107349903
O  O47  1  0.38040000  0.75440000  0.68580000  1.0 -0.8133259023
O  O48  1  0.84820000  0.68490000  0.13100000  1.0 -0.9588479603
O  O49  1  0.61100000  0.88310000  0.84630000  1.0 -0.5616081262
O  O50  1  0.67570000  0.66250000  0.68660000  1.0 -1.0386315106
O  O51  1  0.47000000  0.63780000  0.34020000  1.0 -0.9707759177
O  O52  1  0.71390000  0.85200000  0.97290000  1.0 -1.0107349903
O  O53  1  0.67160000  0.88690000  0.09810000  1.0 -1.0000420774
O  O54  1  0.21910000  0.86380000  0.95050000  1.0 -0.63694044
O  O55  1  0.72600000  0.40530000  0.40520000  1.0 -0.5669083054
O  O56  1  0.82000000  0.83450000  0.09480000  1.0 -1.0386315106
O  O57  1  0.08210000  0.83910000  0.22310000  1.0 -1.0481759513
O  O58  1  0.77770000  0.77040000  0.64260000  1.0 -0.9310375298
O  O59  1  0.73520000  0.71070000  0.99820000  1.0 -0.9707759177
O  O60  1  0.79220000  0.75300000  0.41400000  1.0 -1.0107349903
O  O61  1  0.84470000  0.81440000  0.53620000  1.0 -1.0000420774
O  O62  1  0.50420000  0.85800000  0.63520000  1.0 -0.9588479603
O  O63  1  0.85110000  0.66080000  0.49320000  1.0 -0.9512429689
O  O64  1  0.31140000  0.79300000  0.90130000  1.0 -0.4590907896
O  O65  1  0.85550000  0.65110000  0.74200000  1.0 -0.7608432377
O  O66  1  0.69290000  0.73990000  0.11720000  1.0 -1.0107349903
O  O67  1  0.19920000  0.77630000  0.78580000  1.0 -0.4683309252
O  O68  1  0.00580000  0.52700000  0.69900000  1.0 -0.4985391403
O  O69  1  0.53310000  0.13820000  0.17960000  1.0 -0.4326583549
O  O70  1  0.52870000  0.29210000  0.15950000  1.0 -0.5904380883
O  O71  1  0.18340000  0.63280000  0.66666667  1.0 -0.4352375174
O  O72  1  0.30280000  0.60050000  0.76700000  1.0 -0.5814360286
O  O73  1  0.44000000  0.23410000  0.28880000  1.0 -0.9063595886
O  O74  1  0.08000000  0.25490000  0.97910000  1.0 -1.0215453014
O  O75  1  0.47790000  0.31910000  0.54070000  1.0 -1.0386315106
O  O76  1  0.47510000  0.15220000  0.48880000  1.0 -0.9588479603
O  O77  1  0.52690000  0.21440000  0.61250000  1.0 -1.0481759513
O  O78  1  0.92050000  0.01230000  0.79520000  1.0 -0.9588479603
O  O79  1  0.10150000  0.04220000  0.80050000  1.0 -0.9808850492
O  O80  1  0.58940000  0.43400000  0.50370000  1.0 -0.9408586825
O  O81  1  0.66770000  0.48120000  0.63600000  1.0 -0.9588479603
O  O82  1  0.32850000  0.12630000  0.33180000  1.0 -0.9191439951
O  O83  1  0.19060000  0.06660000  0.12950000  1.0 -0.9191439951
O  O84  1  0.38110000  0.26020000  0.13990000  1.0 -0.6475632394
O  O85  1  0.15240000  0.39260000  0.98820000  1.0 -0.9905597831
O  O86  1  0.99430000  0.12110000  0.88650000  1.0 -1.0319360102
O  O87  1  0.98060000  0.28180000  0.86570000  1.0 -0.9408586825
O  O88  1  0.06990000  0.33640000  0.08720000  1.0 -0.9707759177
O  O89  1  0.01050000  0.04090000  0.10040000  1.0 -0.9310375298
O  O90  1  0.48900000  0.47570000  0.59470000  1.0 -0.9408586825
O  O91  1  0.58670000  0.25620000  0.44750000  1.0 -0.9310375298
O  O92  1  0.18420000  0.23720000  0.09750000  1.0 -1.0107349903
O  O93  1  0.98240000  0.36290000  0.97820000  1.0 -0.9707759177
O  O94  1  0.23920000  0.14170000  0.79570000  1.0 -0.9905597831
O  O95  1  0.82550000  0.09290000  0.85940000  1.0 -0.9512429689
O  O96  1  0.89250000  0.22380000  0.95040000  1.0 -0.9512429689
O  O97  1  0.17950000  0.01100000  0.91720000  1.0 -0.9905597831
O  O98  1  0.35300000  0.19390000  0.58110000  1.0 -0.9512429689
O  O99  1  0.09960000  0.95180000  0.02940000  1.0 -0.9191439951
O  O100  1  0.99570000  0.32370000  0.23760000  1.0 -0.5669083054
O  O101  1  0.88730000  0.14960000  0.16320000  1.0 -0.6825515831
O  O102  1  0.30470000  0.44050000  0.54930000  1.0 -0.9905597831
O  O103  1  0.13990000  0.48350000  0.32370000  1.0 -0.5904380883
O  O104  1  0.29080000  0.29000000  0.49370000  1.0 -1.0215453014
O  O105  1  0.26560000  0.20000000  0.22730000  1.0 -0.9063595886
O  O106  1  0.30450000  0.12700000  0.46050000  1.0 -0.9707759177
O  O107  1  0.08640000  0.18740000  0.78690000  1.0 -0.9905597831
O  O108  1  0.53060000  0.35770000  0.37570000  1.0 -0.9707759177
O  O109  1  0.63970000  0.32340000  0.57590000  1.0 -0.9512429689
O  O110  1  0.35320000  0.34170000  0.62950000  1.0 -0.9512429689
O  O111  1  0.97850000  0.19020000  0.06220000  1.0 -1.0000420774
O  O112  1  0.21860000  0.37810000  0.40360000  1.0 -1.0107349903
O  O113  1  0.36880000  0.53710000  0.68630000  1.0 -0.6475632394
O  O114  1  0.40330000  0.24900000  0.40400000  1.0 -1.0107349903
O  O115  1  0.61960000  0.24560000  0.31420000  1.0 -0.8133259023
O  O116  1  0.15180000  0.31510000  0.86900000  1.0 -0.9588479603
O  O117  1  0.38900000  0.11690000  0.15370000  1.0 -0.5616081262
O  O118  1  0.32430000  0.33750000  0.31340000  1.0 -1.0386315106
O  O119  1  0.53000000  0.36220000  0.65980000  1.0 -0.9707759177
O  O120  1  0.28610000  0.14800000  0.02710000  1.0 -1.0107349903
O  O121  1  0.32840000  0.11310000  0.90190000  1.0 -0.9905597831
O  O122  1  0.78090000  0.13620000  0.04950000  1.0 -0.63694044
O  O123  1  0.27400000  0.59470000  0.59480000  1.0 -0.5669083054
O  O124  1  0.18000000  0.16550000  0.90520000  1.0 -1.0386315106
O  O125  1  0.91790000  0.16090000  0.77690000  1.0 -1.0386315106
O  O126  1  0.22230000  0.22960000  0.35740000  1.0 -0.9310375298
O  O127  1  0.26480000  0.28930000  0.00180000  1.0 -0.9707759177
O  O128  1  0.20780000  0.24700000  0.58600000  1.0 -1.0215453014
O  O129  1  0.15530000  0.18560000  0.46380000  1.0 -1.0107349903
O  O130  1  0.49580000  0.14200000  0.36480000  1.0 -0.9588479603
O  O131  1  0.14890000  0.33920000  0.50680000  1.0 -0.9512429689
O  O132  1  0.68860000  0.20700000  0.09870000  1.0 -0.4535452331
O  O133  1  0.14450000  0.34890000  0.25800000  1.0 -0.7608432377
O  O134  1  0.30710000  0.26010000  0.88280000  1.0 -1.0215453014
O  O135  1  0.80080000  0.22370000  0.21420000  1.0 -0.4683309252
O  O136  1  0.99420000  0.47300000  0.30100000  1.0 -0.507961532
