# DDEC6 charges by PACMAN v1.1 (https://github.com/mtap-research/PACMAN-charge/)
data_QAQWAK_FSR_pacman
_symmetry_space_group_name_H-M   'P 1'
_cell_length_a   11.26490000
_cell_length_b   11.26490000
_cell_length_c   7.88590000
_cell_angle_alpha   90.00000000
_cell_angle_beta   90.00000000
_cell_angle_gamma   90.00000000
_symmetry_Int_Tables_number   1
_chemical_formula_structural   NbNiH32C36N4(OF2)2
_chemical_formula_sum   'Nb1 Ni1 H32 C36 N4 O2 F4'
_cell_volume   1000.70471747
_cell_formula_units_Z   1
loop_
 _symmetry_equiv_pos_site_id
 _symmetry_equiv_pos_as_xyz
  1  'x, y, z'
loop_
 _atom_site_type_symbol
 _atom_site_label
 _atom_site_symmetry_multiplicity
 _atom_site_fract_x
 _atom_site_fract_y
 _atom_site_fract_z
 _atom_site_occupancy
 _atom_site_charge
Nb  Nb1  1  0.50000000  0.50000000  0.00000000  1.0 2.2240210203
Ni  Ni1  1  0.50000000  0.50000000  0.50000000  1.0 0.4353939918
H  H1  1  0.91080000  0.59920000  0.71430000  1.0 0.0940919611
H  H2  1  0.70340000  0.59910000  0.70570000  1.0 0.0970304775
H  H3  1  0.08920000  0.40080000  0.71430000  1.0 0.0940919611
H  H4  1  0.29660000  0.40090000  0.70570000  1.0 0.0970304775
H  H5  1  0.59920000  0.08920000  0.71430000  1.0 0.0940919611
H  H6  1  0.59910000  0.29660000  0.70570000  1.0 0.0970304775
H  H7  1  0.40080000  0.91080000  0.71430000  1.0 0.0940919611
H  H8  1  0.40090000  0.70340000  0.70570000  1.0 0.0970304775
H  H9  1  0.91080000  0.40080000  0.28570000  1.0 0.0940919611
H  H10  1  0.70340000  0.40090000  0.29430000  1.0 0.0970304775
H  H11  1  0.08920000  0.59920000  0.28570000  1.0 0.0940919611
H  H12  1  0.29660000  0.59910000  0.29430000  1.0 0.0970304775
H  H13  1  0.59920000  0.91080000  0.28570000  1.0 0.0940919611
H  H14  1  0.59910000  0.70340000  0.29430000  1.0 0.0970304775
H  H15  1  0.40080000  0.08920000  0.28570000  1.0 0.0940919611
H  H16  1  0.40090000  0.29660000  0.29430000  1.0 0.0970304775
H  H17  1  0.08920000  0.40080000  0.28570000  1.0 0.0940919611
H  H18  1  0.29660000  0.40090000  0.29430000  1.0 0.0970304775
H  H19  1  0.91080000  0.59920000  0.28570000  1.0 0.0940919611
H  H20  1  0.70340000  0.59910000  0.29430000  1.0 0.0970304775
H  H21  1  0.40080000  0.91080000  0.28570000  1.0 0.0940919611
H  H22  1  0.40090000  0.70340000  0.29430000  1.0 0.0970304775
H  H23  1  0.59920000  0.08920000  0.28570000  1.0 0.0940919611
H  H24  1  0.59910000  0.29660000  0.29430000  1.0 0.0970304775
H  H25  1  0.08920000  0.59920000  0.71430000  1.0 0.0940919611
H  H26  1  0.29660000  0.59910000  0.70570000  1.0 0.0970304775
H  H27  1  0.91080000  0.40080000  0.71430000  1.0 0.0940919611
H  H28  1  0.70340000  0.40090000  0.70570000  1.0 0.0970304775
H  H29  1  0.40080000  0.08920000  0.71430000  1.0 0.0940919611
H  H30  1  0.40090000  0.29660000  0.70570000  1.0 0.0970304775
H  H31  1  0.59920000  0.91080000  0.71430000  1.0 0.0940919611
H  H32  1  0.59910000  0.70340000  0.70570000  1.0 0.0970304775
C  C1  1  0.87050000  0.55870000  0.62580000  1.0 -0.1025996423
C  C2  1  0.74610000  0.55750000  0.62050000  1.0 0.0043666436
C  C3  1  0.12950000  0.44130000  0.62580000  1.0 -0.1025996423
C  C4  1  0.25390000  0.44250000  0.62050000  1.0 0.0043666436
C  C5  1  0.55870000  0.12950000  0.62580000  1.0 -0.1025996423
C  C6  1  0.55750000  0.25390000  0.62050000  1.0 0.0043666436
C  C7  1  0.44130000  0.87050000  0.62580000  1.0 -0.1025996423
C  C8  1  0.44250000  0.74610000  0.62050000  1.0 0.0043666436
C  C9  1  0.87050000  0.44130000  0.37420000  1.0 -0.1025996423
C  C10  1  0.74610000  0.44250000  0.37950000  1.0 0.0043666436
C  C11  1  0.12950000  0.55870000  0.37420000  1.0 -0.1025996423
C  C12  1  0.25390000  0.55750000  0.37950000  1.0 0.0043666436
C  C13  1  0.55870000  0.87050000  0.37420000  1.0 -0.1025996423
C  C14  1  0.55750000  0.74610000  0.37950000  1.0 0.0043666436
C  C15  1  0.44130000  0.12950000  0.37420000  1.0 -0.1025996423
C  C16  1  0.44250000  0.25390000  0.37950000  1.0 0.0043666436
C  C17  1  0.12950000  0.44130000  0.37420000  1.0 -0.1025996423
C  C18  1  0.25390000  0.44250000  0.37950000  1.0 0.0043666436
C  C19  1  0.87050000  0.55870000  0.37420000  1.0 -0.1025996423
C  C20  1  0.74610000  0.55750000  0.37950000  1.0 0.0043666436
C  C21  1  0.44130000  0.87050000  0.37420000  1.0 -0.1025996423
C  C22  1  0.44250000  0.74610000  0.37950000  1.0 0.0043666436
C  C23  1  0.55870000  0.12950000  0.37420000  1.0 -0.1025996423
C  C24  1  0.55750000  0.25390000  0.37950000  1.0 0.0043666436
C  C25  1  0.12950000  0.55870000  0.62580000  1.0 -0.1025996423
C  C26  1  0.25390000  0.55750000  0.62050000  1.0 0.0043666436
C  C27  1  0.87050000  0.44130000  0.62580000  1.0 -0.1025996423
C  C28  1  0.74610000  0.44250000  0.62050000  1.0 0.0043666436
C  C29  1  0.44130000  0.12950000  0.62580000  1.0 -0.1025996423
C  C30  1  0.44250000  0.25390000  0.62050000  1.0 0.0043666436
C  C31  1  0.55870000  0.87050000  0.62580000  1.0 -0.1025996423
C  C32  1  0.55750000  0.74610000  0.62050000  1.0 0.0043666436
C  C33  1  0.93420000  0.50000000  0.50000000  1.0 0.0391315081
C  C34  1  0.06580000  0.50000000  0.50000000  1.0 0.0391315081
C  C35  1  0.50000000  0.06580000  0.50000000  1.0 0.0391315081
C  C36  1  0.50000000  0.93420000  0.50000000  1.0 0.0391315081
N  N1  1  0.68520000  0.50000000  0.50000000  1.0 -0.0264455761
N  N2  1  0.31480000  0.50000000  0.50000000  1.0 -0.0264455761
N  N3  1  0.50000000  0.31480000  0.50000000  1.0 -0.0264455761
N  N4  1  0.50000000  0.68520000  0.50000000  1.0 -0.0264455761
O  O1  1  0.50000000  0.50000000  0.24360000  1.0 -0.9274468991
O  O2  1  0.50000000  0.50000000  0.75640000  1.0 -0.9274468991
F  F1  1  0.61990000  0.61990000  0.00000000  1.0 -0.585373995
F  F2  1  0.38010000  0.38010000  0.00000000  1.0 -0.585373995
F  F3  1  0.61990000  0.38010000  0.00000000  1.0 -0.585373995
F  F4  1  0.38010000  0.61990000  0.00000000  1.0 -0.585373995
