# DDEC6 charges by PACMAN v1.1 (https://github.com/mtap-research/PACMAN-charge/)
data_QARLON_ASR_pacman
_symmetry_space_group_name_H-M   'P 1'
_cell_length_a   20.31410000
_cell_length_b   20.31410000
_cell_length_c   34.84800000
_cell_angle_alpha   70.61380000
_cell_angle_beta   109.38600000
_cell_angle_gamma   139.03000000
_symmetry_Int_Tables_number   1
_chemical_formula_structural   Zn3H24C36(I5N6)2
_chemical_formula_sum   'Zn12 H96 C144 I40 N48'
_cell_volume   8816.98549597
_cell_formula_units_Z   4
loop_
 _symmetry_equiv_pos_site_id
 _symmetry_equiv_pos_as_xyz
  1  'x, y, z'
loop_
 _atom_site_type_symbol
 _atom_site_label
 _atom_site_symmetry_multiplicity
 _atom_site_fract_x
 _atom_site_fract_y
 _atom_site_fract_z
 _atom_site_occupancy
 _atom_site_charge
Zn  Zn1  1  0.49486000  0.75154000  0.92935000  1.0 0.3316746881
Zn  Zn2  1  0.24846000  0.50514000  0.42935000  1.0 0.3316746881
Zn  Zn3  1  0.01366000  0.81238000  0.07785000  1.0 0.3515135453
Zn  Zn4  1  0.18762000  0.98634000  0.57785000  1.0 0.3515135453
Zn  Zn5  1  0.67999000  0.01275000  0.72899000  1.0 0.4344528621
Zn  Zn6  1  0.98725000  0.32001000  0.22899000  1.0 0.4344528621
Zn  Zn7  1  0.75154000  0.49486000  0.57065000  1.0 0.3316746881
Zn  Zn8  1  0.50514000  0.24846000  0.07065000  1.0 0.3316746881
Zn  Zn9  1  0.81238000  0.01366000  0.42215000  1.0 0.3515135453
Zn  Zn10  1  0.98634000  0.18762000  0.92215000  1.0 0.3515135453
Zn  Zn11  1  0.01275000  0.67999000  0.77101000  1.0 0.4344528621
Zn  Zn12  1  0.32001000  0.98725000  0.27101000  1.0 0.4344528621
H  H1  1  0.39970000  0.53870000  0.95110000  1.0 0.1000494571
H  H2  1  0.46130000  0.60030000  0.45110000  1.0 0.1000494571
H  H3  1  0.30050000  0.39550000  0.99660000  1.0 0.1315477205
H  H4  1  0.60450000  0.69950000  0.49660000  1.0 0.1315477205
H  H5  1  0.30720000  0.54720000  0.05080000  1.0 0.1210789001
H  H6  1  0.45280000  0.69280000  0.55080000  1.0 0.1210789001
H  H7  1  0.40260000  0.68620000  0.00180000  1.0 0.0798623779
H  H8  1  0.31380000  0.59740000  0.50180000  1.0 0.0798623779
H  H9  1  0.12860000  0.14320000  0.02460000  1.0 0.1210789001
H  H10  1  0.85680000  0.87140000  0.52460000  1.0 0.1210789001
H  H11  1  0.08020000  0.99860000  0.02300000  1.0 0.0798623779
H  H12  1  0.00140000  0.91980000  0.52300000  1.0 0.0798623779
H  H13  1  0.03890000  0.90670000  0.13890000  1.0 0.1000494571
H  H14  1  0.09330000  0.96110000  0.63890000  1.0 0.1000494571
H  H15  1  0.08040000  0.04600000  0.14320000  1.0 0.1315477205
H  H16  1  0.95400000  0.91960000  0.64320000  1.0 0.1315477205
H  H17  1  0.09960000  0.39440000  0.09920000  1.0 0.135548391
H  H18  1  0.60560000  0.90040000  0.59920000  1.0 0.1315477205
H  H19  1  0.04550000  0.40410000  0.14420000  1.0 0.1000494571
H  H20  1  0.59590000  0.95450000  0.64420000  1.0 0.0905103597
H  H21  1  0.02960000  0.20760000  0.22740000  1.0 0.1000494571
H  H22  1  0.79240000  0.97040000  0.72740000  1.0 0.1000494571
H  H23  1  0.07810000  0.18910000  0.18440000  1.0 0.1315477205
H  H24  1  0.81090000  0.92190000  0.68440000  1.0 0.1315477205
H  H25  1  0.50120000  0.82780000  0.84070000  1.0 0.0905103597
H  H26  1  0.17220000  0.49880000  0.34070000  1.0 0.0905103597
H  H27  1  0.39630000  0.78470000  0.77890000  1.0 0.1315477205
H  H28  1  0.21530000  0.60370000  0.27890000  1.0 0.1315477205
H  H29  1  0.16930000  0.51250000  0.83840000  1.0 0.1210789001
H  H30  1  0.48750000  0.83070000  0.33840000  1.0 0.1210789001
H  H31  1  0.27740000  0.56740000  0.89810000  1.0 0.0905103597
H  H32  1  0.43260000  0.72260000  0.39810000  1.0 0.0905103597
H  H33  1  0.87910000  0.37910000  0.67590000  1.0 0.1210789001
H  H34  1  0.62090000  0.12090000  0.17590000  1.0 0.1210789001
H  H35  1  0.74340000  0.20600000  0.67680000  1.0 0.1000494571
H  H36  1  0.79400000  0.25660000  0.17680000  1.0 0.1000494571
H  H37  1  0.89630000  0.16590000  0.76450000  1.0 0.1000494571
H  H38  1  0.83410000  0.10370000  0.26450000  1.0 0.1000494571
H  H39  1  0.03320000  0.33760000  0.76710000  1.0 0.1315477205
H  H40  1  0.66240000  0.96680000  0.26710000  1.0 0.1315477205
H  H41  1  0.02000000  0.63320000  0.63420000  1.0 0.1000494571
H  H42  1  0.36680000  0.98000000  0.13420000  1.0 0.1000494571
H  H43  1  0.04410000  0.76110000  0.58900000  1.0 0.0798623779
H  H44  1  0.23890000  0.95590000  0.08900000  1.0 0.0798623779
H  H45  1  0.29600000  0.96720000  0.65590000  1.0 0.0905103597
H  H46  1  0.03280000  0.70400000  0.15590000  1.0 0.0905103597
H  H47  1  0.28050000  0.84770000  0.70280000  1.0 0.1210789001
H  H48  1  0.15230000  0.71950000  0.20280000  1.0 0.1210789001
H  H49  1  0.53870000  0.39970000  0.54890000  1.0 0.1000494571
H  H50  1  0.60030000  0.46130000  0.04890000  1.0 0.1000494571
H  H51  1  0.39550000  0.30050000  0.50340000  1.0 0.1315477205
H  H52  1  0.69950000  0.60450000  0.00340000  1.0 0.1315477205
H  H53  1  0.54720000  0.30720000  0.44920000  1.0 0.1210789001
H  H54  1  0.69280000  0.45280000  0.94920000  1.0 0.1210789001
H  H55  1  0.68620000  0.40260000  0.49820000  1.0 0.0798623779
H  H56  1  0.59740000  0.31380000  0.99820000  1.0 0.0798623779
H  H57  1  0.14320000  0.12860000  0.47540000  1.0 0.1210789001
H  H58  1  0.87140000  0.85680000  0.97540000  1.0 0.1210789001
H  H59  1  0.99860000  0.08020000  0.47700000  1.0 0.0798623779
H  H60  1  0.91980000  0.00140000  0.97700000  1.0 0.0798623779
H  H61  1  0.90670000  0.03890000  0.36110000  1.0 0.1000494571
H  H62  1  0.96110000  0.09330000  0.86110000  1.0 0.1000494571
H  H63  1  0.04600000  0.08040000  0.35680000  1.0 0.1315477205
H  H64  1  0.91960000  0.95400000  0.85680000  1.0 0.1315477205
H  H65  1  0.39440000  0.09960000  0.40080000  1.0 0.135548391
H  H66  1  0.90040000  0.60560000  0.90080000  1.0 0.1315477205
H  H67  1  0.40410000  0.04550000  0.35580000  1.0 0.1000494571
H  H68  1  0.95450000  0.59590000  0.85580000  1.0 0.1000494571
H  H69  1  0.20760000  0.02960000  0.27260000  1.0 0.1000494571
H  H70  1  0.97040000  0.79240000  0.77260000  1.0 0.1000494571
H  H71  1  0.18910000  0.07810000  0.31560000  1.0 0.1315477205
H  H72  1  0.92190000  0.81090000  0.81560000  1.0 0.1315477205
H  H73  1  0.82780000  0.50120000  0.65930000  1.0 0.0905103597
H  H74  1  0.49880000  0.17220000  0.15930000  1.0 0.0905103597
H  H75  1  0.78470000  0.39630000  0.72110000  1.0 0.1315477205
H  H76  1  0.60370000  0.21530000  0.22110000  1.0 0.1315477205
H  H77  1  0.51250000  0.16930000  0.66160000  1.0 0.1210789001
H  H78  1  0.83070000  0.48750000  0.16160000  1.0 0.1210789001
H  H79  1  0.56740000  0.27740000  0.60190000  1.0 0.0905103597
H  H80  1  0.72260000  0.43260000  0.10190000  1.0 0.0905103597
H  H81  1  0.37910000  0.87910000  0.82410000  1.0 0.1210789001
H  H82  1  0.12090000  0.62090000  0.32410000  1.0 0.1210789001
H  H83  1  0.20600000  0.74340000  0.82320000  1.0 0.1000494571
H  H84  1  0.25660000  0.79400000  0.32320000  1.0 0.1000494571
H  H85  1  0.16590000  0.89630000  0.73550000  1.0 0.1000494571
H  H86  1  0.10370000  0.83410000  0.23550000  1.0 0.1000494571
H  H87  1  0.33760000  0.03320000  0.73290000  1.0 0.1315477205
H  H88  1  0.96680000  0.66240000  0.23290000  1.0 0.1315477205
H  H89  1  0.63320000  0.02000000  0.86580000  1.0 0.1000494571
H  H90  1  0.98000000  0.36680000  0.36580000  1.0 0.1000494571
H  H91  1  0.76110000  0.04410000  0.91100000  1.0 0.0798623779
H  H92  1  0.95590000  0.23890000  0.41100000  1.0 0.0798623779
H  H93  1  0.96720000  0.29600000  0.84410000  1.0 0.0905103597
H  H94  1  0.70400000  0.03280000  0.34410000  1.0 0.0905103597
H  H95  1  0.84770000  0.28050000  0.79720000  1.0 0.1210789001
H  H96  1  0.71950000  0.15230000  0.29720000  1.0 0.1210789001
C  C1  1  0.37886000  0.53974000  0.97140000  1.0 0.0611982685
C  C2  1  0.46026000  0.62114000  0.47140000  1.0 0.0611982685
C  C3  1  0.32007000  0.45433000  0.99830000  1.0 -0.1486521863
C  C4  1  0.54567000  0.67993000  0.49830000  1.0 -0.1486521863
C  C5  1  0.28932000  0.45428000  0.02827000  1.0 0.0382524548
C  C6  1  0.54572000  0.71068000  0.52827000  1.0 0.0382524548
C  C7  1  0.32348000  0.54292000  0.02970000  1.0 -0.1486521863
C  C8  1  0.45708000  0.67652000  0.52970000  1.0 -0.1486521863
C  C9  1  0.38155000  0.62605000  0.00080000  1.0 0.0611982685
C  C10  1  0.37395000  0.61845000  0.50080000  1.0 0.0611982685
C  C11  1  0.22264000  0.36376000  0.05745000  1.0 0.3595445038
C  C12  1  0.63624000  0.77736000  0.55745000  1.0 0.3595445038
C  C13  1  0.14085000  0.20395000  0.08498000  1.0 0.3595445038
C  C14  1  0.79605000  0.85915000  0.58498000  1.0 0.3595445038
C  C15  1  0.13334000  0.28706000  0.10896000  1.0 0.3515135453
C  C16  1  0.71294000  0.86666000  0.60896000  1.0 0.3515135453
C  C17  1  0.10930000  0.11070000  0.08405000  1.0 0.0493244601
C  C18  1  0.88930000  0.89070000  0.58405000  1.0 0.0493244601
C  C19  1  0.10935000  0.09505000  0.04851000  1.0 -0.1573086357
C  C20  1  0.90495000  0.89065000  0.54851000  1.0 -0.1573086357
C  C21  1  0.08134000  0.00926000  0.04790000  1.0 0.0341388224
C  C22  1  0.99074000  0.91866000  0.54790000  1.0 0.0382524548
C  C23  1  0.05643000  0.95517000  0.11520000  1.0 0.0905103597
C  C24  1  0.04483000  0.94357000  0.61520000  1.0 0.0905103597
C  C25  1  0.08173000  0.03827000  0.11820000  1.0 -0.1573086357
C  C26  1  0.96173000  0.91827000  0.61820000  1.0 -0.1573086357
C  C27  1  0.09653000  0.29167000  0.13721000  1.0 0.0687500468
C  C28  1  0.70833000  0.90347000  0.63721000  1.0 0.0611982685
C  C29  1  0.08538000  0.35502000  0.12550000  1.0 -0.1486521863
C  C30  1  0.64498000  0.91462000  0.62550000  1.0 -0.1486521863
C  C31  1  0.05306000  0.36034000  0.15240000  1.0 0.0798623779
C  C32  1  0.63966000  0.94694000  0.65240000  1.0 0.0798623779
C  C33  1  0.04335000  0.24545000  0.20070000  1.0 0.0611982685
C  C34  1  0.75455000  0.95665000  0.70070000  1.0 0.0687500468
C  C35  1  0.07324000  0.23496000  0.17570000  1.0 -0.1711498121
C  C36  1  0.76504000  0.92676000  0.67570000  1.0 -0.1711498121
C  C37  1  0.43207000  0.76393000  0.84002000  1.0 0.0493244601
C  C38  1  0.23607000  0.56793000  0.34002000  1.0 0.0493244601
C  C39  1  0.37057000  0.73843000  0.80327000  1.0 -0.1486521863
C  C40  1  0.26157000  0.62943000  0.30327000  1.0 -0.1486521863
C  C41  1  0.27013000  0.64407000  0.80207000  1.0 0.0493244601
C  C42  1  0.35593000  0.72987000  0.30207000  1.0 0.0493244601
C  C43  1  0.23660000  0.57880000  0.83820000  1.0 -0.1486521863
C  C44  1  0.42120000  0.76340000  0.33820000  1.0 -0.1486521863
C  C45  1  0.30180000  0.61160000  0.87320000  1.0 0.0687500468
C  C46  1  0.38840000  0.69820000  0.37320000  1.0 0.0687500468
C  C47  1  0.19748000  0.61232000  0.76369000  1.0 0.3675716898
C  C48  1  0.38768000  0.80252000  0.26369000  1.0 0.3675716898
C  C49  1  0.13647000  0.64833000  0.70448000  1.0 0.3595445038
C  C50  1  0.35167000  0.86353000  0.20448000  1.0 0.3595445038
C  C51  1  0.05443000  0.48757000  0.72741000  1.0 0.3515135453
C  C52  1  0.51243000  0.94557000  0.22741000  1.0 0.3515135453
C  C53  1  0.96944000  0.37796000  0.72324000  1.0 0.0611982685
C  C54  1  0.62204000  0.03056000  0.22324000  1.0 0.0611982685
C  C55  1  0.88302000  0.33618000  0.69541000  1.0 -0.1573086357
C  C56  1  0.66382000  0.11698000  0.19541000  1.0 -0.1573086357
C  C57  1  0.80284000  0.23316000  0.69572000  1.0 0.0687500468
C  C58  1  0.76684000  0.19716000  0.19572000  1.0 0.0687500468
C  C59  1  0.89177000  0.20983000  0.74710000  1.0 0.0687500468
C  C60  1  0.79017000  0.10823000  0.24710000  1.0 0.0687500468
C  C61  1  0.97364000  0.31196000  0.74860000  1.0 -0.1486521863
C  C62  1  0.68804000  0.02636000  0.24860000  1.0 -0.1486521863
C  C63  1  0.14821000  0.72619000  0.67418000  1.0 0.0611982685
C  C64  1  0.27381000  0.85179000  0.17418000  1.0 0.0611982685
C  C65  1  0.07725000  0.70155000  0.63940000  1.0 -0.1573086357
C  C66  1  0.29845000  0.92275000  0.13940000  1.0 -0.1573086357
C  C67  1  0.09207000  0.77813000  0.61280000  1.0 0.0493244601
C  C68  1  0.22187000  0.90793000  0.11280000  1.0 0.0493244601
C  C69  1  0.23865000  0.89815000  0.65170000  1.0 0.0798623779
C  C70  1  0.10185000  0.76135000  0.15170000  1.0 0.0798623779
C  C71  1  0.23036000  0.82764000  0.67960000  1.0 -0.1486521863
C  C72  1  0.17236000  0.76964000  0.17960000  1.0 -0.1486521863
C  C73  1  0.53974000  0.37886000  0.52860000  1.0 0.0611982685
C  C74  1  0.62114000  0.46026000  0.02860000  1.0 0.0611982685
C  C75  1  0.45433000  0.32007000  0.50170000  1.0 -0.1486521863
C  C76  1  0.67993000  0.54567000  0.00170000  1.0 -0.1486521863
C  C77  1  0.45428000  0.28932000  0.47173000  1.0 0.0382524548
C  C78  1  0.71068000  0.54572000  0.97173000  1.0 0.0382524548
C  C79  1  0.54292000  0.32348000  0.47030000  1.0 -0.1486521863
C  C80  1  0.67652000  0.45708000  0.97030000  1.0 -0.1486521863
C  C81  1  0.62605000  0.38155000  0.49920000  1.0 0.0611982685
C  C82  1  0.61845000  0.37395000  0.99920000  1.0 0.0611982685
C  C83  1  0.36376000  0.22264000  0.44255000  1.0 0.3595445038
C  C84  1  0.77736000  0.63624000  0.94255000  1.0 0.3595445038
C  C85  1  0.20395000  0.14085000  0.41502000  1.0 0.3595445038
C  C86  1  0.85915000  0.79605000  0.91502000  1.0 0.3595445038
C  C87  1  0.28706000  0.13334000  0.39104000  1.0 0.3515135453
C  C88  1  0.86666000  0.71294000  0.89104000  1.0 0.3515135453
C  C89  1  0.11070000  0.10930000  0.41595000  1.0 0.0493244601
C  C90  1  0.89070000  0.88930000  0.91595000  1.0 0.0611982685
C  C91  1  0.09505000  0.10935000  0.45149000  1.0 -0.1573086357
C  C92  1  0.89065000  0.90495000  0.95149000  1.0 -0.1573086357
C  C93  1  0.00926000  0.08134000  0.45210000  1.0 0.0382524548
C  C94  1  0.91866000  0.99074000  0.95210000  1.0 0.0382524548
C  C95  1  0.95517000  0.05643000  0.38480000  1.0 0.0905103597
C  C96  1  0.94357000  0.04483000  0.88480000  1.0 0.0905103597
C  C97  1  0.03827000  0.08173000  0.38180000  1.0 -0.1573086357
C  C98  1  0.91827000  0.96173000  0.88180000  1.0 -0.1573086357
C  C99  1  0.29167000  0.09653000  0.36279000  1.0 0.0611982685
C  C100  1  0.90347000  0.70833000  0.86279000  1.0 0.0687500468
C  C101  1  0.35502000  0.08538000  0.37450000  1.0 -0.1486521863
C  C102  1  0.91462000  0.64498000  0.87450000  1.0 -0.1486521863
C  C103  1  0.36034000  0.05306000  0.34760000  1.0 0.0798623779
C  C104  1  0.94694000  0.63966000  0.84760000  1.0 0.0798623779
C  C105  1  0.24545000  0.04335000  0.29930000  1.0 0.0687500468
C  C106  1  0.95665000  0.75455000  0.79930000  1.0 0.0611982685
C  C107  1  0.23496000  0.07324000  0.32430000  1.0 -0.1711498121
C  C108  1  0.92676000  0.76504000  0.82430000  1.0 -0.1711498121
C  C109  1  0.76393000  0.43207000  0.65998000  1.0 0.0493244601
C  C110  1  0.56793000  0.23607000  0.15998000  1.0 0.0493244601
C  C111  1  0.73843000  0.37057000  0.69673000  1.0 -0.1486521863
C  C112  1  0.62943000  0.26157000  0.19673000  1.0 -0.1486521863
C  C113  1  0.64407000  0.27013000  0.69793000  1.0 0.0493244601
C  C114  1  0.72987000  0.35593000  0.19793000  1.0 0.0493244601
C  C115  1  0.57880000  0.23660000  0.66180000  1.0 -0.1486521863
C  C116  1  0.76340000  0.42120000  0.16180000  1.0 -0.1486521863
C  C117  1  0.61160000  0.30180000  0.62680000  1.0 0.0687500468
C  C118  1  0.69820000  0.38840000  0.12680000  1.0 0.0687500468
C  C119  1  0.61232000  0.19748000  0.73631000  1.0 0.3675716898
C  C120  1  0.80252000  0.38768000  0.23631000  1.0 0.3675716898
C  C121  1  0.64833000  0.13647000  0.79552000  1.0 0.3595445038
C  C122  1  0.86353000  0.35167000  0.29552000  1.0 0.3595445038
C  C123  1  0.48757000  0.05443000  0.77259000  1.0 0.3515135453
C  C124  1  0.94557000  0.51243000  0.27259000  1.0 0.3515135453
C  C125  1  0.37796000  0.96944000  0.77676000  1.0 0.0611982685
C  C126  1  0.03056000  0.62204000  0.27676000  1.0 0.0611982685
C  C127  1  0.33618000  0.88302000  0.80459000  1.0 -0.1573086357
C  C128  1  0.11698000  0.66382000  0.30459000  1.0 -0.1573086357
C  C129  1  0.23316000  0.80284000  0.80428000  1.0 0.0687500468
C  C130  1  0.19716000  0.76684000  0.30428000  1.0 0.0687500468
C  C131  1  0.20983000  0.89177000  0.75290000  1.0 0.0687500468
C  C132  1  0.10823000  0.79017000  0.25290000  1.0 0.0687500468
C  C133  1  0.31196000  0.97364000  0.75140000  1.0 -0.1486521863
C  C134  1  0.02636000  0.68804000  0.25140000  1.0 -0.1486521863
C  C135  1  0.72619000  0.14821000  0.82582000  1.0 0.0611982685
C  C136  1  0.85179000  0.27381000  0.32582000  1.0 0.0611982685
C  C137  1  0.70155000  0.07725000  0.86060000  1.0 -0.1573086357
C  C138  1  0.92275000  0.29845000  0.36060000  1.0 -0.1573086357
C  C139  1  0.77813000  0.09207000  0.88720000  1.0 0.0493244601
C  C140  1  0.90793000  0.22187000  0.38720000  1.0 0.0493244601
C  C141  1  0.89815000  0.23865000  0.84830000  1.0 0.0798623779
C  C142  1  0.76135000  0.10185000  0.34830000  1.0 0.0798623779
C  C143  1  0.82764000  0.23036000  0.82040000  1.0 -0.1486521863
C  C144  1  0.76964000  0.17236000  0.32040000  1.0 -0.1486521863
I  I1  1  0.50512000  0.88008000  0.93920000  1.0 -0.0310365977
I  I2  1  0.11992000  0.49488000  0.43920000  1.0 -0.0244556278
I  I3  1  0.64026000  0.79614000  0.92279000  1.0 0.0493244601
I  I4  1  0.20386000  0.35974000  0.42279000  1.0 0.0493244601
I  I5  1  0.51851000  0.96865000  0.70394000  1.0 -0.4397561991
I  I6  1  0.03135000  0.48149000  0.20394000  1.0 -0.4397561991
I  I7  1  0.70495000  0.94803000  0.80187000  1.0 -0.4580974946
I  I8  1  0.05197000  0.29505000  0.30187000  1.0 -0.4580974946
I  I9  1  0.03898000  0.82862000  0.00578000  1.0 0.0493244601
I  I10  1  0.17138000  0.96102000  0.50578000  1.0 0.0493244601
I  I11  1  0.84725000  0.66383000  0.10872000  1.0 -0.4397561991
I  I12  1  0.33617000  0.15275000  0.60872000  1.0 -0.4397561991
I  I13  1  0.53630000  0.88850000  0.94690000  1.0 -0.0520291583
I  I14  1  0.11150000  0.46370000  0.44690000  1.0 -0.0520291583
I  I15  1  0.63030000  0.76630000  0.92350000  1.0 0.0798623779
I  I16  1  0.23370000  0.36970000  0.42350000  1.0 0.0798623779
I  I17  1  0.01990000  0.81310000  0.01420000  1.0 0.0341388224
I  I18  1  0.18690000  0.98010000  0.51420000  1.0 0.0341388224
I  I19  1  0.85740000  0.66740000  0.11440000  1.0 -0.4397561991
I  I20  1  0.33260000  0.14260000  0.61440000  1.0 -0.4397561991
I  I21  1  0.88008000  0.50512000  0.56080000  1.0 -0.0310365977
I  I22  1  0.49488000  0.11992000  0.06080000  1.0 -0.0310365977
I  I23  1  0.79614000  0.64026000  0.57721000  1.0 0.0493244601
I  I24  1  0.35974000  0.20386000  0.07721000  1.0 0.0493244601
I  I25  1  0.96865000  0.51851000  0.79606000  1.0 -0.4397561991
I  I26  1  0.48149000  0.03135000  0.29606000  1.0 -0.4397561991
I  I27  1  0.94803000  0.70495000  0.69813000  1.0 -0.4580974946
I  I28  1  0.29505000  0.05197000  0.19813000  1.0 -0.4580974946
I  I29  1  0.82862000  0.03898000  0.49422000  1.0 0.0493244601
I  I30  1  0.96102000  0.17138000  0.99422000  1.0 0.0493244601
I  I31  1  0.66383000  0.84725000  0.39128000  1.0 -0.4397561991
I  I32  1  0.15275000  0.33617000  0.89128000  1.0 -0.4397561991
I  I33  1  0.88850000  0.53630000  0.55310000  1.0 -0.0520291583
I  I34  1  0.46370000  0.11150000  0.05310000  1.0 -0.0520291583
I  I35  1  0.76630000  0.63030000  0.57650000  1.0 0.0798623779
I  I36  1  0.36970000  0.23370000  0.07650000  1.0 0.0798623779
I  I37  1  0.81310000  0.01990000  0.48580000  1.0 0.0341388224
I  I38  1  0.98010000  0.18690000  0.98580000  1.0 0.0341388224
I  I39  1  0.66740000  0.85740000  0.38560000  1.0 -0.4397561991
I  I40  1  0.14260000  0.33260000  0.88560000  1.0 -0.4397561991
N  N1  1  0.40882000  0.62418000  0.97180000  1.0 -0.1870711701
N  N2  1  0.37582000  0.59118000  0.47180000  1.0 -0.1870711701
N  N3  1  0.19963000  0.28257000  0.05728000  1.0 -0.406108895
N  N4  1  0.71743000  0.80037000  0.55728000  1.0 -0.406108895
N  N5  1  0.10787000  0.20293000  0.11263000  1.0 -0.406108895
N  N6  1  0.79707000  0.89213000  0.61263000  1.0 -0.406108895
N  N7  1  0.18950000  0.36910000  0.08202000  1.0 -0.3924137497
N  N8  1  0.63090000  0.81050000  0.58202000  1.0 -0.3924137497
N  N9  1  0.05524000  0.93976000  0.08098000  1.0 -0.1781438062
N  N10  1  0.06024000  0.94476000  0.58098000  1.0 -0.1781438062
N  N11  1  0.03226000  0.30634000  0.18958000  1.0 -0.1870711701
N  N12  1  0.69366000  0.96774000  0.68958000  1.0 -0.1870711701
N  N13  1  0.39734000  0.70126000  0.87510000  1.0 -0.2035852814
N  N14  1  0.29874000  0.60266000  0.37510000  1.0 -0.2035852814
N  N15  1  0.21033000  0.68367000  0.73664000  1.0 -0.3829271564
N  N16  1  0.31633000  0.78967000  0.23664000  1.0 -0.3829271564
N  N17  1  0.05596000  0.55144000  0.69869000  1.0 -0.3924137497
N  N18  1  0.44856000  0.94404000  0.19869000  1.0 -0.3924137497
N  N19  1  0.12301000  0.51339000  0.76048000  1.0 -0.3829271564
N  N20  1  0.48661000  0.87699000  0.26048000  1.0 -0.3829271564
N  N21  1  0.80558000  0.16942000  0.72187000  1.0 -0.1870711701
N  N22  1  0.83058000  0.19442000  0.22187000  1.0 -0.1870711701
N  N23  1  0.17093000  0.87567000  0.61901000  1.0 -0.1870711701
N  N24  1  0.12433000  0.82907000  0.11901000  1.0 -0.1870711701
N  N25  1  0.62418000  0.40882000  0.52820000  1.0 -0.1870711701
N  N26  1  0.59118000  0.37582000  0.02820000  1.0 -0.1870711701
N  N27  1  0.28257000  0.19963000  0.44272000  1.0 -0.406108895
N  N28  1  0.80037000  0.71743000  0.94272000  1.0 -0.406108895
N  N29  1  0.20293000  0.10787000  0.38737000  1.0 -0.4045253316
N  N30  1  0.89213000  0.79707000  0.88737000  1.0 -0.406108895
N  N31  1  0.36910000  0.18950000  0.41798000  1.0 -0.3924137497
N  N32  1  0.81050000  0.63090000  0.91798000  1.0 -0.3924137497
N  N33  1  0.93976000  0.05524000  0.41902000  1.0 -0.1781438062
N  N34  1  0.94476000  0.06024000  0.91902000  1.0 -0.1781438062
N  N35  1  0.30634000  0.03226000  0.31042000  1.0 -0.1870711701
N  N36  1  0.96774000  0.69366000  0.81042000  1.0 -0.1870711701
N  N37  1  0.70126000  0.39734000  0.62490000  1.0 -0.2035852814
N  N38  1  0.60266000  0.29874000  0.12490000  1.0 -0.2035852814
N  N39  1  0.68367000  0.21033000  0.76336000  1.0 -0.3829271564
N  N40  1  0.78967000  0.31633000  0.26336000  1.0 -0.3829271564
N  N41  1  0.55144000  0.05596000  0.80131000  1.0 -0.3924137497
N  N42  1  0.94404000  0.44856000  0.30131000  1.0 -0.3924137497
N  N43  1  0.51339000  0.12301000  0.73952000  1.0 -0.3829271564
N  N44  1  0.87699000  0.48661000  0.23952000  1.0 -0.3829271564
N  N45  1  0.16942000  0.80558000  0.77813000  1.0 -0.1870711701
N  N46  1  0.19442000  0.83058000  0.27813000  1.0 -0.1870711701
N  N47  1  0.87567000  0.17093000  0.88099000  1.0 -0.1870711701
N  N48  1  0.82907000  0.12433000  0.38099000  1.0 -0.1870711701
