# DDEC6 charges by PACMAN v1.1 (https://github.com/mtap-research/PACMAN-charge/)
data_QARLUT_ASR_pacman
_symmetry_space_group_name_H-M   'P 1'
_cell_length_a   18.60400000
_cell_length_b   18.60400000
_cell_length_c   30.16830000
_cell_angle_alpha   79.22040000
_cell_angle_beta   100.78000000
_cell_angle_gamma   133.53100000
_symmetry_Int_Tables_number   1
_chemical_formula_structural   Zn4H24C36(Br3N4)3
_chemical_formula_sum   'Zn16 H96 C144 Br36 N48'
_cell_volume   7411.64484454
_cell_formula_units_Z   4
loop_
 _symmetry_equiv_pos_site_id
 _symmetry_equiv_pos_as_xyz
  1  'x, y, z'
loop_
 _atom_site_type_symbol
 _atom_site_label
 _atom_site_symmetry_multiplicity
 _atom_site_fract_x
 _atom_site_fract_y
 _atom_site_fract_z
 _atom_site_occupancy
 _atom_site_charge
Zn  Zn1  1  0.73639000  0.48567000  0.54975000  1.0 0.5602190751
Zn  Zn2  1  0.51433000  0.26361000  0.04975000  1.0 0.5602190751
Zn  Zn3  1  0.17250000  0.53470000  0.72300000  1.0 0.3797942806
Zn  Zn4  1  0.46530000  0.82750000  0.22300000  1.0 0.3797942806
Zn  Zn5  1  0.05511000  0.21667000  0.90574000  1.0 0.53845204
Zn  Zn6  1  0.78333000  0.94489000  0.40574000  1.0 0.53845204
Zn  Zn7  1  0.18000000  0.52660000  0.73240000  1.0 0.3698462058
Zn  Zn8  1  0.47340000  0.82000000  0.23240000  1.0 0.3698462058
Zn  Zn9  1  0.48567000  0.73639000  0.95025000  1.0 0.5602190751
Zn  Zn10  1  0.26361000  0.51433000  0.45025000  1.0 0.5602190751
Zn  Zn11  1  0.53470000  0.17250000  0.77700000  1.0 0.3797942806
Zn  Zn12  1  0.82750000  0.46530000  0.27700000  1.0 0.3797942806
Zn  Zn13  1  0.21667000  0.05511000  0.59426000  1.0 0.53845204
Zn  Zn14  1  0.94489000  0.78333000  0.09426000  1.0 0.53845204
Zn  Zn15  1  0.52660000  0.18000000  0.76760000  1.0 0.3698462058
Zn  Zn16  1  0.82000000  0.47340000  0.26760000  1.0 0.3698462058
H  H1  1  0.57530000  0.26690000  0.57120000  1.0 0.1072007038
H  H2  1  0.73310000  0.42470000  0.07120000  1.0 0.1072007038
H  H3  1  0.54220000  0.13960000  0.62210000  1.0 0.1304510847
H  H4  1  0.86040000  0.45780000  0.12210000  1.0 0.1304510847
H  H5  1  0.82250000  0.33870000  0.67970000  1.0 0.1003704576
H  H6  1  0.66130000  0.17750000  0.17970000  1.0 0.1003704576
H  H7  1  0.84620000  0.46140000  0.62850000  1.0 0.0897842614
H  H8  1  0.53860000  0.15380000  0.12850000  1.0 0.0897842614
H  H9  1  0.39940000  0.88960000  0.66270000  1.0 0.1382725376
H  H10  1  0.11040000  0.60060000  0.16270000  1.0 0.1382725376
H  H11  1  0.25540000  0.72260000  0.66760000  1.0 0.0897842614
H  H12  1  0.27740000  0.74460000  0.16760000  1.0 0.0897842614
H  H13  1  0.37170000  0.67010000  0.77560000  1.0 0.0719071139
H  H14  1  0.32990000  0.62830000  0.27560000  1.0 0.0719071139
H  H15  1  0.51770000  0.83410000  0.77410000  1.0 0.1488057259
H  H16  1  0.16590000  0.48230000  0.27410000  1.0 0.1488057259
H  H17  1  0.89430000  0.28430000  0.77510000  1.0 0.1072007038
H  H18  1  0.71570000  0.10570000  0.27510000  1.0 0.1072007038
H  H19  1  0.01288000  0.32048000  0.83370000  1.0 0.0719071139
H  H20  1  0.67952000  0.98712000  0.33370000  1.0 0.0719071139
H  H21  1  0.83770000  0.04050000  0.88150000  1.0 0.1003704576
H  H22  1  0.95950000  0.16230000  0.38150000  1.0 0.1003704576
H  H23  1  0.71440000  0.99660000  0.82400000  1.0 0.1304510847
H  H24  1  0.00340000  0.28560000  0.32400000  1.0 0.1304510847
H  H25  1  0.95930000  0.00150000  0.92440000  1.0 0.1072007038
H  H26  1  0.99850000  0.04070000  0.42440000  1.0 0.1072007038
H  H27  1  0.83910000  0.86010000  0.96820000  1.0 0.1382725376
H  H28  1  0.13990000  0.16090000  0.46820000  1.0 0.1382725376
H  H29  1  0.85860000  0.03580000  0.04150000  1.0 0.1304510847
H  H30  1  0.96420000  0.14140000  0.54150000  1.0 0.1304510847
H  H31  1  0.97500000  0.17100000  0.99400000  1.0 0.1072007038
H  H32  1  0.82900000  0.02500000  0.49400000  1.0 0.1072007038
H  H33  1  0.65990000  0.60850000  0.99170000  1.0 0.1382725376
H  H34  1  0.39150000  0.34010000  0.49170000  1.0 0.1382725376
H  H35  1  0.60290000  0.45310000  0.98890000  1.0 0.1072007038
H  H36  1  0.54690000  0.39710000  0.48890000  1.0 0.1072007038
H  H37  1  0.50960000  0.36920000  0.11020000  1.0 0.1003704576
H  H38  1  0.63080000  0.49040000  0.61020000  1.0 0.1003704576
H  H39  1  0.56080000  0.52060000  0.11570000  1.0 0.1304510847
H  H40  1  0.47940000  0.43920000  0.61570000  1.0 0.1304510847
H  H41  1  0.65000000  0.91940000  0.09330000  1.0 0.1382725376
H  H42  1  0.08060000  0.35000000  0.59330000  1.0 0.1382725376
H  H43  1  0.57800000  0.93160000  0.14270000  1.0 0.0719071139
H  H44  1  0.06840000  0.42200000  0.64270000  1.0 0.0719071139
H  H45  1  0.47440000  0.67780000  0.20790000  1.0 0.0789685823
H  H46  1  0.32220000  0.52560000  0.70790000  1.0 0.0789685823
H  H47  1  0.53940000  0.65640000  0.15920000  1.0 0.1382725376
H  H48  1  0.34360000  0.46060000  0.65920000  1.0 0.1382725376
H  H49  1  0.26690000  0.57530000  0.92880000  1.0 0.1072007038
H  H50  1  0.42470000  0.73310000  0.42880000  1.0 0.1072007038
H  H51  1  0.13960000  0.54220000  0.87790000  1.0 0.1304510847
H  H52  1  0.45780000  0.86040000  0.37790000  1.0 0.1304510847
H  H53  1  0.33870000  0.82250000  0.82030000  1.0 0.1003704576
H  H54  1  0.17750000  0.66130000  0.32030000  1.0 0.1003704576
H  H55  1  0.46140000  0.84620000  0.87150000  1.0 0.0897842614
H  H56  1  0.15380000  0.53860000  0.37150000  1.0 0.0897842614
H  H57  1  0.88960000  0.39940000  0.83730000  1.0 0.1382725376
H  H58  1  0.60060000  0.11040000  0.33730000  1.0 0.1382725376
H  H59  1  0.72260000  0.25540000  0.83240000  1.0 0.0897842614
H  H60  1  0.74460000  0.27740000  0.33240000  1.0 0.0897842614
H  H61  1  0.67010000  0.37170000  0.72440000  1.0 0.0719071139
H  H62  1  0.62830000  0.32990000  0.22440000  1.0 0.0719071139
H  H63  1  0.83410000  0.51770000  0.72590000  1.0 0.1488057259
H  H64  1  0.48230000  0.16590000  0.22590000  1.0 0.1488057259
H  H65  1  0.28430000  0.89430000  0.72490000  1.0 0.1072007038
H  H66  1  0.10570000  0.71570000  0.22490000  1.0 0.1072007038
H  H67  1  0.32048000  0.01288000  0.66630000  1.0 0.0719071139
H  H68  1  0.98712000  0.67952000  0.16630000  1.0 0.0719071139
H  H69  1  0.04050000  0.83770000  0.61850000  1.0 0.1003704576
H  H70  1  0.16230000  0.95950000  0.11850000  1.0 0.1003704576
H  H71  1  0.99660000  0.71440000  0.67600000  1.0 0.1304510847
H  H72  1  0.28560000  0.00340000  0.17600000  1.0 0.1304510847
H  H73  1  0.00150000  0.95930000  0.57560000  1.0 0.1072007038
H  H74  1  0.04070000  0.99850000  0.07560000  1.0 0.1072007038
H  H75  1  0.86010000  0.83910000  0.53180000  1.0 0.1382725376
H  H76  1  0.16090000  0.13990000  0.03180000  1.0 0.1382725376
H  H77  1  0.03580000  0.85860000  0.45850000  1.0 0.1304510847
H  H78  1  0.14140000  0.96420000  0.95850000  1.0 0.1304510847
H  H79  1  0.17100000  0.97500000  0.50600000  1.0 0.1072007038
H  H80  1  0.02500000  0.82900000  0.00600000  1.0 0.1072007038
H  H81  1  0.60850000  0.65990000  0.50830000  1.0 0.1382725376
H  H82  1  0.34010000  0.39150000  0.00830000  1.0 0.1382725376
H  H83  1  0.45310000  0.60290000  0.51110000  1.0 0.1072007038
H  H84  1  0.39710000  0.54690000  0.01110000  1.0 0.1072007038
H  H85  1  0.36920000  0.50960000  0.38980000  1.0 0.1003704576
H  H86  1  0.49040000  0.63080000  0.88980000  1.0 0.1003704576
H  H87  1  0.52060000  0.56080000  0.38430000  1.0 0.1304510847
H  H88  1  0.43920000  0.47940000  0.88430000  1.0 0.1304510847
H  H89  1  0.91940000  0.65000000  0.40670000  1.0 0.1382725376
H  H90  1  0.35000000  0.08060000  0.90670000  1.0 0.1382725376
H  H91  1  0.93160000  0.57800000  0.35730000  1.0 0.0719071139
H  H92  1  0.42200000  0.06840000  0.85730000  1.0 0.0719071139
H  H93  1  0.67780000  0.47440000  0.29210000  1.0 0.0789685823
H  H94  1  0.52560000  0.32220000  0.79210000  1.0 0.0789685823
H  H95  1  0.65640000  0.53940000  0.34080000  1.0 0.1382725376
H  H96  1  0.46060000  0.34360000  0.84080000  1.0 0.1382725376
C  C1  1  0.62566000  0.28154000  0.59404000  1.0 0.0897842614
C  C2  1  0.71846000  0.37434000  0.09404000  1.0 0.0897842614
C  C3  1  0.60561000  0.20519000  0.62393000  1.0 -0.1749122929
C  C4  1  0.79481000  0.39439000  0.12393000  1.0 -0.1749122929
C  C5  1  0.67885000  0.22515000  0.65663000  1.0 0.0490814276
C  C6  1  0.77485000  0.32115000  0.15663000  1.0 0.0490814276
C  C7  1  0.77012000  0.32248000  0.65785000  1.0 -0.1807650897
C  C8  1  0.67752000  0.22988000  0.15785000  1.0 -0.1807650897
C  C9  1  0.78380000  0.39480000  0.62724000  1.0 0.0789685823
C  C10  1  0.60520000  0.21620000  0.12724000  1.0 0.0789685823
C  C11  1  0.66146000  0.14674000  0.69093000  1.0 0.3598061758
C  C12  1  0.85326000  0.33854000  0.19093000  1.0 0.3598061758
C  C13  1  0.56849000  0.98691000  0.71764000  1.0 0.3333343971
C  C14  1  0.01309000  0.43151000  0.21764000  1.0 0.3333343971
C  C15  1  0.71663000  0.10577000  0.75368000  1.0 0.3598061758
C  C16  1  0.89423000  0.28337000  0.25368000  1.0 0.3598061758
C  C17  1  0.47493000  0.88027000  0.71762000  1.0 0.0719071139
C  C18  1  0.11973000  0.52507000  0.21762000  1.0 0.0719071139
C  C19  1  0.39546000  0.84554000  0.68634000  1.0 -0.15720344
C  C20  1  0.15446000  0.60454000  0.18634000  1.0 -0.15720344
C  C21  1  0.30987000  0.74613000  0.68950000  1.0 0.0490814276
C  C22  1  0.25387000  0.69013000  0.18950000  1.0 0.0490814276
C  C23  1  0.37741000  0.71559000  0.75230000  1.0 0.0596762389
C  C24  1  0.28441000  0.62259000  0.25230000  1.0 0.0596762389
C  C25  1  0.46467000  0.81293000  0.75160000  1.0 -0.1386430603
C  C26  1  0.18707000  0.53533000  0.25160000  1.0 -0.1386430603
C  C27  1  0.79267000  0.13493000  0.79242000  1.0 0.0596762389
C  C28  1  0.86507000  0.20733000  0.29242000  1.0 0.0596762389
C  C29  1  0.88164000  0.23256000  0.79624000  1.0 -0.1888593801
C  C30  1  0.76744000  0.11836000  0.29624000  1.0 -0.1888593801
C  C31  1  0.95173000  0.25347000  0.83132000  1.0 0.0719071139
C  C32  1  0.74653000  0.04827000  0.33132000  1.0 0.0719071139
C  C33  1  0.84964000  0.09036000  0.85912000  1.0 0.0897842614
C  C34  1  0.90964000  0.15036000  0.35912000  1.0 0.0897842614
C  C35  1  0.77605000  0.06375000  0.82492000  1.0 -0.1346272682
C  C36  1  0.93625000  0.22395000  0.32492000  1.0 -0.1346272682
C  C37  1  0.93646000  0.00754000  0.94789000  1.0 0.0596762389
C  C38  1  0.99246000  0.06354000  0.44789000  1.0 0.0596762389
C  C39  1  0.86532000  0.92328000  0.97389000  1.0 -0.1386430603
C  C40  1  0.07672000  0.13468000  0.47389000  1.0 -0.1386430603
C  C41  1  0.83235000  0.93185000  0.00869000  1.0 0.0596762389
C  C42  1  0.06815000  0.16765000  0.50869000  1.0 0.0596762389
C  C43  1  0.87631000  0.02649000  0.01694000  1.0 -0.1474111916
C  C44  1  0.97351000  0.12369000  0.51694000  1.0 -0.1474111916
C  C45  1  0.94613000  0.10667000  0.98869000  1.0 0.0789685823
C  C46  1  0.89333000  0.05387000  0.48869000  1.0 0.0789685823
C  C47  1  0.75219000  0.84361000  0.03594000  1.0 0.3698462058
C  C48  1  0.15639000  0.24781000  0.53594000  1.0 0.3698462058
C  C49  1  0.65083000  0.67997000  0.05689000  1.0 0.3698462058
C  C50  1  0.32003000  0.34917000  0.55689000  1.0 0.3698462058
C  C51  1  0.64692000  0.77588000  0.08979000  1.0 0.3698462058
C  C52  1  0.22412000  0.35308000  0.58979000  1.0 0.3698462058
C  C53  1  0.61588000  0.58112000  0.05371000  1.0 0.0596762389
C  C54  1  0.41888000  0.38412000  0.55371000  1.0 0.0596762389
C  C55  1  0.62834000  0.55986000  0.01652000  1.0 -0.1474111916
C  C56  1  0.44014000  0.37166000  0.51652000  1.0 -0.1474111916
C  C57  1  0.59508000  0.46752000  0.01530000  1.0 0.0789685823
C  C58  1  0.53248000  0.40492000  0.51530000  1.0 0.0789685823
C  C59  1  0.54047000  0.41873000  0.08570000  1.0 0.0719071139
C  C60  1  0.58127000  0.45953000  0.58570000  1.0 0.0719071139
C  C61  1  0.57065000  0.50835000  0.08930000  1.0 -0.1474111916
C  C62  1  0.49165000  0.42935000  0.58930000  1.0 -0.1474111916
C  C63  1  0.60364000  0.78696000  0.12129000  1.0 0.0789685823
C  C64  1  0.21304000  0.39636000  0.62129000  1.0 0.0789685823
C  C65  1  0.61379000  0.86821000  0.11680000  1.0 -0.1222021752
C  C66  1  0.13179000  0.38621000  0.61680000  1.0 -0.1222021752
C  C67  1  0.57122000  0.87538000  0.14650000  1.0 0.0490814276
C  C68  1  0.12462000  0.42878000  0.64650000  1.0 0.0490814276
C  C69  1  0.51060000  0.72780000  0.18410000  1.0 0.0490814276
C  C70  1  0.27220000  0.48940000  0.68410000  1.0 0.0490814276
C  C71  1  0.54971000  0.71469000  0.15540000  1.0 -0.1386430603
C  C72  1  0.28531000  0.45029000  0.65540000  1.0 -0.1386430603
C  C73  1  0.28154000  0.62566000  0.90596000  1.0 0.0897842614
C  C74  1  0.37434000  0.71846000  0.40596000  1.0 0.0897842614
C  C75  1  0.20519000  0.60561000  0.87607000  1.0 -0.1807650897
C  C76  1  0.39439000  0.79481000  0.37607000  1.0 -0.1807650897
C  C77  1  0.22515000  0.67885000  0.84337000  1.0 0.0490814276
C  C78  1  0.32115000  0.77485000  0.34337000  1.0 0.0490814276
C  C79  1  0.32248000  0.77012000  0.84215000  1.0 -0.1807650897
C  C80  1  0.22988000  0.67752000  0.34215000  1.0 -0.1807650897
C  C81  1  0.39480000  0.78380000  0.87276000  1.0 0.0789685823
C  C82  1  0.21620000  0.60520000  0.37276000  1.0 0.0789685823
C  C83  1  0.14674000  0.66146000  0.80907000  1.0 0.3598061758
C  C84  1  0.33854000  0.85326000  0.30907000  1.0 0.3598061758
C  C85  1  0.98691000  0.56849000  0.78236000  1.0 0.3333343971
C  C86  1  0.43151000  0.01309000  0.28236000  1.0 0.3333343971
C  C87  1  0.10577000  0.71663000  0.74632000  1.0 0.3598061758
C  C88  1  0.28337000  0.89423000  0.24632000  1.0 0.3598061758
C  C89  1  0.88027000  0.47493000  0.78238000  1.0 0.0719071139
C  C90  1  0.52507000  0.11973000  0.28238000  1.0 0.0719071139
C  C91  1  0.84554000  0.39546000  0.81366000  1.0 -0.15720344
C  C92  1  0.60454000  0.15446000  0.31366000  1.0 -0.15720344
C  C93  1  0.74613000  0.30987000  0.81050000  1.0 0.0490814276
C  C94  1  0.69013000  0.25387000  0.31050000  1.0 0.0490814276
C  C95  1  0.71559000  0.37741000  0.74770000  1.0 0.0596762389
C  C96  1  0.62259000  0.28441000  0.24770000  1.0 0.0596762389
C  C97  1  0.81293000  0.46467000  0.74840000  1.0 -0.1386430603
C  C98  1  0.53533000  0.18707000  0.24840000  1.0 -0.1386430603
C  C99  1  0.13493000  0.79267000  0.70758000  1.0 0.0596762389
C  C100  1  0.20733000  0.86507000  0.20758000  1.0 0.0596762389
C  C101  1  0.23256000  0.88164000  0.70376000  1.0 -0.1888593801
C  C102  1  0.11836000  0.76744000  0.20376000  1.0 -0.1888593801
C  C103  1  0.25347000  0.95173000  0.66868000  1.0 0.0719071139
C  C104  1  0.04827000  0.74653000  0.16868000  1.0 0.0719071139
C  C105  1  0.09036000  0.84964000  0.64088000  1.0 0.0897842614
C  C106  1  0.15036000  0.90964000  0.14088000  1.0 0.0897842614
C  C107  1  0.06375000  0.77605000  0.67508000  1.0 -0.1346272682
C  C108  1  0.22395000  0.93625000  0.17508000  1.0 -0.1346272682
C  C109  1  0.00754000  0.93646000  0.55211000  1.0 0.0596762389
C  C110  1  0.06354000  0.99246000  0.05211000  1.0 0.0596762389
C  C111  1  0.92328000  0.86532000  0.52611000  1.0 -0.1386430603
C  C112  1  0.13468000  0.07672000  0.02611000  1.0 -0.1386430603
C  C113  1  0.93185000  0.83235000  0.49131000  1.0 0.0596762389
C  C114  1  0.16765000  0.06815000  0.99131000  1.0 0.0596762389
C  C115  1  0.02649000  0.87631000  0.48306000  1.0 -0.1474111916
C  C116  1  0.12369000  0.97351000  0.98306000  1.0 -0.1474111916
C  C117  1  0.10667000  0.94613000  0.51131000  1.0 0.0789685823
C  C118  1  0.05387000  0.89333000  0.01131000  1.0 0.0789685823
C  C119  1  0.84361000  0.75219000  0.46406000  1.0 0.3698462058
C  C120  1  0.24781000  0.15639000  0.96406000  1.0 0.3698462058
C  C121  1  0.67997000  0.65083000  0.44311000  1.0 0.3698462058
C  C122  1  0.34917000  0.32003000  0.94311000  1.0 0.3698462058
C  C123  1  0.77588000  0.64692000  0.41021000  1.0 0.3698462058
C  C124  1  0.35308000  0.22412000  0.91021000  1.0 0.3698462058
C  C125  1  0.58112000  0.61588000  0.44629000  1.0 0.0596762389
C  C126  1  0.38412000  0.41888000  0.94629000  1.0 0.0596762389
C  C127  1  0.55986000  0.62834000  0.48348000  1.0 -0.1474111916
C  C128  1  0.37166000  0.44014000  0.98348000  1.0 -0.1474111916
C  C129  1  0.46752000  0.59508000  0.48470000  1.0 0.0789685823
C  C130  1  0.40492000  0.53248000  0.98470000  1.0 0.0789685823
C  C131  1  0.41873000  0.54047000  0.41430000  1.0 0.0719071139
C  C132  1  0.45953000  0.58127000  0.91430000  1.0 0.0719071139
C  C133  1  0.50835000  0.57065000  0.41070000  1.0 -0.1474111916
C  C134  1  0.42935000  0.49165000  0.91070000  1.0 -0.1474111916
C  C135  1  0.78696000  0.60364000  0.37871000  1.0 0.0789685823
C  C136  1  0.39636000  0.21304000  0.87871000  1.0 0.0789685823
C  C137  1  0.86821000  0.61379000  0.38320000  1.0 -0.1222021752
C  C138  1  0.38621000  0.13179000  0.88320000  1.0 -0.1222021752
C  C139  1  0.87538000  0.57122000  0.35350000  1.0 0.0490814276
C  C140  1  0.42878000  0.12462000  0.85350000  1.0 0.0490814276
C  C141  1  0.72780000  0.51060000  0.31590000  1.0 0.0490814276
C  C142  1  0.48940000  0.27220000  0.81590000  1.0 0.0490814276
C  C143  1  0.71469000  0.54971000  0.34460000  1.0 -0.1386430603
C  C144  1  0.45029000  0.28531000  0.84460000  1.0 -0.1386430603
Br  Br1  1  0.85898000  0.63542000  0.58460000  1.0 -0.4995660972
Br  Br2  1  0.36458000  0.14102000  0.08460000  1.0 -0.4995660972
Br  Br3  1  0.74023000  0.45631000  0.47930000  1.0 -0.4566952553
Br  Br4  1  0.54369000  0.25977000  0.97930000  1.0 -0.4566952553
Br  Br5  1  0.19220000  0.47160000  0.79430000  1.0 -0.0401219879
Br  Br6  1  0.52840000  0.80780000  0.29430000  1.0 -0.0401219879
Br  Br7  1  0.02930000  0.50730000  0.69730000  1.0 0.0389831537
Br  Br8  1  0.49270000  0.97070000  0.19730000  1.0 0.0389831537
Br  Br9  1  0.12979000  0.35985000  0.93917000  1.0 -0.4840277922
Br  Br10  1  0.64015000  0.87021000  0.43917000  1.0 -0.4840277922
Br  Br11  1  0.12835000  0.18607000  0.86692000  1.0 -0.474854995
Br  Br12  1  0.81393000  0.87165000  0.36692000  1.0 -0.474854995
Br  Br13  1  0.86670000  0.63790000  0.57900000  1.0 -0.4995660972
Br  Br14  1  0.36210000  0.13330000  0.07900000  1.0 -0.4995660972
Br  Br15  1  0.21137000  0.47143000  0.80340000  1.0 -0.0148658924
Br  Br16  1  0.52857000  0.78863000  0.30340000  1.0 -0.0148658924
Br  Br17  1  0.03139000  0.49001000  0.71094000  1.0 -0.0029200459
Br  Br18  1  0.50999000  0.96861000  0.21094000  1.0 -0.0029200459
Br  Br19  1  0.63542000  0.85898000  0.91540000  1.0 -0.4995660972
Br  Br20  1  0.14102000  0.36458000  0.41540000  1.0 -0.4995660972
Br  Br21  1  0.45631000  0.74023000  0.02070000  1.0 -0.4566952553
Br  Br22  1  0.25977000  0.54369000  0.52070000  1.0 -0.4566952553
Br  Br23  1  0.47160000  0.19220000  0.70570000  1.0 -0.0401219879
Br  Br24  1  0.80780000  0.52840000  0.20570000  1.0 -0.0401219879
Br  Br25  1  0.50730000  0.02930000  0.80270000  1.0 0.0389831537
Br  Br26  1  0.97070000  0.49270000  0.30270000  1.0 0.0389831537
Br  Br27  1  0.35985000  0.12979000  0.56083000  1.0 -0.4840277922
Br  Br28  1  0.87021000  0.64015000  0.06083000  1.0 -0.4840277922
Br  Br29  1  0.18607000  0.12835000  0.63308000  1.0 -0.474854995
Br  Br30  1  0.87165000  0.81393000  0.13308000  1.0 -0.474854995
Br  Br31  1  0.63790000  0.86670000  0.92100000  1.0 -0.4995660972
Br  Br32  1  0.13330000  0.36210000  0.42100000  1.0 -0.4995660972
Br  Br33  1  0.47143000  0.21137000  0.69660000  1.0 -0.0159981546
Br  Br34  1  0.78863000  0.52857000  0.19660000  1.0 -0.0159981546
Br  Br35  1  0.49001000  0.03139000  0.78906000  1.0 -0.0029200459
Br  Br36  1  0.96861000  0.50999000  0.28906000  1.0 -0.0029200459
N  N1  1  0.71251000  0.37509000  0.59565000  1.0 -0.1807650897
N  N2  1  0.62491000  0.28749000  0.09565000  1.0 -0.1888593801
N  N3  1  0.57740000  0.05240000  0.68586000  1.0 -0.4286924195
N  N4  1  0.94760000  0.42260000  0.18586000  1.0 -0.4286924195
N  N5  1  0.63756000  0.00944000  0.75140000  1.0 -0.4247401249
N  N6  1  0.99056000  0.36244000  0.25140000  1.0 -0.4247401249
N  N7  1  0.73211000  0.17869000  0.72468000  1.0 -0.4286924195
N  N8  1  0.82131000  0.26789000  0.22468000  1.0 -0.4286924195
N  N9  1  0.30087000  0.68153000  0.72250000  1.0 -0.22378457
N  N10  1  0.31847000  0.69913000  0.22250000  1.0 -0.22378457
N  N11  1  0.93695000  0.18365000  0.86178000  1.0 -0.1807650897
N  N12  1  0.81635000  0.06305000  0.36178000  1.0 -0.1807650897
N  N13  1  0.97486000  0.09814000  0.95454000  1.0 -0.2042101011
N  N14  1  0.90186000  0.02514000  0.45454000  1.0 -0.2042101011
N  N15  1  0.71882000  0.75558000  0.02929000  1.0 -0.3884547344
N  N16  1  0.24442000  0.28118000  0.52929000  1.0 -0.3884547344
N  N17  1  0.61294000  0.68566000  0.08793000  1.0 -0.3884547344
N  N18  1  0.31434000  0.38706000  0.58793000  1.0 -0.3884547344
N  N19  1  0.71868000  0.85832000  0.06502000  1.0 -0.3884547344
N  N20  1  0.14168000  0.28132000  0.56502000  1.0 -0.3884547344
N  N21  1  0.55228000  0.39732000  0.04928000  1.0 -0.1888593801
N  N22  1  0.60268000  0.44772000  0.54928000  1.0 -0.1888593801
N  N23  1  0.52094000  0.80626000  0.18029000  1.0 -0.2042101011
N  N24  1  0.19374000  0.47906000  0.68029000  1.0 -0.2042101011
N  N25  1  0.37509000  0.71251000  0.90435000  1.0 -0.1888593801
N  N26  1  0.28749000  0.62491000  0.40435000  1.0 -0.1888593801
N  N27  1  0.05240000  0.57740000  0.81414000  1.0 -0.4286924195
N  N28  1  0.42260000  0.94760000  0.31414000  1.0 -0.4286924195
N  N29  1  0.00944000  0.63756000  0.74860000  1.0 -0.4247401249
N  N30  1  0.36244000  0.99056000  0.24860000  1.0 -0.4247401249
N  N31  1  0.17869000  0.73211000  0.77532000  1.0 -0.4286924195
N  N32  1  0.26789000  0.82131000  0.27532000  1.0 -0.4286924195
N  N33  1  0.68153000  0.30087000  0.77750000  1.0 -0.22378457
N  N34  1  0.69913000  0.31847000  0.27750000  1.0 -0.22378457
N  N35  1  0.18365000  0.93695000  0.63822000  1.0 -0.1807650897
N  N36  1  0.06305000  0.81635000  0.13822000  1.0 -0.1807650897
N  N37  1  0.09814000  0.97486000  0.54546000  1.0 -0.2042101011
N  N38  1  0.02514000  0.90186000  0.04546000  1.0 -0.2042101011
N  N39  1  0.75558000  0.71882000  0.47071000  1.0 -0.3884547344
N  N40  1  0.28118000  0.24442000  0.97071000  1.0 -0.3884547344
N  N41  1  0.68566000  0.61294000  0.41207000  1.0 -0.3884547344
N  N42  1  0.38706000  0.31434000  0.91207000  1.0 -0.3884547344
N  N43  1  0.85832000  0.71868000  0.43498000  1.0 -0.3884547344
N  N44  1  0.28132000  0.14168000  0.93498000  1.0 -0.3884547344
N  N45  1  0.39732000  0.55228000  0.45072000  1.0 -0.1888593801
N  N46  1  0.44772000  0.60268000  0.95072000  1.0 -0.1888593801
N  N47  1  0.80626000  0.52094000  0.31971000  1.0 -0.2042101011
N  N48  1  0.47906000  0.19374000  0.81971000  1.0 -0.2042101011
