# DDEC6 charges by PACMAN v1.1 (https://github.com/mtap-research/PACMAN-charge/)
data_QARTEK_ASR_pacman
_symmetry_space_group_name_H-M   'P 1'
_cell_length_a   6.42320000
_cell_length_b   23.75940000
_cell_length_c   15.49530000
_cell_angle_alpha   90.00000000
_cell_angle_beta   99.74900000
_cell_angle_gamma   90.00000000
_symmetry_Int_Tables_number   1
_chemical_formula_structural   CdH20C24N3ClO3F2
_chemical_formula_sum   'Cd4 H80 C96 N12 Cl4 O12 F8'
_cell_volume   2330.60963535
_cell_formula_units_Z   4
loop_
 _symmetry_equiv_pos_site_id
 _symmetry_equiv_pos_as_xyz
  1  'x, y, z'
loop_
 _atom_site_type_symbol
 _atom_site_label
 _atom_site_symmetry_multiplicity
 _atom_site_fract_x
 _atom_site_fract_y
 _atom_site_fract_z
 _atom_site_occupancy
 _atom_site_charge
Cd  Cd1  1  0.73437000  0.46594000  0.96983000  1.0 0.8472757131
Cd  Cd2  1  0.26563000  0.96594000  0.53017000  1.0 0.8472757131
Cd  Cd3  1  0.26563000  0.53406000  0.03017000  1.0 0.8472757131
Cd  Cd4  1  0.73437000  0.03406000  0.46983000  1.0 0.8472757131
H  H1  1  0.15950000  0.32730000  0.09460000  1.0 0.1546807379
H  H2  1  0.84050000  0.82730000  0.40540000  1.0 0.1546807379
H  H3  1  0.84050000  0.67270000  0.90540000  1.0 0.1546807379
H  H4  1  0.15950000  0.17270000  0.59460000  1.0 0.1546807379
H  H5  1  0.05400000  0.26690000  0.36750000  1.0 0.1196833479
H  H6  1  0.94600000  0.76690000  0.13250000  1.0 0.1196833479
H  H7  1  0.94600000  0.73310000  0.63250000  1.0 0.1196833479
H  H8  1  0.05400000  0.23310000  0.86750000  1.0 0.1196833479
H  H9  1  0.59040000  0.40930000  0.30040000  1.0 0.1196833479
H  H10  1  0.40960000  0.90930000  0.19960000  1.0 0.1196833479
H  H11  1  0.40960000  0.59070000  0.69960000  1.0 0.1196833479
H  H12  1  0.59040000  0.09070000  0.80040000  1.0 0.1196833479
H  H13  1  0.64070000  0.27260000  0.39730000  1.0 0.0896043445
H  H14  1  0.35930000  0.77260000  0.10270000  1.0 0.0896043445
H  H15  1  0.35930000  0.72740000  0.60270000  1.0 0.0896043445
H  H16  1  0.64070000  0.22740000  0.89730000  1.0 0.0896043445
H  H17  1  0.66640000  0.25770000  0.54760000  1.0 0.1196833479
H  H18  1  0.33360000  0.75770000  0.95240000  1.0 0.1196833479
H  H19  1  0.33360000  0.74230000  0.45240000  1.0 0.1196833479
H  H20  1  0.66640000  0.24230000  0.04760000  1.0 0.1196833479
H  H21  1  0.99070000  0.40130000  0.59370000  1.0 0.0896043445
H  H22  1  0.00930000  0.90130000  0.90630000  1.0 0.0896043445
H  H23  1  0.00930000  0.59870000  0.40630000  1.0 0.0896043445
H  H24  1  0.99070000  0.09870000  0.09370000  1.0 0.0896043445
H  H25  1  0.98400000  0.41210000  0.44440000  1.0 0.0845671609
H  H26  1  0.01600000  0.91210000  0.05560000  1.0 0.0845671609
H  H27  1  0.01600000  0.58790000  0.55560000  1.0 0.0845671609
H  H28  1  0.98400000  0.08790000  0.94440000  1.0 0.0845671609
H  H29  1  0.29700000  0.22290000  0.43680000  1.0 0.0896043445
H  H30  1  0.70300000  0.72290000  0.06320000  1.0 0.0896043445
H  H31  1  0.70300000  0.77710000  0.56320000  1.0 0.0896043445
H  H32  1  0.29700000  0.27710000  0.93680000  1.0 0.0896043445
H  H33  1  0.17040000  0.17120000  0.39170000  1.0 0.1196833479
H  H34  1  0.82960000  0.67120000  0.10830000  1.0 0.1196833479
H  H35  1  0.82960000  0.82880000  0.60830000  1.0 0.1196833479
H  H36  1  0.17040000  0.32880000  0.89170000  1.0 0.1196833479
H  H37  1  0.43540000  0.13750000  0.49960000  1.0 0.1196833479
H  H38  1  0.56460000  0.63750000  0.00040000  1.0 0.1196833479
H  H39  1  0.56460000  0.86250000  0.50040000  1.0 0.1196833479
H  H40  1  0.43540000  0.36250000  0.99960000  1.0 0.1196833479
H  H41  1  0.60690000  0.17150000  0.46050000  1.0 0.0896043445
H  H42  1  0.39310000  0.67150000  0.03950000  1.0 0.0896043445
H  H43  1  0.39310000  0.82850000  0.53950000  1.0 0.0896043445
H  H44  1  0.60690000  0.32850000  0.96050000  1.0 0.0896043445
H  H45  1  0.68980000  0.14330000  0.31850000  1.0 0.1078668661
H  H46  1  0.31020000  0.64330000  0.18150000  1.0 0.1078668661
H  H47  1  0.31020000  0.85670000  0.68150000  1.0 0.1078668661
H  H48  1  0.68980000  0.35670000  0.81850000  1.0 0.1078668661
H  H49  1  0.57910000  0.08990000  0.27190000  1.0 0.1196833479
H  H50  1  0.42090000  0.58990000  0.22810000  1.0 0.1196833479
H  H51  1  0.42090000  0.91010000  0.72810000  1.0 0.1196833479
H  H52  1  0.57910000  0.41010000  0.77190000  1.0 0.1196833479
H  H53  1  0.25520000  0.13690000  0.24890000  1.0 0.1014872245
H  H54  1  0.74480000  0.63690000  0.25110000  1.0 0.1014872245
H  H55  1  0.74480000  0.86310000  0.75110000  1.0 0.1014872245
H  H56  1  0.25520000  0.36310000  0.74890000  1.0 0.1014872245
H  H57  1  0.42090000  0.17070000  0.20580000  1.0 0.1014872245
H  H58  1  0.57910000  0.67070000  0.29420000  1.0 0.1014872245
H  H59  1  0.57910000  0.82930000  0.79420000  1.0 0.1014872245
H  H60  1  0.42090000  0.32930000  0.70580000  1.0 0.1014872245
H  H61  1  0.50630000  0.06730000  0.40760000  1.0 0.1779485211
H  H62  1  0.49370000  0.56730000  0.09240000  1.0 0.1779485211
H  H63  1  0.49370000  0.93270000  0.59240000  1.0 0.1779485211
H  H64  1  0.50630000  0.43270000  0.90760000  1.0 0.1779485211
H  H65  1  0.51520000  0.31320000  0.39340000  1.0 0.0896043445
H  H66  1  0.48480000  0.81320000  0.10660000  1.0 0.0845671609
H  H67  1  0.48480000  0.68680000  0.60660000  1.0 0.0845671609
H  H68  1  0.51520000  0.18680000  0.89340000  1.0 0.0845671609
H  H69  1  0.52590000  0.30650000  0.54320000  1.0 0.1078668661
H  H70  1  0.47410000  0.80650000  0.95680000  1.0 0.1078668661
H  H71  1  0.47410000  0.69350000  0.45680000  1.0 0.1078668661
H  H72  1  0.52590000  0.19350000  0.04320000  1.0 0.1078668661
H  H73  1  0.10660000  0.36800000  0.59040000  1.0 0.0896043445
H  H74  1  0.89340000  0.86800000  0.90960000  1.0 0.0896043445
H  H75  1  0.89340000  0.63200000  0.40960000  1.0 0.0896043445
H  H76  1  0.10660000  0.13200000  0.09040000  1.0 0.0896043445
H  H77  1  0.10390000  0.37600000  0.44060000  1.0 0.0896043445
H  H78  1  0.89610000  0.87600000  0.05940000  1.0 0.0896043445
H  H79  1  0.89610000  0.62400000  0.55940000  1.0 0.0896043445
H  H80  1  0.10390000  0.12400000  0.94060000  1.0 0.0896043445
C  C1  1  0.53430000  0.45373000  0.15190000  1.0 0.5822491437
C  C2  1  0.46570000  0.95373000  0.34810000  1.0 0.5822491437
C  C3  1  0.46570000  0.54627000  0.84810000  1.0 0.5822491437
C  C4  1  0.53430000  0.04627000  0.65190000  1.0 0.5822491437
C  C5  1  0.68820000  0.40818000  0.18607000  1.0 -0.1903261125
C  C6  1  0.31180000  0.90818000  0.31393000  1.0 -0.1903261125
C  C7  1  0.31180000  0.59182000  0.81393000  1.0 -0.1903261125
C  C8  1  0.68820000  0.09182000  0.68607000  1.0 -0.1903261125
C  C9  1  0.84180000  0.38352000  0.13972000  1.0 0.336797604
C  C10  1  0.15820000  0.88352000  0.36028000  1.0 0.336797604
C  C11  1  0.15820000  0.61648000  0.86028000  1.0 0.336797604
C  C12  1  0.84180000  0.11648000  0.63972000  1.0 0.336797604
C  C13  1  0.97710000  0.34083000  0.18740000  1.0 -0.0435409177
C  C14  1  0.02290000  0.84083000  0.31260000  1.0 -0.0435409177
C  C15  1  0.02290000  0.65917000  0.81260000  1.0 -0.0435409177
C  C16  1  0.97710000  0.15917000  0.68740000  1.0 -0.0435409177
C  C17  1  0.13710000  0.31583000  0.14970000  1.0 -0.1903261125
C  C18  1  0.86290000  0.81583000  0.35030000  1.0 -0.1903261125
C  C19  1  0.86290000  0.68417000  0.85030000  1.0 -0.1903261125
C  C20  1  0.13710000  0.18417000  0.64970000  1.0 -0.1903261125
C  C21  1  0.26030000  0.27483000  0.19340000  1.0 0.1354055345
C  C22  1  0.73970000  0.77483000  0.30660000  1.0 0.1328514705
C  C23  1  0.73970000  0.72517000  0.80660000  1.0 0.1328514705
C  C24  1  0.26030000  0.22517000  0.69340000  1.0 0.1328514705
C  C25  1  0.22860000  0.25260000  0.27440000  1.0 0.0896043445
C  C26  1  0.77140000  0.75260000  0.22560000  1.0 0.0896043445
C  C27  1  0.77140000  0.74740000  0.72560000  1.0 0.0896043445
C  C28  1  0.22860000  0.24740000  0.77440000  1.0 0.0896043445
C  C29  1  0.07700000  0.27907000  0.31280000  1.0 -0.3523782402
C  C30  1  0.92300000  0.77907000  0.18720000  1.0 -0.3523782402
C  C31  1  0.92300000  0.72093000  0.68720000  1.0 -0.3523782402
C  C32  1  0.07700000  0.22093000  0.81280000  1.0 -0.3523782402
C  C33  1  0.95610000  0.32381000  0.27189000  1.0 0.1638060227
C  C34  1  0.04390000  0.82381000  0.22811000  1.0 0.1638060227
C  C35  1  0.04390000  0.67619000  0.72811000  1.0 0.1638060227
C  C36  1  0.95610000  0.17619000  0.77189000  1.0 0.1638060227
C  C37  1  0.68560000  0.39150000  0.27050000  1.0 0.0090706351
C  C38  1  0.31440000  0.89150000  0.22950000  1.0 0.0090706351
C  C39  1  0.31440000  0.60850000  0.72950000  1.0 0.0090706351
C  C40  1  0.68560000  0.10850000  0.77050000  1.0 0.0090706351
C  C41  1  0.81130000  0.34374000  0.40671000  1.0 0.0684736237
C  C42  1  0.18870000  0.84374000  0.09329000  1.0 0.0684736237
C  C43  1  0.18870000  0.65626000  0.59329000  1.0 0.0684736237
C  C44  1  0.81130000  0.15626000  0.90671000  1.0 0.0684736237
C  C45  1  0.82510000  0.33000000  0.58140000  1.0 0.0896043445
C  C46  1  0.17490000  0.83000000  0.91860000  1.0 0.0896043445
C  C47  1  0.17490000  0.67000000  0.41860000  1.0 0.0896043445
C  C48  1  0.82510000  0.17000000  0.08140000  1.0 0.0896043445
C  C49  1  0.71410000  0.29800000  0.43690000  1.0 -0.0435409177
C  C50  1  0.28590000  0.79800000  0.06310000  1.0 -0.0435409177
C  C51  1  0.28590000  0.70200000  0.56310000  1.0 -0.0435409177
C  C52  1  0.71410000  0.20200000  0.93690000  1.0 -0.0435409177
C  C53  1  0.72480000  0.28950000  0.52610000  1.0 -0.0708722578
C  C54  1  0.27520000  0.78950000  0.97390000  1.0 -0.0708722578
C  C55  1  0.27520000  0.71050000  0.47390000  1.0 -0.0708722578
C  C56  1  0.72480000  0.21050000  0.02610000  1.0 -0.0708722578
C  C57  1  0.92200000  0.37520000  0.55410000  1.0 -0.031072074
C  C58  1  0.07800000  0.87520000  0.94590000  1.0 -0.031072074
C  C59  1  0.07800000  0.62480000  0.44590000  1.0 -0.031072074
C  C60  1  0.92200000  0.12480000  0.05410000  1.0 -0.031072074
C  C61  1  0.91590000  0.38160000  0.46500000  1.0 -0.0479964296
C  C62  1  0.08410000  0.88160000  0.03500000  1.0 -0.0479964296
C  C63  1  0.08410000  0.61840000  0.53500000  1.0 -0.0479964296
C  C64  1  0.91590000  0.11840000  0.96500000  1.0 -0.0479964296
C  C65  1  0.30600000  0.19017000  0.40010000  1.0 -0.1379491746
C  C66  1  0.69400000  0.69017000  0.09990000  1.0 -0.1379491746
C  C67  1  0.69400000  0.80983000  0.59990000  1.0 -0.1379491746
C  C68  1  0.30600000  0.30983000  0.90010000  1.0 -0.1379491746
C  C69  1  0.47570000  0.15070000  0.44550000  1.0 -0.0708722578
C  C70  1  0.52430000  0.65070000  0.05450000  1.0 -0.0708722578
C  C71  1  0.52430000  0.84930000  0.55450000  1.0 -0.0708722578
C  C72  1  0.47570000  0.34930000  0.94550000  1.0 -0.0708722578
C  C73  1  0.55910000  0.12199000  0.30840000  1.0 -0.0708722578
C  C74  1  0.44090000  0.62199000  0.19160000  1.0 -0.0708722578
C  C75  1  0.44090000  0.87801000  0.69160000  1.0 -0.0708722578
C  C76  1  0.55910000  0.37801000  0.80840000  1.0 -0.0708722578
C  C77  1  0.38510000  0.15848000  0.26110000  1.0 -0.1199898891
C  C78  1  0.61490000  0.65848000  0.23890000  1.0 -0.1199898891
C  C79  1  0.61490000  0.84152000  0.73890000  1.0 -0.1199898891
C  C80  1  0.38510000  0.34152000  0.76110000  1.0 -0.1199898891
C  C81  1  0.63500000  0.32320000  0.43290000  1.0 -0.0708722578
C  C82  1  0.36500000  0.82320000  0.06710000  1.0 -0.0708722578
C  C83  1  0.36500000  0.67680000  0.56710000  1.0 -0.0708722578
C  C84  1  0.63500000  0.17680000  0.93290000  1.0 -0.0708722578
C  C85  1  0.64600000  0.31830000  0.52210000  1.0 -0.076029858
C  C86  1  0.35400000  0.81830000  0.97790000  1.0 -0.076029858
C  C87  1  0.35400000  0.68170000  0.47790000  1.0 -0.076029858
C  C88  1  0.64600000  0.18170000  0.02210000  1.0 -0.076029858
C  C89  1  0.99100000  0.35500000  0.55090000  1.0 -0.0479964296
C  C90  1  0.00900000  0.85500000  0.94910000  1.0 -0.0479964296
C  C91  1  0.00900000  0.64500000  0.44910000  1.0 -0.0479964296
C  C92  1  0.99100000  0.14500000  0.05090000  1.0 -0.0479964296
C  C93  1  0.98910000  0.36090000  0.46200000  1.0 -0.0572166949
C  C94  1  0.01090000  0.86090000  0.03800000  1.0 -0.0572166949
C  C95  1  0.01090000  0.63910000  0.53800000  1.0 -0.0572166949
C  C96  1  0.98910000  0.13910000  0.96200000  1.0 -0.0572166949
N  N1  1  0.51190000  0.10195000  0.39215000  1.0 -0.2666254252
N  N2  1  0.48810000  0.60195000  0.10785000  1.0 -0.2666254252
N  N3  1  0.48810000  0.89805000  0.60785000  1.0 -0.2666254252
N  N4  1  0.51190000  0.39805000  0.89215000  1.0 -0.2666254252
N  N5  1  0.35280000  0.20839000  0.31489000  1.0 -0.0924506768
N  N6  1  0.64720000  0.70839000  0.18511000  1.0 -0.0924506768
N  N7  1  0.64720000  0.79161000  0.68511000  1.0 -0.0924506768
N  N8  1  0.35280000  0.29161000  0.81489000  1.0 -0.0924506768
N  N9  1  0.80990000  0.35134000  0.31345000  1.0 -0.184649384
N  N10  1  0.19010000  0.85134000  0.18655000  1.0 -0.1903261125
N  N11  1  0.19010000  0.64866000  0.68655000  1.0 -0.1903261125
N  N12  1  0.80990000  0.14866000  0.81345000  1.0 -0.184649384
Cl  Cl1  1  0.05606000  0.46595000  0.89828000  1.0 -0.5169277996
Cl  Cl2  1  0.94394000  0.96595000  0.60172000  1.0 -0.5169277996
Cl  Cl3  1  0.94394000  0.53405000  0.10172000  1.0 -0.5169277996
Cl  Cl4  1  0.05606000  0.03405000  0.39828000  1.0 -0.5169277996
O  O1  1  0.48850000  0.46063000  0.06842000  1.0 -0.5443724602
O  O2  1  0.51150000  0.96063000  0.43158000  1.0 -0.5443724602
O  O3  1  0.51150000  0.53937000  0.93158000  1.0 -0.5443724602
O  O4  1  0.48850000  0.03937000  0.56842000  1.0 -0.5443724602
O  O5  1  0.45880000  0.48348000  0.20436000  1.0 -0.5169277996
O  O6  1  0.54120000  0.98348000  0.29564000  1.0 -0.5169277996
O  O7  1  0.54120000  0.51652000  0.79564000  1.0 -0.5169277996
O  O8  1  0.45880000  0.01652000  0.70436000  1.0 -0.5169277996
O  O9  1  0.86710000  0.39554000  0.06357000  1.0 -0.4505483717
O  O10  1  0.13290000  0.89554000  0.43643000  1.0 -0.4505483717
O  O11  1  0.13290000  0.60446000  0.93643000  1.0 -0.4505483717
O  O12  1  0.86710000  0.10446000  0.56357000  1.0 -0.4505483717
F  F1  1  0.42600000  0.25626000  0.15673000  1.0 -0.1379491746
F  F2  1  0.57400000  0.75626000  0.34327000  1.0 -0.1379491746
F  F3  1  0.57400000  0.74374000  0.84327000  1.0 -0.1379491746
F  F4  1  0.42600000  0.24374000  0.65673000  1.0 -0.1379491746
F  F5  1  0.83300000  0.32259000  0.66844000  1.0 -0.1626872927
F  F6  1  0.16700000  0.82259000  0.83156000  1.0 -0.1626872927
F  F7  1  0.16700000  0.67741000  0.33156000  1.0 -0.1626872927
F  F8  1  0.83300000  0.17741000  0.16844000  1.0 -0.1626872927
