# DDEC6 charges by PACMAN v1.1 (https://github.com/mtap-research/PACMAN-charge/)
data_QASSUZ_ASR_pacman
_symmetry_space_group_name_H-M   'P 1'
_cell_length_a   20.88300000
_cell_length_b   20.88300000
_cell_length_c   12.46480000
_cell_angle_alpha   90.00000000
_cell_angle_beta   90.00000000
_cell_angle_gamma   120.00000000
_symmetry_Int_Tables_number   1
_chemical_formula_structural   K7Fe2H18C25S2(NO20)2
_chemical_formula_sum   'K21 Fe6 H54 C75 S6 N6 O120'
_cell_volume   4707.62351170
_cell_formula_units_Z   3
loop_
 _symmetry_equiv_pos_site_id
 _symmetry_equiv_pos_as_xyz
  1  'x, y, z'
loop_
 _atom_site_type_symbol
 _atom_site_label
 _atom_site_symmetry_multiplicity
 _atom_site_fract_x
 _atom_site_fract_y
 _atom_site_fract_z
 _atom_site_occupancy
 _atom_site_charge
K  K1  1  0.36861000  0.40906000  0.27805000  1.0 0.8129395162
K  K2  1  0.59094000  0.95955000  0.94472000  1.0 0.8129395162
K  K3  1  0.04045000  0.63139000  0.61138000  1.0 0.8129395162
K  K4  1  0.40906000  0.36861000  0.72195000  1.0 0.8129395162
K  K5  1  0.95955000  0.59094000  0.05528000  1.0 0.8129395162
K  K6  1  0.63139000  0.04045000  0.38862000  1.0 0.8129395162
K  K7  1  0.48018000  0.10570000  0.38893000  1.0 0.8663416321
K  K8  1  0.89430000  0.37448000  0.05560000  1.0 0.8663416321
K  K9  1  0.62552000  0.51982000  0.72226000  1.0 0.8663416321
K  K10  1  0.10570000  0.48018000  0.61107000  1.0 0.8663416321
K  K11  1  0.37448000  0.89430000  0.94440000  1.0 0.8663416321
K  K12  1  0.51982000  0.62552000  0.27774000  1.0 0.8663416321
K  K13  1  0.54190000  0.54190000  0.00000000  1.0 0.8533372298
K  K14  1  0.45810000  0.00000000  0.66666667  1.0 0.8533372298
K  K15  1  0.00000000  0.45810000  0.33333333  1.0 0.8533372298
K  K16  1  0.80550000  0.15550000  0.62870000  1.0 0.6237451489
K  K17  1  0.84450000  0.65000000  0.29537000  1.0 0.6237451489
K  K18  1  0.35000000  0.19450000  0.96203000  1.0 0.6237451489
K  K19  1  0.15550000  0.80550000  0.37130000  1.0 0.6237451489
K  K20  1  0.65000000  0.84450000  0.70463000  1.0 0.6237451489
K  K21  1  0.19450000  0.35000000  0.03797000  1.0 0.6256610108
Fe  Fe1  1  0.50742000  0.42227000  0.46374000  1.0 1.0293918068
Fe  Fe2  1  0.57773000  0.08515000  0.13041000  1.0 1.0293918068
Fe  Fe3  1  0.91485000  0.49258000  0.79707000  1.0 1.0293918068
Fe  Fe4  1  0.42227000  0.50742000  0.53626000  1.0 1.0293918068
Fe  Fe5  1  0.08515000  0.57773000  0.86959000  1.0 1.0293918068
Fe  Fe6  1  0.49258000  0.91485000  0.20293000  1.0 1.0293918068
H  H1  1  0.59000000  0.32210000  0.30700000  1.0 0.1190218145
H  H2  1  0.67790000  0.26790000  0.97367000  1.0 0.1190218145
H  H3  1  0.73210000  0.41000000  0.64033000  1.0 0.1190218145
H  H4  1  0.32210000  0.59000000  0.69300000  1.0 0.1190218145
H  H5  1  0.26790000  0.67790000  0.02633000  1.0 0.1190218145
H  H6  1  0.41000000  0.73210000  0.35967000  1.0 0.1190218145
H  H7  1  0.55490000  0.35940000  0.23770000  1.0 0.1460407639
H  H8  1  0.64060000  0.19550000  0.90437000  1.0 0.1460407639
H  H9  1  0.80450000  0.44510000  0.57103000  1.0 0.1460407639
H  H10  1  0.35940000  0.55490000  0.76230000  1.0 0.1460407639
H  H11  1  0.19550000  0.64060000  0.09563000  1.0 0.1460407639
H  H12  1  0.44510000  0.80450000  0.42897000  1.0 0.1460407639
H  H13  1  0.66000000  0.47040000  0.25330000  1.0 0.1323839093
H  H14  1  0.52960000  0.18960000  0.91997000  1.0 0.1323839093
H  H15  1  0.81040000  0.34000000  0.58663000  1.0 0.1323839093
H  H16  1  0.47040000  0.66000000  0.74670000  1.0 0.1323839093
H  H17  1  0.18960000  0.52960000  0.08003000  1.0 0.1323839093
H  H18  1  0.34000000  0.81040000  0.41337000  1.0 0.1323839093
H  H19  1  0.67380000  0.51930000  0.35590000  1.0 0.1405134911
H  H20  1  0.48070000  0.15450000  0.02257000  1.0 0.1405134911
H  H21  1  0.84550000  0.32620000  0.68923000  1.0 0.1405134911
H  H22  1  0.51930000  0.67380000  0.64410000  1.0 0.1405134911
H  H23  1  0.15450000  0.48070000  0.97743000  1.0 0.1405134911
H  H24  1  0.32620000  0.84550000  0.31077000  1.0 0.1405134911
H  H25  1  0.66930000  0.44980000  0.50180000  1.0 0.1190218145
H  H26  1  0.55020000  0.21950000  0.16847000  1.0 0.1190218145
H  H27  1  0.78050000  0.33070000  0.83513000  1.0 0.1190218145
H  H28  1  0.44980000  0.66930000  0.49820000  1.0 0.1190218145
H  H29  1  0.21950000  0.55020000  0.83153000  1.0 0.1190218145
H  H30  1  0.33070000  0.78050000  0.16487000  1.0 0.1190218145
H  H31  1  0.68510000  0.40300000  0.41870000  1.0 0.1087509561
H  H32  1  0.59700000  0.28210000  0.08537000  1.0 0.1087509561
H  H33  1  0.71790000  0.31490000  0.75203000  1.0 0.1087509561
H  H34  1  0.40300000  0.68510000  0.58130000  1.0 0.1087509561
H  H35  1  0.28210000  0.59700000  0.91463000  1.0 0.1087509561
H  H36  1  0.31490000  0.71790000  0.24797000  1.0 0.1087509561
H  H37  1  0.47460000  0.26450000  0.70980000  1.0 0.1323839093
H  H38  1  0.73550000  0.21010000  0.37647000  1.0 0.1323839093
H  H39  1  0.78990000  0.52540000  0.04313000  1.0 0.1323839093
H  H40  1  0.26450000  0.47460000  0.29020000  1.0 0.1323839093
H  H41  1  0.21010000  0.73550000  0.62353000  1.0 0.1323839093
H  H42  1  0.52540000  0.78990000  0.95687000  1.0 0.1323839093
H  H43  1  0.51240000  0.17990000  0.71830000  1.0 0.1087509561
H  H44  1  0.82010000  0.33250000  0.38497000  1.0 0.1087509561
H  H45  1  0.66750000  0.48760000  0.05163000  1.0 0.1087509561
H  H46  1  0.17990000  0.51240000  0.28170000  1.0 0.1087509561
H  H47  1  0.33250000  0.82010000  0.61503000  1.0 0.1087509561
H  H48  1  0.48760000  0.66750000  0.94837000  1.0 0.1087509561
H  H49  1  0.66310000  0.28780000  0.48790000  1.0 0.1190218145
H  H50  1  0.71220000  0.37530000  0.15457000  1.0 0.1190218145
H  H51  1  0.62470000  0.33690000  0.82123000  1.0 0.1190218145
H  H52  1  0.28780000  0.66310000  0.51210000  1.0 0.1190218145
H  H53  1  0.37530000  0.71220000  0.84543000  1.0 0.1190218145
H  H54  1  0.33690000  0.62470000  0.17877000  1.0 0.1190218145
C  C1  1  0.58540000  0.58540000  0.50000000  1.0 0.8154925917
C  C2  1  0.41460000  0.00000000  0.16667000  1.0 0.8154925917
C  C3  1  0.00000000  0.41460000  0.83333000  1.0 0.8154925917
C  C4  1  0.55930000  0.34480000  0.31000000  1.0 -0.2857454603
C  C5  1  0.65520000  0.21450000  0.97667000  1.0 -0.2857454603
C  C6  1  0.78550000  0.44070000  0.64333000  1.0 -0.2857454603
C  C7  1  0.34480000  0.55930000  0.69000000  1.0 -0.2857454603
C  C8  1  0.21450000  0.65520000  0.02333000  1.0 -0.2857454603
C  C9  1  0.44070000  0.78550000  0.35667000  1.0 -0.2857454603
C  C10  1  0.48330000  0.28870000  0.35080000  1.0 0.6256610108
C  C11  1  0.71130000  0.19460000  0.01747000  1.0 0.6256610108
C  C12  1  0.80540000  0.51670000  0.68413000  1.0 0.6256610108
C  C13  1  0.28870000  0.48330000  0.64920000  1.0 0.6256610108
C  C14  1  0.19460000  0.71130000  0.98253000  1.0 0.6256610108
C  C15  1  0.51670000  0.80540000  0.31587000  1.0 0.6256610108
C  C16  1  0.63600000  0.47970000  0.31300000  1.0 -0.2747341877
C  C17  1  0.52030000  0.15630000  0.97967000  1.0 -0.2747341877
C  C18  1  0.84370000  0.36400000  0.64633000  1.0 -0.2747341877
C  C19  1  0.47970000  0.63600000  0.68700000  1.0 -0.2747341877
C  C20  1  0.15630000  0.52030000  0.02033000  1.0 -0.2747341877
C  C21  1  0.36400000  0.84370000  0.35367000  1.0 -0.2747341877
C  C22  1  0.58180000  0.50270000  0.27080000  1.0 0.6256610108
C  C23  1  0.49730000  0.07910000  0.93747000  1.0 0.6256610108
C  C24  1  0.92090000  0.41820000  0.60413000  1.0 0.6256610108
C  C25  1  0.50270000  0.58180000  0.72920000  1.0 0.6256610108
C  C26  1  0.07910000  0.49730000  0.06253000  1.0 0.6256610108
C  C27  1  0.41820000  0.92090000  0.39587000  1.0 0.6256610108
C  C28  1  0.64630000  0.40570000  0.45750000  1.0 -0.1524933463
C  C29  1  0.59430000  0.24060000  0.12417000  1.0 -0.1524933463
C  C30  1  0.75940000  0.35370000  0.79083000  1.0 -0.1524933463
C  C31  1  0.40570000  0.64630000  0.54250000  1.0 -0.1524933463
C  C32  1  0.24060000  0.59430000  0.87583000  1.0 -0.1524933463
C  C33  1  0.35370000  0.75940000  0.20917000  1.0 -0.1524933463
C  C34  1  0.60618000  0.33820000  0.52920000  1.0 -0.0277436895
C  C35  1  0.66180000  0.26798000  0.19587000  1.0 -0.0277436895
C  C36  1  0.73202000  0.39382000  0.86253000  1.0 -0.0277436895
C  C37  1  0.33820000  0.60618000  0.47080000  1.0 -0.0277436895
C  C38  1  0.26798000  0.66180000  0.80413000  1.0 -0.0277436895
C  C39  1  0.39382000  0.73202000  0.13747000  1.0 -0.0277436895
C  C40  1  0.54780000  0.33220000  0.59560000  1.0 0.2875226155
C  C41  1  0.66780000  0.21560000  0.26227000  1.0 0.2875226155
C  C42  1  0.78440000  0.45220000  0.92893000  1.0 0.2875226155
C  C43  1  0.33220000  0.54780000  0.40440000  1.0 0.2875226155
C  C44  1  0.21560000  0.66780000  0.73773000  1.0 0.2875226155
C  C45  1  0.45220000  0.78440000  0.07107000  1.0 0.2875226155
C  C46  1  0.51330000  0.27020000  0.66620000  1.0 -0.2049436008
C  C47  1  0.72980000  0.24310000  0.33287000  1.0 -0.2055527603
C  C48  1  0.75690000  0.48670000  0.99953000  1.0 -0.2055527603
C  C49  1  0.27020000  0.51330000  0.33380000  1.0 -0.2049436008
C  C50  1  0.24310000  0.72980000  0.66713000  1.0 -0.2049436008
C  C51  1  0.48670000  0.75690000  0.00047000  1.0 -0.2049436008
C  C52  1  0.53550000  0.21950000  0.67100000  1.0 -0.0988875663
C  C53  1  0.78050000  0.31600000  0.33767000  1.0 -0.0988875663
C  C54  1  0.68400000  0.46450000  0.00433000  1.0 -0.0988875663
C  C55  1  0.21950000  0.53550000  0.32900000  1.0 -0.0988875663
C  C56  1  0.31600000  0.78050000  0.66233000  1.0 -0.0988875663
C  C57  1  0.46450000  0.68400000  0.99567000  1.0 -0.0988875663
C  C58  1  0.59280000  0.22590000  0.60580000  1.0 -0.1276959216
C  C59  1  0.77410000  0.36690000  0.27247000  1.0 -0.1276959216
C  C60  1  0.63310000  0.40720000  0.93913000  1.0 -0.1276959216
C  C61  1  0.22590000  0.59280000  0.39420000  1.0 -0.1276959216
C  C62  1  0.36690000  0.77410000  0.72753000  1.0 -0.1276959216
C  C63  1  0.40720000  0.63310000  0.06087000  1.0 -0.1276959216
C  C64  1  0.62640000  0.28464000  0.53360000  1.0 -0.1760214453
C  C65  1  0.71536000  0.34176000  0.20027000  1.0 -0.1760214453
C  C66  1  0.65824000  0.37360000  0.86693000  1.0 -0.1760214453
C  C67  1  0.28464000  0.62640000  0.46640000  1.0 -0.1760214453
C  C68  1  0.34176000  0.71536000  0.79973000  1.0 -0.1760214453
C  C69  1  0.37360000  0.65824000  0.13307000  1.0 -0.1760214453
C  C70  1  0.32300000  0.06040000  0.81700000  1.0 0.5187106941
C  C71  1  0.93960000  0.26260000  0.48367000  1.0 0.5187106941
C  C72  1  0.73740000  0.67700000  0.15033000  1.0 0.5187106941
C  C73  1  0.06040000  0.32300000  0.18300000  1.0 0.5187106941
C  C74  1  0.26260000  0.93960000  0.51633000  1.0 0.5187106941
C  C75  1  0.67700000  0.73740000  0.84967000  1.0 0.5187106941
S  S1  1  0.62078000  0.15842000  0.61324000  1.0 1.1694661791
S  S2  1  0.84158000  0.46236000  0.27991000  1.0 1.1694661791
S  S3  1  0.53764000  0.37922000  0.94657000  1.0 1.1694661791
S  S4  1  0.15842000  0.62078000  0.38676000  1.0 1.1694661791
S  S5  1  0.46236000  0.84158000  0.72009000  1.0 1.1694661791
S  S6  1  0.37922000  0.53764000  0.05343000  1.0 1.1694661791
N  N1  1  0.59560000  0.41161000  0.37940000  1.0 -0.0528167559
N  N2  1  0.58839000  0.18399000  0.04607000  1.0 -0.0528167559
N  N3  1  0.81601000  0.40440000  0.71273000  1.0 -0.0528167559
N  N4  1  0.41161000  0.59560000  0.62060000  1.0 -0.0528167559
N  N5  1  0.18399000  0.58839000  0.95393000  1.0 -0.0528167559
N  N6  1  0.40440000  0.81601000  0.28727000  1.0 -0.0528167559
O  O1  1  0.42294000  0.42294000  0.50000000  1.0 -0.7988702044
O  O2  1  0.57706000  0.00000000  0.16667000  1.0 -0.7988702044
O  O3  1  0.00000000  0.57706000  0.83333000  1.0 -0.7988702044
O  O4  1  0.58560000  0.52452000  0.51500000  1.0 -0.6602827693
O  O5  1  0.47548000  0.06108000  0.18167000  1.0 -0.6602827693
O  O6  1  0.93892000  0.41440000  0.84833000  1.0 -0.6602827693
O  O7  1  0.52452000  0.58560000  0.48500000  1.0 -0.6602827693
O  O8  1  0.06108000  0.47548000  0.81833000  1.0 -0.6602827693
O  O9  1  0.41440000  0.93892000  0.15167000  1.0 -0.6602827693
O  O10  1  0.64500000  0.64500000  0.50000000  1.0 -0.5399740125
O  O11  1  0.35500000  0.00000000  0.16667000  1.0 -0.5399740125
O  O12  1  0.00000000  0.35500000  0.83333000  1.0 -0.5399740125
O  O13  1  0.44885000  0.31559000  0.40240000  1.0 -0.5683109398
O  O14  1  0.68441000  0.13326000  0.06907000  1.0 -0.5683109398
O  O15  1  0.86674000  0.55115000  0.73573000  1.0 -0.5683109398
O  O16  1  0.31559000  0.44885000  0.59760000  1.0 -0.5683109398
O  O17  1  0.13326000  0.68441000  0.93093000  1.0 -0.5683109398
O  O18  1  0.55115000  0.86674000  0.26427000  1.0 -0.5683109398
O  O19  1  0.45810000  0.22304000  0.32800000  1.0 -0.5683109398
O  O20  1  0.77696000  0.23506000  0.99467000  1.0 -0.5683109398
O  O21  1  0.76494000  0.54190000  0.66133000  1.0 -0.5683109398
O  O22  1  0.22304000  0.45810000  0.67200000  1.0 -0.5683109398
O  O23  1  0.23506000  0.77696000  0.00533000  1.0 -0.5683109398
O  O24  1  0.54190000  0.76494000  0.33867000  1.0 -0.5683109398
O  O25  1  0.51674000  0.47046000  0.31250000  1.0 -0.6103087848
O  O26  1  0.52954000  0.04628000  0.97917000  1.0 -0.6103087848
O  O27  1  0.95372000  0.48326000  0.64583000  1.0 -0.6103087848
O  O28  1  0.47046000  0.51674000  0.68750000  1.0 -0.6103087848
O  O29  1  0.04628000  0.52954000  0.02083000  1.0 -0.6103087848
O  O30  1  0.48326000  0.95372000  0.35417000  1.0 -0.6103087848
O  O31  1  0.60272000  0.55058000  0.20080000  1.0 -0.580021231
O  O32  1  0.44942000  0.05214000  0.86747000  1.0 -0.580021231
O  O33  1  0.94786000  0.39728000  0.53413000  1.0 -0.580021231
O  O34  1  0.55058000  0.60272000  0.79920000  1.0 -0.580021231
O  O35  1  0.05214000  0.44942000  0.13253000  1.0 -0.580021231
O  O36  1  0.39728000  0.94786000  0.46587000  1.0 -0.580021231
O  O37  1  0.52699000  0.38266000  0.59580000  1.0 -0.6045965935
O  O38  1  0.61734000  0.14433000  0.26247000  1.0 -0.6045965935
O  O39  1  0.85567000  0.47301000  0.92913000  1.0 -0.6045965935
O  O40  1  0.38266000  0.52699000  0.40420000  1.0 -0.6045965935
O  O41  1  0.14433000  0.61734000  0.73753000  1.0 -0.6045965935
O  O42  1  0.47301000  0.85567000  0.07087000  1.0 -0.6045965935
O  O43  1  0.57750000  0.10394000  0.53210000  1.0 -0.7323915745
O  O44  1  0.89606000  0.47356000  0.19877000  1.0 -0.7323915745
O  O45  1  0.52644000  0.42250000  0.86543000  1.0 -0.7323915745
O  O46  1  0.10394000  0.57750000  0.46790000  1.0 -0.7323915745
O  O47  1  0.47356000  0.89606000  0.80123000  1.0 -0.7323915745
O  O48  1  0.42250000  0.52644000  0.13457000  1.0 -0.7323915745
O  O49  1  0.60090000  0.12728000  0.72010000  1.0 -0.632404763
O  O50  1  0.87272000  0.47362000  0.38677000  1.0 -0.632404763
O  O51  1  0.52638000  0.39910000  0.05343000  1.0 -0.632404763
O  O52  1  0.12728000  0.60090000  0.27990000  1.0 -0.632404763
O  O53  1  0.47362000  0.87272000  0.61323000  1.0 -0.632404763
O  O54  1  0.39910000  0.52638000  0.94657000  1.0 -0.632404763
O  O55  1  0.69932000  0.19537000  0.59150000  1.0 -0.6103087848
O  O56  1  0.80463000  0.50395000  0.25817000  1.0 -0.6103087848
O  O57  1  0.49605000  0.30068000  0.92483000  1.0 -0.6103087848
O  O58  1  0.19537000  0.69932000  0.40850000  1.0 -0.6103087848
O  O59  1  0.50395000  0.80463000  0.74183000  1.0 -0.6103087848
O  O60  1  0.30068000  0.49605000  0.07517000  1.0 -0.6103087848
O  O61  1  0.22670000  0.31430000  0.25660000  1.0 -0.464314509
O  O62  1  0.68570000  0.91240000  0.92327000  1.0 -0.464314509
O  O63  1  0.08760000  0.77330000  0.58993000  1.0 -0.464314509
O  O64  1  0.31430000  0.22670000  0.74340000  1.0 -0.464314509
O  O65  1  0.91240000  0.68570000  0.07673000  1.0 -0.469935078
O  O66  1  0.77330000  0.08760000  0.41007000  1.0 -0.464314509
O  O67  1  0.28550000  0.32160000  0.44900000  1.0 0.0546244422
O  O68  1  0.67840000  0.96390000  0.11567000  1.0 0.0572834253
O  O69  1  0.03610000  0.71450000  0.78233000  1.0 0.0546244422
O  O70  1  0.32160000  0.28550000  0.55100000  1.0 0.0572834253
O  O71  1  0.96390000  0.67840000  0.88433000  1.0 0.0572834253
O  O72  1  0.71450000  0.03610000  0.21767000  1.0 0.0546244422
O  O73  1  0.37570000  0.33440000  0.09840000  1.0 0.0696045696
O  O74  1  0.66560000  0.04130000  0.76507000  1.0 0.0696045696
O  O75  1  0.95870000  0.62430000  0.43173000  1.0 0.0696045696
O  O76  1  0.33440000  0.37570000  0.90160000  1.0 0.0696045696
O  O77  1  0.04130000  0.66560000  0.23493000  1.0 0.0696045696
O  O78  1  0.62430000  0.95870000  0.56827000  1.0 0.0696045696
O  O79  1  0.81500000  0.03500000  0.61000000  1.0 -0.1121558172
O  O80  1  0.96500000  0.78000000  0.27667000  1.0 -0.1121558172
O  O81  1  0.22000000  0.18500000  0.94333000  1.0 -0.1121558172
O  O82  1  0.03500000  0.81500000  0.39000000  1.0 -0.1121558172
O  O83  1  0.78000000  0.96500000  0.72333000  1.0 -0.1121558172
O  O84  1  0.18500000  0.22000000  0.05667000  1.0 -0.1121558172
O  O85  1  0.69300000  0.61260000  0.91350000  1.0 -0.4771243399
O  O86  1  0.38740000  0.08040000  0.58017000  1.0 -0.4771243399
O  O87  1  0.91960000  0.30700000  0.24683000  1.0 -0.4771243399
O  O88  1  0.61260000  0.69300000  0.08650000  1.0 -0.4771243399
O  O89  1  0.08040000  0.38740000  0.41983000  1.0 -0.469935078
O  O90  1  0.30700000  0.91960000  0.75317000  1.0 -0.4771243399
O  O91  1  0.36420000  0.10410000  0.79620000  1.0 0.0242670963
O  O92  1  0.89590000  0.26010000  0.46287000  1.0 0.0242670963
O  O93  1  0.73990000  0.63580000  0.12953000  1.0 0.0242670963
O  O94  1  0.10410000  0.36420000  0.20380000  1.0 0.0242670963
O  O95  1  0.26010000  0.89590000  0.53713000  1.0 0.0242670963
O  O96  1  0.63580000  0.73990000  0.87047000  1.0 0.0242670963
O  O97  1  0.35300000  0.22940000  0.84260000  1.0 -0.3383788849
O  O98  1  0.77060000  0.12360000  0.50927000  1.0 -0.3383788849
O  O99  1  0.87640000  0.64700000  0.17593000  1.0 -0.3383788849
O  O100  1  0.22940000  0.35300000  0.15740000  1.0 -0.3383788849
O  O101  1  0.12360000  0.77060000  0.49073000  1.0 -0.3383788849
O  O102  1  0.64700000  0.87640000  0.82407000  1.0 -0.3383788849
O  O103  1  0.29000000  0.29000000  0.50000000  1.0 0.4315022444
O  O104  1  0.71000000  0.00000000  0.16667000  1.0 0.4315022444
O  O105  1  0.00000000  0.71000000  0.83333000  1.0 0.4315022444
O  O106  1  0.31490000  0.05270000  0.89400000  1.0 -0.0085768449
O  O107  1  0.94730000  0.26220000  0.56067000  1.0 -0.0085768449
O  O108  1  0.73780000  0.68510000  0.22733000  1.0 -0.0085768449
O  O109  1  0.05270000  0.31490000  0.10600000  1.0 -0.0085768449
O  O110  1  0.26220000  0.94730000  0.43933000  1.0 -0.0085768449
O  O111  1  0.68510000  0.73780000  0.77267000  1.0 -0.0085768449
O  O112  1  0.31120000  0.38260000  0.85510000  1.0 0.0994647068
O  O113  1  0.61740000  0.92860000  0.52177000  1.0 0.0994647068
O  O114  1  0.07140000  0.68880000  0.18843000  1.0 0.0994647068
O  O115  1  0.38260000  0.31120000  0.14490000  1.0 0.0994647068
O  O116  1  0.92860000  0.61740000  0.47823000  1.0 0.0994647068
O  O117  1  0.68880000  0.07140000  0.81157000  1.0 0.0994647068
O  O118  1  0.25600000  0.25600000  0.00000000  1.0 0.1087509561
O  O119  1  0.74400000  0.00000000  0.66666667  1.0 0.0994647068
O  O120  1  0.00000000  0.74400000  0.33333333  1.0 0.1087509561
