# DDEC6 charges by PACMAN v1.1 (https://github.com/mtap-research/PACMAN-charge/)
data_QATVUE_ion_pacman
_symmetry_space_group_name_H-M   'P 1'
_cell_length_a   16.37480000
_cell_length_b   16.37480000
_cell_length_c   16.37480000
_cell_angle_alpha   115.23400000
_cell_angle_beta   115.23400000
_cell_angle_gamma   98.47510000
_symmetry_Int_Tables_number   1
_chemical_formula_structural   CuH16C24N8(ClO5)2
_chemical_formula_sum   'Cu4 H64 C96 N32 Cl8 O40'
_cell_volume   3289.22435403
_cell_formula_units_Z   4
loop_
 _symmetry_equiv_pos_site_id
 _symmetry_equiv_pos_as_xyz
  1  'x, y, z'
loop_
 _atom_site_type_symbol
 _atom_site_label
 _atom_site_symmetry_multiplicity
 _atom_site_fract_x
 _atom_site_fract_y
 _atom_site_fract_z
 _atom_site_occupancy
 _atom_site_charge
Cu  Cu1  1  0.37500000  0.40412000  0.52912000  1.0 0.528713973
Cu  Cu2  1  0.87500000  0.84588000  0.47088000  1.0 0.528713973
Cu  Cu3  1  0.59588000  0.12500000  0.97088000  1.0 0.528713973
Cu  Cu4  1  0.15412000  0.62500000  0.02912000  1.0 0.528713973
H  H1  1  0.44520000  0.45600000  0.75400000  1.0 0.1018173114
H  H2  1  0.70200000  0.69120000  0.24600000  1.0 0.1018173114
H  H3  1  0.54400000  0.29800000  0.98920000  1.0 0.1018173114
H  H4  1  0.30880000  0.55480000  0.01080000  1.0 0.1018173114
H  H5  1  0.04800000  0.79400000  0.48920000  1.0 0.1018173114
H  H6  1  0.30480000  0.55880000  0.51080000  1.0 0.1018173114
H  H7  1  0.44120000  0.95200000  0.74600000  1.0 0.1018173114
H  H8  1  0.20600000  0.69520000  0.25400000  1.0 0.1018173114
H  H9  1  0.38620000  0.47640000  0.86180000  1.0 0.1315242068
H  H10  1  0.61460000  0.52440000  0.13820000  1.0 0.1315242068
H  H11  1  0.52360000  0.38540000  0.90980000  1.0 0.1315242068
H  H12  1  0.47560000  0.61380000  0.09020000  1.0 0.1315242068
H  H13  1  0.13540000  0.77360000  0.40980000  1.0 0.1315242068
H  H14  1  0.36380000  0.72560000  0.59020000  1.0 0.1315242068
H  H15  1  0.27440000  0.86460000  0.63820000  1.0 0.1315242068
H  H16  1  0.22640000  0.63620000  0.36180000  1.0 0.1315242068
H  H17  1  0.22780000  0.45970000  0.80310000  1.0 0.1099380842
H  H18  1  0.65660000  0.42470000  0.19690000  1.0 0.1099380842
H  H19  1  0.54030000  0.34340000  0.76810000  1.0 0.1099380842
H  H20  1  0.57530000  0.77220000  0.23190000  1.0 0.1099380842
H  H21  1  0.09340000  0.79030000  0.26810000  1.0 0.1099380842
H  H22  1  0.52220000  0.82530000  0.73190000  1.0 0.1099380842
H  H23  1  0.17470000  0.90660000  0.69690000  1.0 0.1099380842
H  H24  1  0.20970000  0.47780000  0.30310000  1.0 0.1099380842
H  H25  1  0.12220000  0.41950000  0.62330000  1.0 0.1418974341
H  H26  1  0.79620000  0.49890000  0.37670000  1.0 0.1418974341
H  H27  1  0.58050000  0.20380000  0.70270000  1.0 0.1418974341
H  H28  1  0.50110000  0.87780000  0.29730000  1.0 0.1418974341
H  H29  1  0.95380000  0.83050000  0.20270000  1.0 0.1418974341
H  H30  1  0.62780000  0.75110000  0.79730000  1.0 0.1418974341
H  H31  1  0.24890000  0.04620000  0.87670000  1.0 0.1418974341
H  H32  1  0.16950000  0.37220000  0.12330000  1.0 0.1418974341
H  H33  1  0.95260000  0.28100000  0.12240000  1.0 0.1464651131
H  H34  1  0.15860000  0.83020000  0.87760000  1.0 0.1464651131
H  H35  1  0.71900000  0.84140000  0.67160000  1.0 0.1464651131
H  H36  1  0.16980000  0.04740000  0.32840000  1.0 0.1464651131
H  H37  1  0.59140000  0.96900000  0.17160000  1.0 0.1464651131
H  H38  1  0.79740000  0.41980000  0.82840000  1.0 0.1464651131
H  H39  1  0.58020000  0.40860000  0.37760000  1.0 0.1464651131
H  H40  1  0.03100000  0.20260000  0.62240000  1.0 0.1464651131
H  H41  1  0.88750000  0.31360000  0.34250000  1.0 0.1418974341
H  H42  1  0.97110000  0.54500000  0.65750000  1.0 0.1418974341
H  H43  1  0.68640000  0.02890000  0.57390000  1.0 0.1418974341
H  H44  1  0.45500000  0.11250000  0.42610000  1.0 0.1418974341
H  H45  1  0.77890000  0.93640000  0.07390000  1.0 0.1418974341
H  H46  1  0.86250000  0.70500000  0.92610000  1.0 0.1418974341
H  H47  1  0.29500000  0.22110000  0.15750000  1.0 0.1418974341
H  H48  1  0.06360000  0.13750000  0.84250000  1.0 0.1418974341
H  H49  1  0.78810000  0.21740000  0.00050000  1.0 0.1099380842
H  H50  1  0.21690000  0.78760000  0.99950000  1.0 0.1099380842
H  H51  1  0.78260000  0.78310000  0.57070000  1.0 0.1099380842
H  H52  1  0.21240000  0.21190000  0.42930000  1.0 0.1099380842
H  H53  1  0.53310000  0.03260000  0.07070000  1.0 0.1099380842
H  H54  1  0.96190000  0.46240000  0.92930000  1.0 0.1099380842
H  H55  1  0.53760000  0.46690000  0.49950000  1.0 0.1099380842
H  H56  1  0.96740000  0.03810000  0.50050000  1.0 0.1099380842
H  H57  1  0.72680000  0.24670000  0.21170000  1.0 0.1099380842
H  H58  1  0.03500000  0.51510000  0.78830000  1.0 0.1099380842
H  H59  1  0.75330000  0.96500000  0.48010000  1.0 0.1099380842
H  H60  1  0.48490000  0.27320000  0.51990000  1.0 0.1099380842
H  H61  1  0.71500000  0.00330000  0.98010000  1.0 0.1099380842
H  H62  1  0.02320000  0.73490000  0.01990000  1.0 0.1099380842
H  H63  1  0.26510000  0.28500000  0.28830000  1.0 0.1099380842
H  H64  1  0.99670000  0.97680000  0.71170000  1.0 0.1099380842
C  C1  1  0.37960000  0.44700000  0.72700000  1.0 0.0796912571
C  C2  1  0.72000000  0.65260000  0.27300000  1.0 0.0796912571
C  C3  1  0.55300000  0.28000000  0.93260000  1.0 0.0796912571
C  C4  1  0.34740000  0.62040000  0.06740000  1.0 0.0796912571
C  C5  1  0.03000000  0.80300000  0.43260000  1.0 0.0796912571
C  C6  1  0.37040000  0.59740000  0.56740000  1.0 0.0796912571
C  C7  1  0.40260000  0.97000000  0.77300000  1.0 0.0796912571
C  C8  1  0.19700000  0.62960000  0.22700000  1.0 0.0796912571
C  C9  1  0.34430000  0.46030000  0.79220000  1.0 -0.1330076738
C  C10  1  0.66810000  0.55210000  0.20780000  1.0 -0.1330076738
C  C11  1  0.53970000  0.33190000  0.88400000  1.0 -0.1330076738
C  C12  1  0.44790000  0.65570000  0.11600000  1.0 -0.1330076738
C  C13  1  0.08190000  0.78970000  0.38400000  1.0 -0.1330076738
C  C14  1  0.40570000  0.69790000  0.61600000  1.0 -0.1330076738
C  C15  1  0.30210000  0.91810000  0.70780000  1.0 -0.1330076738
C  C16  1  0.21030000  0.59430000  0.29220000  1.0 -0.1330076738
C  C17  1  0.25080000  0.45080000  0.75820000  1.0 -0.0200727034
C  C18  1  0.69260000  0.49260000  0.24180000  1.0 -0.0200727034
C  C19  1  0.54920000  0.30740000  0.80000000  1.0 -0.0200727034
C  C20  1  0.50740000  0.74920000  0.20000000  1.0 -0.0200727034
C  C21  1  0.05740000  0.79920000  0.30000000  1.0 -0.0200727034
C  C22  1  0.49920000  0.75740000  0.70000000  1.0 -0.0200727034
C  C23  1  0.24260000  0.94260000  0.74180000  1.0 -0.0200727034
C  C24  1  0.20080000  0.50080000  0.25820000  1.0 -0.0200727034
C  C25  1  0.18730000  0.42630000  0.65060000  1.0 -0.118267962
C  C26  1  0.77570000  0.53670000  0.34940000  1.0 -0.118267962
C  C27  1  0.57370000  0.22430000  0.76100000  1.0 -0.118267962
C  C28  1  0.46330000  0.81270000  0.23900000  1.0 -0.118267962
C  C29  1  0.97430000  0.82370000  0.26100000  1.0 -0.118267962
C  C30  1  0.56270000  0.71330000  0.73900000  1.0 -0.118267962
C  C31  1  0.28670000  0.02570000  0.84940000  1.0 -0.118267962
C  C32  1  0.17630000  0.43730000  0.15060000  1.0 -0.118267962
C  C33  1  0.22750000  0.41340000  0.59050000  1.0 0.1246966288
C  C34  1  0.82290000  0.63700000  0.40950000  1.0 0.1246966288
C  C35  1  0.58660000  0.17710000  0.81410000  1.0 0.1246966288
C  C36  1  0.36300000  0.77250000  0.18590000  1.0 0.1246966288
C  C37  1  0.92710000  0.83660000  0.31410000  1.0 0.1246966288
C  C38  1  0.52250000  0.61300000  0.68590000  1.0 0.1246966288
C  C39  1  0.38700000  0.07290000  0.90950000  1.0 0.1315242068
C  C40  1  0.16340000  0.47750000  0.09050000  1.0 0.1246966288
C  C41  1  0.16790000  0.38460000  0.47710000  1.0 0.2961069398
C  C42  1  0.90750000  0.69080000  0.52290000  1.0 0.2961069398
C  C43  1  0.61540000  0.09250000  0.78330000  1.0 0.2961069398
C  C44  1  0.30920000  0.83210000  0.21670000  1.0 0.2961069398
C  C45  1  0.84250000  0.86540000  0.28330000  1.0 0.2961069398
C  C46  1  0.58210000  0.55920000  0.71670000  1.0 0.2961069398
C  C47  1  0.44080000  0.15750000  0.02290000  1.0 0.2961069398
C  C48  1  0.13460000  0.41790000  0.97710000  1.0 0.2961069398
C  C49  1  0.04470000  0.33510000  0.32640000  1.0 0.2919002191
C  C50  1  0.00870000  0.71830000  0.67360000  1.0 0.2919002191
C  C51  1  0.66490000  0.99130000  0.70960000  1.0 0.2919002191
C  C52  1  0.28170000  0.95530000  0.29040000  1.0 0.2919002191
C  C53  1  0.74130000  0.91490000  0.20960000  1.0 0.2919002191
C  C54  1  0.70530000  0.53170000  0.79040000  1.0 0.2919002191
C  C55  1  0.46830000  0.25870000  0.17360000  1.0 0.2919002191
C  C56  1  0.08510000  0.29470000  0.82640000  1.0 0.2919002191
C  C57  1  0.94050000  0.30100000  0.24690000  1.0 0.0664396209
C  C58  1  0.05410000  0.69360000  0.75310000  1.0 0.0664396209
C  C59  1  0.69900000  0.94590000  0.63950000  1.0 0.0664396209
C  C60  1  0.30640000  0.05950000  0.36050000  1.0 0.0664396209
C  C61  1  0.69590000  0.94900000  0.13950000  1.0 0.0664396209
C  C62  1  0.80950000  0.55640000  0.86050000  1.0 0.0664396209
C  C63  1  0.44360000  0.30410000  0.25310000  1.0 0.0664396209
C  C64  1  0.05100000  0.19050000  0.74690000  1.0 0.0664396209
C  C65  1  0.90830000  0.27330000  0.14260000  1.0 -0.1594008489
C  C66  1  0.13070000  0.76570000  0.85740000  1.0 -0.1594008489
C  C67  1  0.72670000  0.86930000  0.63500000  1.0 -0.1594008489
C  C68  1  0.23430000  0.09170000  0.36500000  1.0 -0.1594008489
C  C69  1  0.61930000  0.97670000  0.13500000  1.0 -0.1594008489
C  C70  1  0.84170000  0.48430000  0.86500000  1.0 -0.1594008489
C  C71  1  0.51570000  0.38070000  0.35740000  1.0 -0.1594008489
C  C72  1  0.02330000  0.15830000  0.64260000  1.0 -0.1594008489
C  C73  1  0.86870000  0.29180000  0.27210000  1.0 -0.150576439
C  C74  1  0.01970000  0.59660000  0.72790000  1.0 -0.150576439
C  C75  1  0.70820000  0.98030000  0.57690000  1.0 -0.150576439
C  C76  1  0.40340000  0.13130000  0.42310000  1.0 -0.150576439
C  C77  1  0.73030000  0.95820000  0.07690000  1.0 -0.150576439
C  C78  1  0.88130000  0.65340000  0.92310000  1.0 -0.150576439
C  C79  1  0.34660000  0.26970000  0.22790000  1.0 -0.150576439
C  C80  1  0.04180000  0.11870000  0.77210000  1.0 -0.150576439
C  C81  1  0.80890000  0.23390000  0.07000000  1.0 0.086885804
C  C82  1  0.16390000  0.73890000  0.93000000  1.0 0.086885804
C  C83  1  0.76610000  0.83610000  0.57500000  1.0 0.086885804
C  C84  1  0.26110000  0.19110000  0.42500000  1.0 0.086885804
C  C85  1  0.58610000  0.01610000  0.07500000  1.0 0.086885804
C  C86  1  0.94110000  0.51110000  0.92500000  1.0 0.086885804
C  C87  1  0.48890000  0.41390000  0.43000000  1.0 0.086885804
C  C88  1  0.98390000  0.05890000  0.57000000  1.0 0.086885804
C  C89  1  0.77330000  0.25160000  0.19370000  1.0 0.044727286
C  C90  1  0.05790000  0.57960000  0.80630000  1.0 0.044727286
C  C91  1  0.74840000  0.94210000  0.52170000  1.0 0.044727286
C  C92  1  0.42040000  0.22670000  0.47830000  1.0 0.044727286
C  C93  1  0.69210000  0.99840000  0.02170000  1.0 0.044727286
C  C94  1  0.97670000  0.67040000  0.97830000  1.0 0.044727286
C  C95  1  0.32960000  0.30790000  0.30630000  1.0 0.044727286
C  C96  1  0.00160000  0.02330000  0.69370000  1.0 0.044727286
N  N1  1  0.32140000  0.42140000  0.62520000  1.0 -0.2342576909
N  N2  1  0.79620000  0.69620000  0.37480000  1.0 -0.2342576909
N  N3  1  0.57860000  0.20380000  0.90000000  1.0 -0.2342576909
N  N4  1  0.30380000  0.67860000  0.10000000  1.0 -0.2342576909
N  N5  1  0.95380000  0.82860000  0.40000000  1.0 -0.2342576909
N  N6  1  0.42860000  0.55380000  0.60000000  1.0 -0.2342576909
N  N7  1  0.44620000  0.04620000  0.87480000  1.0 -0.2342576909
N  N8  1  0.17140000  0.57140000  0.12520000  1.0 -0.2342576909
N  N9  1  0.20050000  0.37230000  0.41640000  1.0 -0.3078247144
N  N10  1  0.95590000  0.78410000  0.58360000  1.0 -0.3078247144
N  N11  1  0.62770000  0.04410000  0.82820000  1.0 -0.3078247144
N  N12  1  0.21590000  0.79950000  0.17180000  1.0 -0.3078247144
N  N13  1  0.79410000  0.87770000  0.32820000  1.0 -0.3078247144
N  N14  1  0.54950000  0.46590000  0.67180000  1.0 -0.3078247144
N  N15  1  0.53410000  0.20590000  0.08360000  1.0 -0.3078247144
N  N16  1  0.12230000  0.45050000  0.91640000  1.0 -0.3078247144
N  N17  1  0.11710000  0.34010000  0.31480000  1.0 -0.2412210966
N  N18  1  0.02530000  0.80230000  0.68520000  1.0 -0.2412210966
N  N19  1  0.65990000  0.97470000  0.77700000  1.0 -0.2412210966
N  N20  1  0.19770000  0.88290000  0.22300000  1.0 -0.2412210966
N  N21  1  0.72470000  0.90990000  0.27700000  1.0 -0.2412210966
N  N22  1  0.63290000  0.44770000  0.72300000  1.0 -0.2412210966
N  N23  1  0.55230000  0.27530000  0.18520000  1.0 -0.2412210966
N  N24  1  0.09010000  0.36710000  0.81480000  1.0 -0.2412210966
N  N25  1  0.74060000  0.21730000  0.08870000  1.0 -0.2048011108
N  N26  1  0.12860000  0.65190000  0.91130000  1.0 -0.2048011108
N  N27  1  0.78270000  0.87140000  0.52330000  1.0 -0.2048011108
N  N28  1  0.34810000  0.25940000  0.47670000  1.0 -0.2048011108
N  N29  1  0.62140000  0.03270000  0.02330000  1.0 -0.2048011108
N  N30  1  0.00940000  0.59810000  0.97670000  1.0 -0.2048011108
N  N31  1  0.40190000  0.37860000  0.41130000  1.0 -0.2048011108
N  N32  1  0.96730000  0.99060000  0.58870000  1.0 -0.2048011108
Cl  Cl1  1  0.35609000  0.35609000  0.00000000  1.0 1.1915838287
Cl  Cl2  1  0.64391000  0.64391000  0.00000000  1.0 1.1915838287
Cl  Cl3  1  0.39391000  0.89391000  0.50000000  1.0 1.1915838287
Cl  Cl4  1  0.10609000  0.60609000  0.50000000  1.0 1.1915838287
Cl  Cl5  1  0.00130000  0.12500000  0.37630000  1.0 1.2429036663
Cl  Cl6  1  0.74870000  0.62500000  0.62370000  1.0 1.2429036663
Cl  Cl7  1  0.37500000  0.99870000  0.12370000  1.0 1.2429036663
Cl  Cl8  1  0.87500000  0.25130000  0.87630000  1.0 1.2429036663
O  O1  1  0.07270000  0.36530000  0.43060000  1.0 -0.1770607757
O  O2  1  0.93470000  0.64210000  0.56940000  1.0 -0.1770607757
O  O3  1  0.63470000  0.06530000  0.70740000  1.0 -0.1770607757
O  O4  1  0.35790000  0.92730000  0.29260000  1.0 -0.1770607757
O  O5  1  0.81530000  0.88470000  0.20740000  1.0 -0.1770607757
O  O6  1  0.67730000  0.60790000  0.79260000  1.0 -0.1770607757
O  O7  1  0.39210000  0.18470000  0.06940000  1.0 -0.1770607757
O  O8  1  0.11530000  0.32270000  0.93060000  1.0 -0.1770607757
O  O9  1  0.33930000  0.38280000  0.08150000  1.0 -0.4168084956
O  O10  1  0.30130000  0.25780000  0.91850000  1.0 -0.4168084956
O  O11  1  0.44820000  0.36680000  0.05000000  1.0 -0.4065338395
O  O12  1  0.31680000  0.39820000  0.95000000  1.0 -0.4065338395
O  O13  1  0.61720000  0.69870000  0.95650000  1.0 -0.4168084956
O  O14  1  0.74220000  0.66070000  0.04350000  1.0 -0.4168084956
O  O15  1  0.63320000  0.68320000  0.08140000  1.0 -0.4065338395
O  O16  1  0.60180000  0.55180000  0.91860000  1.0 -0.4065338395
O  O17  1  0.44870000  0.86720000  0.45650000  1.0 -0.4168084956
O  O18  1  0.41070000  0.99220000  0.54350000  1.0 -0.4168084956
O  O19  1  0.43320000  0.88320000  0.58140000  1.0 -0.4065338395
O  O20  1  0.30180000  0.85180000  0.41860000  1.0 -0.4065338395
O  O21  1  0.00780000  0.55130000  0.41850000  1.0 -0.4168084956
O  O22  1  0.13280000  0.58930000  0.58150000  1.0 -0.4168084956
O  O23  1  0.14820000  0.56680000  0.45000000  1.0 -0.4065338395
O  O24  1  0.11680000  0.69820000  0.55000000  1.0 -0.4065338395
O  O25  1  0.00400000  0.13990000  0.30150000  1.0 -0.4372773304
O  O26  1  0.91160000  0.11010000  0.36410000  1.0 -0.4372773304
O  O27  1  0.07450000  0.20640000  0.47730000  1.0 -0.4592070079
O  O28  1  0.02090000  0.04360000  0.36810000  1.0 -0.4592070079
O  O29  1  0.83840000  0.70250000  0.69850000  1.0 -0.4372773304
O  O30  1  0.74600000  0.54750000  0.63590000  1.0 -0.4372773304
O  O31  1  0.72910000  0.59720000  0.52270000  1.0 -0.4592070079
O  O32  1  0.67550000  0.65280000  0.63190000  1.0 -0.4592070079
O  O33  1  0.29750000  0.99600000  0.13590000  1.0 -0.4372773304
O  O34  1  0.45250000  0.08840000  0.19850000  1.0 -0.4372773304
O  O35  1  0.40280000  0.92550000  0.13190000  1.0 -0.4592070079
O  O36  1  0.34720000  0.97910000  0.02270000  1.0 -0.4592070079
O  O37  1  0.86010000  0.16160000  0.86410000  1.0 -0.4372773304
O  O38  1  0.88990000  0.25400000  0.80150000  1.0 -0.4372773304
O  O39  1  0.79360000  0.27090000  0.86810000  1.0 -0.4592070079
O  O40  1  0.95640000  0.32450000  0.97730000  1.0 -0.4592070079
