# DDEC6 charges by PACMAN v1.1 (https://github.com/mtap-research/PACMAN-charge/)
data_QAVPIO_ASR_pacman
_symmetry_space_group_name_H-M   'P 1'
_cell_length_a   5.09190000
_cell_length_b   9.25280000
_cell_length_c   12.74000000
_cell_angle_alpha   73.82000000
_cell_angle_beta   84.58000000
_cell_angle_gamma   74.13000000
_symmetry_Int_Tables_number   1
_chemical_formula_structural   Al4(PO4)5
_chemical_formula_sum   'Al4 P5 O20'
_cell_volume   554.38148583
_cell_formula_units_Z   1
loop_
 _symmetry_equiv_pos_site_id
 _symmetry_equiv_pos_as_xyz
  1  'x, y, z'
loop_
 _atom_site_type_symbol
 _atom_site_label
 _atom_site_symmetry_multiplicity
 _atom_site_fract_x
 _atom_site_fract_y
 _atom_site_fract_z
 _atom_site_occupancy
 _atom_site_charge
Al  Al1  1  0.96210000  0.71020000  0.15408000  1.0 1.7965642193
Al  Al2  1  0.28480000  0.03290000  0.40222000  1.0 1.7421091775
Al  Al3  1  0.78270000  0.27770000  0.12020000  1.0 1.7933838347
Al  Al4  1  0.46180000  0.95840000  0.86765000  1.0 1.7421091775
P  P1  1  0.87230000  0.04910000  0.97186000  1.0 1.5605990071
P  P2  1  0.36110000  0.10090000  0.61810000  1.0 1.3478753546
P  P3  1  0.21010000  0.35070000  0.23563000  1.0 1.5605990071
P  P4  1  0.53090000  0.63780000  0.03584000  1.0 1.5691238621
P  P5  1  0.87870000  0.94090000  0.29806000  1.0 1.5605990071
O  O1  1  0.33810000  0.00620000  0.53990000  1.0 -0.7304693878
O  O2  1  0.41360000  0.98460000  0.73110000  1.0 -0.7304693878
O  O3  1  0.04920000  0.92900000  0.39570000  1.0 -0.7723887136
O  O4  1  0.70070000  0.05850000  0.87620000  1.0 -0.7723887136
O  O5  1  0.65520000  0.66240000  0.13070000  1.0 -0.782350125
O  O6  1  0.16770000  0.04560000  0.93160000  1.0 -0.7900707444
O  O7  1  0.56960000  0.76050000  0.92770000  1.0 -0.7723887136
O  O8  1  0.08500000  0.32730000  0.13920000  1.0 -0.782350125
O  O9  1  0.58310000  0.95690000  0.33850000  1.0 -0.782350125
O  O10  1  0.16380000  0.23270000  0.34250000  1.0 -0.7723887136
O  O11  1  0.51600000  0.32860000  0.21580000  1.0 -0.7900707444
O  O12  1  0.22580000  0.65630000  0.05860000  1.0 -0.798354747
O  O13  1  0.85200000  0.90920000  0.06200000  1.0 -0.7474093458
O  O14  1  0.90970000  0.07940000  0.20610000  1.0 -0.7241157016
O  O15  1  0.56830000  0.19210000  0.58490000  1.0 -0.5485590717
O  O16  1  0.97880000  0.78790000  0.26550000  1.0 -0.7304693878
O  O17  1  0.08090000  0.51170000  0.25420000  1.0 -0.6988326927
O  O18  1  0.66430000  0.47830000  0.01520000  1.0 -0.6988326927
O  O19  1  0.76230000  0.20340000  0.00420000  1.0 -0.7241157016
O  O20  1  0.07080000  0.22040000  0.62160000  1.0 -0.5245878121
