# DDEC6 charges by PACMAN v1.1 (https://github.com/mtap-research/PACMAN-charge/)
data_QAVPOU_FSR_pacman
_symmetry_space_group_name_H-M   'P 1'
_cell_length_a   10.23600000
_cell_length_b   18.42500000
_cell_length_c   24.57300000
_cell_angle_alpha   90.00000000
_cell_angle_beta   90.00000000
_cell_angle_gamma   90.00000000
_symmetry_Int_Tables_number   1
_chemical_formula_structural   Ga18P16O64F11
_chemical_formula_sum   'Ga36 P32 O128 F22'
_cell_volume   4634.42602590
_cell_formula_units_Z   2
loop_
 _symmetry_equiv_pos_site_id
 _symmetry_equiv_pos_as_xyz
  1  'x, y, z'
loop_
 _atom_site_type_symbol
 _atom_site_label
 _atom_site_symmetry_multiplicity
 _atom_site_fract_x
 _atom_site_fract_y
 _atom_site_fract_z
 _atom_site_occupancy
 _atom_site_charge
Ga  Ga1  1  0.90985000  0.68301000  0.84852000  1.0 1.5292236173
Ga  Ga2  1  0.90985000  0.31699000  0.15148000  1.0 1.5292236173
Ga  Ga3  1  0.09015000  0.18301000  0.65148000  1.0 1.535442901
Ga  Ga4  1  0.09015000  0.81699000  0.34852000  1.0 1.535442901
Ga  Ga5  1  0.60406000  0.61784000  0.74213000  1.0 1.5216384812
Ga  Ga6  1  0.60406000  0.38216000  0.25787000  1.0 1.5216384812
Ga  Ga7  1  0.39594000  0.11784000  0.75787000  1.0 1.5216384812
Ga  Ga8  1  0.39594000  0.88216000  0.24213000  1.0 1.5216384812
Ga  Ga9  1  0.89796000  0.42793000  0.73399000  1.0 1.5216384812
Ga  Ga10  1  0.89796000  0.57207000  0.26601000  1.0 1.5216384812
Ga  Ga11  1  0.10204000  0.92793000  0.76601000  1.0 1.5292236173
Ga  Ga12  1  0.10204000  0.07207000  0.23399000  1.0 1.5216384812
Ga  Ga13  1  0.11700000  0.43752000  0.94124000  1.0 1.5216384812
Ga  Ga14  1  0.11700000  0.56248000  0.05876000  1.0 1.5216384812
Ga  Ga15  1  0.88300000  0.93752000  0.55876000  1.0 1.5134765032
Ga  Ga16  1  0.88300000  0.06248000  0.44124000  1.0 1.5134765032
Ga  Ga17  1  0.38503000  0.59041000  0.93205000  1.0 1.5292236173
Ga  Ga18  1  0.38503000  0.40959000  0.06795000  1.0 1.5292236173
Ga  Ga19  1  0.61497000  0.09041000  0.56795000  1.0 1.5292236173
Ga  Ga20  1  0.61497000  0.90959000  0.43205000  1.0 1.5292236173
Ga  Ga21  1  0.07847000  0.73865000  0.73441000  1.0 1.4825498585
Ga  Ga22  1  0.07847000  0.26135000  0.26559000  1.0 1.4825498585
Ga  Ga23  1  0.92153000  0.23865000  0.76559000  1.0 1.4825498585
Ga  Ga24  1  0.92153000  0.76135000  0.23441000  1.0 1.4825498585
Ga  Ga25  1  0.58217000  0.80815000  0.77790000  1.0 1.4735294703
Ga  Ga26  1  0.58217000  0.19185000  0.22210000  1.0 1.4735294703
Ga  Ga27  1  0.41783000  0.30815000  0.72210000  1.0 1.4735294703
Ga  Ga28  1  0.41783000  0.69185000  0.27790000  1.0 1.4735294703
Ga  Ga29  1  0.39099000  0.85860000  0.65747000  1.0 0.6527450505
Ga  Ga30  1  0.39099000  0.14140000  0.34253000  1.0 0.6527450505
Ga  Ga31  1  0.60901000  0.35860000  0.84253000  1.0 0.6527450505
Ga  Ga32  1  0.60901000  0.64140000  0.15747000  1.0 0.6527450505
Ga  Ga33  1  0.55185000  0.35705000  0.83584000  1.0 0.5506777886
Ga  Ga34  1  0.55185000  0.64295000  0.16416000  1.0 0.5506777886
Ga  Ga35  1  0.44815000  0.85705000  0.66416000  1.0 0.5506777886
Ga  Ga36  1  0.44815000  0.14295000  0.33584000  1.0 0.5506777886
P  P1  1  0.87822000  0.83098000  0.80193000  1.0 1.5216384812
P  P2  1  0.87822000  0.16902000  0.19807000  1.0 1.5292236173
P  P3  1  0.12178000  0.33098000  0.69807000  1.0 1.5292236173
P  P4  1  0.12178000  0.66902000  0.30193000  1.0 1.5292236173
P  P5  1  0.91651000  0.36453000  0.85337000  1.0 1.5510251347
P  P6  1  0.91651000  0.63547000  0.14663000  1.0 1.5510251347
P  P7  1  0.08349000  0.86453000  0.64663000  1.0 1.5510251347
P  P8  1  0.08349000  0.13547000  0.35337000  1.0 1.5510251347
P  P9  1  0.89586000  0.60026000  0.73544000  1.0 1.5582135442
P  P10  1  0.89586000  0.39974000  0.26456000  1.0 1.5582135442
P  P11  1  0.10414000  0.10026000  0.76456000  1.0 1.5657068018
P  P12  1  0.10414000  0.89974000  0.23544000  1.0 1.5657068018
P  P13  1  0.60423000  0.44601000  0.73160000  1.0 1.5216384812
P  P14  1  0.60423000  0.55399000  0.26840000  1.0 1.5216384812
P  P15  1  0.39577000  0.94601000  0.76840000  1.0 1.5216384812
P  P16  1  0.39577000  0.05399000  0.23160000  1.0 1.5292236173
P  P17  1  0.59791000  0.67844000  0.86282000  1.0 1.5582135442
P  P18  1  0.59791000  0.32156000  0.13718000  1.0 1.5582135442
P  P19  1  0.40209000  0.17844000  0.63718000  1.0 1.5582135442
P  P20  1  0.40209000  0.82156000  0.36282000  1.0 1.5582135442
P  P21  1  0.41643000  0.41924000  0.93701000  1.0 1.5292236173
P  P22  1  0.41643000  0.58076000  0.06299000  1.0 1.5292236173
P  P23  1  0.58357000  0.91924000  0.56299000  1.0 1.5292236173
P  P24  1  0.58357000  0.08076000  0.43701000  1.0 1.5292236173
P  P25  1  0.08184000  0.60103000  0.94001000  1.0 1.5216384812
P  P26  1  0.08184000  0.39897000  0.05999000  1.0 1.5216384812
P  P27  1  0.91816000  0.10103000  0.55999000  1.0 1.5134765032
P  P28  1  0.91816000  0.89897000  0.44001000  1.0 1.5134765032
P  P29  1  0.37503000  0.71550000  0.71201000  1.0 1.4872837785
P  P30  1  0.37503000  0.28450000  0.28799000  1.0 1.4872837785
P  P31  1  0.62497000  0.21550000  0.78799000  1.0 1.4872837785
P  P32  1  0.62497000  0.78450000  0.21201000  1.0 1.4872837785
O  O1  1  0.95940000  0.52600000  0.72784000  1.0 -0.672693732
O  O2  1  0.95940000  0.47400000  0.27216000  1.0 -0.672693732
O  O3  1  0.04060000  0.02600000  0.77216000  1.0 -0.672693732
O  O4  1  0.04060000  0.97400000  0.22784000  1.0 -0.672693732
O  O5  1  0.73710000  0.44620000  0.70206000  1.0 -0.6834278952
O  O6  1  0.73710000  0.55380000  0.29794000  1.0 -0.6834278952
O  O7  1  0.26290000  0.94620000  0.79794000  1.0 -0.6834278952
O  O8  1  0.26290000  0.05380000  0.20206000  1.0 -0.6834278952
O  O9  1  0.93830000  0.41963000  0.80757000  1.0 -0.7472833868
O  O10  1  0.93830000  0.58037000  0.19243000  1.0 -0.7472833868
O  O11  1  0.06170000  0.91963000  0.69243000  1.0 -0.7472833868
O  O12  1  0.06170000  0.08037000  0.30757000  1.0 -0.7472833868
O  O13  1  0.96650000  0.89744000  0.81110000  1.0 -0.6909500014
O  O14  1  0.96650000  0.10256000  0.18890000  1.0 -0.6909500014
O  O15  1  0.03350000  0.39744000  0.68890000  1.0 -0.6909500014
O  O16  1  0.03350000  0.60256000  0.31110000  1.0 -0.6909500014
O  O17  1  0.92200000  0.28563000  0.83643000  1.0 -0.7261835214
O  O18  1  0.92200000  0.71437000  0.16357000  1.0 -0.7261835214
O  O19  1  0.07800000  0.78563000  0.66357000  1.0 -0.7261835214
O  O20  1  0.07800000  0.21437000  0.33643000  1.0 -0.7261835214
O  O21  1  0.91770000  0.78913000  0.75123000  1.0 -0.7261835214
O  O22  1  0.91770000  0.21087000  0.24877000  1.0 -0.7261835214
O  O23  1  0.08230000  0.28913000  0.74877000  1.0 -0.7261835214
O  O24  1  0.08230000  0.71087000  0.25123000  1.0 -0.7261835214
O  O25  1  0.98250000  0.65658000  0.70801000  1.0 -0.7009436291
O  O26  1  0.98250000  0.34342000  0.29199000  1.0 -0.7009436291
O  O27  1  0.01750000  0.15658000  0.79199000  1.0 -0.7009436291
O  O28  1  0.01750000  0.84342000  0.20801000  1.0 -0.7009436291
O  O29  1  0.99250000  0.65450000  0.91166000  1.0 -0.654541957
O  O30  1  0.99250000  0.34550000  0.08834000  1.0 -0.6589110371
O  O31  1  0.00750000  0.15450000  0.58834000  1.0 -0.6589110371
O  O32  1  0.00750000  0.84550000  0.41166000  1.0 -0.6589110371
O  O33  1  0.73740000  0.85934000  0.79530000  1.0 -0.6589110371
O  O34  1  0.73740000  0.14066000  0.20470000  1.0 -0.6589110371
O  O35  1  0.26260000  0.35934000  0.70470000  1.0 -0.6589110371
O  O36  1  0.26260000  0.64066000  0.29530000  1.0 -0.6589110371
O  O37  1  0.88910000  0.78165000  0.85263000  1.0 -0.7261835214
O  O38  1  0.88910000  0.21835000  0.14737000  1.0 -0.7261835214
O  O39  1  0.11090000  0.28165000  0.64737000  1.0 -0.7261835214
O  O40  1  0.11090000  0.71835000  0.35263000  1.0 -0.7261835214
O  O41  1  0.73750000  0.66631000  0.88300000  1.0 -0.6909500014
O  O42  1  0.73750000  0.33369000  0.11700000  1.0 -0.6909500014
O  O43  1  0.26250000  0.16631000  0.61700000  1.0 -0.6909500014
O  O44  1  0.26250000  0.83369000  0.38300000  1.0 -0.6909500014
O  O45  1  0.87180000  0.61455000  0.79689000  1.0 -0.7652606841
O  O46  1  0.87180000  0.38545000  0.20311000  1.0 -0.7652606841
O  O47  1  0.12820000  0.11455000  0.70311000  1.0 -0.764520156
O  O48  1  0.12820000  0.88545000  0.29689000  1.0 -0.7652606841
O  O49  1  0.76040000  0.60183000  0.70765000  1.0 -0.711368926
O  O50  1  0.76040000  0.39817000  0.29235000  1.0 -0.711368926
O  O51  1  0.23960000  0.10183000  0.79235000  1.0 -0.711368926
O  O52  1  0.23960000  0.89817000  0.20765000  1.0 -0.711368926
O  O53  1  0.56590000  0.62457000  0.81589000  1.0 -0.739807437
O  O54  1  0.56590000  0.37543000  0.18411000  1.0 -0.739807437
O  O55  1  0.43410000  0.12457000  0.68411000  1.0 -0.739807437
O  O56  1  0.43410000  0.87543000  0.31589000  1.0 -0.739807437
O  O57  1  0.54120000  0.52145000  0.73135000  1.0 -0.654541957
O  O58  1  0.54120000  0.47855000  0.26865000  1.0 -0.6589110371
O  O59  1  0.45880000  0.02145000  0.76865000  1.0 -0.654541957
O  O60  1  0.45880000  0.97855000  0.23135000  1.0 -0.654541957
O  O61  1  0.57320000  0.75804000  0.84810000  1.0 -0.739807437
O  O62  1  0.57320000  0.24196000  0.15190000  1.0 -0.739807437
O  O63  1  0.42680000  0.25804000  0.65190000  1.0 -0.739807437
O  O64  1  0.42680000  0.74196000  0.34810000  1.0 -0.739807437
O  O65  1  0.50330000  0.65971000  0.90992000  1.0 -0.6834278952
O  O66  1  0.50330000  0.34029000  0.09008000  1.0 -0.6834278952
O  O67  1  0.49670000  0.15971000  0.59008000  1.0 -0.6834278952
O  O68  1  0.49670000  0.84029000  0.40992000  1.0 -0.6834278952
O  O69  1  0.51500000  0.39271000  0.70151000  1.0 -0.672693732
O  O70  1  0.51500000  0.60729000  0.29849000  1.0 -0.672693732
O  O71  1  0.48500000  0.89271000  0.79849000  1.0 -0.672693732
O  O72  1  0.48500000  0.10729000  0.20151000  1.0 -0.672693732
O  O73  1  0.42090000  0.75968000  0.76103000  1.0 -0.711368926
O  O74  1  0.42090000  0.24032000  0.23897000  1.0 -0.711368926
O  O75  1  0.57910000  0.25968000  0.73897000  1.0 -0.711368926
O  O76  1  0.57910000  0.74032000  0.26103000  1.0 -0.711368926
O  O77  1  0.63240000  0.42475000  0.79149000  1.0 -0.5972182926
O  O78  1  0.63240000  0.57525000  0.20851000  1.0 -0.5972182926
O  O79  1  0.36760000  0.92475000  0.70851000  1.0 -0.5972182926
O  O80  1  0.36760000  0.07525000  0.29149000  1.0 -0.5972182926
O  O81  1  0.50880000  0.37115000  0.90474000  1.0 -0.5054638412
O  O82  1  0.50880000  0.62885000  0.09526000  1.0 -0.5054638412
O  O83  1  0.49120000  0.87115000  0.59526000  1.0 -0.5054638412
O  O84  1  0.49120000  0.12885000  0.40474000  1.0 -0.5054638412
O  O85  1  0.37700000  0.76252000  0.66033000  1.0 -0.5590046968
O  O86  1  0.37700000  0.23748000  0.33967000  1.0 -0.5590046968
O  O87  1  0.62300000  0.26252000  0.83967000  1.0 -0.5590046968
O  O88  1  0.62300000  0.73748000  0.16033000  1.0 -0.5590046968
O  O89  1  0.44960000  0.40632000  0.99604000  1.0 -0.7009436291
O  O90  1  0.44960000  0.59368000  0.00396000  1.0 -0.7009436291
O  O91  1  0.55040000  0.90632000  0.50396000  1.0 -0.7009436291
O  O92  1  0.55040000  0.09368000  0.49604000  1.0 -0.7009436291
O  O93  1  0.43630000  0.49758000  0.91873000  1.0 -0.7202809449
O  O94  1  0.43630000  0.50242000  0.08127000  1.0 -0.7261835214
O  O95  1  0.56370000  0.99758000  0.58127000  1.0 -0.7261835214
O  O96  1  0.56370000  0.00242000  0.41873000  1.0 -0.7261835214
O  O97  1  0.22040000  0.63140000  0.94136000  1.0 -0.739807437
O  O98  1  0.22040000  0.36860000  0.05864000  1.0 -0.739807437
O  O99  1  0.77960000  0.13140000  0.55864000  1.0 -0.739807437
O  O100  1  0.77960000  0.86860000  0.44136000  1.0 -0.739807437
O  O101  1  0.07800000  0.52676000  0.91130000  1.0 -0.739807437
O  O102  1  0.07800000  0.47324000  0.08870000  1.0 -0.739807437
O  O103  1  0.92200000  0.02676000  0.58870000  1.0 -0.739807437
O  O104  1  0.92200000  0.97324000  0.41130000  1.0 -0.739807437
O  O105  1  0.27660000  0.39563000  0.92422000  1.0 -0.711368926
O  O106  1  0.27660000  0.60437000  0.07578000  1.0 -0.711368926
O  O107  1  0.72340000  0.89563000  0.57578000  1.0 -0.711368926
O  O108  1  0.72340000  0.10437000  0.42422000  1.0 -0.711368926
O  O109  1  0.02810000  0.59603000  0.99808000  1.0 -0.7202809449
O  O110  1  0.02810000  0.40397000  0.00192000  1.0 -0.7202809449
O  O111  1  0.97190000  0.09603000  0.50192000  1.0 -0.7202809449
O  O112  1  0.97190000  0.90397000  0.49808000  1.0 -0.7202809449
O  O113  1  0.23780000  0.68573000  0.72151000  1.0 -0.6422752616
O  O114  1  0.23780000  0.31427000  0.27849000  1.0 -0.6422752616
O  O115  1  0.76220000  0.18573000  0.77849000  1.0 -0.6422752616
O  O116  1  0.76220000  0.81427000  0.22151000  1.0 -0.6422752616
O  O117  1  0.78210000  0.37962000  0.88013000  1.0 -0.6589110371
O  O118  1  0.78210000  0.62038000  0.11987000  1.0 -0.6589110371
O  O119  1  0.21790000  0.87962000  0.61987000  1.0 -0.6589110371
O  O120  1  0.21790000  0.12038000  0.38013000  1.0 -0.6589110371
O  O121  1  0.02490000  0.37569000  0.89434000  1.0 -0.6589110371
O  O122  1  0.02490000  0.62431000  0.10566000  1.0 -0.6589110371
O  O123  1  0.97510000  0.87569000  0.60566000  1.0 -0.6589110371
O  O124  1  0.97510000  0.12431000  0.39434000  1.0 -0.6589110371
O  O125  1  0.46400000  0.65020000  0.70132000  1.0 -0.6589110371
O  O126  1  0.46400000  0.34980000  0.29868000  1.0 -0.6589110371
O  O127  1  0.53600000  0.15020000  0.79868000  1.0 -0.6589110371
O  O128  1  0.53600000  0.84980000  0.20132000  1.0 -0.6589110371
F  F1  1  0.83244000  0.32403000  0.73614000  1.0 -0.4776739355
F  F2  1  0.83244000  0.67597000  0.26386000  1.0 -0.4776739355
F  F3  1  0.16756000  0.82403000  0.76386000  1.0 -0.4776739355
F  F4  1  0.16756000  0.17597000  0.23614000  1.0 -0.4776739355
F  F5  1  0.66966000  0.72177000  0.74790000  1.0 -0.4671123054
F  F6  1  0.66966000  0.27823000  0.25210000  1.0 -0.4671123054
F  F7  1  0.33034000  0.22177000  0.75210000  1.0 -0.4671123054
F  F8  1  0.33034000  0.77823000  0.24790000  1.0 -0.4671123054
F  F9  1  0.22110000  0.50000000  0.00000000  1.0 -0.5023326751
F  F10  1  0.77890000  0.00000000  0.50000000  1.0 -0.5023326751
F  F11  1  0.08160000  0.70045000  0.81059000  1.0 -0.4851941343
F  F12  1  0.08160000  0.29955000  0.18941000  1.0 -0.4851941343
F  F13  1  0.91840000  0.20045000  0.68941000  1.0 -0.4851941343
F  F14  1  0.91840000  0.79955000  0.31059000  1.0 -0.4776739355
F  F15  1  0.58990000  0.84400000  0.70127000  1.0 -0.4135020103
F  F16  1  0.58990000  0.15600000  0.29873000  1.0 -0.4135020103
F  F17  1  0.41010000  0.34400000  0.79873000  1.0 -0.4135020103
F  F18  1  0.41010000  0.65600000  0.20127000  1.0 -0.4135020103
F  F19  1  0.31900000  0.58869000  0.84442000  1.0 0.0311776532
F  F20  1  0.31900000  0.41131000  0.15558000  1.0 0.0311776532
F  F21  1  0.68100000  0.08869000  0.65558000  1.0 0.0311776532
F  F22  1  0.68100000  0.91131000  0.34442000  1.0 0.0311776532
