# DDEC6 charges by PACMAN v1.1 (https://github.com/mtap-research/PACMAN-charge/)
data_QAWDID_ASR_pacman
_symmetry_space_group_name_H-M   'P 1'
_cell_length_a   14.32860000
_cell_length_b   14.32860000
_cell_length_c   14.32860000
_cell_angle_alpha   90.00000000
_cell_angle_beta   90.00000000
_cell_angle_gamma   90.00000000
_symmetry_Int_Tables_number   1
_chemical_formula_structural   MgZn(C3O2)3
_chemical_formula_sum   'Mg4 Zn4 C36 O24'
_cell_volume   2941.78735588
_cell_formula_units_Z   4
loop_
 _symmetry_equiv_pos_site_id
 _symmetry_equiv_pos_as_xyz
  1  'x, y, z'
loop_
 _atom_site_type_symbol
 _atom_site_label
 _atom_site_symmetry_multiplicity
 _atom_site_fract_x
 _atom_site_fract_y
 _atom_site_fract_z
 _atom_site_occupancy
 _atom_site_charge
Mg  Mg1  1  0.92470000  0.57530000  0.42470000  1.0 1.3658342171
Mg  Mg2  1  0.57530000  0.42470000  0.92470000  1.0 1.3658342171
Mg  Mg3  1  0.07530000  0.07530000  0.07530000  1.0 1.3658342171
Mg  Mg4  1  0.42470000  0.92470000  0.57530000  1.0 1.3658342171
Zn  Zn1  1  0.77761000  0.72239000  0.27761000  1.0 0.8981547612
Zn  Zn2  1  0.72239000  0.27761000  0.77761000  1.0 0.8981547612
Zn  Zn3  1  0.22239000  0.22239000  0.22239000  1.0 0.8981547612
Zn  Zn4  1  0.27761000  0.77761000  0.72239000  1.0 0.8981547612
C  C1  1  0.89770000  0.48680000  0.14870000  1.0 -0.0499289098
C  C2  1  0.60230000  0.51320000  0.64870000  1.0 -0.0499289098
C  C3  1  0.10230000  0.98680000  0.35130000  1.0 -0.0499289098
C  C4  1  0.39770000  0.01320000  0.85130000  1.0 -0.0499289098
C  C5  1  0.14870000  0.89770000  0.48680000  1.0 -0.0499289098
C  C6  1  0.64870000  0.60230000  0.51320000  1.0 -0.0499289098
C  C7  1  0.35130000  0.10230000  0.98680000  1.0 -0.0499289098
C  C8  1  0.85130000  0.39770000  0.01320000  1.0 -0.0499289098
C  C9  1  0.48680000  0.14870000  0.89770000  1.0 -0.0499289098
C  C10  1  0.51320000  0.64870000  0.60230000  1.0 -0.0499289098
C  C11  1  0.98680000  0.35130000  0.10230000  1.0 -0.0499289098
C  C12  1  0.01320000  0.85130000  0.39770000  1.0 -0.0499289098
C  C13  1  0.96950000  0.43300000  0.16560000  1.0 -0.0190990103
C  C14  1  0.53050000  0.56700000  0.66560000  1.0 -0.0190990103
C  C15  1  0.03050000  0.93300000  0.33440000  1.0 -0.0190990103
C  C16  1  0.46950000  0.06700000  0.83440000  1.0 -0.0190990103
C  C17  1  0.16560000  0.96950000  0.43300000  1.0 -0.0190990103
C  C18  1  0.66560000  0.53050000  0.56700000  1.0 -0.0190990103
C  C19  1  0.33440000  0.03050000  0.93300000  1.0 -0.0190990103
C  C20  1  0.83440000  0.46950000  0.06700000  1.0 -0.0190990103
C  C21  1  0.43300000  0.16560000  0.96950000  1.0 -0.0190990103
C  C22  1  0.56700000  0.66560000  0.53050000  1.0 -0.0190990103
C  C23  1  0.93300000  0.33440000  0.03050000  1.0 -0.0190990103
C  C24  1  0.06700000  0.83440000  0.46950000  1.0 -0.0190990103
C  C25  1  0.88280000  0.56700000  0.22010000  1.0 0.5734682488
C  C26  1  0.61720000  0.43300000  0.72010000  1.0 0.5734682488
C  C27  1  0.11720000  0.06700000  0.27990000  1.0 0.5734682488
C  C28  1  0.38280000  0.93300000  0.77990000  1.0 0.5734682488
C  C29  1  0.22010000  0.88280000  0.56700000  1.0 0.5734682488
C  C30  1  0.72010000  0.61720000  0.43300000  1.0 0.5734682488
C  C31  1  0.27990000  0.11720000  0.06700000  1.0 0.5734682488
C  C32  1  0.77990000  0.38280000  0.93300000  1.0 0.5734682488
C  C33  1  0.56700000  0.22010000  0.88280000  1.0 0.5734682488
C  C34  1  0.43300000  0.72010000  0.61720000  1.0 0.5734682488
C  C35  1  0.06700000  0.27990000  0.11720000  1.0 0.5734682488
C  C36  1  0.93300000  0.77990000  0.38280000  1.0 0.5734682488
O  O1  1  0.92970000  0.57620000  0.28440000  1.0 -0.6295516607
O  O2  1  0.57030000  0.42380000  0.78440000  1.0 -0.6295516607
O  O3  1  0.07030000  0.07620000  0.21560000  1.0 -0.6295516607
O  O4  1  0.42970000  0.92380000  0.71560000  1.0 -0.6295516607
O  O5  1  0.28440000  0.92970000  0.57620000  1.0 -0.6295516607
O  O6  1  0.78440000  0.57030000  0.42380000  1.0 -0.6295516607
O  O7  1  0.21560000  0.07030000  0.07620000  1.0 -0.6295516607
O  O8  1  0.71560000  0.42970000  0.92380000  1.0 -0.6295516607
O  O9  1  0.57620000  0.28440000  0.92970000  1.0 -0.6295516607
O  O10  1  0.42380000  0.78440000  0.57030000  1.0 -0.6295516607
O  O11  1  0.07620000  0.21560000  0.07030000  1.0 -0.6295516607
O  O12  1  0.92380000  0.71560000  0.42970000  1.0 -0.6295516607
O  O13  1  0.80940000  0.61870000  0.19600000  1.0 -0.6295516607
O  O14  1  0.69060000  0.38130000  0.69600000  1.0 -0.6295516607
O  O15  1  0.19060000  0.11870000  0.30400000  1.0 -0.6295516607
O  O16  1  0.30940000  0.88130000  0.80400000  1.0 -0.6295516607
O  O17  1  0.19600000  0.80940000  0.61870000  1.0 -0.6295516607
O  O18  1  0.69600000  0.69060000  0.38130000  1.0 -0.6295516607
O  O19  1  0.30400000  0.19060000  0.11870000  1.0 -0.6295516607
O  O20  1  0.80400000  0.30940000  0.88130000  1.0 -0.6295516607
O  O21  1  0.61870000  0.19600000  0.80940000  1.0 -0.6295516607
O  O22  1  0.38130000  0.69600000  0.69060000  1.0 -0.6295516607
O  O23  1  0.11870000  0.30400000  0.19060000  1.0 -0.6295516607
O  O24  1  0.88130000  0.80400000  0.30940000  1.0 -0.6295516607
