# DDEC6 charges by PACMAN v1.1 (https://github.com/mtap-research/PACMAN-charge/)
data_QAXROW_FSR_pacman
_symmetry_space_group_name_H-M   'P 1'
_cell_length_a   6.62800000
_cell_length_b   15.16800000
_cell_length_c   18.97200000
_cell_angle_alpha   90.00000000
_cell_angle_beta   90.00000000
_cell_angle_gamma   90.00000000
_symmetry_Int_Tables_number   1
_chemical_formula_structural   Zr3P5O17F2
_chemical_formula_sum   'Zr12 P20 O68 F8'
_cell_volume   1907.32163789
_cell_formula_units_Z   4
loop_
 _symmetry_equiv_pos_site_id
 _symmetry_equiv_pos_as_xyz
  1  'x, y, z'
loop_
 _atom_site_type_symbol
 _atom_site_label
 _atom_site_symmetry_multiplicity
 _atom_site_fract_x
 _atom_site_fract_y
 _atom_site_fract_z
 _atom_site_occupancy
 _atom_site_charge
Zr  Zr1  1  0.00000000  0.90134000  0.11654000  1.0 2.3358647818
Zr  Zr2  1  0.50000000  0.40134000  0.38346000  1.0 2.3349008555
Zr  Zr3  1  0.50000000  0.59866000  0.61654000  1.0 2.3349008555
Zr  Zr4  1  0.00000000  0.09866000  0.88346000  1.0 2.3349008555
Zr  Zr5  1  0.50000000  0.73125000  0.28347000  1.0 2.4439773554
Zr  Zr6  1  0.00000000  0.23125000  0.21653000  1.0 2.4439773554
Zr  Zr7  1  0.00000000  0.76875000  0.78347000  1.0 2.4439773554
Zr  Zr8  1  0.50000000  0.26875000  0.71653000  1.0 2.4439773554
Zr  Zr9  1  0.50000000  0.99660000  0.31894000  1.0 2.5481857652
Zr  Zr10  1  0.00000000  0.49660000  0.18106000  1.0 2.5481857652
Zr  Zr11  1  0.00000000  0.50340000  0.81894000  1.0 2.5481857652
Zr  Zr12  1  0.50000000  0.00340000  0.68106000  1.0 2.5481857652
P  P1  1  0.50000000  0.89110000  0.15733000  1.0 1.5488054449
P  P2  1  0.00000000  0.39110000  0.34267000  1.0 1.5488054449
P  P3  1  0.00000000  0.60890000  0.65733000  1.0 1.5488054449
P  P4  1  0.50000000  0.10890000  0.84267000  1.0 1.5488054449
P  P5  1  0.00000000  0.01250000  0.28008000  1.0 1.6270453924
P  P6  1  0.50000000  0.51250000  0.21992000  1.0 1.6238147015
P  P7  1  0.50000000  0.48750000  0.78008000  1.0 1.6238147015
P  P8  1  0.00000000  0.98750000  0.71992000  1.0 1.6270453924
P  P9  1  0.00000000  0.72060000  0.23070000  1.0 1.6073920721
P  P10  1  0.50000000  0.22060000  0.26930000  1.0 1.6073920721
P  P11  1  0.50000000  0.77940000  0.73070000  1.0 1.6073920721
P  P12  1  0.00000000  0.27940000  0.76930000  1.0 1.6073920721
P  P13  1  0.07550000  0.12050000  0.05980000  1.0 0.6709166387
P  P14  1  0.92450000  0.12050000  0.05980000  1.0 0.6709166387
P  P15  1  0.57550000  0.62050000  0.44020000  1.0 0.6709166387
P  P16  1  0.57550000  0.37950000  0.55980000  1.0 0.6709166387
P  P17  1  0.92450000  0.87950000  0.94020000  1.0 0.6709166387
P  P18  1  0.07550000  0.87950000  0.94020000  1.0 0.6709166387
P  P19  1  0.42450000  0.37950000  0.55980000  1.0 0.6709166387
P  P20  1  0.42450000  0.62050000  0.44020000  1.0 0.6709166387
O  O1  1  0.50000000  0.79980000  0.19040000  1.0 -0.8533130294
O  O2  1  0.00000000  0.29980000  0.30960000  1.0 -0.8630988802
O  O3  1  0.00000000  0.70020000  0.69040000  1.0 -0.8533130294
O  O4  1  0.50000000  0.20020000  0.80960000  1.0 -0.8533130294
O  O5  1  0.50000000  0.95980000  0.21500000  1.0 -0.868641607
O  O6  1  0.00000000  0.45980000  0.28500000  1.0 -0.868641607
O  O7  1  0.00000000  0.54020000  0.71500000  1.0 -0.868641607
O  O8  1  0.50000000  0.04020000  0.78500000  1.0 -0.8630988802
O  O9  1  0.68690000  0.90170000  0.11160000  1.0 -0.7865651256
O  O10  1  0.31310000  0.90170000  0.11160000  1.0 -0.7865651256
O  O11  1  0.18690000  0.40170000  0.38840000  1.0 -0.7865651256
O  O12  1  0.18690000  0.59830000  0.61160000  1.0 -0.7865651256
O  O13  1  0.31310000  0.09830000  0.88840000  1.0 -0.7865651256
O  O14  1  0.68690000  0.09830000  0.88840000  1.0 -0.7865651256
O  O15  1  0.81310000  0.59830000  0.61160000  1.0 -0.7865651256
O  O16  1  0.81310000  0.40170000  0.38840000  1.0 -0.7865651256
O  O17  1  0.00000000  0.95510000  0.21490000  1.0 -0.8533130294
O  O18  1  0.50000000  0.45510000  0.28510000  1.0 -0.8533130294
O  O19  1  0.50000000  0.54490000  0.71490000  1.0 -0.8533130294
O  O20  1  0.00000000  0.04490000  0.78510000  1.0 -0.8533130294
O  O21  1  0.50000000  0.60990000  0.24210000  1.0 -0.8630988802
O  O22  1  0.00000000  0.10990000  0.25790000  1.0 -0.8630988802
O  O23  1  0.00000000  0.89010000  0.74210000  1.0 -0.8630988802
O  O24  1  0.50000000  0.39010000  0.75790000  1.0 -0.8630988802
O  O25  1  0.18700000  0.99350000  0.32380000  1.0 -0.8221944725
O  O26  1  0.81300000  0.99350000  0.32380000  1.0 -0.8221944725
O  O27  1  0.68700000  0.49350000  0.17620000  1.0 -0.8221944725
O  O28  1  0.68700000  0.50650000  0.82380000  1.0 -0.8221944725
O  O29  1  0.81300000  0.00650000  0.67620000  1.0 -0.8221944725
O  O30  1  0.18700000  0.00650000  0.67620000  1.0 -0.8221944725
O  O31  1  0.31300000  0.50650000  0.82380000  1.0 -0.8221944725
O  O32  1  0.31300000  0.49350000  0.17620000  1.0 -0.8221944725
O  O33  1  0.00000000  0.78130000  0.16670000  1.0 -0.8386624461
O  O34  1  0.50000000  0.28130000  0.33333333  1.0 -0.8386624461
O  O35  1  0.50000000  0.71870000  0.66666667  1.0 -0.8386624461
O  O36  1  0.00000000  0.21870000  0.83330000  1.0 -0.8386624461
O  O37  1  0.50000000  0.12560000  0.29670000  1.0 -0.868641607
O  O38  1  0.00000000  0.62560000  0.20330000  1.0 -0.868641607
O  O39  1  0.00000000  0.37440000  0.79670000  1.0 -0.868641607
O  O40  1  0.50000000  0.87440000  0.70330000  1.0 -0.868641607
O  O41  1  0.18910000  0.73620000  0.27590000  1.0 -0.8221944725
O  O42  1  0.81090000  0.73620000  0.27590000  1.0 -0.8221944725
O  O43  1  0.68910000  0.23620000  0.22410000  1.0 -0.8221944725
O  O44  1  0.68910000  0.76380000  0.77590000  1.0 -0.8221944725
O  O45  1  0.81090000  0.26380000  0.72410000  1.0 -0.8221944725
O  O46  1  0.18910000  0.26380000  0.72410000  1.0 -0.8221944725
O  O47  1  0.31090000  0.76380000  0.77590000  1.0 -0.8221944725
O  O48  1  0.31090000  0.23620000  0.22410000  1.0 -0.8221944725
O  O49  1  0.00000000  0.02940000  0.07730000  1.0 -0.5690889841
O  O50  1  0.50000000  0.52940000  0.42270000  1.0 -0.5690889841
O  O51  1  0.50000000  0.47060000  0.57730000  1.0 -0.5690889841
O  O52  1  0.00000000  0.97060000  0.92270000  1.0 -0.5690889841
O  O53  1  0.50000000  0.68860000  0.38690000  1.0 -0.5303976095
O  O54  1  0.00000000  0.18860000  0.11310000  1.0 -0.5303976095
O  O55  1  0.00000000  0.81140000  0.88690000  1.0 -0.5303976095
O  O56  1  0.50000000  0.31140000  0.61310000  1.0 -0.5303976095
O  O57  1  0.00000000  0.85390000  0.01430000  1.0 -0.5515241629
O  O58  1  0.50000000  0.35390000  0.48570000  1.0 -0.5515241629
O  O59  1  0.50000000  0.64610000  0.51430000  1.0 -0.5515241629
O  O60  1  0.00000000  0.14610000  0.98570000  1.0 -0.5515241629
O  O61  1  0.30770000  0.12320000  0.06430000  1.0 -0.2663275978
O  O62  1  0.69230000  0.12320000  0.06430000  1.0 -0.2663275978
O  O63  1  0.80770000  0.62320000  0.43570000  1.0 -0.2663275978
O  O64  1  0.80770000  0.37680000  0.56430000  1.0 -0.2663275978
O  O65  1  0.69230000  0.87680000  0.93570000  1.0 -0.2663275978
O  O66  1  0.30770000  0.87680000  0.93570000  1.0 -0.2663275978
O  O67  1  0.19230000  0.37680000  0.56430000  1.0 -0.2663275978
O  O68  1  0.19230000  0.62320000  0.43570000  1.0 -0.2663275978
F  F1  1  0.50000000  0.85680000  0.33200000  1.0 -0.6936833268
F  F2  1  0.00000000  0.35680000  0.16800000  1.0 -0.6936833268
F  F3  1  0.00000000  0.64320000  0.83200000  1.0 -0.6936833268
F  F4  1  0.50000000  0.14320000  0.66800000  1.0 -0.6976411944
F  F5  1  0.50000000  0.99980000  0.42290000  1.0 -0.5620203818
F  F6  1  0.00000000  0.49980000  0.07710000  1.0 -0.5620203818
F  F7  1  0.00000000  0.50020000  0.92290000  1.0 -0.5690889841
F  F8  1  0.50000000  0.00020000  0.57710000  1.0 -0.5620203818
