# DDEC6 charges by PACMAN v1.1 (https://github.com/mtap-research/PACMAN-charge/)
data_QAYTOZ_FSR_pacman
_symmetry_space_group_name_H-M   'P 1'
_cell_length_a   12.85600000
_cell_length_b   13.09700000
_cell_length_c   18.00200000
_cell_angle_alpha   93.60900000
_cell_angle_beta   99.88700000
_cell_angle_gamma   91.44100000
_symmetry_Int_Tables_number   1
_chemical_formula_structural   MnHgH60C30Br4(NO)6
_chemical_formula_sum   'Mn2 Hg2 H120 C60 Br8 N12 O12'
_cell_volume   2978.15524350
_cell_formula_units_Z   2
loop_
 _symmetry_equiv_pos_site_id
 _symmetry_equiv_pos_as_xyz
  1  'x, y, z'
loop_
 _atom_site_type_symbol
 _atom_site_label
 _atom_site_symmetry_multiplicity
 _atom_site_fract_x
 _atom_site_fract_y
 _atom_site_fract_z
 _atom_site_occupancy
 _atom_site_charge
Mn  Mn1  1  0.25820000  0.21620000  0.25185000  1.0 1.0481457382
Mn  Mn2  1  0.74180000  0.78380000  0.74815000  1.0 1.0481457382
Hg  Hg1  1  0.23233000  0.28740000  0.75696000  1.0 0.4627892643
Hg  Hg2  1  0.76767000  0.71260000  0.24304000  1.0 0.4627892643
H  H1  1  0.97280000  0.48210000  0.25470000  1.0 0.2710668824
H  H2  1  0.02720000  0.51790000  0.74530000  1.0 0.2710668824
H  H3  1  0.23100000  0.25140000  0.97080000  1.0 0.2710668824
H  H4  1  0.76900000  0.74860000  0.02920000  1.0 0.2710668824
H  H5  1  0.35250000  0.27040000  0.54070000  1.0 0.2710668824
H  H6  1  0.64750000  0.72960000  0.45930000  1.0 0.2710668824
H  H7  1  0.03880000  0.89300000  0.25730000  1.0 0.2710668824
H  H8  1  0.96120000  0.10700000  0.74270000  1.0 0.2710668824
H  H9  1  0.50090000  0.52870000  0.24510000  1.0 0.2622700303
H  H10  1  0.49910000  0.47130000  0.75490000  1.0 0.2622700303
H  H11  1  0.54180000  0.95660000  0.22490000  1.0 0.2799035281
H  H12  1  0.45820000  0.04340000  0.77510000  1.0 0.2799035281
H  H13  1  0.91620000  0.32360000  0.21550000  1.0 0.1606328457
H  H14  1  0.08380000  0.67640000  0.78450000  1.0 0.1606328457
H  H15  1  0.99270000  0.23340000  0.23270000  1.0 0.1697715693
H  H16  1  0.00730000  0.76660000  0.76730000  1.0 0.1697715693
H  H17  1  0.98970000  0.28950000  0.15800000  1.0 0.1697715693
H  H18  1  0.01030000  0.71050000  0.84200000  1.0 0.1697715693
H  H19  1  0.17140000  0.51980000  0.33440000  1.0 0.1019132422
H  H20  1  0.82860000  0.48020000  0.66560000  1.0 0.1019132422
H  H21  1  0.07940000  0.59710000  0.32830000  1.0 0.1090168504
H  H22  1  0.92060000  0.40290000  0.67170000  1.0 0.1090168504
H  H23  1  0.19960000  0.55390000  0.21270000  1.0 0.1090168504
H  H24  1  0.80040000  0.44610000  0.78730000  1.0 0.1090168504
H  H25  1  0.10530000  0.62870000  0.20440000  1.0 0.1090168504
H  H26  1  0.89470000  0.37130000  0.79560000  1.0 0.1090168504
H  H27  1  0.19970000  0.73670000  0.30570000  1.0 0.1019132422
H  H28  1  0.80030000  0.26330000  0.69430000  1.0 0.1019132422
H  H29  1  0.29480000  0.66310000  0.31050000  1.0 0.1090168504
H  H30  1  0.70520000  0.33690000  0.68950000  1.0 0.1090168504
H  H31  1  0.39250000  0.18130000  0.08870000  1.0 0.1697715693
H  H32  1  0.60750000  0.81870000  0.91130000  1.0 0.1697715693
H  H33  1  0.32940000  0.12720000  0.01370000  1.0 0.1606328457
H  H34  1  0.67060000  0.87280000  0.98630000  1.0 0.1606328457
H  H35  1  0.32010000  0.08410000  0.09170000  1.0 0.1606328457
H  H36  1  0.67990000  0.91590000  0.90830000  1.0 0.1606328457
H  H37  1  0.06460000  0.31180000  0.95210000  1.0 0.1019132422
H  H38  1  0.93540000  0.68820000  0.04790000  1.0 0.1019132422
H  H39  1  0.05130000  0.28350000  0.03360000  1.0 0.1019132422
H  H40  1  0.94870000  0.71650000  0.96640000  1.0 0.1019132422
H  H41  1  0.16710000  0.45170000  0.00020000  1.0 0.1090168504
H  H42  1  0.83290000  0.54830000  0.99980000  1.0 0.1090168504
H  H43  1  0.16680000  0.42110000  0.08290000  1.0 0.1199364731
H  H44  1  0.83320000  0.57890000  0.91710000  1.0 0.1199364731
H  H45  1  0.97590000  0.44450000  0.05830000  1.0 0.1019132422
H  H46  1  0.02410000  0.55550000  0.94170000  1.0 0.1019132422
H  H47  1  0.04710000  0.54490000  0.06990000  1.0 0.1090168504
H  H48  1  0.95290000  0.45510000  0.93010000  1.0 0.1090168504
H  H49  1  0.17790000  0.24930000  0.49420000  1.0 0.1507590308
H  H50  1  0.82210000  0.75070000  0.50580000  1.0 0.1507590308
H  H51  1  0.13940000  0.21760000  0.40820000  1.0 0.1606328457
H  H52  1  0.86060000  0.78240000  0.59180000  1.0 0.1606328457
H  H53  1  0.17140000  0.33220000  0.43460000  1.0 0.1606328457
H  H54  1  0.82860000  0.66780000  0.56540000  1.0 0.1606328457
H  H55  1  0.52410000  0.29860000  0.52530000  1.0 0.1019132422
H  H56  1  0.47590000  0.70140000  0.47470000  1.0 0.1019132422
H  H57  1  0.49780000  0.24000000  0.44520000  1.0 0.1019132422
H  H58  1  0.50220000  0.76000000  0.55480000  1.0 0.1019132422
H  H59  1  0.49790000  0.13990000  0.57910000  1.0 0.1090168504
H  H60  1  0.50210000  0.86010000  0.42090000  1.0 0.1090168504
H  H61  1  0.59770000  0.14460000  0.54010000  1.0 0.1090168504
H  H62  1  0.40230000  0.85540000  0.45990000  1.0 0.1090168504
H  H63  1  0.50420000  0.05070000  0.43330000  1.0 0.1090168504
H  H64  1  0.49580000  0.94930000  0.56670000  1.0 0.1090168504
H  H65  1  0.40400000  0.04630000  0.47220000  1.0 0.1090168504
H  H66  1  0.59600000  0.95370000  0.52780000  1.0 0.1090168504
H  H67  1  0.15880000  0.92040000  0.36050000  1.0 0.1507590308
H  H68  1  0.84120000  0.07960000  0.63950000  1.0 0.1507590308
H  H69  1  0.14800000  0.03170000  0.39500000  1.0 0.1697715693
H  H70  1  0.85200000  0.96830000  0.60500000  1.0 0.1697715693
H  H71  1  0.24680000  0.00460000  0.35820000  1.0 0.1606328457
H  H72  1  0.75320000  0.99540000  0.64180000  1.0 0.1606328457
H  H73  1  0.96520000  0.04970000  0.17320000  1.0 0.1090168504
H  H74  1  0.03480000  0.95030000  0.82680000  1.0 0.1090168504
H  H75  1  0.92080000  0.93640000  0.16030000  1.0 0.1019132422
H  H76  1  0.07920000  0.06360000  0.83970000  1.0 0.1019132422
H  H77  1  0.05090000  0.89070000  0.09460000  1.0 0.1019132422
H  H78  1  0.94910000  0.10930000  0.90540000  1.0 0.1019132422
H  H79  1  0.10860000  0.99860000  0.11460000  1.0 0.1199364731
H  H80  1  0.89140000  0.00140000  0.88540000  1.0 0.1199364731
H  H81  1  0.90650000  0.96600000  0.02130000  1.0 0.1090168504
H  H82  1  0.09350000  0.03400000  0.97870000  1.0 0.1090168504
H  H83  1  0.95920000  0.07530000  0.04390000  1.0 0.1090168504
H  H84  1  0.04080000  0.92470000  0.95610000  1.0 0.1090168504
H  H85  1  0.42100000  0.51790000  0.34340000  1.0 0.1507590308
H  H86  1  0.57900000  0.48210000  0.65660000  1.0 0.1507590308
H  H87  1  0.47290000  0.41730000  0.37180000  1.0 0.1697715693
H  H88  1  0.52710000  0.58270000  0.62820000  1.0 0.1697715693
H  H89  1  0.34960000  0.42200000  0.35210000  1.0 0.1697715693
H  H90  1  0.65040000  0.57800000  0.64790000  1.0 0.1697715693
H  H91  1  0.56630000  0.43220000  0.14540000  1.0 0.1090168504
H  H92  1  0.43370000  0.56780000  0.85460000  1.0 0.1090168504
H  H93  1  0.45380000  0.37780000  0.12570000  1.0 0.1019132422
H  H94  1  0.54620000  0.62220000  0.87430000  1.0 0.1019132422
H  H95  1  0.50370000  0.58120000  0.10860000  1.0 0.1199364731
H  H96  1  0.49630000  0.41880000  0.89140000  1.0 0.1199364731
H  H97  1  0.38660000  0.54250000  0.10470000  1.0 0.1090168504
H  H98  1  0.61340000  0.45750000  0.89530000  1.0 0.1090168504
H  H99  1  0.42440000  0.42050000  0.99980000  1.0 0.1019132422
H  H100  1  0.57560000  0.57950000  0.00020000  1.0 0.1019132422
H  H101  1  0.39630000  0.53330000  0.98100000  1.0 0.1090168504
H  H102  1  0.60370000  0.46670000  0.01900000  1.0 0.1090168504
H  H103  1  0.60080000  0.10110000  0.28300000  1.0 0.1507590308
H  H104  1  0.39920000  0.89890000  0.71700000  1.0 0.1507590308
H  H105  1  0.52360000  0.17210000  0.31890000  1.0 0.1606328457
H  H106  1  0.47640000  0.82790000  0.68110000  1.0 0.1606328457
H  H107  1  0.54120000  0.18540000  0.23600000  1.0 0.1697715693
H  H108  1  0.45880000  0.81460000  0.76400000  1.0 0.1697715693
H  H109  1  0.42780000  0.84190000  0.15650000  1.0 0.1090168504
H  H110  1  0.57220000  0.15810000  0.84350000  1.0 0.1090168504
H  H111  1  0.33600000  0.91780000  0.15950000  1.0 0.1019132422
H  H112  1  0.66400000  0.08220000  0.84050000  1.0 0.1019132422
H  H113  1  0.32870000  0.87630000  0.28280000  1.0 0.1090168504
H  H114  1  0.67130000  0.12370000  0.71720000  1.0 0.1090168504
H  H115  1  0.41960000  0.79940000  0.27900000  1.0 0.1090168504
H  H116  1  0.58040000  0.20060000  0.72100000  1.0 0.1090168504
H  H117  1  0.31130000  0.69830000  0.18540000  1.0 0.1090168504
H  H118  1  0.68870000  0.30170000  0.81460000  1.0 0.1090168504
H  H119  1  0.22110000  0.77660000  0.18500000  1.0 0.1019132422
H  H120  1  0.77890000  0.22340000  0.81500000  1.0 0.1019132422
C  C1  1  0.06880000  0.37280000  0.25030000  1.0 0.5765876143
C  C2  1  0.93120000  0.62720000  0.74970000  1.0 0.5765876143
C  C3  1  0.23960000  0.20980000  0.07200000  1.0 0.5508105427
C  C4  1  0.76040000  0.79020000  0.92800000  1.0 0.5508105427
C  C5  1  0.29790000  0.24300000  0.43460000  1.0 0.5714877516
C  C6  1  0.70210000  0.75700000  0.56540000  1.0 0.5714877516
C  C7  1  0.11600000  0.02000000  0.28170000  1.0 0.5581407815
C  C8  1  0.88400000  0.98000000  0.71830000  1.0 0.5581407815
C  C9  1  0.41830000  0.40800000  0.26000000  1.0 0.5765876143
C  C10  1  0.58170000  0.59200000  0.74000000  1.0 0.5765876143
C  C11  1  0.44590000  0.06110000  0.24370000  1.0 0.5581407815
C  C12  1  0.55410000  0.93890000  0.75630000  1.0 0.5581407815
C  C13  1  0.98430000  0.29810000  0.21060000  1.0 -0.5967682035
C  C14  1  0.01570000  0.70190000  0.78940000  1.0 -0.5967682035
C  C15  1  0.11500000  0.54800000  0.29970000  1.0 -0.0422718443
C  C16  1  0.88500000  0.45200000  0.70030000  1.0 -0.0422718443
C  C17  1  0.16180000  0.60230000  0.24010000  1.0 -0.2033069189
C  C18  1  0.83820000  0.39770000  0.75990000  1.0 -0.2033069189
C  C19  1  0.23670000  0.68990000  0.27640000  1.0 -0.16150839
C  C20  1  0.76330000  0.31010000  0.72360000  1.0 -0.16150839
C  C21  1  0.32780000  0.14510000  0.06600000  1.0 -0.6070682139
C  C22  1  0.67220000  0.85490000  0.93400000  1.0 -0.6070682139
C  C23  1  0.09930000  0.31420000  0.00450000  1.0 -0.0650637851
C  C24  1  0.90070000  0.68580000  0.99550000  1.0 -0.0650637851
C  C25  1  0.12470000  0.42010000  0.03270000  1.0 -0.2033069189
C  C26  1  0.87530000  0.57990000  0.96730000  1.0 -0.2033069189
C  C27  1  0.02620000  0.48420000  0.03630000  1.0 -0.16150839
C  C28  1  0.97380000  0.51580000  0.96370000  1.0 -0.16150839
C  C29  1  0.18670000  0.26220000  0.44370000  1.0 -0.5892522663
C  C30  1  0.81330000  0.73780000  0.55630000  1.0 -0.5892522663
C  C31  1  0.48420000  0.24090000  0.49660000  1.0 -0.0517025315
C  C32  1  0.51580000  0.75910000  0.50340000  1.0 -0.0517025315
C  C33  1  0.52110000  0.14320000  0.53080000  1.0 -0.2033069189
C  C34  1  0.47890000  0.85680000  0.46920000  1.0 -0.2033069189
C  C35  1  0.48060000  0.04830000  0.48160000  1.0 -0.1675013334
C  C36  1  0.51940000  0.95170000  0.51840000  1.0 -0.1675013334
C  C37  1  0.17230000  0.99170000  0.35520000  1.0 -0.6070682139
C  C38  1  0.82770000  0.00830000  0.64480000  1.0 -0.6070682139
C  C39  1  0.98520000  0.97890000  0.16940000  1.0 -0.0517025315
C  C40  1  0.01480000  0.02110000  0.83060000  1.0 -0.0611559158
C  C41  1  0.04000000  0.96310000  0.10380000  1.0 -0.20799753
C  C42  1  0.96000000  0.03690000  0.89620000  1.0 -0.20799753
C  C43  1  0.97370000  0.00410000  0.03300000  1.0 -0.16150839
C  C44  1  0.02630000  0.99590000  0.96700000  1.0 -0.16150839
C  C45  1  0.41510000  0.44450000  0.33870000  1.0 -0.6167859465
C  C46  1  0.58490000  0.55550000  0.66130000  1.0 -0.6167859465
C  C47  1  0.49160000  0.44160000  0.14480000  1.0 -0.0611559158
C  C48  1  0.50840000  0.55840000  0.85520000  1.0 -0.0611559158
C  C49  1  0.45550000  0.52220000  0.09540000  1.0 -0.1929366395
C  C50  1  0.54450000  0.47780000  0.90460000  1.0 -0.1929366395
C  C51  1  0.44750000  0.49180000  0.01030000  1.0 -0.1524916247
C  C52  1  0.55250000  0.50820000  0.98970000  1.0 -0.1524916247
C  C53  1  0.53610000  0.13680000  0.27300000  1.0 -0.5820556313
C  C54  1  0.46390000  0.86320000  0.72700000  1.0 -0.5820556313
C  C55  1  0.39630000  0.88840000  0.18970000  1.0 -0.0517025315
C  C56  1  0.60370000  0.11160000  0.81030000  1.0 -0.0517025315
C  C57  1  0.35930000  0.82960000  0.24930000  1.0 -0.20799753
C  C58  1  0.64070000  0.17040000  0.75070000  1.0 -0.20799753
C  C59  1  0.27940000  0.74680000  0.21690000  1.0 -0.16150839
C  C60  1  0.72060000  0.25320000  0.78310000  1.0 -0.16150839
Br  Br1  1  0.38620000  0.32379000  0.68072000  1.0 -0.4888561175
Br  Br2  1  0.61380000  0.67621000  0.31928000  1.0 -0.4888561175
Br  Br3  1  0.06412000  0.22917000  0.66023000  1.0 -0.4758626104
Br  Br4  1  0.93588000  0.77083000  0.33977000  1.0 -0.4758626104
Br  Br5  1  0.30710000  0.15130000  0.84865000  1.0 -0.5246205658
Br  Br6  1  0.69290000  0.84870000  0.15135000  1.0 -0.5252493352
Br  Br7  1  0.19990000  0.45640000  0.82998000  1.0 -0.4888561175
Br  Br8  1  0.80010000  0.54360000  0.17002000  1.0 -0.4888561175
N  N1  1  0.04150000  0.46750000  0.26590000  1.0 -0.3195834389
N  N2  1  0.95850000  0.53250000  0.73410000  1.0 -0.3195834389
N  N3  1  0.19770000  0.25580000  0.01090000  1.0 -0.3195834389
N  N4  1  0.80230000  0.74420000  0.98910000  1.0 -0.3195834389
N  N5  1  0.37290000  0.25380000  0.49620000  1.0 -0.3336242766
N  N6  1  0.62710000  0.74620000  0.50380000  1.0 -0.3336242766
N  N7  1  0.04760000  0.95550000  0.24050000  1.0 -0.304278645
N  N8  1  0.95240000  0.04450000  0.75950000  1.0 -0.304278645
N  N9  1  0.47360000  0.46860000  0.22200000  1.0 -0.3405222625
N  N10  1  0.52640000  0.53140000  0.77800000  1.0 -0.3405222625
N  N11  1  0.47270000  0.96940000  0.22090000  1.0 -0.3195834389
N  N12  1  0.52730000  0.03060000  0.77910000  1.0 -0.3195834389
O  O1  1  0.16160000  0.34670000  0.27160000  1.0 -0.5560700179
O  O2  1  0.83840000  0.65330000  0.72840000  1.0 -0.5560700179
O  O3  1  0.20120000  0.21720000  0.13120000  1.0 -0.5452799529
O  O4  1  0.79880000  0.78280000  0.86880000  1.0 -0.5452799529
O  O5  1  0.32150000  0.22060000  0.37230000  1.0 -0.5415694049
O  O6  1  0.67850000  0.77940000  0.62770000  1.0 -0.5415694049
O  O7  1  0.13250000  0.10730000  0.25970000  1.0 -0.5560700179
O  O8  1  0.86750000  0.89270000  0.74030000  1.0 -0.5560700179
O  O9  1  0.37870000  0.32540000  0.23020000  1.0 -0.5415694049
O  O10  1  0.62130000  0.67460000  0.76980000  1.0 -0.5415694049
O  O11  1  0.35340000  0.08330000  0.23990000  1.0 -0.5415694049
O  O12  1  0.64660000  0.91670000  0.76010000  1.0 -0.5415694049
