# DDEC6 charges by PACMAN v1.1 (https://github.com/mtap-research/PACMAN-charge/)
data_QEBLUH_ASR_pacman
_symmetry_space_group_name_H-M   'P 1'
_cell_length_a   12.14700000
_cell_length_b   15.10200000
_cell_length_c   17.10200000
_cell_angle_alpha   101.54800000
_cell_angle_beta   95.77000000
_cell_angle_gamma   101.56300000
_symmetry_Int_Tables_number   1
_chemical_formula_structural   Cd2H44C61N7O8
_chemical_formula_sum   'Cd4 H88 C122 N14 O16'
_cell_volume   2978.86091829
_cell_formula_units_Z   2
loop_
 _symmetry_equiv_pos_site_id
 _symmetry_equiv_pos_as_xyz
  1  'x, y, z'
loop_
 _atom_site_type_symbol
 _atom_site_label
 _atom_site_symmetry_multiplicity
 _atom_site_fract_x
 _atom_site_fract_y
 _atom_site_fract_z
 _atom_site_occupancy
 _atom_site_charge
Cd  Cd1  1  0.41740000  0.60380000  0.03640000  1.0 0.8608329866
Cd  Cd2  1  0.41880000  0.09960000  0.53580000  1.0 0.804005501
Cd  Cd3  1  0.58260000  0.39620000  0.96360000  1.0 0.8608329866
Cd  Cd4  1  0.58120000  0.90040000  0.46420000  1.0 0.804005501
H  H1  1  0.39670000  0.03870000  0.70530000  1.0 0.1210435375
H  H2  1  0.26750000  0.98790000  0.78220000  1.0 0.1110070584
H  H3  1  0.02870000  0.92660000  0.59030000  1.0 0.1210435375
H  H4  1  0.16200000  0.98820000  0.51980000  1.0 0.1110070584
H  H5  1  0.97290000  0.88780000  0.71370000  1.0 0.1110070584
H  H6  1  0.13510000  0.93980000  0.84690000  1.0 0.1110070584
H  H7  1  0.08240000  0.91670000  0.97170000  1.0 0.1210435375
H  H8  1  0.95410000  0.86030000  0.05050000  1.0 0.1210435375
H  H9  1  0.71540000  0.76530000  0.85620000  1.0 0.1297387504
H  H10  1  0.84110000  0.82130000  0.77680000  1.0 0.1110070584
H  H11  1  0.63720000  0.66090000  0.93930000  1.0 0.1110070584
H  H12  1  0.62030000  0.77780000  0.16090000  1.0 0.1297387504
H  H13  1  0.78570000  0.87140000  0.12170000  1.0 0.1297387504
H  H14  1  0.18850000  0.44330000  0.90440000  1.0 0.1210435375
H  H15  1  0.02490000  0.35110000  0.94560000  1.0 0.1297387504
H  H16  1  0.22510000  0.51170000  0.13990000  1.0 0.1210435375
H  H17  1  0.14010000  0.40290000  0.20880000  1.0 0.1110070584
H  H18  1  0.01680000  0.33880000  0.28700000  1.0 0.1110070584
H  H19  1  0.75930000  0.29630000  0.11470000  1.0 0.1210435375
H  H20  1  0.87920000  0.35590000  0.03210000  1.0 0.1297387504
H  H21  1  0.70280000  0.26030000  0.22160000  1.0 0.0926401686
H  H22  1  0.86120000  0.28640000  0.36320000  1.0 0.0691875863
H  H23  1  0.79120000  0.22560000  0.43220000  1.0 0.0926401686
H  H24  1  0.67800000  0.17310000  0.51970000  1.0 0.0970327689
H  H25  1  0.40500000  0.18860000  0.38090000  1.0 0.0609428943
H  H26  1  0.51730000  0.23830000  0.29170000  1.0 0.0790075596
H  H27  1  0.20000000  0.33730000  0.58220000  1.0 0.0926401686
H  H28  1  0.14100000  0.46050000  0.65490000  1.0 0.0691875863
H  H29  1  0.24230000  0.53860000  0.77950000  1.0 0.0790075596
H  H30  1  0.45000000  0.36270000  0.75950000  1.0 0.1297387504
H  H31  1  0.18810000  0.83710000  0.07570000  1.0 0.1210435375
H  H32  1  0.12650000  0.96050000  0.14660000  1.0 0.0970327689
H  H33  1  0.19370000  0.01650000  0.28340000  1.0 0.1110070584
H  H34  1  0.38870000  0.83210000  0.27320000  1.0 0.1297387504
H  H35  1  0.87250000  0.27620000  0.32380000  1.0 0.0926401686
H  H36  1  0.64930000  0.26670000  0.25270000  1.0 0.0790075596
H  H37  1  0.82670000  0.25240000  0.47570000  1.0 0.0926401686
H  H38  1  0.69550000  0.19420000  0.55050000  1.0 0.0609428943
H  H39  1  0.44720000  0.16390000  0.37030000  1.0 0.0926401686
H  H40  1  0.57790000  0.22630000  0.29650000  1.0 0.0926401686
H  H41  1  0.27490000  0.37320000  0.56540000  1.0 0.0790075596
H  H42  1  0.22610000  0.50590000  0.63130000  1.0 0.0609428943
H  H43  1  0.29980000  0.57000000  0.76630000  1.0 0.0790075596
H  H44  1  0.46020000  0.36210000  0.76840000  1.0 0.1297387504
H  H45  1  0.60330000  0.96130000  0.29470000  1.0 0.1210435375
H  H46  1  0.73250000  0.01210000  0.21780000  1.0 0.1110070584
H  H47  1  0.97130000  0.07340000  0.40970000  1.0 0.1210435375
H  H48  1  0.83800000  0.01180000  0.48020000  1.0 0.1110070584
H  H49  1  0.02710000  0.11220000  0.28630000  1.0 0.1110070584
H  H50  1  0.86490000  0.06020000  0.15310000  1.0 0.1110070584
H  H51  1  0.91760000  0.08330000  0.02830000  1.0 0.1210435375
H  H52  1  0.04590000  0.13970000  0.94950000  1.0 0.1210435375
H  H53  1  0.28460000  0.23470000  0.14380000  1.0 0.1297387504
H  H54  1  0.15890000  0.17870000  0.22320000  1.0 0.1110070584
H  H55  1  0.36280000  0.33910000  0.06070000  1.0 0.1110070584
H  H56  1  0.37970000  0.22220000  0.83910000  1.0 0.1297387504
H  H57  1  0.21430000  0.12860000  0.87830000  1.0 0.1297387504
H  H58  1  0.81150000  0.55670000  0.09560000  1.0 0.1210435375
H  H59  1  0.97510000  0.64890000  0.05440000  1.0 0.1297387504
H  H60  1  0.77490000  0.48830000  0.86010000  1.0 0.1210435375
H  H61  1  0.85990000  0.59710000  0.79120000  1.0 0.1110070584
H  H62  1  0.98320000  0.66120000  0.71300000  1.0 0.1110070584
H  H63  1  0.24070000  0.70370000  0.88530000  1.0 0.1210435375
H  H64  1  0.12080000  0.64410000  0.96790000  1.0 0.1297387504
H  H65  1  0.29720000  0.73970000  0.77840000  1.0 0.0926401686
H  H66  1  0.13880000  0.71360000  0.63680000  1.0 0.0691875863
H  H67  1  0.20880000  0.77440000  0.56780000  1.0 0.0970327689
H  H68  1  0.32200000  0.82690000  0.48030000  1.0 0.0970327689
H  H69  1  0.59500000  0.81140000  0.61910000  1.0 0.0609428943
H  H70  1  0.48270000  0.76170000  0.70830000  1.0 0.0790075596
H  H71  1  0.80000000  0.66270000  0.41780000  1.0 0.0926401686
H  H72  1  0.85900000  0.53950000  0.34510000  1.0 0.0691875863
H  H73  1  0.75770000  0.46140000  0.22050000  1.0 0.0790075596
H  H74  1  0.55000000  0.63730000  0.24050000  1.0 0.1297387504
H  H75  1  0.81190000  0.16290000  0.92430000  1.0 0.1110070584
H  H76  1  0.87350000  0.03950000  0.85340000  1.0 0.0970327689
H  H77  1  0.80630000  0.98350000  0.71660000  1.0 0.1110070584
H  H78  1  0.61130000  0.16790000  0.72680000  1.0 0.1297387504
H  H79  1  0.12750000  0.72380000  0.67620000  1.0 0.0926401686
H  H80  1  0.35070000  0.73330000  0.74730000  1.0 0.0790075596
H  H81  1  0.17330000  0.74760000  0.52430000  1.0 0.0926401686
H  H82  1  0.30450000  0.80580000  0.44950000  1.0 0.0609428943
H  H83  1  0.55280000  0.83610000  0.62970000  1.0 0.0926401686
H  H84  1  0.42210000  0.77370000  0.70350000  1.0 0.0926401686
H  H85  1  0.72510000  0.62680000  0.43460000  1.0 0.0790075596
H  H86  1  0.77390000  0.49410000  0.36870000  1.0 0.0609428943
H  H87  1  0.70020000  0.43000000  0.23370000  1.0 0.0790075596
H  H88  1  0.53980000  0.63790000  0.23160000  1.0 0.1297387504
C  C1  1  0.32090000  0.01780000  0.68200000  1.0 -0.0112565713
C  C2  1  0.24400000  0.98520000  0.72820000  1.0 -0.2379010197
C  C3  1  0.13220000  0.94830000  0.69570000  1.0 0.1413764778
C  C4  1  0.10330000  0.95040000  0.61550000  1.0 -0.1865219351
C  C5  1  0.18420000  0.98710000  0.57320000  1.0 0.0302126027
C  C6  1  0.04600000  0.91290000  0.74140000  1.0 -0.1738152642
C  C7  1  0.06240000  0.91320000  0.81900000  1.0 -0.1738152642
C  C8  1  0.97660000  0.87530000  0.86530000  1.0 0.1210435375
C  C9  1  0.00860000  0.88640000  0.94810000  1.0 -0.1388618712
C  C10  1  0.93160000  0.85280000  0.99560000  1.0 -0.1815879694
C  C11  1  0.82250000  0.80860000  0.96180000  1.0 0.1413764778
C  C12  1  0.78920000  0.79620000  0.87920000  1.0 -0.1815879694
C  C13  1  0.86450000  0.82930000  0.83180000  1.0 -0.1268952379
C  C14  1  0.65360000  0.70160000  0.98970000  1.0 0.1110070584
C  C15  1  0.64480000  0.76590000  0.11090000  1.0 -0.0248166163
C  C16  1  0.73660000  0.81820000  0.08980000  1.0 -0.1208222311
C  C17  1  0.17560000  0.44570000  0.95740000  1.0 -0.0563268595
C  C18  1  0.08450000  0.39460000  0.97960000  1.0 -0.1105612021
C  C19  1  0.19650000  0.48390000  0.08610000  1.0 0.0970327689
C  C20  1  0.02090000  0.38380000  0.11200000  1.0 0.1297387504
C  C21  1  0.06320000  0.38080000  0.18900000  1.0 -0.1617692243
C  C22  1  0.98800000  0.34380000  0.23600000  1.0 -0.2015480873
C  C23  1  0.87520000  0.31460000  0.21170000  1.0 0.0790075596
C  C24  1  0.83640000  0.31820000  0.13410000  1.0 -0.2280829873
C  C25  1  0.90780000  0.35330000  0.08390000  1.0 -0.1617692243
C  C26  1  0.77550000  0.27860000  0.25090000  1.0 -0.0422960486
C  C27  1  0.79220000  0.27300000  0.32940000  1.0 -0.0786675186
C  C28  1  0.66890000  0.23870000  0.35150000  1.0 0.0215903482
C  C29  1  0.71300000  0.21820000  0.42060000  1.0 -0.0422960486
C  C30  1  0.64460000  0.18670000  0.47350000  1.0 0.0790075596
C  C31  1  0.48320000  0.19540000  0.39180000  1.0 0.0215903482
C  C32  1  0.55120000  0.22590000  0.33830000  1.0 -0.1268952379
C  C33  1  0.37150000  0.25890000  0.61680000  1.0 0.4286200378
C  C34  1  0.33000000  0.33810000  0.66310000  1.0 0.0691875863
C  C35  1  0.23920000  0.36790000  0.63300000  1.0 -0.0248166163
C  C36  1  0.20410000  0.44190000  0.67580000  1.0 -0.0665836957
C  C37  1  0.26460000  0.48790000  0.75030000  1.0 -0.0515548129
C  C38  1  0.35790000  0.46040000  0.78260000  1.0 0.0520537954
C  C39  1  0.38900000  0.38350000  0.73820000  1.0 -0.1617692243
C  C40  1  0.42640000  0.51430000  0.86480000  1.0 0.4235122177
C  C41  1  0.33790000  0.74450000  0.11940000  1.0 0.5392104957
C  C42  1  0.29440000  0.82240000  0.16700000  1.0 0.0006155984
C  C43  1  0.21620000  0.86090000  0.13010000  1.0 -0.1208222311
C  C44  1  0.17870000  0.93440000  0.17230000  1.0 -0.1105612021
C  C45  1  0.22040000  0.96850000  0.25390000  1.0 -0.1268952379
C  C46  1  0.30070000  0.93220000  0.29160000  1.0 -0.0017638152
C  C47  1  0.33610000  0.85820000  0.24780000  1.0 -0.1388618712
C  C48  1  0.35010000  0.97350000  0.37870000  1.0 0.5221634481
C  C49  1  0.82280000  0.28360000  0.28170000  1.0 -0.0422960486
C  C50  1  0.71170000  0.26570000  0.28850000  1.0 -0.0786675186
C  C51  1  0.71720000  0.24250000  0.37500000  1.0 -0.0017638152
C  C52  1  0.75040000  0.23400000  0.45360000  1.0 -0.0971666005
C  C53  1  0.67160000  0.19900000  0.49840000  1.0 0.0097513955
C  C54  1  0.52390000  0.18140000  0.39180000  1.0 0.0395639364
C  C55  1  0.60310000  0.21800000  0.34710000  1.0 -0.0017638152
C  C56  1  0.37620000  0.35670000  0.65880000  1.0 0.0691875863
C  C57  1  0.30440000  0.39880000  0.61940000  1.0 -0.0665836957
C  C58  1  0.27530000  0.47860000  0.65860000  1.0 -0.0422960486
C  C59  1  0.31980000  0.51730000  0.73860000  1.0 -0.0900101241
C  C60  1  0.39450000  0.47600000  0.77640000  1.0 0.0520537954
C  C61  1  0.41800000  0.39290000  0.73950000  1.0 -0.1617692243
C  C62  1  0.67910000  0.98220000  0.31800000  1.0 -0.0112565713
C  C63  1  0.75600000  0.01480000  0.27180000  1.0 -0.2379010197
C  C64  1  0.86780000  0.05170000  0.30430000  1.0 0.1413764778
C  C65  1  0.89670000  0.04960000  0.38450000  1.0 -0.1865219351
C  C66  1  0.81580000  0.01290000  0.42680000  1.0 0.0395639364
C  C67  1  0.95400000  0.08710000  0.25860000  1.0 -0.1738152642
C  C68  1  0.93760000  0.08680000  0.18100000  1.0 -0.1738152642
C  C69  1  0.02340000  0.12470000  0.13470000  1.0 0.1210435375
C  C70  1  0.99140000  0.11360000  0.05190000  1.0 -0.1388618712
C  C71  1  0.06840000  0.14720000  0.00440000  1.0 -0.1815879694
C  C72  1  0.17750000  0.19140000  0.03820000  1.0 0.1413764778
C  C73  1  0.21080000  0.20380000  0.12080000  1.0 -0.1815879694
C  C74  1  0.13550000  0.17070000  0.16820000  1.0 -0.1268952379
C  C75  1  0.34640000  0.29840000  0.01030000  1.0 0.1110070584
C  C76  1  0.35520000  0.23410000  0.88910000  1.0 -0.0248166163
C  C77  1  0.26340000  0.18180000  0.91020000  1.0 -0.1208222311
C  C78  1  0.82440000  0.55430000  0.04260000  1.0 -0.0563268595
C  C79  1  0.91550000  0.60540000  0.02040000  1.0 -0.1105612021
C  C80  1  0.80350000  0.51610000  0.91390000  1.0 0.0970327689
C  C81  1  0.97910000  0.61620000  0.88800000  1.0 0.1297387504
C  C82  1  0.93680000  0.61920000  0.81100000  1.0 -0.1617692243
C  C83  1  0.01200000  0.65620000  0.76400000  1.0 -0.2015480873
C  C84  1  0.12480000  0.68540000  0.78830000  1.0 0.0790075596
C  C85  1  0.16360000  0.68180000  0.86590000  1.0 -0.2280829873
C  C86  1  0.09220000  0.64670000  0.91610000  1.0 -0.1617692243
C  C87  1  0.22450000  0.72140000  0.74910000  1.0 -0.0422960486
C  C88  1  0.20780000  0.72700000  0.67060000  1.0 -0.0786675186
C  C89  1  0.33110000  0.76130000  0.64850000  1.0 0.0215903482
C  C90  1  0.28700000  0.78180000  0.57940000  1.0 -0.0422960486
C  C91  1  0.35540000  0.81330000  0.52650000  1.0 0.0790075596
C  C92  1  0.51680000  0.80460000  0.60820000  1.0 0.0302126027
C  C93  1  0.44880000  0.77410000  0.66170000  1.0 -0.1268952379
C  C94  1  0.62850000  0.74110000  0.38320000  1.0 0.4286200378
C  C95  1  0.67000000  0.66190000  0.33690000  1.0 0.0691875863
C  C96  1  0.76080000  0.63210000  0.36700000  1.0 -0.0248166163
C  C97  1  0.79590000  0.55810000  0.32420000  1.0 -0.0665836957
C  C98  1  0.73540000  0.51210000  0.24970000  1.0 -0.0515548129
C  C99  1  0.64210000  0.53960000  0.21740000  1.0 0.0520537954
C  C100  1  0.61100000  0.61650000  0.26180000  1.0 -0.1617692243
C  C101  1  0.57360000  0.48570000  0.13520000  1.0 0.4235122177
C  C102  1  0.66210000  0.25550000  0.88060000  1.0 0.5392104957
C  C103  1  0.70560000  0.17760000  0.83300000  1.0 0.0006155984
C  C104  1  0.78380000  0.13910000  0.86990000  1.0 -0.1208222311
C  C105  1  0.82130000  0.06560000  0.82770000  1.0 -0.1105612021
C  C106  1  0.77960000  0.03150000  0.74610000  1.0 -0.1268952379
C  C107  1  0.69930000  0.06780000  0.70840000  1.0 0.0006155984
C  C108  1  0.66390000  0.14180000  0.75220000  1.0 -0.1388618712
C  C109  1  0.64990000  0.02650000  0.62130000  1.0 0.5221634481
C  C110  1  0.17720000  0.71640000  0.71830000  1.0 -0.0422960486
C  C111  1  0.28830000  0.73430000  0.71150000  1.0 -0.0786675186
C  C112  1  0.28280000  0.75750000  0.62500000  1.0 -0.0017638152
C  C113  1  0.24960000  0.76600000  0.54640000  1.0 -0.0971666005
C  C114  1  0.32840000  0.80100000  0.50160000  1.0 0.0097513955
C  C115  1  0.47610000  0.81860000  0.60820000  1.0 0.0395639364
C  C116  1  0.39690000  0.78200000  0.65290000  1.0 -0.0017638152
C  C117  1  0.62380000  0.64330000  0.34120000  1.0 0.0691875863
C  C118  1  0.69560000  0.60120000  0.38060000  1.0 -0.0665836957
C  C119  1  0.72470000  0.52140000  0.34140000  1.0 -0.0422960486
C  C120  1  0.68020000  0.48270000  0.26140000  1.0 -0.0900101241
C  C121  1  0.60550000  0.52400000  0.22360000  1.0 0.0520537954
C  C122  1  0.58200000  0.60710000  0.26050000  1.0 -0.1617692243
N  N1  1  0.29380000  0.02160000  0.60510000  1.0 -0.2557811763
N  N2  1  0.74220000  0.77610000  0.01130000  1.0 0.0006155984
N  N3  1  0.59370000  0.69390000  0.04840000  1.0 -0.2832940247
N  N4  1  0.24750000  0.50230000  0.02500000  1.0 -0.2976445582
N  N5  1  0.09700000  0.41940000  0.06120000  1.0 0.0097513955
N  N6  1  0.52870000  0.17490000  0.46020000  1.0 -0.1815879694
N  N7  1  0.55820000  0.17090000  0.46750000  1.0 -0.1617692243
N  N8  1  0.70620000  0.97840000  0.39490000  1.0 -0.254650059
N  N9  1  0.25780000  0.22390000  0.98870000  1.0 0.0006155984
N  N10  1  0.40630000  0.30610000  0.95160000  1.0 -0.2832940247
N  N11  1  0.75250000  0.49770000  0.97500000  1.0 -0.2976445582
N  N12  1  0.90300000  0.58060000  0.93880000  1.0 0.0097513955
N  N13  1  0.47130000  0.82510000  0.53980000  1.0 -0.1815879694
N  N14  1  0.44180000  0.82910000  0.53250000  1.0 -0.1617692243
O  O1  1  0.32680000  0.73250000  0.04490000  1.0 -0.5350181487
O  O2  1  0.38350000  0.69370000  0.15680000  1.0 -0.558070245
O  O3  1  0.29940000  0.02870000  0.41870000  1.0 -0.5248578217
O  O4  1  0.43580000  0.95390000  0.40800000  1.0 -0.5296517438
O  O5  1  0.31520000  0.21900000  0.54840000  1.0 -0.4901838627
O  O6  1  0.45160000  0.23010000  0.64660000  1.0 -0.4778249961
O  O7  1  0.51030000  0.49040000  0.89400000  1.0 -0.4961934712
O  O8  1  0.38440000  0.57780000  0.90080000  1.0 -0.4778249961
O  O9  1  0.67320000  0.26750000  0.95510000  1.0 -0.5350181487
O  O10  1  0.61650000  0.30630000  0.84320000  1.0 -0.558070245
O  O11  1  0.70060000  0.97130000  0.58130000  1.0 -0.5296517438
O  O12  1  0.56420000  0.04610000  0.59200000  1.0 -0.5296517438
O  O13  1  0.68480000  0.78100000  0.45160000  1.0 -0.4901838627
O  O14  1  0.54840000  0.76990000  0.35340000  1.0 -0.4778249961
O  O15  1  0.48970000  0.50960000  0.10600000  1.0 -0.4961934712
O  O16  1  0.61560000  0.42220000  0.09920000  1.0 -0.4778249961
