# DDEC6 charges by PACMAN v1.1 (https://github.com/mtap-research/PACMAN-charge/)
data_QEKLUP_ASR_pacman
_symmetry_space_group_name_H-M   'P 1'
_cell_length_a   10.21140000
_cell_length_b   10.21140000
_cell_length_c   5.04830000
_cell_angle_alpha   83.36410000
_cell_angle_beta   96.63590000
_cell_angle_gamma   97.69890000
_symmetry_Int_Tables_number   1
_chemical_formula_structural   BaUP2H2CO8
_chemical_formula_sum   'Ba2 U2 P4 H4 C2 O16'
_cell_volume   515.47493239
_cell_formula_units_Z   2
loop_
 _symmetry_equiv_pos_site_id
 _symmetry_equiv_pos_as_xyz
  1  'x, y, z'
loop_
 _atom_site_type_symbol
 _atom_site_label
 _atom_site_symmetry_multiplicity
 _atom_site_fract_x
 _atom_site_fract_y
 _atom_site_fract_z
 _atom_site_occupancy
 _atom_site_charge
Ba  Ba1  1  0.89446000  0.10554000  0.66105000  1.0 1.4702824672
Ba  Ba2  1  0.10554000  0.89446000  0.33895000  1.0 1.4702824672
U  U1  1  0.00000000  0.50000000  0.50000000  1.0 2.54269466
U  U2  1  0.50000000  0.00000000  0.50000000  1.0 2.54269466
P  P1  1  0.11991000  0.29607000  0.09730000  1.0 1.4517005404
P  P2  1  0.29607000  0.11991000  0.90270000  1.0 1.4517005404
P  P3  1  0.88009000  0.70393000  0.90270000  1.0 1.4517005404
P  P4  1  0.70393000  0.88009000  0.09730000  1.0 1.4517005404
H  H1  1  0.34750000  0.29970000  0.14860000  1.0 0.2189894487
H  H2  1  0.29970000  0.34750000  0.85140000  1.0 0.2189894487
H  H3  1  0.65250000  0.70030000  0.85140000  1.0 0.2189894487
H  H4  1  0.70030000  0.65250000  0.14860000  1.0 0.2189894487
C  C1  1  0.28100000  0.28100000  0.00000000  1.0 -0.8075994233
C  C2  1  0.71900000  0.71900000  0.00000000  1.0 -0.8075994233
O  O1  1  0.86774000  0.38574000  0.36500000  1.0 -0.69682057
O  O2  1  0.38574000  0.86774000  0.63500000  1.0 -0.69682057
O  O3  1  0.13226000  0.61426000  0.63500000  1.0 -0.69682057
O  O4  1  0.61426000  0.13226000  0.36500000  1.0 -0.69682057
O  O5  1  0.14049000  0.41229000  0.27480000  1.0 -0.8300213496
O  O6  1  0.41229000  0.14049000  0.72520000  1.0 -0.8300213496
O  O7  1  0.85951000  0.58771000  0.72520000  1.0 -0.8300213496
O  O8  1  0.58771000  0.85951000  0.27480000  1.0 -0.8300213496
O  O9  1  0.05558000  0.16738000  0.22520000  1.0 -0.8300213496
O  O10  1  0.16738000  0.05558000  0.77480000  1.0 -0.8300213496
O  O11  1  0.94442000  0.83262000  0.77480000  1.0 -0.8300213496
O  O12  1  0.83262000  0.94442000  0.22520000  1.0 -0.8300213496
O  O13  1  0.03565000  0.33625000  0.83180000  1.0 -0.9170580387
O  O14  1  0.33625000  0.03565000  0.16820000  1.0 -0.9148881714
O  O15  1  0.96435000  0.66375000  0.16820000  1.0 -0.9170580387
O  O16  1  0.66375000  0.96435000  0.83180000  1.0 -0.9170580387
