# DDEC6 charges by PACMAN v1.1 (https://github.com/mtap-research/PACMAN-charge/)
data_QEKYOX_ASR_pacman
_symmetry_space_group_name_H-M   'P 1'
_cell_length_a   9.22890000
_cell_length_b   12.32720000
_cell_length_c   10.98000000
_cell_angle_alpha   90.00000000
_cell_angle_beta   109.60200000
_cell_angle_gamma   90.00000000
_symmetry_Int_Tables_number   1
_chemical_formula_structural   CdH16C14(SN3)2
_chemical_formula_sum   'Cd2 H32 C28 S4 N12'
_cell_volume   1176.76221142
_cell_formula_units_Z   2
loop_
 _symmetry_equiv_pos_site_id
 _symmetry_equiv_pos_as_xyz
  1  'x, y, z'
loop_
 _atom_site_type_symbol
 _atom_site_label
 _atom_site_symmetry_multiplicity
 _atom_site_fract_x
 _atom_site_fract_y
 _atom_site_fract_z
 _atom_site_occupancy
 _atom_site_charge
Cd  Cd1  1  0.81256000  0.67796000  0.74956000  1.0 0.7771383461
Cd  Cd2  1  0.18744000  0.17796000  0.25044000  1.0 0.7771383461
H  H1  1  0.61120000  0.86920000  0.55070000  1.0 0.0995386133
H  H2  1  0.15390000  0.82330000  0.45270000  1.0 0.1175720301
H  H3  1  0.20510000  0.67520000  0.59340000  1.0 0.1264875468
H  H4  1  0.45700000  0.62990000  0.70880000  1.0 0.0995386133
H  H5  1  0.31920000  0.92950000  0.30650000  1.0 0.11097362
H  H6  1  0.45510000  0.99390000  0.41050000  1.0 0.0995386133
H  H7  1  0.15500000  0.00670000  0.40140000  1.0 0.2688811607
H  H8  1  0.28210000  0.07200000  0.48570000  1.0 0.290204176
H  H9  1  0.98680000  0.45830000  0.90250000  1.0 0.0995386133
H  H10  1  0.44740000  0.48560000  0.01590000  1.0 0.1175720301
H  H11  1  0.41630000  0.65240000  0.90970000  1.0 0.1264875468
H  H12  1  0.16820000  0.71880000  0.80870000  1.0 0.0949526068
H  H13  1  0.33940000  0.34420000  0.11000000  1.0 0.11097362
H  H14  1  0.23960000  0.28660000  0.97850000  1.0 0.1175720301
H  H15  1  0.10090000  0.37760000  0.13480000  1.0 0.2688811607
H  H16  1  0.03550000  0.29750000  0.03220000  1.0 0.2688811607
H  H17  1  0.38880000  0.36920000  0.44930000  1.0 0.0995386133
H  H18  1  0.84610000  0.32330000  0.54730000  1.0 0.1175720301
H  H19  1  0.79490000  0.17520000  0.40660000  1.0 0.1264875468
H  H20  1  0.54300000  0.12990000  0.29120000  1.0 0.0995386133
H  H21  1  0.68080000  0.42950000  0.69350000  1.0 0.11097362
H  H22  1  0.54490000  0.49390000  0.58950000  1.0 0.0995386133
H  H23  1  0.84500000  0.50670000  0.59860000  1.0 0.2688811607
H  H24  1  0.71790000  0.57200000  0.51430000  1.0 0.290204176
H  H25  1  0.01320000  0.95830000  0.09750000  1.0 0.0995386133
H  H26  1  0.55260000  0.98560000  0.98410000  1.0 0.1175720301
H  H27  1  0.58370000  0.15240000  0.09030000  1.0 0.1264875468
H  H28  1  0.83180000  0.21880000  0.19130000  1.0 0.0949526068
H  H29  1  0.66060000  0.84420000  0.89000000  1.0 0.11097362
H  H30  1  0.76040000  0.78660000  0.02150000  1.0 0.11097362
H  H31  1  0.89910000  0.87760000  0.86520000  1.0 0.2688811607
H  H32  1  0.96450000  0.79750000  0.96780000  1.0 0.2688811607
C  C1  1  0.89370000  0.84870000  0.53510000  1.0 0.2636682626
C  C2  1  0.74360000  0.52820000  0.98640000  1.0 0.2529885557
C  C3  1  0.52690000  0.82980000  0.55970000  1.0 -0.0032708722
C  C4  1  0.37930000  0.86370000  0.48770000  1.0 0.0475043275
C  C5  1  0.25700000  0.80400000  0.50060000  1.0 -0.0877437108
C  C6  1  0.28710000  0.71670000  0.58330000  1.0 -0.1197957124
C  C7  1  0.43790000  0.69010000  0.65160000  1.0 0.0475043275
C  C8  1  0.35470000  0.95810000  0.39600000  1.0 -0.0967515323
C  C9  1  0.07570000  0.49830000  0.90500000  1.0 0.0110632118
C  C10  1  0.21900000  0.45300000  0.97020000  1.0 0.0475043275
C  C11  1  0.34710000  0.51290000  0.97200000  1.0 -0.0877437108
C  C12  1  0.32940000  0.61150000  0.91050000  1.0 -0.1254882503
C  C13  1  0.18090000  0.64980000  0.84950000  1.0 0.0554449048
C  C14  1  0.23790000  0.34450000  0.04050000  1.0 -0.0877437108
C  C15  1  0.10630000  0.34870000  0.46490000  1.0 0.2636682626
C  C16  1  0.25640000  0.02820000  0.01360000  1.0 0.2529885557
C  C17  1  0.47310000  0.32980000  0.44030000  1.0 -0.0032708722
C  C18  1  0.62070000  0.36370000  0.51230000  1.0 0.0475043275
C  C19  1  0.74300000  0.30400000  0.49940000  1.0 -0.0877437108
C  C20  1  0.71290000  0.21670000  0.41670000  1.0 -0.1197957124
C  C21  1  0.56210000  0.19010000  0.34840000  1.0 0.0475043275
C  C22  1  0.64530000  0.45810000  0.60400000  1.0 -0.0967515323
C  C23  1  0.92430000  0.99830000  0.09500000  1.0 0.0110632118
C  C24  1  0.78100000  0.95300000  0.02980000  1.0 0.0475043275
C  C25  1  0.65290000  0.01290000  0.02800000  1.0 -0.0877437108
C  C26  1  0.67060000  0.11150000  0.08950000  1.0 -0.1254882503
C  C27  1  0.81910000  0.14980000  0.15050000  1.0 0.0554449048
C  C28  1  0.76210000  0.84450000  0.95950000  1.0 -0.0877437108
S  S1  1  0.86870000  0.93209000  0.41370000  1.0 -0.4221960369
S  S2  1  0.77720000  0.45653000  0.11830000  1.0 -0.3994377021
S  S3  1  0.13130000  0.43209000  0.58630000  1.0 -0.4221960369
S  S4  1  0.22280000  0.95653000  0.88170000  1.0 -0.3994377021
N  N1  1  0.90770000  0.78840000  0.62090000  1.0 -0.5225701097
N  N2  1  0.72100000  0.57850000  0.89160000  1.0 -0.5225701097
N  N3  1  0.55820000  0.74490000  0.64130000  1.0 -0.2268907938
N  N4  1  0.24430000  0.04070000  0.40620000  1.0 -0.4977583203
N  N5  1  0.05570000  0.59420000  0.84570000  1.0 -0.2268907938
N  N6  1  0.12280000  0.31710000  0.09690000  1.0 -0.4902588341
N  N7  1  0.09230000  0.28840000  0.37910000  1.0 -0.5225701097
N  N8  1  0.27900000  0.07850000  0.10840000  1.0 -0.5225701097
N  N9  1  0.44180000  0.24490000  0.35870000  1.0 -0.2268907938
N  N10  1  0.75570000  0.54070000  0.59380000  1.0 -0.4977583203
N  N11  1  0.94430000  0.09420000  0.15430000  1.0 -0.2268907938
N  N12  1  0.87720000  0.81710000  0.90310000  1.0 -0.4902588341
