# DDEC6 charges by PACMAN v1.1 (https://github.com/mtap-research/PACMAN-charge/)
data_QEQXUI_ASR_pacman
_symmetry_space_group_name_H-M   'P 1'
_cell_length_a   13.74400000
_cell_length_b   19.30500000
_cell_length_c   22.56800000
_cell_angle_alpha   90.00000000
_cell_angle_beta   90.00000000
_cell_angle_gamma   90.00000000
_symmetry_Int_Tables_number   1
_chemical_formula_structural   NiH12C18N2O5
_chemical_formula_sum   'Ni8 H96 C144 N16 O40'
_cell_volume   5987.92049856
_cell_formula_units_Z   8
loop_
 _symmetry_equiv_pos_site_id
 _symmetry_equiv_pos_as_xyz
  1  'x, y, z'
loop_
 _atom_site_type_symbol
 _atom_site_label
 _atom_site_symmetry_multiplicity
 _atom_site_fract_x
 _atom_site_fract_y
 _atom_site_fract_z
 _atom_site_occupancy
 _atom_site_charge
Ni  Ni1  1  0.75000000  0.75000000  0.23300000  1.0 0.6223586096
Ni  Ni2  1  0.75000000  0.75000000  0.73300000  1.0 0.6223586096
Ni  Ni3  1  0.75000000  0.25000000  0.16653000  1.0 0.715529476
Ni  Ni4  1  0.75000000  0.25000000  0.66653000  1.0 0.7149782522
Ni  Ni5  1  0.25000000  0.25000000  0.26700000  1.0 0.6223586096
Ni  Ni6  1  0.25000000  0.25000000  0.76700000  1.0 0.6223586096
Ni  Ni7  1  0.25000000  0.75000000  0.33347000  1.0 0.715529476
Ni  Ni8  1  0.25000000  0.75000000  0.83347000  1.0 0.715529476
H  H1  1  0.32200000  0.99800000  0.22100000  1.0 0.3394106111
H  H2  1  0.69790000  0.03360000  0.19920000  1.0 0.1111026416
H  H3  1  0.41360000  0.08160000  0.19240000  1.0 0.1316005254
H  H4  1  0.49660000  0.88690000  0.22990000  1.0 0.1316005254
H  H5  1  0.61890000  0.70900000  0.83130000  1.0 0.1171146451
H  H6  1  0.62310000  0.70240000  0.93320000  1.0 0.1316005254
H  H7  1  0.76660000  0.35160000  0.86740000  1.0 0.1394675268
H  H8  1  0.78550000  0.34870000  0.76580000  1.0 0.1111026416
H  H9  1  0.88250000  0.71230000  0.13350000  1.0 0.1111026416
H  H10  1  0.87950000  0.70430000  0.03240000  1.0 0.1394675268
H  H11  1  0.70090000  0.34560000  0.06380000  1.0 0.1171146451
H  H12  1  0.68460000  0.34050000  0.96020000  1.0 0.1316005254
H  H13  1  0.17800000  0.50200000  0.22100000  1.0 0.3394106111
H  H14  1  0.80210000  0.46640000  0.19920000  1.0 0.1111026416
H  H15  1  0.08640000  0.41840000  0.19240000  1.0 0.1316005254
H  H16  1  0.00340000  0.61310000  0.22990000  1.0 0.1316005254
H  H17  1  0.88110000  0.79100000  0.83130000  1.0 0.1171146451
H  H18  1  0.87690000  0.79760000  0.93320000  1.0 0.1316005254
H  H19  1  0.73340000  0.14840000  0.86740000  1.0 0.1394675268
H  H20  1  0.71450000  0.15130000  0.76580000  1.0 0.1111026416
H  H21  1  0.61750000  0.78770000  0.13350000  1.0 0.1111026416
H  H22  1  0.62050000  0.79570000  0.03240000  1.0 0.1394675268
H  H23  1  0.79910000  0.15440000  0.06380000  1.0 0.1171146451
H  H24  1  0.81540000  0.15950000  0.96020000  1.0 0.1316005254
H  H25  1  0.32200000  0.50200000  0.72100000  1.0 0.3394106111
H  H26  1  0.69790000  0.46640000  0.69920000  1.0 0.1111026416
H  H27  1  0.41360000  0.41840000  0.69240000  1.0 0.1316005254
H  H28  1  0.49660000  0.61310000  0.72990000  1.0 0.1316005254
H  H29  1  0.61890000  0.79100000  0.33130000  1.0 0.1171146451
H  H30  1  0.62310000  0.79760000  0.43320000  1.0 0.1316005254
H  H31  1  0.76660000  0.14840000  0.36740000  1.0 0.1394675268
H  H32  1  0.78550000  0.15130000  0.26580000  1.0 0.1111026416
H  H33  1  0.88250000  0.78770000  0.63350000  1.0 0.1111026416
H  H34  1  0.87950000  0.79570000  0.53240000  1.0 0.1394675268
H  H35  1  0.70090000  0.15440000  0.56380000  1.0 0.1171146451
H  H36  1  0.68460000  0.15950000  0.46020000  1.0 0.1316005254
H  H37  1  0.17800000  0.99800000  0.72100000  1.0 0.3394106111
H  H38  1  0.80210000  0.03360000  0.69920000  1.0 0.1111026416
H  H39  1  0.08640000  0.08160000  0.69240000  1.0 0.1316005254
H  H40  1  0.00340000  0.88690000  0.72990000  1.0 0.1316005254
H  H41  1  0.88110000  0.70900000  0.33130000  1.0 0.1171146451
H  H42  1  0.87690000  0.70240000  0.43320000  1.0 0.1316005254
H  H43  1  0.73340000  0.35160000  0.36740000  1.0 0.1394675268
H  H44  1  0.71450000  0.34870000  0.26580000  1.0 0.1111026416
H  H45  1  0.61750000  0.71230000  0.63350000  1.0 0.1111026416
H  H46  1  0.62050000  0.70430000  0.53240000  1.0 0.1394675268
H  H47  1  0.79910000  0.34560000  0.56380000  1.0 0.1171146451
H  H48  1  0.81540000  0.34050000  0.46020000  1.0 0.1316005254
H  H49  1  0.67800000  0.49800000  0.27900000  1.0 0.3394106111
H  H50  1  0.30210000  0.53360000  0.30080000  1.0 0.1111026416
H  H51  1  0.58640000  0.58160000  0.30760000  1.0 0.1316005254
H  H52  1  0.50340000  0.38690000  0.27010000  1.0 0.1316005254
H  H53  1  0.38110000  0.20900000  0.66870000  1.0 0.1171146451
H  H54  1  0.37690000  0.20240000  0.56680000  1.0 0.1316005254
H  H55  1  0.23340000  0.85160000  0.63260000  1.0 0.1394675268
H  H56  1  0.21450000  0.84870000  0.73420000  1.0 0.1111026416
H  H57  1  0.11750000  0.21230000  0.36650000  1.0 0.1111026416
H  H58  1  0.12050000  0.20430000  0.46760000  1.0 0.1394675268
H  H59  1  0.29910000  0.84560000  0.43620000  1.0 0.1171146451
H  H60  1  0.31540000  0.84050000  0.53980000  1.0 0.1316005254
H  H61  1  0.82200000  0.00200000  0.27900000  1.0 0.3394106111
H  H62  1  0.19790000  0.96640000  0.30080000  1.0 0.1111026416
H  H63  1  0.91360000  0.91840000  0.30760000  1.0 0.1316005254
H  H64  1  0.99660000  0.11310000  0.27010000  1.0 0.1316005254
H  H65  1  0.11890000  0.29100000  0.66870000  1.0 0.1171146451
H  H66  1  0.12310000  0.29760000  0.56680000  1.0 0.1316005254
H  H67  1  0.26660000  0.64840000  0.63260000  1.0 0.1394675268
H  H68  1  0.28550000  0.65130000  0.73420000  1.0 0.1111026416
H  H69  1  0.38250000  0.28770000  0.36650000  1.0 0.1111026416
H  H70  1  0.37950000  0.29570000  0.46760000  1.0 0.1394675268
H  H71  1  0.20090000  0.65440000  0.43620000  1.0 0.1171146451
H  H72  1  0.18460000  0.65950000  0.53980000  1.0 0.1316005254
H  H73  1  0.67800000  0.00200000  0.77900000  1.0 0.3394106111
H  H74  1  0.30210000  0.96640000  0.80080000  1.0 0.1111026416
H  H75  1  0.58640000  0.91840000  0.80760000  1.0 0.1316005254
H  H76  1  0.50340000  0.11310000  0.77010000  1.0 0.1316005254
H  H77  1  0.38110000  0.29100000  0.16870000  1.0 0.1171146451
H  H78  1  0.37690000  0.29760000  0.06680000  1.0 0.1316005254
H  H79  1  0.23340000  0.64840000  0.13260000  1.0 0.1394675268
H  H80  1  0.21450000  0.65130000  0.23420000  1.0 0.1111026416
H  H81  1  0.11750000  0.28770000  0.86650000  1.0 0.1111026416
H  H82  1  0.12050000  0.29570000  0.96760000  1.0 0.1394675268
H  H83  1  0.29910000  0.65440000  0.93620000  1.0 0.1171146451
H  H84  1  0.31540000  0.65950000  0.03980000  1.0 0.1316005254
H  H85  1  0.82200000  0.49800000  0.77900000  1.0 0.3394106111
H  H86  1  0.19790000  0.53360000  0.80080000  1.0 0.1111026416
H  H87  1  0.91360000  0.58160000  0.80760000  1.0 0.1316005254
H  H88  1  0.99660000  0.38690000  0.77010000  1.0 0.1316005254
H  H89  1  0.11890000  0.20900000  0.16870000  1.0 0.1171146451
H  H90  1  0.12310000  0.20240000  0.06680000  1.0 0.1316005254
H  H91  1  0.26660000  0.85160000  0.13260000  1.0 0.1394675268
H  H92  1  0.28550000  0.84870000  0.23420000  1.0 0.1111026416
H  H93  1  0.38250000  0.21230000  0.86650000  1.0 0.1111026416
H  H94  1  0.37950000  0.20430000  0.96760000  1.0 0.1394675268
H  H95  1  0.20090000  0.84560000  0.93620000  1.0 0.1171146451
H  H96  1  0.18460000  0.84050000  0.03980000  1.0 0.1316005254
C  C1  1  0.63300000  0.02040000  0.20240000  1.0 -0.1180133599
C  C2  1  0.55970000  0.06890000  0.19360000  1.0 -0.0591955514
C  C3  1  0.46270000  0.04920000  0.19830000  1.0 -0.2134599586
C  C4  1  0.43910000  0.98100000  0.21200000  1.0 0.3300521119
C  C5  1  0.51240000  0.93250000  0.22080000  1.0 -0.2134599586
C  C6  1  0.60940000  0.95220000  0.21600000  1.0 -0.0727382827
C  C7  1  0.58900000  0.13850000  0.18120000  1.0 0.5300720377
C  C8  1  0.67340000  0.72510000  0.85150000  1.0 0.1111026416
C  C9  1  0.67560000  0.72320000  0.91430000  1.0 -0.1905274869
C  C10  1  0.76230000  0.30890000  0.84840000  1.0 -0.2020692059
C  C11  1  0.76860000  0.30860000  0.78620000  1.0 0.1111026416
C  C12  1  0.82810000  0.72670000  0.11240000  1.0 0.1027344074
C  C13  1  0.82600000  0.72450000  0.05090000  1.0 -0.219099197
C  C14  1  0.71900000  0.30530000  0.04420000  1.0 0.0909283683
C  C15  1  0.71380000  0.30360000  0.97990000  1.0 -0.1905274869
C  C16  1  0.68090000  0.90050000  0.22200000  1.0 0.50946853
C  C17  1  0.86700000  0.47960000  0.20240000  1.0 -0.1180133599
C  C18  1  0.94030000  0.43110000  0.19360000  1.0 -0.0591955514
C  C19  1  0.03730000  0.45080000  0.19830000  1.0 -0.2134599586
C  C20  1  0.06090000  0.51900000  0.21200000  1.0 0.3300521119
C  C21  1  0.98760000  0.56750000  0.22080000  1.0 -0.2134599586
C  C22  1  0.89060000  0.54780000  0.21600000  1.0 -0.0727382827
C  C23  1  0.91100000  0.36150000  0.18120000  1.0 0.5300720377
C  C24  1  0.82660000  0.77490000  0.85150000  1.0 0.1111026416
C  C25  1  0.82440000  0.77680000  0.91430000  1.0 -0.1905274869
C  C26  1  0.73770000  0.19110000  0.84840000  1.0 -0.2020692059
C  C27  1  0.73140000  0.19140000  0.78620000  1.0 0.1111026416
C  C28  1  0.67190000  0.77330000  0.11240000  1.0 0.1027344074
C  C29  1  0.67400000  0.77550000  0.05090000  1.0 -0.219099197
C  C30  1  0.78100000  0.19470000  0.04420000  1.0 0.0909283683
C  C31  1  0.78620000  0.19640000  0.97990000  1.0 -0.1905274869
C  C32  1  0.81910000  0.59950000  0.22200000  1.0 0.50946853
C  C33  1  0.63300000  0.47960000  0.70240000  1.0 -0.1180133599
C  C34  1  0.55970000  0.43110000  0.69360000  1.0 -0.0591955514
C  C35  1  0.46270000  0.45080000  0.69830000  1.0 -0.2134599586
C  C36  1  0.43910000  0.51900000  0.71200000  1.0 0.3300521119
C  C37  1  0.51240000  0.56750000  0.72080000  1.0 -0.2134599586
C  C38  1  0.60940000  0.54780000  0.71600000  1.0 -0.0727382827
C  C39  1  0.58900000  0.36150000  0.68120000  1.0 0.5300720377
C  C40  1  0.67340000  0.77490000  0.35150000  1.0 0.1111026416
C  C41  1  0.67560000  0.77680000  0.41430000  1.0 -0.1905274869
C  C42  1  0.76230000  0.19110000  0.34840000  1.0 -0.2020692059
C  C43  1  0.76860000  0.19140000  0.28620000  1.0 0.1111026416
C  C44  1  0.82810000  0.77330000  0.61240000  1.0 0.1027344074
C  C45  1  0.82600000  0.77550000  0.55090000  1.0 -0.219099197
C  C46  1  0.71900000  0.19470000  0.54420000  1.0 0.0909283683
C  C47  1  0.71380000  0.19640000  0.47990000  1.0 -0.1905274869
C  C48  1  0.68090000  0.59950000  0.72200000  1.0 0.50946853
C  C49  1  0.86700000  0.02040000  0.70240000  1.0 -0.1180133599
C  C50  1  0.94030000  0.06890000  0.69360000  1.0 -0.0591955514
C  C51  1  0.03730000  0.04920000  0.69830000  1.0 -0.2134599586
C  C52  1  0.06090000  0.98100000  0.71200000  1.0 0.3300521119
C  C53  1  0.98760000  0.93250000  0.72080000  1.0 -0.2134599586
C  C54  1  0.89060000  0.95220000  0.71600000  1.0 -0.0727382827
C  C55  1  0.91100000  0.13850000  0.68120000  1.0 0.5300720377
C  C56  1  0.82660000  0.72510000  0.35150000  1.0 0.1111026416
C  C57  1  0.82440000  0.72320000  0.41430000  1.0 -0.1905274869
C  C58  1  0.73770000  0.30890000  0.34840000  1.0 -0.2020692059
C  C59  1  0.73140000  0.30860000  0.28620000  1.0 0.1111026416
C  C60  1  0.67190000  0.72670000  0.61240000  1.0 0.1027344074
C  C61  1  0.67400000  0.72450000  0.55090000  1.0 -0.219099197
C  C62  1  0.78100000  0.30530000  0.54420000  1.0 0.0909283683
C  C63  1  0.78620000  0.30360000  0.47990000  1.0 -0.1905274869
C  C64  1  0.81910000  0.90050000  0.72200000  1.0 0.50946853
C  C65  1  0.75000000  0.75000000  0.01250000  1.0 0.0909283683
C  C66  1  0.75000000  0.75000000  0.95030000  1.0 0.0794942497
C  C67  1  0.75000000  0.75000000  0.51250000  1.0 0.0909283683
C  C68  1  0.75000000  0.75000000  0.45030000  1.0 0.0794942497
C  C69  1  0.75000000  0.25000000  0.94750000  1.0 0.0794942497
C  C70  1  0.75000000  0.25000000  0.88390000  1.0 0.1027344074
C  C71  1  0.75000000  0.25000000  0.44750000  1.0 0.0794942497
C  C72  1  0.75000000  0.25000000  0.38390000  1.0 0.1027344074
C  C73  1  0.36700000  0.52040000  0.29760000  1.0 -0.1180133599
C  C74  1  0.44030000  0.56890000  0.30640000  1.0 -0.0591955514
C  C75  1  0.53730000  0.54920000  0.30170000  1.0 -0.2134599586
C  C76  1  0.56090000  0.48100000  0.28800000  1.0 0.3300521119
C  C77  1  0.48760000  0.43250000  0.27920000  1.0 -0.2134599586
C  C78  1  0.39060000  0.45220000  0.28400000  1.0 -0.0727382827
C  C79  1  0.41100000  0.63850000  0.31880000  1.0 0.5300720377
C  C80  1  0.32660000  0.22510000  0.64850000  1.0 0.1111026416
C  C81  1  0.32440000  0.22320000  0.58570000  1.0 -0.1905274869
C  C82  1  0.23770000  0.80890000  0.65160000  1.0 -0.2020692059
C  C83  1  0.23140000  0.80860000  0.71380000  1.0 0.1111026416
C  C84  1  0.17190000  0.22670000  0.38760000  1.0 0.1027344074
C  C85  1  0.17400000  0.22450000  0.44910000  1.0 -0.219099197
C  C86  1  0.28100000  0.80530000  0.45580000  1.0 0.0909283683
C  C87  1  0.28620000  0.80360000  0.52010000  1.0 -0.1905274869
C  C88  1  0.31910000  0.40050000  0.27800000  1.0 0.50946853
C  C89  1  0.13300000  0.97960000  0.29760000  1.0 -0.1180133599
C  C90  1  0.05970000  0.93110000  0.30640000  1.0 -0.0591955514
C  C91  1  0.96270000  0.95080000  0.30170000  1.0 -0.2134599586
C  C92  1  0.93910000  0.01900000  0.28800000  1.0 0.3300521119
C  C93  1  0.01240000  0.06750000  0.27920000  1.0 -0.2134599586
C  C94  1  0.10940000  0.04780000  0.28400000  1.0 -0.0727382827
C  C95  1  0.08900000  0.86150000  0.31880000  1.0 0.5300720377
C  C96  1  0.17340000  0.27490000  0.64850000  1.0 0.1111026416
C  C97  1  0.17560000  0.27680000  0.58570000  1.0 -0.1905274869
C  C98  1  0.26230000  0.69110000  0.65160000  1.0 -0.2020692059
C  C99  1  0.26860000  0.69140000  0.71380000  1.0 0.1111026416
C  C100  1  0.32810000  0.27330000  0.38760000  1.0 0.1027344074
C  C101  1  0.32600000  0.27550000  0.44910000  1.0 -0.219099197
C  C102  1  0.21900000  0.69470000  0.45580000  1.0 0.0909283683
C  C103  1  0.21380000  0.69640000  0.52010000  1.0 -0.1905274869
C  C104  1  0.18090000  0.09950000  0.27800000  1.0 0.50946853
C  C105  1  0.36700000  0.97960000  0.79760000  1.0 -0.1180133599
C  C106  1  0.44030000  0.93110000  0.80640000  1.0 -0.0591955514
C  C107  1  0.53730000  0.95080000  0.80170000  1.0 -0.2134599586
C  C108  1  0.56090000  0.01900000  0.78800000  1.0 0.3300521119
C  C109  1  0.48760000  0.06750000  0.77920000  1.0 -0.2134599586
C  C110  1  0.39060000  0.04780000  0.78400000  1.0 -0.0727382827
C  C111  1  0.41100000  0.86150000  0.81880000  1.0 0.5300720377
C  C112  1  0.32660000  0.27490000  0.14850000  1.0 0.1111026416
C  C113  1  0.32440000  0.27680000  0.08570000  1.0 -0.1905274869
C  C114  1  0.23770000  0.69110000  0.15160000  1.0 -0.2020692059
C  C115  1  0.23140000  0.69140000  0.21380000  1.0 0.1111026416
C  C116  1  0.17190000  0.27330000  0.88760000  1.0 0.1027344074
C  C117  1  0.17400000  0.27550000  0.94910000  1.0 -0.219099197
C  C118  1  0.28100000  0.69470000  0.95580000  1.0 0.0909283683
C  C119  1  0.28620000  0.69640000  0.02010000  1.0 -0.1905274869
C  C120  1  0.31910000  0.09950000  0.77800000  1.0 0.50946853
C  C121  1  0.13300000  0.52040000  0.79760000  1.0 -0.1180133599
C  C122  1  0.05970000  0.56890000  0.80640000  1.0 -0.0591955514
C  C123  1  0.96270000  0.54920000  0.80170000  1.0 -0.2134599586
C  C124  1  0.93910000  0.48100000  0.78800000  1.0 0.3300521119
C  C125  1  0.01240000  0.43250000  0.77920000  1.0 -0.2134599586
C  C126  1  0.10940000  0.45220000  0.78400000  1.0 -0.0727382827
C  C127  1  0.08900000  0.63850000  0.81880000  1.0 0.5300720377
C  C128  1  0.17340000  0.22510000  0.14850000  1.0 0.1111026416
C  C129  1  0.17560000  0.22320000  0.08570000  1.0 -0.1905274869
C  C130  1  0.26230000  0.80890000  0.15160000  1.0 -0.2020692059
C  C131  1  0.26860000  0.80860000  0.21380000  1.0 0.1111026416
C  C132  1  0.32810000  0.22670000  0.88760000  1.0 0.1027344074
C  C133  1  0.32600000  0.22450000  0.94910000  1.0 -0.219099197
C  C134  1  0.21900000  0.80530000  0.95580000  1.0 0.0909283683
C  C135  1  0.21380000  0.80360000  0.02010000  1.0 -0.1905274869
C  C136  1  0.18090000  0.40050000  0.77800000  1.0 0.50946853
C  C137  1  0.25000000  0.25000000  0.48750000  1.0 0.0909283683
C  C138  1  0.25000000  0.25000000  0.54970000  1.0 0.0794942497
C  C139  1  0.25000000  0.25000000  0.98750000  1.0 0.0909283683
C  C140  1  0.25000000  0.25000000  0.04970000  1.0 0.0794942497
C  C141  1  0.25000000  0.75000000  0.55250000  1.0 0.0794942497
C  C142  1  0.25000000  0.75000000  0.61610000  1.0 0.1027344074
C  C143  1  0.25000000  0.75000000  0.05250000  1.0 0.0794942497
C  C144  1  0.25000000  0.75000000  0.11610000  1.0 0.1027344074
N  N1  1  0.75000000  0.75000000  0.82060000  1.0 -0.2020692059
N  N2  1  0.75000000  0.75000000  0.13970000  1.0 -0.2020692059
N  N3  1  0.75000000  0.75000000  0.32060000  1.0 -0.2020692059
N  N4  1  0.75000000  0.75000000  0.63970000  1.0 -0.2020692059
N  N5  1  0.75000000  0.25000000  0.75670000  1.0 -0.2020692059
N  N6  1  0.75000000  0.25000000  0.07700000  1.0 -0.2456067757
N  N7  1  0.75000000  0.25000000  0.25670000  1.0 -0.2020692059
N  N8  1  0.75000000  0.25000000  0.57700000  1.0 -0.2456067757
N  N9  1  0.25000000  0.25000000  0.67940000  1.0 -0.2020692059
N  N10  1  0.25000000  0.25000000  0.36030000  1.0 -0.2020692059
N  N11  1  0.25000000  0.25000000  0.17940000  1.0 -0.2020692059
N  N12  1  0.25000000  0.25000000  0.86030000  1.0 -0.2020692059
N  N13  1  0.25000000  0.75000000  0.74330000  1.0 -0.2020692059
N  N14  1  0.25000000  0.75000000  0.42300000  1.0 -0.2434805588
N  N15  1  0.25000000  0.75000000  0.24330000  1.0 -0.2020692059
N  N16  1  0.25000000  0.75000000  0.92300000  1.0 -0.2434805588
O  O1  1  0.68030000  0.15820000  0.16930000  1.0 -0.5327501924
O  O2  1  0.67240000  0.83670000  0.23130000  1.0 -0.4666452923
O  O3  1  0.53560000  0.19430000  0.18120000  1.0 -0.5460224928
O  O4  1  0.35070000  0.96100000  0.21720000  1.0 -0.3990584717
O  O5  1  0.76680000  0.91690000  0.24050000  1.0 -0.4940039174
O  O6  1  0.81970000  0.34180000  0.16930000  1.0 -0.5327501924
O  O7  1  0.82760000  0.66330000  0.23130000  1.0 -0.4666452923
O  O8  1  0.96440000  0.30570000  0.18120000  1.0 -0.5460224928
O  O9  1  0.14930000  0.53900000  0.21720000  1.0 -0.3990584717
O  O10  1  0.73320000  0.58310000  0.24050000  1.0 -0.4940039174
O  O11  1  0.68030000  0.34180000  0.66930000  1.0 -0.5327501924
O  O12  1  0.67240000  0.66330000  0.73130000  1.0 -0.4666452923
O  O13  1  0.53560000  0.30570000  0.68120000  1.0 -0.5460224928
O  O14  1  0.35070000  0.53900000  0.71720000  1.0 -0.3990584717
O  O15  1  0.76680000  0.58310000  0.74050000  1.0 -0.4940039174
O  O16  1  0.81970000  0.15820000  0.66930000  1.0 -0.5327501924
O  O17  1  0.82760000  0.83670000  0.73130000  1.0 -0.4666452923
O  O18  1  0.96440000  0.19430000  0.68120000  1.0 -0.5460224928
O  O19  1  0.14930000  0.96100000  0.71720000  1.0 -0.3990584717
O  O20  1  0.73320000  0.91690000  0.74050000  1.0 -0.4940039174
O  O21  1  0.31970000  0.65820000  0.33070000  1.0 -0.5327501924
O  O22  1  0.32760000  0.33670000  0.26870000  1.0 -0.4666452923
O  O23  1  0.46440000  0.69430000  0.31880000  1.0 -0.5460224928
O  O24  1  0.64930000  0.46100000  0.28280000  1.0 -0.3990584717
O  O25  1  0.23320000  0.41690000  0.25950000  1.0 -0.4940039174
O  O26  1  0.18030000  0.84180000  0.33070000  1.0 -0.5327501924
O  O27  1  0.17240000  0.16330000  0.26870000  1.0 -0.4666452923
O  O28  1  0.03560000  0.80570000  0.31880000  1.0 -0.5460224928
O  O29  1  0.85070000  0.03900000  0.28280000  1.0 -0.3990584717
O  O30  1  0.26680000  0.08310000  0.25950000  1.0 -0.4940039174
O  O31  1  0.31970000  0.84180000  0.83070000  1.0 -0.5327501924
O  O32  1  0.32760000  0.16330000  0.76870000  1.0 -0.4666452923
O  O33  1  0.46440000  0.80570000  0.81880000  1.0 -0.5460224928
O  O34  1  0.64930000  0.03900000  0.78280000  1.0 -0.3990584717
O  O35  1  0.23320000  0.08310000  0.75950000  1.0 -0.4940039174
O  O36  1  0.18030000  0.65820000  0.83070000  1.0 -0.5327501924
O  O37  1  0.17240000  0.33670000  0.76870000  1.0 -0.4666452923
O  O38  1  0.03560000  0.69430000  0.81880000  1.0 -0.5460224928
O  O39  1  0.85070000  0.46100000  0.78280000  1.0 -0.3990584717
O  O40  1  0.26680000  0.41690000  0.75950000  1.0 -0.4940039174
