# DDEC6 charges by PACMAN v1.1 (https://github.com/mtap-research/PACMAN-charge/)
data_QEQXUI05_ASR_pacman
_symmetry_space_group_name_H-M   'P 1'
_cell_length_a   13.58200000
_cell_length_b   19.29700000
_cell_length_c   22.51500000
_cell_angle_alpha   90.00000000
_cell_angle_beta   90.00000000
_cell_angle_gamma   90.00000000
_symmetry_Int_Tables_number   1
_chemical_formula_structural   NiH12C18N2O5
_chemical_formula_sum   'Ni8 H96 C144 N16 O40'
_cell_volume   5900.99809281
_cell_formula_units_Z   8
loop_
 _symmetry_equiv_pos_site_id
 _symmetry_equiv_pos_as_xyz
  1  'x, y, z'
loop_
 _atom_site_type_symbol
 _atom_site_label
 _atom_site_symmetry_multiplicity
 _atom_site_fract_x
 _atom_site_fract_y
 _atom_site_fract_z
 _atom_site_occupancy
 _atom_site_charge
Ni  Ni1  1  0.75000000  0.75000000  0.20595000  1.0 0.7499062875
Ni  Ni2  1  0.75000000  0.75000000  0.70595000  1.0 0.7499062875
Ni  Ni3  1  0.75000000  0.25000000  0.17259000  1.0 0.720960305
Ni  Ni4  1  0.75000000  0.25000000  0.67259000  1.0 0.720960305
Ni  Ni5  1  0.25000000  0.25000000  0.29405000  1.0 0.7499062875
Ni  Ni6  1  0.25000000  0.25000000  0.79405000  1.0 0.7499062875
Ni  Ni7  1  0.25000000  0.75000000  0.32741000  1.0 0.720960305
Ni  Ni8  1  0.25000000  0.75000000  0.82741000  1.0 0.720960305
H  H1  1  0.33000000  0.00500000  0.23600000  1.0 0.3287803391
H  H2  1  0.72150000  0.64900000  0.09310000  1.0 0.1206884452
H  H3  1  0.77140000  0.14860000  0.07020000  1.0 0.1206884452
H  H4  1  0.63410000  0.69020000  0.80660000  1.0 0.1206884452
H  H5  1  0.62480000  0.69010000  0.90840000  1.0 0.1361032062
H  H6  1  0.41130000  0.08550000  0.20990000  1.0 0.1361032062
H  H7  1  0.69900000  0.04040000  0.19420000  1.0 0.1206884452
H  H8  1  0.50270000  0.88790000  0.22180000  1.0 0.1361032062
H  H9  1  0.71370000  0.65380000  0.98960000  1.0 0.1206884452
H  H10  1  0.76880000  0.35060000  0.77530000  1.0 0.1126550696
H  H11  1  0.74920000  0.14930000  0.97250000  1.0 0.1264765122
H  H12  1  0.77500000  0.35130000  0.87980000  1.0 0.1361032062
H  H13  1  0.17000000  0.49500000  0.23600000  1.0 0.3287803391
H  H14  1  0.77850000  0.85100000  0.09310000  1.0 0.1206884452
H  H15  1  0.72860000  0.35140000  0.07020000  1.0 0.1206884452
H  H16  1  0.86590000  0.80980000  0.80660000  1.0 0.1206884452
H  H17  1  0.87520000  0.80990000  0.90840000  1.0 0.1361032062
H  H18  1  0.08870000  0.41450000  0.20990000  1.0 0.1361032062
H  H19  1  0.80100000  0.45960000  0.19420000  1.0 0.1206884452
H  H20  1  0.99730000  0.61210000  0.22180000  1.0 0.1361032062
H  H21  1  0.78630000  0.84620000  0.98960000  1.0 0.1206884452
H  H22  1  0.73120000  0.14940000  0.77530000  1.0 0.1126550696
H  H23  1  0.75080000  0.35070000  0.97250000  1.0 0.1264765122
H  H24  1  0.72500000  0.14870000  0.87980000  1.0 0.1361032062
H  H25  1  0.33000000  0.49500000  0.73600000  1.0 0.3287803391
H  H26  1  0.72150000  0.85100000  0.59310000  1.0 0.1206884452
H  H27  1  0.77140000  0.35140000  0.57020000  1.0 0.1206884452
H  H28  1  0.63410000  0.80980000  0.30660000  1.0 0.1206884452
H  H29  1  0.62480000  0.80990000  0.40840000  1.0 0.1361032062
H  H30  1  0.41130000  0.41450000  0.70990000  1.0 0.1361032062
H  H31  1  0.69900000  0.45960000  0.69420000  1.0 0.1206884452
H  H32  1  0.50270000  0.61210000  0.72180000  1.0 0.1361032062
H  H33  1  0.71370000  0.84620000  0.48960000  1.0 0.1206884452
H  H34  1  0.76880000  0.14940000  0.27530000  1.0 0.1126550696
H  H35  1  0.74920000  0.35070000  0.47250000  1.0 0.1264765122
H  H36  1  0.77500000  0.14870000  0.37980000  1.0 0.1361032062
H  H37  1  0.17000000  0.00500000  0.73600000  1.0 0.3287803391
H  H38  1  0.77850000  0.64900000  0.59310000  1.0 0.1206884452
H  H39  1  0.72860000  0.14860000  0.57020000  1.0 0.1206884452
H  H40  1  0.86590000  0.69020000  0.30660000  1.0 0.1206884452
H  H41  1  0.87520000  0.69010000  0.40840000  1.0 0.1361032062
H  H42  1  0.08870000  0.08550000  0.70990000  1.0 0.1361032062
H  H43  1  0.80100000  0.04040000  0.69420000  1.0 0.1206884452
H  H44  1  0.99730000  0.88790000  0.72180000  1.0 0.1361032062
H  H45  1  0.78630000  0.65380000  0.48960000  1.0 0.1206884452
H  H46  1  0.73120000  0.35060000  0.27530000  1.0 0.1126550696
H  H47  1  0.75080000  0.14930000  0.47250000  1.0 0.1264765122
H  H48  1  0.72500000  0.35130000  0.37980000  1.0 0.1361032062
H  H49  1  0.67000000  0.50500000  0.26400000  1.0 0.3287803391
H  H50  1  0.27850000  0.14900000  0.40690000  1.0 0.1206884452
H  H51  1  0.22860000  0.64860000  0.42980000  1.0 0.1206884452
H  H52  1  0.36590000  0.19020000  0.69340000  1.0 0.1206884452
H  H53  1  0.37520000  0.19010000  0.59160000  1.0 0.1361032062
H  H54  1  0.58870000  0.58550000  0.29010000  1.0 0.1361032062
H  H55  1  0.30100000  0.54040000  0.30580000  1.0 0.1206884452
H  H56  1  0.49730000  0.38790000  0.27820000  1.0 0.1361032062
H  H57  1  0.28630000  0.15380000  0.51040000  1.0 0.1206884452
H  H58  1  0.23120000  0.85060000  0.72470000  1.0 0.1126550696
H  H59  1  0.25080000  0.64930000  0.52750000  1.0 0.1264765122
H  H60  1  0.22500000  0.85130000  0.62020000  1.0 0.1361032062
H  H61  1  0.83000000  0.99500000  0.26400000  1.0 0.3287803391
H  H62  1  0.22150000  0.35100000  0.40690000  1.0 0.1206884452
H  H63  1  0.27140000  0.85140000  0.42980000  1.0 0.1206884452
H  H64  1  0.13410000  0.30980000  0.69340000  1.0 0.1206884452
H  H65  1  0.12480000  0.30990000  0.59160000  1.0 0.1361032062
H  H66  1  0.91130000  0.91450000  0.29010000  1.0 0.1361032062
H  H67  1  0.19900000  0.95960000  0.30580000  1.0 0.1206884452
H  H68  1  0.00270000  0.11210000  0.27820000  1.0 0.1361032062
H  H69  1  0.21370000  0.34620000  0.51040000  1.0 0.1206884452
H  H70  1  0.26880000  0.64940000  0.72470000  1.0 0.1126550696
H  H71  1  0.24920000  0.85070000  0.52750000  1.0 0.1264765122
H  H72  1  0.27500000  0.64870000  0.62020000  1.0 0.1361032062
H  H73  1  0.67000000  0.99500000  0.76400000  1.0 0.3287803391
H  H74  1  0.27850000  0.35100000  0.90690000  1.0 0.1206884452
H  H75  1  0.22860000  0.85140000  0.92980000  1.0 0.1206884452
H  H76  1  0.36590000  0.30980000  0.19340000  1.0 0.1206884452
H  H77  1  0.37520000  0.30990000  0.09160000  1.0 0.1361032062
H  H78  1  0.58870000  0.91450000  0.79010000  1.0 0.1361032062
H  H79  1  0.30100000  0.95960000  0.80580000  1.0 0.1206884452
H  H80  1  0.49730000  0.11210000  0.77820000  1.0 0.1361032062
H  H81  1  0.28630000  0.34620000  0.01040000  1.0 0.1206884452
H  H82  1  0.23120000  0.64940000  0.22470000  1.0 0.1126550696
H  H83  1  0.25080000  0.85070000  0.02750000  1.0 0.1264765122
H  H84  1  0.22500000  0.64870000  0.12020000  1.0 0.1361032062
H  H85  1  0.83000000  0.50500000  0.76400000  1.0 0.3287803391
H  H86  1  0.22150000  0.14900000  0.90690000  1.0 0.1206884452
H  H87  1  0.27140000  0.64860000  0.92980000  1.0 0.1206884452
H  H88  1  0.13410000  0.19020000  0.19340000  1.0 0.1206884452
H  H89  1  0.12480000  0.19010000  0.09160000  1.0 0.1361032062
H  H90  1  0.91130000  0.58550000  0.79010000  1.0 0.1361032062
H  H91  1  0.19900000  0.54040000  0.80580000  1.0 0.1206884452
H  H92  1  0.00270000  0.38790000  0.77820000  1.0 0.1361032062
H  H93  1  0.21370000  0.15380000  0.01040000  1.0 0.1206884452
H  H94  1  0.26880000  0.85060000  0.22470000  1.0 0.1126550696
H  H95  1  0.24920000  0.64930000  0.02750000  1.0 0.1264765122
H  H96  1  0.27500000  0.85130000  0.12020000  1.0 0.1361032062
C  C1  1  0.58640000  0.14490000  0.19000000  1.0 0.5433908113
C  C2  1  0.68650000  0.90290000  0.20960000  1.0 0.5279093244
C  C3  1  0.73220000  0.69160000  0.07480000  1.0 0.0732483151
C  C4  1  0.75990000  0.19070000  0.05130000  1.0 0.0732483151
C  C5  1  0.68160000  0.71540000  0.82710000  1.0 0.0887422471
C  C6  1  0.67500000  0.71380000  0.88960000  1.0 -0.182647097
C  C7  1  0.44110000  0.98320000  0.21730000  1.0 0.3287803391
C  C8  1  0.46200000  0.05310000  0.20940000  1.0 -0.2100720807
C  C9  1  0.55860000  0.07450000  0.20070000  1.0 -0.0453210744
C  C10  1  0.63430000  0.02610000  0.20000000  1.0 -0.1055061436
C  C11  1  0.61340000  0.95620000  0.20790000  1.0 -0.0574731352
C  C12  1  0.51680000  0.93470000  0.21660000  1.0 -0.2100720807
C  C13  1  0.72960000  0.69290000  0.01170000  1.0 -0.1555354586
C  C14  1  0.76180000  0.30920000  0.79600000  1.0 0.1126550696
C  C15  1  0.75280000  0.19300000  0.98990000  1.0 -0.2026095382
C  C16  1  0.76400000  0.31010000  0.85940000  1.0 -0.1730889222
C  C17  1  0.91360000  0.35510000  0.19000000  1.0 0.5433908113
C  C18  1  0.81350000  0.59710000  0.20960000  1.0 0.5279093244
C  C19  1  0.76780000  0.80840000  0.07480000  1.0 0.0732483151
C  C20  1  0.74010000  0.30930000  0.05130000  1.0 0.0732483151
C  C21  1  0.81840000  0.78460000  0.82710000  1.0 0.0887422471
C  C22  1  0.82500000  0.78620000  0.88960000  1.0 -0.182647097
C  C23  1  0.05890000  0.51680000  0.21730000  1.0 0.3287803391
C  C24  1  0.03800000  0.44690000  0.20940000  1.0 -0.2100720807
C  C25  1  0.94140000  0.42550000  0.20070000  1.0 -0.0453210744
C  C26  1  0.86570000  0.47390000  0.20000000  1.0 -0.1055061436
C  C27  1  0.88660000  0.54380000  0.20790000  1.0 -0.0574731352
C  C28  1  0.98320000  0.56530000  0.21660000  1.0 -0.2100720807
C  C29  1  0.77040000  0.80710000  0.01170000  1.0 -0.1555354586
C  C30  1  0.73820000  0.19080000  0.79600000  1.0 0.1126550696
C  C31  1  0.74720000  0.30700000  0.98990000  1.0 -0.2026095382
C  C32  1  0.73600000  0.18990000  0.85940000  1.0 -0.1730889222
C  C33  1  0.58640000  0.35510000  0.69000000  1.0 0.5433908113
C  C34  1  0.68650000  0.59710000  0.70960000  1.0 0.5279093244
C  C35  1  0.73220000  0.80840000  0.57480000  1.0 0.0732483151
C  C36  1  0.75990000  0.30930000  0.55130000  1.0 0.0732483151
C  C37  1  0.68160000  0.78460000  0.32710000  1.0 0.0887422471
C  C38  1  0.67500000  0.78620000  0.38960000  1.0 -0.182647097
C  C39  1  0.44110000  0.51680000  0.71730000  1.0 0.3287803391
C  C40  1  0.46200000  0.44690000  0.70940000  1.0 -0.2100720807
C  C41  1  0.55860000  0.42550000  0.70070000  1.0 -0.0453210744
C  C42  1  0.63430000  0.47390000  0.70000000  1.0 -0.1055061436
C  C43  1  0.61340000  0.54380000  0.70790000  1.0 -0.0574731352
C  C44  1  0.51680000  0.56530000  0.71660000  1.0 -0.2100720807
C  C45  1  0.72960000  0.80710000  0.51170000  1.0 -0.1555354586
C  C46  1  0.76180000  0.19080000  0.29600000  1.0 0.1126550696
C  C47  1  0.75280000  0.30700000  0.48990000  1.0 -0.2026095382
C  C48  1  0.76400000  0.18990000  0.35940000  1.0 -0.1730889222
C  C49  1  0.91360000  0.14490000  0.69000000  1.0 0.5433908113
C  C50  1  0.81350000  0.90290000  0.70960000  1.0 0.5279093244
C  C51  1  0.76780000  0.69160000  0.57480000  1.0 0.0732483151
C  C52  1  0.74010000  0.19070000  0.55130000  1.0 0.0732483151
C  C53  1  0.81840000  0.71540000  0.32710000  1.0 0.0887422471
C  C54  1  0.82500000  0.71380000  0.38960000  1.0 -0.182647097
C  C55  1  0.05890000  0.98320000  0.71730000  1.0 0.3287803391
C  C56  1  0.03800000  0.05310000  0.70940000  1.0 -0.2100720807
C  C57  1  0.94140000  0.07450000  0.70070000  1.0 -0.0453210744
C  C58  1  0.86570000  0.02610000  0.70000000  1.0 -0.1055061436
C  C59  1  0.88660000  0.95620000  0.70790000  1.0 -0.0574731352
C  C60  1  0.98320000  0.93470000  0.71660000  1.0 -0.2100720807
C  C61  1  0.77040000  0.69290000  0.51170000  1.0 -0.1555354586
C  C62  1  0.73820000  0.30920000  0.29600000  1.0 0.1126550696
C  C63  1  0.74720000  0.19300000  0.48990000  1.0 -0.2026095382
C  C64  1  0.73600000  0.31010000  0.35940000  1.0 -0.1730889222
C  C65  1  0.75000000  0.75000000  0.98740000  1.0 0.0495803142
C  C66  1  0.75000000  0.75000000  0.92380000  1.0 0.076434073
C  C67  1  0.75000000  0.75000000  0.48740000  1.0 0.0495803142
C  C68  1  0.75000000  0.75000000  0.42380000  1.0 0.076434073
C  C69  1  0.75000000  0.25000000  0.94670000  1.0 0.0495803142
C  C70  1  0.75000000  0.25000000  0.88950000  1.0 0.0887422471
C  C71  1  0.75000000  0.25000000  0.44670000  1.0 0.0495803142
C  C72  1  0.75000000  0.25000000  0.38950000  1.0 0.0887422471
C  C73  1  0.41360000  0.64490000  0.31000000  1.0 0.5433908113
C  C74  1  0.31350000  0.40290000  0.29040000  1.0 0.5279093244
C  C75  1  0.26780000  0.19160000  0.42520000  1.0 0.0732483151
C  C76  1  0.24010000  0.69070000  0.44870000  1.0 0.0732483151
C  C77  1  0.31840000  0.21540000  0.67290000  1.0 0.0887422471
C  C78  1  0.32500000  0.21380000  0.61040000  1.0 -0.182647097
C  C79  1  0.55890000  0.48320000  0.28270000  1.0 0.3287803391
C  C80  1  0.53800000  0.55310000  0.29060000  1.0 -0.2100720807
C  C81  1  0.44140000  0.57450000  0.29930000  1.0 -0.0453210744
C  C82  1  0.36570000  0.52610000  0.30000000  1.0 -0.1055061436
C  C83  1  0.38660000  0.45620000  0.29210000  1.0 -0.0574731352
C  C84  1  0.48320000  0.43470000  0.28340000  1.0 -0.2100720807
C  C85  1  0.27040000  0.19290000  0.48830000  1.0 -0.1555354586
C  C86  1  0.23820000  0.80920000  0.70400000  1.0 0.1126550696
C  C87  1  0.24720000  0.69300000  0.51010000  1.0 -0.2026095382
C  C88  1  0.23600000  0.81010000  0.64060000  1.0 -0.1730889222
C  C89  1  0.08640000  0.85510000  0.31000000  1.0 0.5433908113
C  C90  1  0.18650000  0.09710000  0.29040000  1.0 0.5279093244
C  C91  1  0.23220000  0.30840000  0.42520000  1.0 0.0732483151
C  C92  1  0.25990000  0.80930000  0.44870000  1.0 0.0732483151
C  C93  1  0.18160000  0.28460000  0.67290000  1.0 0.0887422471
C  C94  1  0.17500000  0.28620000  0.61040000  1.0 -0.182647097
C  C95  1  0.94110000  0.01680000  0.28270000  1.0 0.3287803391
C  C96  1  0.96200000  0.94690000  0.29060000  1.0 -0.2100720807
C  C97  1  0.05860000  0.92550000  0.29930000  1.0 -0.0453210744
C  C98  1  0.13430000  0.97390000  0.30000000  1.0 -0.1055061436
C  C99  1  0.11340000  0.04380000  0.29210000  1.0 -0.0574731352
C  C100  1  0.01680000  0.06530000  0.28340000  1.0 -0.2100720807
C  C101  1  0.22960000  0.30710000  0.48830000  1.0 -0.1555354586
C  C102  1  0.26180000  0.69080000  0.70400000  1.0 0.1126550696
C  C103  1  0.25280000  0.80700000  0.51010000  1.0 -0.2026095382
C  C104  1  0.26400000  0.68990000  0.64060000  1.0 -0.1730889222
C  C105  1  0.41360000  0.85510000  0.81000000  1.0 0.5433908113
C  C106  1  0.31350000  0.09710000  0.79040000  1.0 0.5279093244
C  C107  1  0.26780000  0.30840000  0.92520000  1.0 0.0732483151
C  C108  1  0.24010000  0.80930000  0.94870000  1.0 0.0732483151
C  C109  1  0.31840000  0.28460000  0.17290000  1.0 0.0887422471
C  C110  1  0.32500000  0.28620000  0.11040000  1.0 -0.182647097
C  C111  1  0.55890000  0.01680000  0.78270000  1.0 0.3287803391
C  C112  1  0.53800000  0.94690000  0.79060000  1.0 -0.2100720807
C  C113  1  0.44140000  0.92550000  0.79930000  1.0 -0.0453210744
C  C114  1  0.36570000  0.97390000  0.80000000  1.0 -0.1055061436
C  C115  1  0.38660000  0.04380000  0.79210000  1.0 -0.0574731352
C  C116  1  0.48320000  0.06530000  0.78340000  1.0 -0.2100720807
C  C117  1  0.27040000  0.30710000  0.98830000  1.0 -0.1555354586
C  C118  1  0.23820000  0.69080000  0.20400000  1.0 0.1126550696
C  C119  1  0.24720000  0.80700000  0.01010000  1.0 -0.2026095382
C  C120  1  0.23600000  0.68990000  0.14060000  1.0 -0.1730889222
C  C121  1  0.08640000  0.64490000  0.81000000  1.0 0.5433908113
C  C122  1  0.18650000  0.40290000  0.79040000  1.0 0.5279093244
C  C123  1  0.23220000  0.19160000  0.92520000  1.0 0.0732483151
C  C124  1  0.25990000  0.69070000  0.94870000  1.0 0.0732483151
C  C125  1  0.18160000  0.21540000  0.17290000  1.0 0.0887422471
C  C126  1  0.17500000  0.21380000  0.11040000  1.0 -0.182647097
C  C127  1  0.94110000  0.48320000  0.78270000  1.0 0.3287803391
C  C128  1  0.96200000  0.55310000  0.79060000  1.0 -0.2100720807
C  C129  1  0.05860000  0.57450000  0.79930000  1.0 -0.0453210744
C  C130  1  0.13430000  0.52610000  0.80000000  1.0 -0.1055061436
C  C131  1  0.11340000  0.45620000  0.79210000  1.0 -0.0574731352
C  C132  1  0.01680000  0.43470000  0.78340000  1.0 -0.2100720807
C  C133  1  0.22960000  0.19290000  0.98830000  1.0 -0.1555354586
C  C134  1  0.26180000  0.80920000  0.20400000  1.0 0.1126550696
C  C135  1  0.25280000  0.69300000  0.01010000  1.0 -0.2026095382
C  C136  1  0.26400000  0.81010000  0.14060000  1.0 -0.1730889222
C  C137  1  0.25000000  0.25000000  0.51260000  1.0 0.0495803142
C  C138  1  0.25000000  0.25000000  0.57620000  1.0 0.076434073
C  C139  1  0.25000000  0.25000000  0.01260000  1.0 0.0495803142
C  C140  1  0.25000000  0.25000000  0.07620000  1.0 0.076434073
C  C141  1  0.25000000  0.75000000  0.55330000  1.0 0.0495803142
C  C142  1  0.25000000  0.75000000  0.61050000  1.0 0.0887422471
C  C143  1  0.25000000  0.75000000  0.05330000  1.0 0.0495803142
C  C144  1  0.25000000  0.75000000  0.11050000  1.0 0.0887422471
N  N1  1  0.75000000  0.75000000  0.79320000  1.0 -0.2241372365
N  N2  1  0.75000000  0.75000000  0.11300000  1.0 -0.2859900734
N  N3  1  0.75000000  0.75000000  0.29320000  1.0 -0.2241372365
N  N4  1  0.75000000  0.75000000  0.61300000  1.0 -0.2859900734
N  N5  1  0.75000000  0.25000000  0.76570000  1.0 -0.2100720807
N  N6  1  0.75000000  0.25000000  0.08470000  1.0 -0.2241372365
N  N7  1  0.75000000  0.25000000  0.26570000  1.0 -0.2100720807
N  N8  1  0.75000000  0.25000000  0.58470000  1.0 -0.2241372365
N  N9  1  0.25000000  0.25000000  0.70680000  1.0 -0.2241372365
N  N10  1  0.25000000  0.25000000  0.38700000  1.0 -0.2859900734
N  N11  1  0.25000000  0.25000000  0.20680000  1.0 -0.2241372365
N  N12  1  0.25000000  0.25000000  0.88700000  1.0 -0.2859900734
N  N13  1  0.25000000  0.75000000  0.73430000  1.0 -0.2100720807
N  N14  1  0.25000000  0.75000000  0.41530000  1.0 -0.2241372365
N  N15  1  0.25000000  0.75000000  0.23430000  1.0 -0.2100720807
N  N16  1  0.25000000  0.75000000  0.91530000  1.0 -0.2241372365
O  O1  1  0.67680000  0.15820000  0.17490000  1.0 -0.5536475918
O  O2  1  0.66390000  0.83560000  0.20690000  1.0 -0.5287799231
O  O3  1  0.52840000  0.19590000  0.20070000  1.0 -0.5650025747
O  O4  1  0.35530000  0.96700000  0.22990000  1.0 -0.3406393072
O  O5  1  0.77510000  0.91640000  0.20450000  1.0 -0.5287799231
O  O6  1  0.82320000  0.34180000  0.17490000  1.0 -0.5536475918
O  O7  1  0.83610000  0.66440000  0.20690000  1.0 -0.5287799231
O  O8  1  0.97160000  0.30410000  0.20070000  1.0 -0.5650025747
O  O9  1  0.14470000  0.53300000  0.22990000  1.0 -0.3406393072
O  O10  1  0.72490000  0.58360000  0.20450000  1.0 -0.5287799231
O  O11  1  0.67680000  0.34180000  0.67490000  1.0 -0.5536475918
O  O12  1  0.66390000  0.66440000  0.70690000  1.0 -0.5287799231
O  O13  1  0.52840000  0.30410000  0.70070000  1.0 -0.5650025747
O  O14  1  0.35530000  0.53300000  0.72990000  1.0 -0.3406393072
O  O15  1  0.77510000  0.58360000  0.70450000  1.0 -0.5287799231
O  O16  1  0.82320000  0.15820000  0.67490000  1.0 -0.5536475918
O  O17  1  0.83610000  0.83560000  0.70690000  1.0 -0.5287799231
O  O18  1  0.97160000  0.19590000  0.70070000  1.0 -0.5650025747
O  O19  1  0.14470000  0.96700000  0.72990000  1.0 -0.3406393072
O  O20  1  0.72490000  0.91640000  0.70450000  1.0 -0.5287799231
O  O21  1  0.32320000  0.65820000  0.32510000  1.0 -0.5536475918
O  O22  1  0.33610000  0.33560000  0.29310000  1.0 -0.5287799231
O  O23  1  0.47160000  0.69590000  0.29930000  1.0 -0.5650025747
O  O24  1  0.64470000  0.46700000  0.27010000  1.0 -0.3406393072
O  O25  1  0.22490000  0.41640000  0.29550000  1.0 -0.5287799231
O  O26  1  0.17680000  0.84180000  0.32510000  1.0 -0.5536475918
O  O27  1  0.16390000  0.16440000  0.29310000  1.0 -0.5287799231
O  O28  1  0.02840000  0.80410000  0.29930000  1.0 -0.5650025747
O  O29  1  0.85530000  0.03300000  0.27010000  1.0 -0.3406393072
O  O30  1  0.27510000  0.08360000  0.29550000  1.0 -0.5287799231
O  O31  1  0.32320000  0.84180000  0.82510000  1.0 -0.5536475918
O  O32  1  0.33610000  0.16440000  0.79310000  1.0 -0.5287799231
O  O33  1  0.47160000  0.80410000  0.79930000  1.0 -0.5650025747
O  O34  1  0.64470000  0.03300000  0.77010000  1.0 -0.3406393072
O  O35  1  0.22490000  0.08360000  0.79550000  1.0 -0.5287799231
O  O36  1  0.17680000  0.65820000  0.82510000  1.0 -0.5536475918
O  O37  1  0.16390000  0.33560000  0.79310000  1.0 -0.5287799231
O  O38  1  0.02840000  0.69590000  0.79930000  1.0 -0.5650025747
O  O39  1  0.85530000  0.46700000  0.77010000  1.0 -0.3406393072
O  O40  1  0.27510000  0.41640000  0.79550000  1.0 -0.5287799231
