# DDEC6 charges by PACMAN v1.1 (https://github.com/mtap-research/PACMAN-charge/)
data_QEQXUI03_ASR_pacman
_symmetry_space_group_name_H-M   'P 1'
_cell_length_a   13.23500000
_cell_length_b   19.24800000
_cell_length_c   22.45900000
_cell_angle_alpha   90.00000000
_cell_angle_beta   90.00000000
_cell_angle_gamma   90.00000000
_symmetry_Int_Tables_number   1
_chemical_formula_structural   NiH12C18N2O5
_chemical_formula_sum   'Ni8 H96 C144 N16 O40'
_cell_volume   5721.36916152
_cell_formula_units_Z   8
loop_
 _symmetry_equiv_pos_site_id
 _symmetry_equiv_pos_as_xyz
  1  'x, y, z'
loop_
 _atom_site_type_symbol
 _atom_site_label
 _atom_site_symmetry_multiplicity
 _atom_site_fract_x
 _atom_site_fract_y
 _atom_site_fract_z
 _atom_site_occupancy
 _atom_site_charge
Ni  Ni1  1  0.75000000  0.75000000  0.21301000  1.0 0.5916534565
Ni  Ni2  1  0.75000000  0.75000000  0.71301000  1.0 0.5916534565
Ni  Ni3  1  0.75000000  0.25000000  0.16432000  1.0 0.5522182337
Ni  Ni4  1  0.75000000  0.25000000  0.66432000  1.0 0.5522182337
Ni  Ni5  1  0.25000000  0.25000000  0.28699000  1.0 0.5916534565
Ni  Ni6  1  0.25000000  0.25000000  0.78699000  1.0 0.5916534565
Ni  Ni7  1  0.25000000  0.75000000  0.33568000  1.0 0.5522182337
Ni  Ni8  1  0.25000000  0.75000000  0.83568000  1.0 0.5522182337
H  H1  1  0.31720000  0.99590000  0.24290000  1.0 0.3397642351
H  H2  1  0.69770000  0.04160000  0.19180000  1.0 0.120984822
H  H3  1  0.40080000  0.08520000  0.19560000  1.0 0.1404302209
H  H4  1  0.49590000  0.88870000  0.21820000  1.0 0.1404302209
H  H5  1  0.76730000  0.14830000  0.06440000  1.0 0.120984822
H  H6  1  0.62250000  0.69970000  0.81030000  1.0 0.120984822
H  H7  1  0.62030000  0.69400000  0.91100000  1.0 0.1404302209
H  H8  1  0.78940000  0.35230000  0.86880000  1.0 0.1289092884
H  H9  1  0.78670000  0.34950000  0.77000000  1.0 0.111860527
H  H10  1  0.76890000  0.14840000  0.96080000  1.0 0.1289092884
H  H11  1  0.66870000  0.66550000  0.99490000  1.0 0.120984822
H  H12  1  0.67200000  0.66350000  0.09890000  1.0 0.120984822
H  H13  1  0.18280000  0.50410000  0.24290000  1.0 0.3397642351
H  H14  1  0.80230000  0.45840000  0.19180000  1.0 0.120984822
H  H15  1  0.09920000  0.41480000  0.19560000  1.0 0.1404302209
H  H16  1  0.00410000  0.61130000  0.21820000  1.0 0.1404302209
H  H17  1  0.73270000  0.35170000  0.06440000  1.0 0.120984822
H  H18  1  0.87750000  0.80030000  0.81030000  1.0 0.120984822
H  H19  1  0.87970000  0.80600000  0.91100000  1.0 0.1404302209
H  H20  1  0.71060000  0.14770000  0.86880000  1.0 0.1289092884
H  H21  1  0.71330000  0.15050000  0.77000000  1.0 0.111860527
H  H22  1  0.73110000  0.35160000  0.96080000  1.0 0.1289092884
H  H23  1  0.83130000  0.83450000  0.99490000  1.0 0.120984822
H  H24  1  0.82800000  0.83650000  0.09890000  1.0 0.120984822
H  H25  1  0.31720000  0.50410000  0.74290000  1.0 0.3397642351
H  H26  1  0.69770000  0.45840000  0.69180000  1.0 0.120984822
H  H27  1  0.40080000  0.41480000  0.69560000  1.0 0.1404302209
H  H28  1  0.49590000  0.61130000  0.71820000  1.0 0.1404302209
H  H29  1  0.76730000  0.35170000  0.56440000  1.0 0.120984822
H  H30  1  0.62250000  0.80030000  0.31030000  1.0 0.120984822
H  H31  1  0.62030000  0.80600000  0.41100000  1.0 0.1404302209
H  H32  1  0.78940000  0.14770000  0.36880000  1.0 0.1289092884
H  H33  1  0.78670000  0.15050000  0.27000000  1.0 0.111860527
H  H34  1  0.76890000  0.35160000  0.46080000  1.0 0.1289092884
H  H35  1  0.66870000  0.83450000  0.49490000  1.0 0.120984822
H  H36  1  0.67200000  0.83650000  0.59890000  1.0 0.120984822
H  H37  1  0.18280000  0.99590000  0.74290000  1.0 0.3397642351
H  H38  1  0.80230000  0.04160000  0.69180000  1.0 0.120984822
H  H39  1  0.09920000  0.08520000  0.69560000  1.0 0.1404302209
H  H40  1  0.00410000  0.88870000  0.71820000  1.0 0.1404302209
H  H41  1  0.73270000  0.14830000  0.56440000  1.0 0.120984822
H  H42  1  0.87750000  0.69970000  0.31030000  1.0 0.120984822
H  H43  1  0.87970000  0.69400000  0.41100000  1.0 0.1404302209
H  H44  1  0.71060000  0.35230000  0.36880000  1.0 0.1289092884
H  H45  1  0.71330000  0.34950000  0.27000000  1.0 0.111860527
H  H46  1  0.73110000  0.14840000  0.46080000  1.0 0.1289092884
H  H47  1  0.83130000  0.66550000  0.49490000  1.0 0.120984822
H  H48  1  0.82800000  0.66350000  0.59890000  1.0 0.120984822
H  H49  1  0.68280000  0.49590000  0.25710000  1.0 0.3397642351
H  H50  1  0.30230000  0.54160000  0.30820000  1.0 0.120984822
H  H51  1  0.59920000  0.58520000  0.30440000  1.0 0.1404302209
H  H52  1  0.50410000  0.38870000  0.28180000  1.0 0.1404302209
H  H53  1  0.23270000  0.64830000  0.43560000  1.0 0.120984822
H  H54  1  0.37750000  0.19970000  0.68970000  1.0 0.120984822
H  H55  1  0.37970000  0.19400000  0.58900000  1.0 0.1404302209
H  H56  1  0.21060000  0.85230000  0.63120000  1.0 0.1289092884
H  H57  1  0.21330000  0.84950000  0.73000000  1.0 0.111860527
H  H58  1  0.23110000  0.64840000  0.53920000  1.0 0.1289092884
H  H59  1  0.33130000  0.16550000  0.50510000  1.0 0.120984822
H  H60  1  0.32800000  0.16350000  0.40110000  1.0 0.120984822
H  H61  1  0.81720000  0.00410000  0.25710000  1.0 0.3397642351
H  H62  1  0.19770000  0.95840000  0.30820000  1.0 0.120984822
H  H63  1  0.90080000  0.91480000  0.30440000  1.0 0.1404302209
H  H64  1  0.99590000  0.11130000  0.28180000  1.0 0.1404302209
H  H65  1  0.26730000  0.85170000  0.43560000  1.0 0.120984822
H  H66  1  0.12250000  0.30030000  0.68970000  1.0 0.120984822
H  H67  1  0.12030000  0.30600000  0.58900000  1.0 0.1404302209
H  H68  1  0.28940000  0.64770000  0.63120000  1.0 0.1289092884
H  H69  1  0.28670000  0.65050000  0.73000000  1.0 0.111860527
H  H70  1  0.26890000  0.85160000  0.53920000  1.0 0.1289092884
H  H71  1  0.16870000  0.33450000  0.50510000  1.0 0.120984822
H  H72  1  0.17200000  0.33650000  0.40110000  1.0 0.120984822
H  H73  1  0.68280000  0.00410000  0.75710000  1.0 0.3397642351
H  H74  1  0.30230000  0.95840000  0.80820000  1.0 0.120984822
H  H75  1  0.59920000  0.91480000  0.80440000  1.0 0.1404302209
H  H76  1  0.50410000  0.11130000  0.78180000  1.0 0.1404302209
H  H77  1  0.23270000  0.85170000  0.93560000  1.0 0.120984822
H  H78  1  0.37750000  0.30030000  0.18970000  1.0 0.120984822
H  H79  1  0.37970000  0.30600000  0.08900000  1.0 0.1404302209
H  H80  1  0.21060000  0.64770000  0.13120000  1.0 0.1289092884
H  H81  1  0.21330000  0.65050000  0.23000000  1.0 0.111860527
H  H82  1  0.23110000  0.85160000  0.03920000  1.0 0.1289092884
H  H83  1  0.33130000  0.33450000  0.00510000  1.0 0.120984822
H  H84  1  0.32800000  0.33650000  0.90110000  1.0 0.120984822
H  H85  1  0.81720000  0.49590000  0.75710000  1.0 0.3397642351
H  H86  1  0.19770000  0.54160000  0.80820000  1.0 0.120984822
H  H87  1  0.90080000  0.58520000  0.80440000  1.0 0.1404302209
H  H88  1  0.99590000  0.38870000  0.78180000  1.0 0.1404302209
H  H89  1  0.26730000  0.64830000  0.93560000  1.0 0.120984822
H  H90  1  0.12250000  0.19970000  0.18970000  1.0 0.120984822
H  H91  1  0.12030000  0.19400000  0.08900000  1.0 0.1404302209
H  H92  1  0.28940000  0.85230000  0.13120000  1.0 0.1289092884
H  H93  1  0.28670000  0.84950000  0.23000000  1.0 0.111860527
H  H94  1  0.26890000  0.64840000  0.03920000  1.0 0.1289092884
H  H95  1  0.16870000  0.16550000  0.00510000  1.0 0.120984822
H  H96  1  0.17200000  0.16350000  0.90110000  1.0 0.120984822
C  C1  1  0.63100000  0.02700000  0.19590000  1.0 -0.1527207107
C  C2  1  0.55300000  0.07490000  0.19210000  1.0 0.0144911683
C  C3  1  0.45300000  0.05310000  0.19810000  1.0 -0.2434975454
C  C4  1  0.43200000  0.98330000  0.20790000  1.0 0.3397642351
C  C5  1  0.51000000  0.93540000  0.21160000  1.0 -0.2472978332
C  C6  1  0.61000000  0.95720000  0.20560000  1.0 -0.0228272868
C  C7  1  0.58300000  0.14840000  0.18020000  1.0 0.5394146196
C  C8  1  0.68200000  0.89970000  0.21520000  1.0 0.5332623175
C  C9  1  0.76000000  0.19110000  0.04570000  1.0 0.0522179171
C  C10  1  0.67480000  0.71970000  0.83210000  1.0 0.111860527
C  C11  1  0.67200000  0.71710000  0.89160000  1.0 -0.194111953
C  C12  1  0.77300000  0.31050000  0.85040000  1.0 -0.1767529049
C  C13  1  0.77100000  0.30750000  0.78840000  1.0 0.0348314843
C  C14  1  0.76100000  0.19000000  0.98120000  1.0 -0.1685603173
C  C15  1  0.70300000  0.70000000  0.01580000  1.0 -0.1767529049
C  C16  1  0.70400000  0.69970000  0.07900000  1.0 0.0910564992
C  C17  1  0.86900000  0.47300000  0.19590000  1.0 -0.1527207107
C  C18  1  0.94700000  0.42510000  0.19210000  1.0 0.0144911683
C  C19  1  0.04700000  0.44690000  0.19810000  1.0 -0.2434975454
C  C20  1  0.06800000  0.51670000  0.20790000  1.0 0.3397642351
C  C21  1  0.99000000  0.56460000  0.21160000  1.0 -0.2472978332
C  C22  1  0.89000000  0.54280000  0.20560000  1.0 -0.0228272868
C  C23  1  0.91700000  0.35160000  0.18020000  1.0 0.5394146196
C  C24  1  0.81800000  0.60030000  0.21520000  1.0 0.5332623175
C  C25  1  0.74000000  0.30890000  0.04570000  1.0 0.0522179171
C  C26  1  0.82520000  0.78030000  0.83210000  1.0 0.111860527
C  C27  1  0.82800000  0.78290000  0.89160000  1.0 -0.194111953
C  C28  1  0.72700000  0.18950000  0.85040000  1.0 -0.1767529049
C  C29  1  0.72900000  0.19250000  0.78840000  1.0 0.0348314843
C  C30  1  0.73900000  0.31000000  0.98120000  1.0 -0.1685603173
C  C31  1  0.79700000  0.80000000  0.01580000  1.0 -0.1767529049
C  C32  1  0.79600000  0.80030000  0.07900000  1.0 0.0910564992
C  C33  1  0.63100000  0.47300000  0.69590000  1.0 -0.1527207107
C  C34  1  0.55300000  0.42510000  0.69210000  1.0 0.0144911683
C  C35  1  0.45300000  0.44690000  0.69810000  1.0 -0.2434975454
C  C36  1  0.43200000  0.51670000  0.70790000  1.0 0.3397642351
C  C37  1  0.51000000  0.56460000  0.71160000  1.0 -0.2472978332
C  C38  1  0.61000000  0.54280000  0.70560000  1.0 -0.0228272868
C  C39  1  0.58300000  0.35160000  0.68020000  1.0 0.5394146196
C  C40  1  0.68200000  0.60030000  0.71520000  1.0 0.5332623175
C  C41  1  0.76000000  0.30890000  0.54570000  1.0 0.0522179171
C  C42  1  0.67480000  0.78030000  0.33210000  1.0 0.111860527
C  C43  1  0.67200000  0.78290000  0.39160000  1.0 -0.194111953
C  C44  1  0.77300000  0.18950000  0.35040000  1.0 -0.1767529049
C  C45  1  0.77100000  0.19250000  0.28840000  1.0 0.0348314843
C  C46  1  0.76100000  0.31000000  0.48120000  1.0 -0.1685603173
C  C47  1  0.70300000  0.80000000  0.51580000  1.0 -0.1767529049
C  C48  1  0.70400000  0.80030000  0.57900000  1.0 0.0910564992
C  C49  1  0.86900000  0.02700000  0.69590000  1.0 -0.1527207107
C  C50  1  0.94700000  0.07490000  0.69210000  1.0 0.0144911683
C  C51  1  0.04700000  0.05310000  0.69810000  1.0 -0.2434975454
C  C52  1  0.06800000  0.98330000  0.70790000  1.0 0.3397642351
C  C53  1  0.99000000  0.93540000  0.71160000  1.0 -0.2472978332
C  C54  1  0.89000000  0.95720000  0.70560000  1.0 -0.0228272868
C  C55  1  0.91700000  0.14840000  0.68020000  1.0 0.5394146196
C  C56  1  0.81800000  0.89970000  0.71520000  1.0 0.5332623175
C  C57  1  0.74000000  0.19110000  0.54570000  1.0 0.0522179171
C  C58  1  0.82520000  0.71970000  0.33210000  1.0 0.111860527
C  C59  1  0.82800000  0.71710000  0.39160000  1.0 -0.194111953
C  C60  1  0.72700000  0.31050000  0.35040000  1.0 -0.1767529049
C  C61  1  0.72900000  0.30750000  0.28840000  1.0 0.0348314843
C  C62  1  0.73900000  0.19000000  0.48120000  1.0 -0.1685603173
C  C63  1  0.79700000  0.70000000  0.51580000  1.0 -0.1767529049
C  C64  1  0.79600000  0.69970000  0.57900000  1.0 0.0910564992
C  C65  1  0.75000000  0.75000000  0.98710000  1.0 0.0800415887
C  C66  1  0.75000000  0.75000000  0.92510000  1.0 0.111860527
C  C67  1  0.75000000  0.75000000  0.48710000  1.0 0.0800415887
C  C68  1  0.75000000  0.75000000  0.42510000  1.0 0.111860527
C  C69  1  0.75000000  0.25000000  0.95150000  1.0 0.0674003712
C  C70  1  0.75000000  0.25000000  0.88760000  1.0 0.0910564992
C  C71  1  0.75000000  0.25000000  0.45150000  1.0 0.0674003712
C  C72  1  0.75000000  0.25000000  0.38760000  1.0 0.0910564992
C  C73  1  0.36900000  0.52700000  0.30410000  1.0 -0.1527207107
C  C74  1  0.44700000  0.57490000  0.30790000  1.0 0.0144911683
C  C75  1  0.54700000  0.55310000  0.30190000  1.0 -0.2434975454
C  C76  1  0.56800000  0.48330000  0.29210000  1.0 0.3397642351
C  C77  1  0.49000000  0.43540000  0.28840000  1.0 -0.2472978332
C  C78  1  0.39000000  0.45720000  0.29440000  1.0 -0.0228272868
C  C79  1  0.41700000  0.64840000  0.31980000  1.0 0.5394146196
C  C80  1  0.31800000  0.39970000  0.28480000  1.0 0.5332623175
C  C81  1  0.24000000  0.69110000  0.45430000  1.0 0.0522179171
C  C82  1  0.32520000  0.21970000  0.66790000  1.0 0.111860527
C  C83  1  0.32800000  0.21710000  0.60840000  1.0 -0.194111953
C  C84  1  0.22700000  0.81050000  0.64960000  1.0 -0.1767529049
C  C85  1  0.22900000  0.80750000  0.71160000  1.0 0.0348314843
C  C86  1  0.23900000  0.69000000  0.51880000  1.0 -0.1685603173
C  C87  1  0.29700000  0.20000000  0.48420000  1.0 -0.1767529049
C  C88  1  0.29600000  0.19970000  0.42100000  1.0 0.0910564992
C  C89  1  0.13100000  0.97300000  0.30410000  1.0 -0.1527207107
C  C90  1  0.05300000  0.92510000  0.30790000  1.0 0.0144911683
C  C91  1  0.95300000  0.94690000  0.30190000  1.0 -0.2434975454
C  C92  1  0.93200000  0.01670000  0.29210000  1.0 0.3397642351
C  C93  1  0.01000000  0.06460000  0.28840000  1.0 -0.2472978332
C  C94  1  0.11000000  0.04280000  0.29440000  1.0 -0.0228272868
C  C95  1  0.08300000  0.85160000  0.31980000  1.0 0.5394146196
C  C96  1  0.18200000  0.10030000  0.28480000  1.0 0.5332623175
C  C97  1  0.26000000  0.80890000  0.45430000  1.0 0.0522179171
C  C98  1  0.17480000  0.28030000  0.66790000  1.0 0.111860527
C  C99  1  0.17200000  0.28290000  0.60840000  1.0 -0.194111953
C  C100  1  0.27300000  0.68950000  0.64960000  1.0 -0.1767529049
C  C101  1  0.27100000  0.69250000  0.71160000  1.0 0.0348314843
C  C102  1  0.26100000  0.81000000  0.51880000  1.0 -0.1685603173
C  C103  1  0.20300000  0.30000000  0.48420000  1.0 -0.1767529049
C  C104  1  0.20400000  0.30030000  0.42100000  1.0 0.0910564992
C  C105  1  0.36900000  0.97300000  0.80410000  1.0 -0.1527207107
C  C106  1  0.44700000  0.92510000  0.80790000  1.0 0.0144911683
C  C107  1  0.54700000  0.94690000  0.80190000  1.0 -0.2434975454
C  C108  1  0.56800000  0.01670000  0.79210000  1.0 0.3397642351
C  C109  1  0.49000000  0.06460000  0.78840000  1.0 -0.2472978332
C  C110  1  0.39000000  0.04280000  0.79440000  1.0 -0.0228272868
C  C111  1  0.41700000  0.85160000  0.81980000  1.0 0.5394146196
C  C112  1  0.31800000  0.10030000  0.78480000  1.0 0.5332623175
C  C113  1  0.24000000  0.80890000  0.95430000  1.0 0.0522179171
C  C114  1  0.32520000  0.28030000  0.16790000  1.0 0.111860527
C  C115  1  0.32800000  0.28290000  0.10840000  1.0 -0.194111953
C  C116  1  0.22700000  0.68950000  0.14960000  1.0 -0.1767529049
C  C117  1  0.22900000  0.69250000  0.21160000  1.0 0.0348314843
C  C118  1  0.23900000  0.81000000  0.01880000  1.0 -0.1685603173
C  C119  1  0.29700000  0.30000000  0.98420000  1.0 -0.1767529049
C  C120  1  0.29600000  0.30030000  0.92100000  1.0 0.0910564992
C  C121  1  0.13100000  0.52700000  0.80410000  1.0 -0.1527207107
C  C122  1  0.05300000  0.57490000  0.80790000  1.0 0.0144911683
C  C123  1  0.95300000  0.55310000  0.80190000  1.0 -0.2434975454
C  C124  1  0.93200000  0.48330000  0.79210000  1.0 0.3397642351
C  C125  1  0.01000000  0.43540000  0.78840000  1.0 -0.2472978332
C  C126  1  0.11000000  0.45720000  0.79440000  1.0 -0.0228272868
C  C127  1  0.08300000  0.64840000  0.81980000  1.0 0.5394146196
C  C128  1  0.18200000  0.39970000  0.78480000  1.0 0.5332623175
C  C129  1  0.26000000  0.69110000  0.95430000  1.0 0.0522179171
C  C130  1  0.17480000  0.21970000  0.16790000  1.0 0.111860527
C  C131  1  0.17200000  0.21710000  0.10840000  1.0 -0.194111953
C  C132  1  0.27300000  0.81050000  0.14960000  1.0 -0.1767529049
C  C133  1  0.27100000  0.80750000  0.21160000  1.0 0.0348314843
C  C134  1  0.26100000  0.69000000  0.01880000  1.0 -0.1685603173
C  C135  1  0.20300000  0.20000000  0.98420000  1.0 -0.1767529049
C  C136  1  0.20400000  0.19970000  0.92100000  1.0 0.0910564992
C  C137  1  0.25000000  0.25000000  0.51290000  1.0 0.0800415887
C  C138  1  0.25000000  0.25000000  0.57490000  1.0 0.111860527
C  C139  1  0.25000000  0.25000000  0.01290000  1.0 0.0800415887
C  C140  1  0.25000000  0.25000000  0.07490000  1.0 0.111860527
C  C141  1  0.25000000  0.75000000  0.54850000  1.0 0.0674003712
C  C142  1  0.25000000  0.75000000  0.61240000  1.0 0.0910564992
C  C143  1  0.25000000  0.75000000  0.04850000  1.0 0.0674003712
C  C144  1  0.25000000  0.75000000  0.11240000  1.0 0.0910564992
N  N1  1  0.75000000  0.75000000  0.80420000  1.0 -0.1984110423
N  N2  1  0.75000000  0.75000000  0.11190000  1.0 -0.2472978332
N  N3  1  0.75000000  0.75000000  0.30420000  1.0 -0.1984110423
N  N4  1  0.75000000  0.75000000  0.61190000  1.0 -0.2472978332
N  N5  1  0.75000000  0.25000000  0.74610000  1.0 -0.2059084946
N  N6  1  0.75000000  0.25000000  0.08380000  1.0 -0.2059084946
N  N7  1  0.75000000  0.25000000  0.24610000  1.0 -0.2059084946
N  N8  1  0.75000000  0.25000000  0.58380000  1.0 -0.2059084946
N  N9  1  0.25000000  0.25000000  0.69580000  1.0 -0.1984110423
N  N10  1  0.25000000  0.25000000  0.38810000  1.0 -0.2472978332
N  N11  1  0.25000000  0.25000000  0.19580000  1.0 -0.1984110423
N  N12  1  0.25000000  0.25000000  0.88810000  1.0 -0.2472978332
N  N13  1  0.25000000  0.75000000  0.75390000  1.0 -0.2059084946
N  N14  1  0.25000000  0.75000000  0.41620000  1.0 -0.2059084946
N  N15  1  0.25000000  0.75000000  0.25390000  1.0 -0.2059084946
N  N16  1  0.25000000  0.75000000  0.91620000  1.0 -0.2059084946
O  O1  1  0.67000000  0.15540000  0.16290000  1.0 -0.4699228839
O  O2  1  0.66800000  0.83500000  0.21500000  1.0 -0.4825669178
O  O3  1  0.52300000  0.19560000  0.19150000  1.0 -0.5424077609
O  O4  1  0.33900000  0.96980000  0.21710000  1.0 -0.3764436119
O  O5  1  0.77100000  0.91780000  0.22070000  1.0 -0.5170466551
O  O6  1  0.83000000  0.34460000  0.16290000  1.0 -0.4699228839
O  O7  1  0.83200000  0.66500000  0.21500000  1.0 -0.4825669178
O  O8  1  0.97700000  0.30440000  0.19150000  1.0 -0.5424077609
O  O9  1  0.16100000  0.53020000  0.21710000  1.0 -0.3764436119
O  O10  1  0.72900000  0.58220000  0.22070000  1.0 -0.5170466551
O  O11  1  0.67000000  0.34460000  0.66290000  1.0 -0.4699228839
O  O12  1  0.66800000  0.66500000  0.71500000  1.0 -0.4825669178
O  O13  1  0.52300000  0.30440000  0.69150000  1.0 -0.5424077609
O  O14  1  0.33900000  0.53020000  0.71710000  1.0 -0.3764436119
O  O15  1  0.77100000  0.58220000  0.72070000  1.0 -0.5170466551
O  O16  1  0.83000000  0.15540000  0.66290000  1.0 -0.4699228839
O  O17  1  0.83200000  0.83500000  0.71500000  1.0 -0.4825669178
O  O18  1  0.97700000  0.19560000  0.69150000  1.0 -0.5424077609
O  O19  1  0.16100000  0.96980000  0.71710000  1.0 -0.3764436119
O  O20  1  0.72900000  0.91780000  0.72070000  1.0 -0.5170466551
O  O21  1  0.33000000  0.65540000  0.33710000  1.0 -0.4699228839
O  O22  1  0.33200000  0.33500000  0.28500000  1.0 -0.4825669178
O  O23  1  0.47700000  0.69560000  0.30850000  1.0 -0.5424077609
O  O24  1  0.66100000  0.46980000  0.28290000  1.0 -0.3764436119
O  O25  1  0.22900000  0.41780000  0.27930000  1.0 -0.5170466551
O  O26  1  0.17000000  0.84460000  0.33710000  1.0 -0.4699228839
O  O27  1  0.16800000  0.16500000  0.28500000  1.0 -0.4825669178
O  O28  1  0.02300000  0.80440000  0.30850000  1.0 -0.5424077609
O  O29  1  0.83900000  0.03020000  0.28290000  1.0 -0.3764436119
O  O30  1  0.27100000  0.08220000  0.27930000  1.0 -0.5170466551
O  O31  1  0.33000000  0.84460000  0.83710000  1.0 -0.4699228839
O  O32  1  0.33200000  0.16500000  0.78500000  1.0 -0.4825669178
O  O33  1  0.47700000  0.80440000  0.80850000  1.0 -0.5424077609
O  O34  1  0.66100000  0.03020000  0.78290000  1.0 -0.3764436119
O  O35  1  0.22900000  0.08220000  0.77930000  1.0 -0.5170466551
O  O36  1  0.17000000  0.65540000  0.83710000  1.0 -0.4699228839
O  O37  1  0.16800000  0.33500000  0.78500000  1.0 -0.4825669178
O  O38  1  0.02300000  0.69560000  0.80850000  1.0 -0.5424077609
O  O39  1  0.83900000  0.46980000  0.78290000  1.0 -0.3764436119
O  O40  1  0.27100000  0.41780000  0.77930000  1.0 -0.5170466551
