# DDEC6 charges by PACMAN v1.1 (https://github.com/mtap-research/PACMAN-charge/)
data_QEQXUI02_ASR_pacman
_symmetry_space_group_name_H-M   'P 1'
_cell_length_a   12.23000000
_cell_length_b   19.02500000
_cell_length_c   22.37700000
_cell_angle_alpha   90.00000000
_cell_angle_beta   90.00000000
_cell_angle_gamma   90.00000000
_symmetry_Int_Tables_number   1
_chemical_formula_structural   NiC18N2O5
_chemical_formula_sum   'Ni8 C144 N16 O40'
_cell_volume   5206.58525775
_cell_formula_units_Z   8
loop_
 _symmetry_equiv_pos_site_id
 _symmetry_equiv_pos_as_xyz
  1  'x, y, z'
loop_
 _atom_site_type_symbol
 _atom_site_label
 _atom_site_symmetry_multiplicity
 _atom_site_fract_x
 _atom_site_fract_y
 _atom_site_fract_z
 _atom_site_occupancy
 _atom_site_charge
Ni  Ni1  1  0.75000000  0.75000000  0.21740000  1.0 0.5501833384
Ni  Ni2  1  0.75000000  0.75000000  0.71740000  1.0 0.5572853809
Ni  Ni3  1  0.75000000  0.25000000  0.15940000  1.0 0.6101549591
Ni  Ni4  1  0.75000000  0.25000000  0.65940000  1.0 0.6101549591
Ni  Ni5  1  0.25000000  0.25000000  0.28260000  1.0 0.5501833384
Ni  Ni6  1  0.25000000  0.25000000  0.78260000  1.0 0.5572853809
Ni  Ni7  1  0.25000000  0.75000000  0.34060000  1.0 0.6155561929
Ni  Ni8  1  0.25000000  0.75000000  0.84060000  1.0 0.6101549591
C  C1  1  0.64090000  0.02720000  0.19440000  1.0 0.0902549022
C  C2  1  0.55780000  0.07680000  0.19040000  1.0 -0.1107336392
C  C3  1  0.44940000  0.05650000  0.19780000  1.0 -0.0320493678
C  C4  1  0.42420000  0.98660000  0.20930000  1.0 0.3053894635
C  C5  1  0.50700000  0.93690000  0.21330000  1.0 -0.1530053318
C  C6  1  0.61570000  0.95730000  0.20580000  1.0 -0.0576903093
C  C7  1  0.58200000  0.14270000  0.17760000  1.0 0.4754075115
C  C8  1  0.69900000  0.90380000  0.21190000  1.0 0.5232445722
C  C9  1  0.76600000  0.31000000  0.02890000  1.0 0.247688127
C  C10  1  0.75800000  0.31050000  0.83790000  1.0 -0.0511625372
C  C11  1  0.75800000  0.31020000  0.77590000  1.0 0.1715280985
C  C12  1  0.76500000  0.31010000  0.96680000  1.0 -0.1167036115
C  C13  1  0.83300000  0.72710000  0.10680000  1.0 0.0724014782
C  C14  1  0.80300000  0.70030000  0.90400000  1.0 -0.0893403
C  C15  1  0.80300000  0.69960000  0.84140000  1.0 0.2368401463
C  C16  1  0.83220000  0.72710000  0.04270000  1.0 -0.0893403
C  C17  1  0.85910000  0.47280000  0.19440000  1.0 0.0902549022
C  C18  1  0.94220000  0.42320000  0.19040000  1.0 -0.1107336392
C  C19  1  0.05060000  0.44350000  0.19780000  1.0 -0.0320493678
C  C20  1  0.07580000  0.51340000  0.20930000  1.0 0.3053894635
C  C21  1  0.99300000  0.56310000  0.21330000  1.0 -0.1530053318
C  C22  1  0.88430000  0.54270000  0.20580000  1.0 -0.0576903093
C  C23  1  0.91800000  0.35730000  0.17760000  1.0 0.4754075115
C  C24  1  0.80100000  0.59620000  0.21190000  1.0 0.5232445722
C  C25  1  0.73400000  0.19000000  0.02890000  1.0 0.247688127
C  C26  1  0.74200000  0.18950000  0.83790000  1.0 -0.0511625372
C  C27  1  0.74200000  0.18980000  0.77590000  1.0 0.1715280985
C  C28  1  0.73500000  0.18990000  0.96680000  1.0 -0.1167036115
C  C29  1  0.66700000  0.77290000  0.10680000  1.0 0.0724014782
C  C30  1  0.69700000  0.79970000  0.90400000  1.0 -0.0893403
C  C31  1  0.69700000  0.80040000  0.84140000  1.0 0.2368401463
C  C32  1  0.66780000  0.77290000  0.04270000  1.0 -0.0893403
C  C33  1  0.64090000  0.47280000  0.69440000  1.0 0.0902549022
C  C34  1  0.55780000  0.42320000  0.69040000  1.0 -0.1107336392
C  C35  1  0.44940000  0.44350000  0.69780000  1.0 -0.0384197384
C  C36  1  0.42420000  0.51340000  0.70930000  1.0 0.3053894635
C  C37  1  0.50700000  0.56310000  0.71330000  1.0 -0.1530053318
C  C38  1  0.61570000  0.54270000  0.70580000  1.0 -0.0576903093
C  C39  1  0.58200000  0.35730000  0.67760000  1.0 0.4738163774
C  C40  1  0.69900000  0.59620000  0.71190000  1.0 0.5232445722
C  C41  1  0.76600000  0.19000000  0.52890000  1.0 0.247688127
C  C42  1  0.75800000  0.18950000  0.33790000  1.0 -0.0511625372
C  C43  1  0.75800000  0.18980000  0.27590000  1.0 0.1715280985
C  C44  1  0.76500000  0.18990000  0.46680000  1.0 -0.1167036115
C  C45  1  0.83300000  0.77290000  0.60680000  1.0 0.0724014782
C  C46  1  0.80300000  0.79970000  0.40400000  1.0 -0.0893403
C  C47  1  0.80300000  0.80040000  0.34140000  1.0 0.2368401463
C  C48  1  0.83220000  0.77290000  0.54270000  1.0 -0.0893403
C  C49  1  0.85910000  0.02720000  0.69440000  1.0 0.0902549022
C  C50  1  0.94220000  0.07680000  0.69040000  1.0 -0.1107336392
C  C51  1  0.05060000  0.05650000  0.69780000  1.0 -0.0384197384
C  C52  1  0.07580000  0.98660000  0.70930000  1.0 0.3053894635
C  C53  1  0.99300000  0.93690000  0.71330000  1.0 -0.1560175593
C  C54  1  0.88430000  0.95730000  0.70580000  1.0 -0.0576903093
C  C55  1  0.91800000  0.14270000  0.67760000  1.0 0.4738163774
C  C56  1  0.80100000  0.90380000  0.71190000  1.0 0.5232445722
C  C57  1  0.73400000  0.31000000  0.52890000  1.0 0.247688127
C  C58  1  0.74200000  0.31050000  0.33790000  1.0 -0.0511625372
C  C59  1  0.74200000  0.31020000  0.27590000  1.0 0.1715280985
C  C60  1  0.73500000  0.31010000  0.46680000  1.0 -0.1167036115
C  C61  1  0.66700000  0.72710000  0.60680000  1.0 0.0724014782
C  C62  1  0.69700000  0.70030000  0.40400000  1.0 -0.0893403
C  C63  1  0.69700000  0.69960000  0.34140000  1.0 0.2368401463
C  C64  1  0.66780000  0.72710000  0.54270000  1.0 -0.0893403
C  C65  1  0.75000000  0.75000000  0.00270000  1.0 0.1253458535
C  C66  1  0.75000000  0.75000000  0.94010000  1.0 0.1208177407
C  C67  1  0.75000000  0.75000000  0.50270000  1.0 0.1208177407
C  C68  1  0.75000000  0.75000000  0.44010000  1.0 0.1208177407
C  C69  1  0.75000000  0.25000000  0.93330000  1.0 0.1391136062
C  C70  1  0.75000000  0.25000000  0.87160000  1.0 0.0902549022
C  C71  1  0.75000000  0.25000000  0.43330000  1.0 0.1391136062
C  C72  1  0.75000000  0.25000000  0.37160000  1.0 0.0902549022
C  C73  1  0.35910000  0.52720000  0.30560000  1.0 0.0902549022
C  C74  1  0.44220000  0.57680000  0.30960000  1.0 -0.1107336392
C  C75  1  0.55060000  0.55650000  0.30220000  1.0 -0.0384197384
C  C76  1  0.57580000  0.48660000  0.29070000  1.0 0.3053894635
C  C77  1  0.49300000  0.43690000  0.28670000  1.0 -0.1530053318
C  C78  1  0.38430000  0.45730000  0.29420000  1.0 -0.0576903093
C  C79  1  0.41800000  0.64270000  0.32240000  1.0 0.4754075115
C  C80  1  0.30100000  0.40380000  0.28810000  1.0 0.5232445722
C  C81  1  0.23400000  0.81000000  0.47110000  1.0 0.247688127
C  C82  1  0.24200000  0.81050000  0.66210000  1.0 -0.0511625372
C  C83  1  0.24200000  0.81020000  0.72410000  1.0 0.1715280985
C  C84  1  0.23500000  0.81010000  0.53320000  1.0 -0.1167036115
C  C85  1  0.16700000  0.22710000  0.39320000  1.0 0.0724014782
C  C86  1  0.19700000  0.20030000  0.59600000  1.0 -0.0893403
C  C87  1  0.19700000  0.19960000  0.65860000  1.0 0.2292295818
C  C88  1  0.16780000  0.22710000  0.45730000  1.0 -0.0893403
C  C89  1  0.14090000  0.97280000  0.30560000  1.0 0.0902549022
C  C90  1  0.05780000  0.92320000  0.30960000  1.0 -0.1107336392
C  C91  1  0.94940000  0.94350000  0.30220000  1.0 -0.0384197384
C  C92  1  0.92420000  0.01340000  0.29070000  1.0 0.3043701475
C  C93  1  0.00700000  0.06310000  0.28670000  1.0 -0.1530053318
C  C94  1  0.11570000  0.04270000  0.29420000  1.0 -0.0576903093
C  C95  1  0.08200000  0.85730000  0.32240000  1.0 0.4754075115
C  C96  1  0.19900000  0.09620000  0.28810000  1.0 0.5232445722
C  C97  1  0.26600000  0.69000000  0.47110000  1.0 0.247688127
C  C98  1  0.25800000  0.68950000  0.66210000  1.0 -0.0511625372
C  C99  1  0.25800000  0.68980000  0.72410000  1.0 0.1715280985
C  C100  1  0.26500000  0.68990000  0.53320000  1.0 -0.1167036115
C  C101  1  0.33300000  0.27290000  0.39320000  1.0 0.0724014782
C  C102  1  0.30300000  0.29970000  0.59600000  1.0 -0.0893403
C  C103  1  0.30300000  0.30040000  0.65860000  1.0 0.2292295818
C  C104  1  0.33220000  0.27290000  0.45730000  1.0 -0.0893403
C  C105  1  0.35910000  0.97280000  0.80560000  1.0 0.0902549022
C  C106  1  0.44220000  0.92320000  0.80960000  1.0 -0.1107336392
C  C107  1  0.55060000  0.94350000  0.80220000  1.0 -0.0384197384
C  C108  1  0.57580000  0.01340000  0.79070000  1.0 0.3053894635
C  C109  1  0.49300000  0.06310000  0.78670000  1.0 -0.1560175593
C  C110  1  0.38430000  0.04270000  0.79420000  1.0 -0.0576903093
C  C111  1  0.41800000  0.85730000  0.82240000  1.0 0.4754075115
C  C112  1  0.30100000  0.09620000  0.78810000  1.0 0.5232445722
C  C113  1  0.23400000  0.69000000  0.97110000  1.0 0.247688127
C  C114  1  0.24200000  0.68950000  0.16210000  1.0 -0.0511625372
C  C115  1  0.24200000  0.68980000  0.22410000  1.0 0.1715280985
C  C116  1  0.23500000  0.68990000  0.03320000  1.0 -0.1167036115
C  C117  1  0.16700000  0.27290000  0.89320000  1.0 0.0724014782
C  C118  1  0.19700000  0.29970000  0.09600000  1.0 -0.0893403
C  C119  1  0.19700000  0.30040000  0.15860000  1.0 0.2368401463
C  C120  1  0.16780000  0.27290000  0.95730000  1.0 -0.0893403
C  C121  1  0.14090000  0.52720000  0.80560000  1.0 0.0902549022
C  C122  1  0.05780000  0.57680000  0.80960000  1.0 -0.1107336392
C  C123  1  0.94940000  0.55650000  0.80220000  1.0 -0.0384197384
C  C124  1  0.92420000  0.48660000  0.79070000  1.0 0.3053894635
C  C125  1  0.00700000  0.43690000  0.78670000  1.0 -0.1530053318
C  C126  1  0.11570000  0.45730000  0.79420000  1.0 -0.0576903093
C  C127  1  0.08200000  0.64270000  0.82240000  1.0 0.4738163774
C  C128  1  0.19900000  0.40380000  0.78810000  1.0 0.5232445722
C  C129  1  0.26600000  0.81000000  0.97110000  1.0 0.247688127
C  C130  1  0.25800000  0.81050000  0.16210000  1.0 -0.0511625372
C  C131  1  0.25800000  0.81020000  0.22410000  1.0 0.1715280985
C  C132  1  0.26500000  0.81010000  0.03320000  1.0 -0.1167036115
C  C133  1  0.33300000  0.22710000  0.89320000  1.0 0.0724014782
C  C134  1  0.30300000  0.20030000  0.09600000  1.0 -0.0893403
C  C135  1  0.30300000  0.19960000  0.15860000  1.0 0.2368401463
C  C136  1  0.33220000  0.22710000  0.95730000  1.0 -0.0893403
C  C137  1  0.25000000  0.25000000  0.49730000  1.0 0.1208177407
C  C138  1  0.25000000  0.25000000  0.55990000  1.0 0.1208177407
C  C139  1  0.25000000  0.25000000  0.99730000  1.0 0.1208177407
C  C140  1  0.25000000  0.25000000  0.05990000  1.0 0.1208177407
C  C141  1  0.25000000  0.75000000  0.56670000  1.0 0.1391136062
C  C142  1  0.25000000  0.75000000  0.62840000  1.0 0.0902549022
C  C143  1  0.25000000  0.75000000  0.06670000  1.0 0.1391136062
C  C144  1  0.25000000  0.75000000  0.12840000  1.0 0.0902549022
N  N1  1  0.75000000  0.75000000  0.80860000  1.0 -0.170045279
N  N2  1  0.75000000  0.75000000  0.14290000  1.0 -0.0511625372
N  N3  1  0.75000000  0.75000000  0.30860000  1.0 -0.170045279
N  N4  1  0.75000000  0.75000000  0.64290000  1.0 -0.0576903093
N  N5  1  0.75000000  0.25000000  0.73990000  1.0 -0.1788611109
N  N6  1  0.75000000  0.25000000  0.05910000  1.0 -0.2112824904
N  N7  1  0.75000000  0.25000000  0.23990000  1.0 -0.1788611109
N  N8  1  0.75000000  0.25000000  0.55910000  1.0 -0.2112824904
N  N9  1  0.25000000  0.25000000  0.69140000  1.0 -0.170045279
N  N10  1  0.25000000  0.25000000  0.35710000  1.0 -0.0576903093
N  N11  1  0.25000000  0.25000000  0.19140000  1.0 -0.1788611109
N  N12  1  0.25000000  0.25000000  0.85710000  1.0 -0.0576903093
N  N13  1  0.25000000  0.75000000  0.76010000  1.0 -0.1788611109
N  N14  1  0.25000000  0.75000000  0.44090000  1.0 -0.2112824904
N  N15  1  0.25000000  0.75000000  0.26010000  1.0 -0.1788611109
N  N16  1  0.25000000  0.75000000  0.94090000  1.0 -0.2112824904
O  O1  1  0.67090000  0.16960000  0.16110000  1.0 -0.4003221418
O  O2  1  0.67800000  0.84320000  0.22040000  1.0 -0.3846048092
O  O3  1  0.51770000  0.19250000  0.16980000  1.0 -0.4100154142
O  O4  1  0.32800000  0.96290000  0.20970000  1.0 -0.3690521742
O  O5  1  0.79300000  0.91550000  0.20720000  1.0 -0.3628520643
O  O6  1  0.82910000  0.33040000  0.16110000  1.0 -0.4003221418
O  O7  1  0.82200000  0.65680000  0.22040000  1.0 -0.3846048092
O  O8  1  0.98230000  0.30750000  0.16980000  1.0 -0.4100154142
O  O9  1  0.17200000  0.53710000  0.20970000  1.0 -0.3690521742
O  O10  1  0.70700000  0.58450000  0.20720000  1.0 -0.3628520643
O  O11  1  0.67090000  0.33040000  0.66110000  1.0 -0.4003221418
O  O12  1  0.67800000  0.65680000  0.72040000  1.0 -0.3846048092
O  O13  1  0.51770000  0.30750000  0.66980000  1.0 -0.4100154142
O  O14  1  0.32800000  0.53710000  0.70970000  1.0 -0.3690521742
O  O15  1  0.79300000  0.58450000  0.70720000  1.0 -0.3628520643
O  O16  1  0.82910000  0.16960000  0.66110000  1.0 -0.4003221418
O  O17  1  0.82200000  0.84320000  0.72040000  1.0 -0.3846048092
O  O18  1  0.98230000  0.19250000  0.66980000  1.0 -0.4100154142
O  O19  1  0.17200000  0.96290000  0.70970000  1.0 -0.3690521742
O  O20  1  0.70700000  0.91550000  0.70720000  1.0 -0.3628520643
O  O21  1  0.32910000  0.66960000  0.33890000  1.0 -0.4003221418
O  O22  1  0.32200000  0.34320000  0.27960000  1.0 -0.3857528443
O  O23  1  0.48230000  0.69250000  0.33020000  1.0 -0.4100154142
O  O24  1  0.67200000  0.46290000  0.29030000  1.0 -0.3628520643
O  O25  1  0.20700000  0.41550000  0.29280000  1.0 -0.3628520643
O  O26  1  0.17090000  0.83040000  0.33890000  1.0 -0.4003221418
O  O27  1  0.17800000  0.15680000  0.27960000  1.0 -0.3857528443
O  O28  1  0.01770000  0.80750000  0.33020000  1.0 -0.4100154142
O  O29  1  0.82800000  0.03710000  0.29030000  1.0 -0.3628520643
O  O30  1  0.29300000  0.08450000  0.29280000  1.0 -0.3628520643
O  O31  1  0.32910000  0.83040000  0.83890000  1.0 -0.4003221418
O  O32  1  0.32200000  0.15680000  0.77960000  1.0 -0.3846048092
O  O33  1  0.48230000  0.80750000  0.83020000  1.0 -0.4100154142
O  O34  1  0.67200000  0.03710000  0.79030000  1.0 -0.3628520643
O  O35  1  0.20700000  0.08450000  0.79280000  1.0 -0.3628520643
O  O36  1  0.17090000  0.66960000  0.83890000  1.0 -0.4003221418
O  O37  1  0.17800000  0.34320000  0.77960000  1.0 -0.3846048092
O  O38  1  0.01770000  0.69250000  0.83020000  1.0 -0.4100154142
O  O39  1  0.82800000  0.46290000  0.79030000  1.0 -0.3628520643
O  O40  1  0.29300000  0.41550000  0.79280000  1.0 -0.3628520643
