# DDEC6 charges by PACMAN v1.1 (https://github.com/mtap-research/PACMAN-charge/)
data_QEQXUI04_ASR_pacman
_symmetry_space_group_name_H-M   'P 1'
_cell_length_a   13.78900000
_cell_length_b   19.34000000
_cell_length_c   22.51400000
_cell_angle_alpha   90.00000000
_cell_angle_beta   90.00000000
_cell_angle_gamma   90.00000000
_symmetry_Int_Tables_number   1
_chemical_formula_structural   NiH12C18N2O5
_chemical_formula_sum   'Ni8 H96 C144 N16 O40'
_cell_volume   6004.01685964
_cell_formula_units_Z   8
loop_
 _symmetry_equiv_pos_site_id
 _symmetry_equiv_pos_as_xyz
  1  'x, y, z'
loop_
 _atom_site_type_symbol
 _atom_site_label
 _atom_site_symmetry_multiplicity
 _atom_site_fract_x
 _atom_site_fract_y
 _atom_site_fract_z
 _atom_site_occupancy
 _atom_site_charge
Ni  Ni1  1  0.75000000  0.75000000  0.22438000  1.0 0.7381343693
Ni  Ni2  1  0.75000000  0.75000000  0.72438000  1.0 0.7381343693
Ni  Ni3  1  0.75000000  0.25000000  0.16798000  1.0 0.7191346139
Ni  Ni4  1  0.75000000  0.25000000  0.66798000  1.0 0.7191346139
Ni  Ni5  1  0.25000000  0.25000000  0.27562000  1.0 0.7381343693
Ni  Ni6  1  0.25000000  0.25000000  0.77562000  1.0 0.7381343693
Ni  Ni7  1  0.25000000  0.75000000  0.33202000  1.0 0.7191346139
Ni  Ni8  1  0.25000000  0.75000000  0.83202000  1.0 0.7191346139
H  H1  1  0.31310000  0.00240000  0.21430000  1.0 0.346273467
H  H2  1  0.69960000  0.03550000  0.19930000  1.0 0.1219654233
H  H3  1  0.41720000  0.08630000  0.19410000  1.0 0.1415992724
H  H4  1  0.49630000  0.88950000  0.22430000  1.0 0.1415992724
H  H5  1  0.71780000  0.14840000  0.06790000  1.0 0.1219654233
H  H6  1  0.60960000  0.70410000  0.83110000  1.0 0.129447478
H  H7  1  0.63100000  0.69240000  0.93140000  1.0 0.129447478
H  H8  1  0.79530000  0.35270000  0.87580000  1.0 0.1219654233
H  H9  1  0.78260000  0.34810000  0.77070000  1.0 0.1102909879
H  H10  1  0.71770000  0.15270000  0.96390000  1.0 0.129447478
H  H11  1  0.74910000  0.64780000  0.11380000  1.0 0.1102909879
H  H12  1  0.77750000  0.64850000  0.00910000  1.0 0.129447478
H  H13  1  0.18690000  0.49760000  0.21430000  1.0 0.346273467
H  H14  1  0.80040000  0.46450000  0.19930000  1.0 0.1219654233
H  H15  1  0.08280000  0.41370000  0.19410000  1.0 0.1415992724
H  H16  1  0.00370000  0.61050000  0.22430000  1.0 0.1415992724
H  H17  1  0.78220000  0.35160000  0.06790000  1.0 0.1219654233
H  H18  1  0.89040000  0.79590000  0.83110000  1.0 0.129447478
H  H19  1  0.86900000  0.80760000  0.93140000  1.0 0.129447478
H  H20  1  0.70470000  0.14730000  0.87580000  1.0 0.1219654233
H  H21  1  0.71740000  0.15190000  0.77070000  1.0 0.1102909879
H  H22  1  0.78230000  0.34730000  0.96390000  1.0 0.129447478
H  H23  1  0.75090000  0.85220000  0.11380000  1.0 0.1102909879
H  H24  1  0.72250000  0.85150000  0.00910000  1.0 0.129447478
H  H25  1  0.31310000  0.49760000  0.71430000  1.0 0.346273467
H  H26  1  0.69960000  0.46450000  0.69930000  1.0 0.1219654233
H  H27  1  0.41720000  0.41370000  0.69410000  1.0 0.1415992724
H  H28  1  0.49630000  0.61050000  0.72430000  1.0 0.1415992724
H  H29  1  0.71780000  0.35160000  0.56790000  1.0 0.1219654233
H  H30  1  0.60960000  0.79590000  0.33110000  1.0 0.129447478
H  H31  1  0.63100000  0.80760000  0.43140000  1.0 0.129447478
H  H32  1  0.79530000  0.14730000  0.37580000  1.0 0.1219654233
H  H33  1  0.78260000  0.15190000  0.27070000  1.0 0.1102909879
H  H34  1  0.71770000  0.34730000  0.46390000  1.0 0.129447478
H  H35  1  0.74910000  0.85220000  0.61380000  1.0 0.1102909879
H  H36  1  0.77750000  0.85150000  0.50910000  1.0 0.129447478
H  H37  1  0.18690000  0.00240000  0.71430000  1.0 0.346273467
H  H38  1  0.80040000  0.03550000  0.69930000  1.0 0.1219654233
H  H39  1  0.08280000  0.08630000  0.69410000  1.0 0.1415992724
H  H40  1  0.00370000  0.88950000  0.72430000  1.0 0.1415992724
H  H41  1  0.78220000  0.14840000  0.56790000  1.0 0.1219654233
H  H42  1  0.89040000  0.70410000  0.33110000  1.0 0.129447478
H  H43  1  0.86900000  0.69240000  0.43140000  1.0 0.129447478
H  H44  1  0.70470000  0.35270000  0.37580000  1.0 0.1219654233
H  H45  1  0.71740000  0.34810000  0.27070000  1.0 0.1102909879
H  H46  1  0.78230000  0.15270000  0.46390000  1.0 0.129447478
H  H47  1  0.75090000  0.64780000  0.61380000  1.0 0.1102909879
H  H48  1  0.72250000  0.64850000  0.50910000  1.0 0.129447478
H  H49  1  0.68690000  0.50240000  0.28570000  1.0 0.346273467
H  H50  1  0.30040000  0.53550000  0.30070000  1.0 0.1219654233
H  H51  1  0.58280000  0.58630000  0.30590000  1.0 0.1415992724
H  H52  1  0.50370000  0.38950000  0.27570000  1.0 0.1415992724
H  H53  1  0.28220000  0.64840000  0.43210000  1.0 0.1219654233
H  H54  1  0.39040000  0.20410000  0.66890000  1.0 0.129447478
H  H55  1  0.36900000  0.19240000  0.56860000  1.0 0.129447478
H  H56  1  0.20470000  0.85270000  0.62420000  1.0 0.1219654233
H  H57  1  0.21740000  0.84810000  0.72930000  1.0 0.1102909879
H  H58  1  0.28230000  0.65270000  0.53610000  1.0 0.129447478
H  H59  1  0.25090000  0.14780000  0.38620000  1.0 0.1102909879
H  H60  1  0.22250000  0.14850000  0.49090000  1.0 0.129447478
H  H61  1  0.81310000  0.99760000  0.28570000  1.0 0.346273467
H  H62  1  0.19960000  0.96450000  0.30070000  1.0 0.1219654233
H  H63  1  0.91720000  0.91370000  0.30590000  1.0 0.1415992724
H  H64  1  0.99630000  0.11050000  0.27570000  1.0 0.1415992724
H  H65  1  0.21780000  0.85160000  0.43210000  1.0 0.1219654233
H  H66  1  0.10960000  0.29590000  0.66890000  1.0 0.129447478
H  H67  1  0.13100000  0.30760000  0.56860000  1.0 0.129447478
H  H68  1  0.29530000  0.64730000  0.62420000  1.0 0.1219654233
H  H69  1  0.28260000  0.65190000  0.72930000  1.0 0.1102909879
H  H70  1  0.21770000  0.84730000  0.53610000  1.0 0.129447478
H  H71  1  0.24910000  0.35220000  0.38620000  1.0 0.1102909879
H  H72  1  0.27750000  0.35150000  0.49090000  1.0 0.129447478
H  H73  1  0.68690000  0.99760000  0.78570000  1.0 0.346273467
H  H74  1  0.30040000  0.96450000  0.80070000  1.0 0.1219654233
H  H75  1  0.58280000  0.91370000  0.80590000  1.0 0.1415992724
H  H76  1  0.50370000  0.11050000  0.77570000  1.0 0.1415992724
H  H77  1  0.28220000  0.85160000  0.93210000  1.0 0.1219654233
H  H78  1  0.39040000  0.29590000  0.16890000  1.0 0.129447478
H  H79  1  0.36900000  0.30760000  0.06860000  1.0 0.129447478
H  H80  1  0.20470000  0.64730000  0.12420000  1.0 0.1219654233
H  H81  1  0.21740000  0.65190000  0.22930000  1.0 0.1102909879
H  H82  1  0.28230000  0.84730000  0.03610000  1.0 0.129447478
H  H83  1  0.25090000  0.35220000  0.88620000  1.0 0.1102909879
H  H84  1  0.22250000  0.35150000  0.99090000  1.0 0.129447478
H  H85  1  0.81310000  0.50240000  0.78570000  1.0 0.346273467
H  H86  1  0.19960000  0.53550000  0.80070000  1.0 0.1219654233
H  H87  1  0.91720000  0.58630000  0.80590000  1.0 0.1415992724
H  H88  1  0.99630000  0.38950000  0.77570000  1.0 0.1415992724
H  H89  1  0.21780000  0.64840000  0.93210000  1.0 0.1219654233
H  H90  1  0.10960000  0.20410000  0.16890000  1.0 0.129447478
H  H91  1  0.13100000  0.19240000  0.06860000  1.0 0.129447478
H  H92  1  0.29530000  0.85270000  0.12420000  1.0 0.1219654233
H  H93  1  0.28260000  0.84810000  0.22930000  1.0 0.1102909879
H  H94  1  0.21770000  0.65270000  0.03610000  1.0 0.129447478
H  H95  1  0.24910000  0.14780000  0.88620000  1.0 0.1102909879
H  H96  1  0.27750000  0.14850000  0.99090000  1.0 0.129447478
C  C1  1  0.63470000  0.02280000  0.20190000  1.0 -0.1496049091
C  C2  1  0.56250000  0.07220000  0.19480000  1.0 0.0174289323
C  C3  1  0.46550000  0.05320000  0.19880000  1.0 -0.2217210134
C  C4  1  0.44070000  0.98480000  0.20980000  1.0 0.2989985347
C  C5  1  0.51290000  0.93530000  0.21690000  1.0 -0.212665094
C  C6  1  0.60990000  0.95430000  0.21290000  1.0 -0.0056335087
C  C7  1  0.58500000  0.14760000  0.17830000  1.0 0.5486367375
C  C8  1  0.69500000  0.90220000  0.22330000  1.0 0.5441403042
C  C9  1  0.73100000  0.18920000  0.04750000  1.0 0.0975685157
C  C10  1  0.66600000  0.71990000  0.84970000  1.0 0.0693917405
C  C11  1  0.67600000  0.71760000  0.90980000  1.0 -0.1783813722
C  C12  1  0.77600000  0.31220000  0.85690000  1.0 -0.18522951
C  C13  1  0.77060000  0.30720000  0.79110000  1.0 0.08208271
C  C14  1  0.73100000  0.19300000  0.98480000  1.0 -0.2039389181
C  C15  1  0.75400000  0.69010000  0.09450000  1.0 0.0516863442
C  C16  1  0.76400000  0.68790000  0.03120000  1.0 -0.1575720459
C  C17  1  0.86530000  0.47720000  0.20190000  1.0 -0.1496049091
C  C18  1  0.93750000  0.42780000  0.19480000  1.0 0.0174289323
C  C19  1  0.03450000  0.44680000  0.19880000  1.0 -0.2217210134
C  C20  1  0.05930000  0.51520000  0.20980000  1.0 0.2989985347
C  C21  1  0.98710000  0.56470000  0.21690000  1.0 -0.212665094
C  C22  1  0.89010000  0.54570000  0.21290000  1.0 -0.0056335087
C  C23  1  0.91500000  0.35240000  0.17830000  1.0 0.5486367375
C  C24  1  0.80500000  0.59780000  0.22330000  1.0 0.5441403042
C  C25  1  0.76900000  0.31080000  0.04750000  1.0 0.0975685157
C  C26  1  0.83400000  0.78010000  0.84970000  1.0 0.0693917405
C  C27  1  0.82400000  0.78240000  0.90980000  1.0 -0.1783813722
C  C28  1  0.72400000  0.18780000  0.85690000  1.0 -0.18522951
C  C29  1  0.72940000  0.19280000  0.79110000  1.0 0.08208271
C  C30  1  0.76900000  0.30700000  0.98480000  1.0 -0.2039389181
C  C31  1  0.74600000  0.80990000  0.09450000  1.0 0.0516863442
C  C32  1  0.73600000  0.81210000  0.03120000  1.0 -0.1575720459
C  C33  1  0.63470000  0.47720000  0.70190000  1.0 -0.1496049091
C  C34  1  0.56250000  0.42780000  0.69480000  1.0 0.0174289323
C  C35  1  0.46550000  0.44680000  0.69880000  1.0 -0.2217210134
C  C36  1  0.44070000  0.51520000  0.70980000  1.0 0.2989985347
C  C37  1  0.51290000  0.56470000  0.71690000  1.0 -0.212665094
C  C38  1  0.60990000  0.54570000  0.71290000  1.0 -0.0056335087
C  C39  1  0.58500000  0.35240000  0.67830000  1.0 0.5486367375
C  C40  1  0.69500000  0.59780000  0.72330000  1.0 0.5441403042
C  C41  1  0.73100000  0.31080000  0.54750000  1.0 0.0975685157
C  C42  1  0.66600000  0.78010000  0.34970000  1.0 0.0693917405
C  C43  1  0.67600000  0.78240000  0.40980000  1.0 -0.1783813722
C  C44  1  0.77600000  0.18780000  0.35690000  1.0 -0.18522951
C  C45  1  0.77060000  0.19280000  0.29110000  1.0 0.08208271
C  C46  1  0.73100000  0.30700000  0.48480000  1.0 -0.2039389181
C  C47  1  0.75400000  0.80990000  0.59450000  1.0 0.0516863442
C  C48  1  0.76400000  0.81210000  0.53120000  1.0 -0.1575720459
C  C49  1  0.86530000  0.02280000  0.70190000  1.0 -0.1496049091
C  C50  1  0.93750000  0.07220000  0.69480000  1.0 0.0174289323
C  C51  1  0.03450000  0.05320000  0.69880000  1.0 -0.2217210134
C  C52  1  0.05930000  0.98480000  0.70980000  1.0 0.2989985347
C  C53  1  0.98710000  0.93530000  0.71690000  1.0 -0.212665094
C  C54  1  0.89010000  0.95430000  0.71290000  1.0 -0.0056335087
C  C55  1  0.91500000  0.14760000  0.67830000  1.0 0.5486367375
C  C56  1  0.80500000  0.90220000  0.72330000  1.0 0.5441403042
C  C57  1  0.76900000  0.18920000  0.54750000  1.0 0.0975685157
C  C58  1  0.83400000  0.71990000  0.34970000  1.0 0.0693917405
C  C59  1  0.82400000  0.71760000  0.40980000  1.0 -0.1783813722
C  C60  1  0.72400000  0.31220000  0.35690000  1.0 -0.18522951
C  C61  1  0.72940000  0.30720000  0.29110000  1.0 0.08208271
C  C62  1  0.76900000  0.19300000  0.48480000  1.0 -0.2039389181
C  C63  1  0.74600000  0.69010000  0.59450000  1.0 0.0516863442
C  C64  1  0.73600000  0.68790000  0.53120000  1.0 -0.1575720459
C  C65  1  0.75000000  0.75000000  0.00910000  1.0 0.034385141
C  C66  1  0.75000000  0.75000000  0.94080000  1.0 0.1219654233
C  C67  1  0.75000000  0.75000000  0.50910000  1.0 0.034385141
C  C68  1  0.75000000  0.75000000  0.44080000  1.0 0.1219654233
C  C69  1  0.75000000  0.25000000  0.95290000  1.0 0.0912280865
C  C70  1  0.75000000  0.25000000  0.89010000  1.0 0.08208271
C  C71  1  0.75000000  0.25000000  0.45290000  1.0 0.0912280865
C  C72  1  0.75000000  0.25000000  0.39010000  1.0 0.08208271
C  C73  1  0.36530000  0.52280000  0.29810000  1.0 -0.1496049091
C  C74  1  0.43750000  0.57220000  0.30520000  1.0 0.0174289323
C  C75  1  0.53450000  0.55320000  0.30120000  1.0 -0.2217210134
C  C76  1  0.55930000  0.48480000  0.29020000  1.0 0.2989985347
C  C77  1  0.48710000  0.43530000  0.28310000  1.0 -0.212665094
C  C78  1  0.39010000  0.45430000  0.28710000  1.0 -0.0056335087
C  C79  1  0.41500000  0.64760000  0.32170000  1.0 0.5486367375
C  C80  1  0.30500000  0.40220000  0.27670000  1.0 0.5486367375
C  C81  1  0.26900000  0.68920000  0.45250000  1.0 0.0975685157
C  C82  1  0.33400000  0.21990000  0.65030000  1.0 0.0693917405
C  C83  1  0.32400000  0.21760000  0.59020000  1.0 -0.1783813722
C  C84  1  0.22400000  0.81220000  0.64310000  1.0 -0.1783813722
C  C85  1  0.22940000  0.80720000  0.70890000  1.0 0.08208271
C  C86  1  0.26900000  0.69300000  0.51520000  1.0 -0.2039389181
C  C87  1  0.24600000  0.19010000  0.40550000  1.0 0.0516863442
C  C88  1  0.23600000  0.18790000  0.46880000  1.0 -0.1575720459
C  C89  1  0.13470000  0.97720000  0.29810000  1.0 -0.1496049091
C  C90  1  0.06250000  0.92780000  0.30520000  1.0 0.0174289323
C  C91  1  0.96550000  0.94680000  0.30120000  1.0 -0.2217210134
C  C92  1  0.94070000  0.01520000  0.29020000  1.0 0.2989985347
C  C93  1  0.01290000  0.06470000  0.28310000  1.0 -0.212665094
C  C94  1  0.10990000  0.04570000  0.28710000  1.0 -0.0056335087
C  C95  1  0.08500000  0.85240000  0.32170000  1.0 0.5486367375
C  C96  1  0.19500000  0.09780000  0.27670000  1.0 0.5441403042
C  C97  1  0.23100000  0.81080000  0.45250000  1.0 0.0975685157
C  C98  1  0.16600000  0.28010000  0.65030000  1.0 0.0693917405
C  C99  1  0.17600000  0.28240000  0.59020000  1.0 -0.1783813722
C  C100  1  0.27600000  0.68780000  0.64310000  1.0 -0.1783813722
C  C101  1  0.27060000  0.69280000  0.70890000  1.0 0.08208271
C  C102  1  0.23100000  0.80700000  0.51520000  1.0 -0.2039389181
C  C103  1  0.25400000  0.30990000  0.40550000  1.0 0.0516863442
C  C104  1  0.26400000  0.31210000  0.46880000  1.0 -0.1575720459
C  C105  1  0.36530000  0.97720000  0.79810000  1.0 -0.1496049091
C  C106  1  0.43750000  0.92780000  0.80520000  1.0 0.0174289323
C  C107  1  0.53450000  0.94680000  0.80120000  1.0 -0.2217210134
C  C108  1  0.55930000  0.01520000  0.79020000  1.0 0.2989985347
C  C109  1  0.48710000  0.06470000  0.78310000  1.0 -0.212665094
C  C110  1  0.39010000  0.04570000  0.78710000  1.0 -0.0056335087
C  C111  1  0.41500000  0.85240000  0.82170000  1.0 0.5486367375
C  C112  1  0.30500000  0.09780000  0.77670000  1.0 0.5486367375
C  C113  1  0.26900000  0.81080000  0.95250000  1.0 0.0975685157
C  C114  1  0.33400000  0.28010000  0.15030000  1.0 0.0693917405
C  C115  1  0.32400000  0.28240000  0.09020000  1.0 -0.1783813722
C  C116  1  0.22400000  0.68780000  0.14310000  1.0 -0.1783813722
C  C117  1  0.22940000  0.69280000  0.20890000  1.0 0.08208271
C  C118  1  0.26900000  0.80700000  0.01520000  1.0 -0.2039389181
C  C119  1  0.24600000  0.30990000  0.90550000  1.0 0.0516863442
C  C120  1  0.23600000  0.31210000  0.96880000  1.0 -0.1575720459
C  C121  1  0.13470000  0.52280000  0.79810000  1.0 -0.1496049091
C  C122  1  0.06250000  0.57220000  0.80520000  1.0 0.0174289323
C  C123  1  0.96550000  0.55320000  0.80120000  1.0 -0.2217210134
C  C124  1  0.94070000  0.48480000  0.79020000  1.0 0.2989985347
C  C125  1  0.01290000  0.43530000  0.78310000  1.0 -0.212665094
C  C126  1  0.10990000  0.45430000  0.78710000  1.0 -0.0056335087
C  C127  1  0.08500000  0.64760000  0.82170000  1.0 0.5486367375
C  C128  1  0.19500000  0.40220000  0.77670000  1.0 0.5441403042
C  C129  1  0.23100000  0.68920000  0.95250000  1.0 0.0975685157
C  C130  1  0.16600000  0.21990000  0.15030000  1.0 0.0693917405
C  C131  1  0.17600000  0.21760000  0.09020000  1.0 -0.1783813722
C  C132  1  0.27600000  0.81220000  0.14310000  1.0 -0.1783813722
C  C133  1  0.27060000  0.80720000  0.20890000  1.0 0.08208271
C  C134  1  0.23100000  0.69300000  0.01520000  1.0 -0.2039389181
C  C135  1  0.25400000  0.19010000  0.90550000  1.0 0.0516863442
C  C136  1  0.26400000  0.18790000  0.96880000  1.0 -0.1575720459
C  C137  1  0.25000000  0.25000000  0.49090000  1.0 0.034385141
C  C138  1  0.25000000  0.25000000  0.55920000  1.0 0.1219654233
C  C139  1  0.25000000  0.25000000  0.99090000  1.0 0.034385141
C  C140  1  0.25000000  0.25000000  0.05920000  1.0 0.1219654233
C  C141  1  0.25000000  0.75000000  0.54710000  1.0 0.0912280865
C  C142  1  0.25000000  0.75000000  0.60990000  1.0 0.08208271
C  C143  1  0.25000000  0.75000000  0.04710000  1.0 0.0912280865
C  C144  1  0.25000000  0.75000000  0.10990000  1.0 0.08208271
N  N1  1  0.75000000  0.75000000  0.81420000  1.0 -0.2361918538
N  N2  1  0.75000000  0.75000000  0.13090000  1.0 -0.2819903641
N  N3  1  0.75000000  0.75000000  0.31420000  1.0 -0.2361918538
N  N4  1  0.75000000  0.75000000  0.63090000  1.0 -0.2819903641
N  N5  1  0.75000000  0.25000000  0.75570000  1.0 -0.234128803
N  N6  1  0.75000000  0.25000000  0.07570000  1.0 -0.2217210134
N  N7  1  0.75000000  0.25000000  0.25570000  1.0 -0.234128803
N  N8  1  0.75000000  0.25000000  0.57570000  1.0 -0.2217210134
N  N9  1  0.25000000  0.25000000  0.68580000  1.0 -0.2361918538
N  N10  1  0.25000000  0.25000000  0.36910000  1.0 -0.2819903641
N  N11  1  0.25000000  0.25000000  0.18580000  1.0 -0.2361918538
N  N12  1  0.25000000  0.25000000  0.86910000  1.0 -0.2819903641
N  N13  1  0.25000000  0.75000000  0.74430000  1.0 -0.234128803
N  N14  1  0.25000000  0.75000000  0.42430000  1.0 -0.2217210134
N  N15  1  0.25000000  0.75000000  0.24430000  1.0 -0.234128803
N  N16  1  0.25000000  0.75000000  0.92430000  1.0 -0.2217210134
O  O1  1  0.67700000  0.15940000  0.16840000  1.0 -0.576840803
O  O2  1  0.67120000  0.83900000  0.22510000  1.0 -0.4976611361
O  O3  1  0.52170000  0.19130000  0.19010000  1.0 -0.5451397448
O  O4  1  0.34630000  0.96730000  0.21290000  1.0 -0.4226221293
O  O5  1  0.77800000  0.91870000  0.23560000  1.0 -0.4976611361
O  O6  1  0.82300000  0.34060000  0.16840000  1.0 -0.576840803
O  O7  1  0.82880000  0.66100000  0.22510000  1.0 -0.4976611361
O  O8  1  0.97830000  0.30870000  0.19010000  1.0 -0.5451397448
O  O9  1  0.15370000  0.53270000  0.21290000  1.0 -0.4226221293
O  O10  1  0.72200000  0.58130000  0.23560000  1.0 -0.4976611361
O  O11  1  0.67700000  0.34060000  0.66840000  1.0 -0.576840803
O  O12  1  0.67120000  0.66100000  0.72510000  1.0 -0.4976611361
O  O13  1  0.52170000  0.30870000  0.69010000  1.0 -0.5451397448
O  O14  1  0.34630000  0.53270000  0.71290000  1.0 -0.4226221293
O  O15  1  0.77800000  0.58130000  0.73560000  1.0 -0.4976611361
O  O16  1  0.82300000  0.15940000  0.66840000  1.0 -0.576840803
O  O17  1  0.82880000  0.83900000  0.72510000  1.0 -0.4976611361
O  O18  1  0.97830000  0.19130000  0.69010000  1.0 -0.5451397448
O  O19  1  0.15370000  0.96730000  0.71290000  1.0 -0.4226221293
O  O20  1  0.72200000  0.91870000  0.73560000  1.0 -0.4976611361
O  O21  1  0.32300000  0.65940000  0.33160000  1.0 -0.576840803
O  O22  1  0.32880000  0.33900000  0.27490000  1.0 -0.4976611361
O  O23  1  0.47830000  0.69130000  0.30990000  1.0 -0.5451397448
O  O24  1  0.65370000  0.46730000  0.28710000  1.0 -0.4226221293
O  O25  1  0.22200000  0.41870000  0.26440000  1.0 -0.4976611361
O  O26  1  0.17700000  0.84060000  0.33160000  1.0 -0.576840803
O  O27  1  0.17120000  0.16100000  0.27490000  1.0 -0.4976611361
O  O28  1  0.02170000  0.80870000  0.30990000  1.0 -0.5451397448
O  O29  1  0.84630000  0.03270000  0.28710000  1.0 -0.4226221293
O  O30  1  0.27800000  0.08130000  0.26440000  1.0 -0.4976611361
O  O31  1  0.32300000  0.84060000  0.83160000  1.0 -0.576840803
O  O32  1  0.32880000  0.16100000  0.77490000  1.0 -0.4976611361
O  O33  1  0.47830000  0.80870000  0.80990000  1.0 -0.5451397448
O  O34  1  0.65370000  0.03270000  0.78710000  1.0 -0.4226221293
O  O35  1  0.22200000  0.08130000  0.76440000  1.0 -0.4976611361
O  O36  1  0.17700000  0.65940000  0.83160000  1.0 -0.576840803
O  O37  1  0.17120000  0.33900000  0.77490000  1.0 -0.4976611361
O  O38  1  0.02170000  0.69130000  0.80990000  1.0 -0.5451397448
O  O39  1  0.84630000  0.46730000  0.78710000  1.0 -0.4226221293
O  O40  1  0.27800000  0.41870000  0.76440000  1.0 -0.4976611361
