# DDEC6 charges by PACMAN v1.1 (https://github.com/mtap-research/PACMAN-charge/)
data_QEQXUI01_ASR_pacman
_symmetry_space_group_name_H-M   'P 1'
_cell_length_a   13.53000000
_cell_length_b   19.33700000
_cell_length_c   22.51200000
_cell_angle_alpha   90.00000000
_cell_angle_beta   90.00000000
_cell_angle_gamma   90.00000000
_symmetry_Int_Tables_number   1
_chemical_formula_structural   NiH12C18N2O5
_chemical_formula_sum   'Ni8 H96 C144 N16 O40'
_cell_volume   5889.80578032
_cell_formula_units_Z   8
loop_
 _symmetry_equiv_pos_site_id
 _symmetry_equiv_pos_as_xyz
  1  'x, y, z'
loop_
 _atom_site_type_symbol
 _atom_site_label
 _atom_site_symmetry_multiplicity
 _atom_site_fract_x
 _atom_site_fract_y
 _atom_site_fract_z
 _atom_site_occupancy
 _atom_site_charge
Ni  Ni1  1  0.75000000  0.75000000  0.21528000  1.0 0.6972202883
Ni  Ni2  1  0.75000000  0.75000000  0.71528000  1.0 0.6972202883
Ni  Ni3  1  0.75000000  0.25000000  0.16791000  1.0 0.7438509987
Ni  Ni4  1  0.75000000  0.25000000  0.66791000  1.0 0.7438509987
Ni  Ni5  1  0.25000000  0.25000000  0.28472000  1.0 0.6972202883
Ni  Ni6  1  0.25000000  0.25000000  0.78472000  1.0 0.6972202883
Ni  Ni7  1  0.25000000  0.75000000  0.33209000  1.0 0.7438509987
Ni  Ni8  1  0.25000000  0.75000000  0.83209000  1.0 0.7483852432
H  H1  1  0.31700000  0.99000000  0.24650000  1.0 0.3445782104
H  H2  1  0.69340000  0.03890000  0.19440000  1.0 0.1125972247
H  H3  1  0.40400000  0.08540000  0.19850000  1.0 0.139264986
H  H4  1  0.49290000  0.88910000  0.22250000  1.0 0.1284221545
H  H5  1  0.76200000  0.14780000  0.06560000  1.0 0.1284221545
H  H6  1  0.62080000  0.69770000  0.81860000  1.0 0.1284221545
H  H7  1  0.63740000  0.68240000  0.92010000  1.0 0.1284221545
H  H8  1  0.79310000  0.34890000  0.87020000  1.0 0.1284221545
H  H9  1  0.77720000  0.35170000  0.77150000  1.0 0.123119943
H  H10  1  0.75120000  0.14700000  0.96400000  1.0 0.1284221545
H  H11  1  0.68150000  0.66240000  0.11310000  1.0 0.1284221545
H  H12  1  0.68690000  0.65890000  0.01180000  1.0 0.139264986
H  H13  1  0.18300000  0.51000000  0.24650000  1.0 0.3445782104
H  H14  1  0.80660000  0.46110000  0.19440000  1.0 0.1125972247
H  H15  1  0.09600000  0.41460000  0.19850000  1.0 0.139264986
H  H16  1  0.00710000  0.61090000  0.22250000  1.0 0.1284221545
H  H17  1  0.73800000  0.35220000  0.06560000  1.0 0.1284221545
H  H18  1  0.87920000  0.80230000  0.81860000  1.0 0.1284221545
H  H19  1  0.86260000  0.81760000  0.92010000  1.0 0.1284221545
H  H20  1  0.70690000  0.15110000  0.87020000  1.0 0.1284221545
H  H21  1  0.72280000  0.14830000  0.77150000  1.0 0.123119943
H  H22  1  0.74880000  0.35300000  0.96400000  1.0 0.1284221545
H  H23  1  0.81850000  0.83760000  0.11310000  1.0 0.1284221545
H  H24  1  0.81310000  0.84110000  0.01180000  1.0 0.139264986
H  H25  1  0.31700000  0.51000000  0.74650000  1.0 0.3445782104
H  H26  1  0.69340000  0.46110000  0.69440000  1.0 0.1125972247
H  H27  1  0.40400000  0.41460000  0.69850000  1.0 0.139264986
H  H28  1  0.49290000  0.61090000  0.72250000  1.0 0.1284221545
H  H29  1  0.76200000  0.35220000  0.56560000  1.0 0.1284221545
H  H30  1  0.62080000  0.80230000  0.31860000  1.0 0.1284221545
H  H31  1  0.63740000  0.81760000  0.42010000  1.0 0.1284221545
H  H32  1  0.79310000  0.15110000  0.37020000  1.0 0.1284221545
H  H33  1  0.77720000  0.14830000  0.27150000  1.0 0.123119943
H  H34  1  0.75120000  0.35300000  0.46400000  1.0 0.1284221545
H  H35  1  0.68150000  0.83760000  0.61310000  1.0 0.1284221545
H  H36  1  0.68690000  0.84110000  0.51180000  1.0 0.139264986
H  H37  1  0.18300000  0.99000000  0.74650000  1.0 0.3445782104
H  H38  1  0.80660000  0.03890000  0.69440000  1.0 0.1125972247
H  H39  1  0.09600000  0.08540000  0.69850000  1.0 0.139264986
H  H40  1  0.00710000  0.88910000  0.72250000  1.0 0.1284221545
H  H41  1  0.73800000  0.14780000  0.56560000  1.0 0.1284221545
H  H42  1  0.87920000  0.69770000  0.31860000  1.0 0.1284221545
H  H43  1  0.86260000  0.68240000  0.42010000  1.0 0.1284221545
H  H44  1  0.70690000  0.34890000  0.37020000  1.0 0.1284221545
H  H45  1  0.72280000  0.35170000  0.27150000  1.0 0.123119943
H  H46  1  0.74880000  0.14700000  0.46400000  1.0 0.1284221545
H  H47  1  0.81850000  0.66240000  0.61310000  1.0 0.1284221545
H  H48  1  0.81310000  0.65890000  0.51180000  1.0 0.139264986
H  H49  1  0.68300000  0.49000000  0.25350000  1.0 0.3445782104
H  H50  1  0.30660000  0.53890000  0.30560000  1.0 0.1125972247
H  H51  1  0.59600000  0.58540000  0.30150000  1.0 0.139264986
H  H52  1  0.50710000  0.38910000  0.27750000  1.0 0.1284221545
H  H53  1  0.23800000  0.64780000  0.43440000  1.0 0.1284221545
H  H54  1  0.37920000  0.19770000  0.68140000  1.0 0.1284221545
H  H55  1  0.36260000  0.18240000  0.57990000  1.0 0.1284221545
H  H56  1  0.20690000  0.84890000  0.62980000  1.0 0.1284221545
H  H57  1  0.22280000  0.85170000  0.72850000  1.0 0.123119943
H  H58  1  0.24880000  0.64700000  0.53600000  1.0 0.1284221545
H  H59  1  0.31850000  0.16240000  0.38690000  1.0 0.1284221545
H  H60  1  0.31310000  0.15890000  0.48820000  1.0 0.139264986
H  H61  1  0.81700000  0.01000000  0.25350000  1.0 0.3445782104
H  H62  1  0.19340000  0.96110000  0.30560000  1.0 0.1125972247
H  H63  1  0.90400000  0.91460000  0.30150000  1.0 0.139264986
H  H64  1  0.99290000  0.11090000  0.27750000  1.0 0.1284221545
H  H65  1  0.26200000  0.85220000  0.43440000  1.0 0.1284221545
H  H66  1  0.12080000  0.30230000  0.68140000  1.0 0.1284221545
H  H67  1  0.13740000  0.31760000  0.57990000  1.0 0.1284221545
H  H68  1  0.29310000  0.65110000  0.62980000  1.0 0.1284221545
H  H69  1  0.27720000  0.64830000  0.72850000  1.0 0.123119943
H  H70  1  0.25120000  0.85300000  0.53600000  1.0 0.1284221545
H  H71  1  0.18150000  0.33760000  0.38690000  1.0 0.1284221545
H  H72  1  0.18690000  0.34110000  0.48820000  1.0 0.139264986
H  H73  1  0.68300000  0.01000000  0.75350000  1.0 0.3445782104
H  H74  1  0.30660000  0.96110000  0.80560000  1.0 0.1125972247
H  H75  1  0.59600000  0.91460000  0.80150000  1.0 0.139264986
H  H76  1  0.50710000  0.11090000  0.77750000  1.0 0.1284221545
H  H77  1  0.23800000  0.85220000  0.93440000  1.0 0.1284221545
H  H78  1  0.37920000  0.30230000  0.18140000  1.0 0.1284221545
H  H79  1  0.36260000  0.31760000  0.07990000  1.0 0.1284221545
H  H80  1  0.20690000  0.65110000  0.12980000  1.0 0.1284221545
H  H81  1  0.22280000  0.64830000  0.22850000  1.0 0.123119943
H  H82  1  0.24880000  0.85300000  0.03600000  1.0 0.1284221545
H  H83  1  0.31850000  0.33760000  0.88690000  1.0 0.1284221545
H  H84  1  0.31310000  0.34110000  0.98820000  1.0 0.139264986
H  H85  1  0.81700000  0.49000000  0.75350000  1.0 0.3445782104
H  H86  1  0.19340000  0.53890000  0.80560000  1.0 0.1125972247
H  H87  1  0.90400000  0.58540000  0.80150000  1.0 0.139264986
H  H88  1  0.99290000  0.38910000  0.77750000  1.0 0.1284221545
H  H89  1  0.26200000  0.64780000  0.93440000  1.0 0.1284221545
H  H90  1  0.12080000  0.19770000  0.18140000  1.0 0.1284221545
H  H91  1  0.13740000  0.18240000  0.07990000  1.0 0.1284221545
H  H92  1  0.29310000  0.84890000  0.12980000  1.0 0.1284221545
H  H93  1  0.27720000  0.85170000  0.22850000  1.0 0.123119943
H  H94  1  0.25120000  0.64700000  0.03600000  1.0 0.1284221545
H  H95  1  0.18150000  0.16240000  0.88690000  1.0 0.1284221545
H  H96  1  0.18690000  0.15890000  0.98820000  1.0 0.139264986
C  C1  1  0.62790000  0.02510000  0.19870000  1.0 -0.1329019441
C  C2  1  0.55230000  0.07360000  0.19470000  1.0 -0.0163404412
C  C3  1  0.45450000  0.05290000  0.20110000  1.0 -0.1995754772
C  C4  1  0.43220000  0.98380000  0.21150000  1.0 0.2921990083
C  C5  1  0.50780000  0.93530000  0.21550000  1.0 -0.2182190762
C  C6  1  0.60560000  0.95600000  0.20910000  1.0 -0.0065107168
C  C7  1  0.58100000  0.14600000  0.18350000  1.0 0.549163893
C  C8  1  0.68400000  0.90030000  0.21420000  1.0 0.5598971174
C  C9  1  0.75600000  0.18950000  0.04540000  1.0 0.0835119003
C  C10  1  0.67500000  0.71670000  0.83800000  1.0 0.0946930931
C  C11  1  0.68000000  0.71160000  0.90000000  1.0 -0.1772447125
C  C12  1  0.77300000  0.30850000  0.85130000  1.0 -0.156365998
C  C13  1  0.76800000  0.30990000  0.79120000  1.0 0.0707864371
C  C14  1  0.75200000  0.18930000  0.98360000  1.0 -0.1772447125
C  C15  1  0.71100000  0.69860000  0.09240000  1.0 0.0946930931
C  C16  1  0.71200000  0.69720000  0.03160000  1.0 -0.1995754772
C  C17  1  0.87210000  0.47490000  0.19870000  1.0 -0.1329019441
C  C18  1  0.94770000  0.42640000  0.19470000  1.0 -0.0163404412
C  C19  1  0.04550000  0.44710000  0.20110000  1.0 -0.1995754772
C  C20  1  0.06780000  0.51620000  0.21150000  1.0 0.2921990083
C  C21  1  0.99220000  0.56470000  0.21550000  1.0 -0.2182190762
C  C22  1  0.89440000  0.54400000  0.20910000  1.0 -0.0065107168
C  C23  1  0.91900000  0.35400000  0.18350000  1.0 0.549163893
C  C24  1  0.81600000  0.59970000  0.21420000  1.0 0.5598971174
C  C25  1  0.74400000  0.31050000  0.04540000  1.0 0.0835119003
C  C26  1  0.82500000  0.78330000  0.83800000  1.0 0.0946930931
C  C27  1  0.82000000  0.78840000  0.90000000  1.0 -0.1772447125
C  C28  1  0.72700000  0.19150000  0.85130000  1.0 -0.156365998
C  C29  1  0.73200000  0.19010000  0.79120000  1.0 0.0707864371
C  C30  1  0.74800000  0.31070000  0.98360000  1.0 -0.1772447125
C  C31  1  0.78900000  0.80140000  0.09240000  1.0 0.101010798
C  C32  1  0.78800000  0.80280000  0.03160000  1.0 -0.1995754772
C  C33  1  0.62790000  0.47490000  0.69870000  1.0 -0.1329019441
C  C34  1  0.55230000  0.42640000  0.69470000  1.0 -0.0163404412
C  C35  1  0.45450000  0.44710000  0.70110000  1.0 -0.1995754772
C  C36  1  0.43220000  0.51620000  0.71150000  1.0 0.2921990083
C  C37  1  0.50780000  0.56470000  0.71550000  1.0 -0.2182190762
C  C38  1  0.60560000  0.54400000  0.70910000  1.0 -0.0065107168
C  C39  1  0.58100000  0.35400000  0.68350000  1.0 0.549163893
C  C40  1  0.68400000  0.59970000  0.71420000  1.0 0.5598971174
C  C41  1  0.75600000  0.31050000  0.54540000  1.0 0.0835119003
C  C42  1  0.67500000  0.78330000  0.33800000  1.0 0.0946930931
C  C43  1  0.68000000  0.78840000  0.40000000  1.0 -0.1772447125
C  C44  1  0.77300000  0.19150000  0.35130000  1.0 -0.156365998
C  C45  1  0.76800000  0.19010000  0.29120000  1.0 0.0707864371
C  C46  1  0.75200000  0.31070000  0.48360000  1.0 -0.1772447125
C  C47  1  0.71100000  0.80140000  0.59240000  1.0 0.0946930931
C  C48  1  0.71200000  0.80280000  0.53160000  1.0 -0.1995754772
C  C49  1  0.87210000  0.02510000  0.69870000  1.0 -0.1329019441
C  C50  1  0.94770000  0.07360000  0.69470000  1.0 -0.0163404412
C  C51  1  0.04550000  0.05290000  0.70110000  1.0 -0.1995754772
C  C52  1  0.06780000  0.98380000  0.71150000  1.0 0.2921990083
C  C53  1  0.99220000  0.93530000  0.71550000  1.0 -0.2182190762
C  C54  1  0.89440000  0.95600000  0.70910000  1.0 -0.0065107168
C  C55  1  0.91900000  0.14600000  0.68350000  1.0 0.549163893
C  C56  1  0.81600000  0.90030000  0.71420000  1.0 0.5598971174
C  C57  1  0.74400000  0.18950000  0.54540000  1.0 0.0835119003
C  C58  1  0.82500000  0.71670000  0.33800000  1.0 0.0946930931
C  C59  1  0.82000000  0.71160000  0.40000000  1.0 -0.1772447125
C  C60  1  0.72700000  0.30850000  0.35130000  1.0 -0.156365998
C  C61  1  0.73200000  0.30990000  0.29120000  1.0 0.0707864371
C  C62  1  0.74800000  0.18930000  0.48360000  1.0 -0.1772447125
C  C63  1  0.78900000  0.69860000  0.59240000  1.0 0.0946930931
C  C64  1  0.78800000  0.69720000  0.53160000  1.0 -0.1995754772
C  C65  1  0.75000000  0.75000000  0.99970000  1.0 0.1125972247
C  C66  1  0.75000000  0.75000000  0.93200000  1.0 0.101010798
C  C67  1  0.75000000  0.75000000  0.49970000  1.0 0.1125972247
C  C68  1  0.75000000  0.75000000  0.43200000  1.0 0.101010798
C  C69  1  0.75000000  0.25000000  0.94960000  1.0 0.0707864371
C  C70  1  0.75000000  0.25000000  0.88860000  1.0 0.0707864371
C  C71  1  0.75000000  0.25000000  0.44960000  1.0 0.0707864371
C  C72  1  0.75000000  0.25000000  0.38860000  1.0 0.0707864371
C  C73  1  0.37210000  0.52510000  0.30130000  1.0 -0.1329019441
C  C74  1  0.44770000  0.57360000  0.30530000  1.0 -0.0163404412
C  C75  1  0.54550000  0.55290000  0.29890000  1.0 -0.1995754772
C  C76  1  0.56780000  0.48380000  0.28850000  1.0 0.2921990083
C  C77  1  0.49220000  0.43530000  0.28450000  1.0 -0.2182190762
C  C78  1  0.39440000  0.45600000  0.29090000  1.0 -0.0065107168
C  C79  1  0.41900000  0.64600000  0.31650000  1.0 0.549163893
C  C80  1  0.31600000  0.40030000  0.28580000  1.0 0.5598971174
C  C81  1  0.24400000  0.68950000  0.45460000  1.0 0.0835119003
C  C82  1  0.32500000  0.21670000  0.66200000  1.0 0.0946930931
C  C83  1  0.32000000  0.21160000  0.60000000  1.0 -0.1772447125
C  C84  1  0.22700000  0.80850000  0.64870000  1.0 -0.156365998
C  C85  1  0.23200000  0.80990000  0.70880000  1.0 0.0707864371
C  C86  1  0.24800000  0.68930000  0.51640000  1.0 -0.1772447125
C  C87  1  0.28900000  0.19860000  0.40760000  1.0 0.0946930931
C  C88  1  0.28800000  0.19720000  0.46840000  1.0 -0.1995754772
C  C89  1  0.12790000  0.97490000  0.30130000  1.0 -0.1329019441
C  C90  1  0.05230000  0.92640000  0.30530000  1.0 -0.0163404412
C  C91  1  0.95450000  0.94710000  0.29890000  1.0 -0.1995754772
C  C92  1  0.93220000  0.01620000  0.28850000  1.0 0.2921990083
C  C93  1  0.00780000  0.06470000  0.28450000  1.0 -0.2182190762
C  C94  1  0.10560000  0.04400000  0.29090000  1.0 -0.0065107168
C  C95  1  0.08100000  0.85400000  0.31650000  1.0 0.549163893
C  C96  1  0.18400000  0.09970000  0.28580000  1.0 0.5598971174
C  C97  1  0.25600000  0.81050000  0.45460000  1.0 0.0835119003
C  C98  1  0.17500000  0.28330000  0.66200000  1.0 0.0946930931
C  C99  1  0.18000000  0.28840000  0.60000000  1.0 -0.1772447125
C  C100  1  0.27300000  0.69150000  0.64870000  1.0 -0.156365998
C  C101  1  0.26800000  0.69010000  0.70880000  1.0 0.0707864371
C  C102  1  0.25200000  0.81070000  0.51640000  1.0 -0.1772447125
C  C103  1  0.21100000  0.30140000  0.40760000  1.0 0.0946930931
C  C104  1  0.21200000  0.30280000  0.46840000  1.0 -0.1995754772
C  C105  1  0.37210000  0.97490000  0.80130000  1.0 -0.1329019441
C  C106  1  0.44770000  0.92640000  0.80530000  1.0 -0.0163404412
C  C107  1  0.54550000  0.94710000  0.79890000  1.0 -0.1995754772
C  C108  1  0.56780000  0.01620000  0.78850000  1.0 0.2921990083
C  C109  1  0.49220000  0.06470000  0.78450000  1.0 -0.2182190762
C  C110  1  0.39440000  0.04400000  0.79090000  1.0 -0.0065107168
C  C111  1  0.41900000  0.85400000  0.81650000  1.0 0.549163893
C  C112  1  0.31600000  0.09970000  0.78580000  1.0 0.5598971174
C  C113  1  0.24400000  0.81050000  0.95460000  1.0 0.0835119003
C  C114  1  0.32500000  0.28330000  0.16200000  1.0 0.0946930931
C  C115  1  0.32000000  0.28840000  0.10000000  1.0 -0.1772447125
C  C116  1  0.22700000  0.69150000  0.14870000  1.0 -0.156365998
C  C117  1  0.23200000  0.69010000  0.20880000  1.0 0.0707864371
C  C118  1  0.24800000  0.81070000  0.01640000  1.0 -0.1772447125
C  C119  1  0.28900000  0.30140000  0.90760000  1.0 0.0946930931
C  C120  1  0.28800000  0.30280000  0.96840000  1.0 -0.1995754772
C  C121  1  0.12790000  0.52510000  0.80130000  1.0 -0.1329019441
C  C122  1  0.05230000  0.57360000  0.80530000  1.0 -0.0163404412
C  C123  1  0.95450000  0.55290000  0.79890000  1.0 -0.1995754772
C  C124  1  0.93220000  0.48380000  0.78850000  1.0 0.2921990083
C  C125  1  0.00780000  0.43530000  0.78450000  1.0 -0.2182190762
C  C126  1  0.10560000  0.45600000  0.79090000  1.0 -0.0065107168
C  C127  1  0.08100000  0.64600000  0.81650000  1.0 0.549163893
C  C128  1  0.18400000  0.40030000  0.78580000  1.0 0.5598971174
C  C129  1  0.25600000  0.68950000  0.95460000  1.0 0.0835119003
C  C130  1  0.17500000  0.21670000  0.16200000  1.0 0.0946930931
C  C131  1  0.18000000  0.21160000  0.10000000  1.0 -0.1772447125
C  C132  1  0.27300000  0.80850000  0.14870000  1.0 -0.156365998
C  C133  1  0.26800000  0.80990000  0.20880000  1.0 0.0707864371
C  C134  1  0.25200000  0.68930000  0.01640000  1.0 -0.1772447125
C  C135  1  0.21100000  0.19860000  0.90760000  1.0 0.0946930931
C  C136  1  0.21200000  0.19720000  0.96840000  1.0 -0.1995754772
C  C137  1  0.25000000  0.25000000  0.50030000  1.0 0.1125972247
C  C138  1  0.25000000  0.25000000  0.56800000  1.0 0.101010798
C  C139  1  0.25000000  0.25000000  0.00030000  1.0 0.1125972247
C  C140  1  0.25000000  0.25000000  0.06800000  1.0 0.101010798
C  C141  1  0.25000000  0.75000000  0.55040000  1.0 0.0707864371
C  C142  1  0.25000000  0.75000000  0.61140000  1.0 0.0707864371
C  C143  1  0.25000000  0.75000000  0.05040000  1.0 0.0707864371
C  C144  1  0.25000000  0.75000000  0.11140000  1.0 0.0707864371
N  N1  1  0.75000000  0.75000000  0.80340000  1.0 -0.2383765391
N  N2  1  0.75000000  0.75000000  0.12190000  1.0 -0.1918820812
N  N3  1  0.75000000  0.75000000  0.30340000  1.0 -0.2383765391
N  N4  1  0.75000000  0.75000000  0.62190000  1.0 -0.1918820812
N  N5  1  0.75000000  0.25000000  0.75770000  1.0 -0.2182190762
N  N6  1  0.75000000  0.25000000  0.07720000  1.0 -0.2315026565
N  N7  1  0.75000000  0.25000000  0.25770000  1.0 -0.2182190762
N  N8  1  0.75000000  0.25000000  0.57720000  1.0 -0.2315026565
N  N9  1  0.25000000  0.25000000  0.69660000  1.0 -0.2383765391
N  N10  1  0.25000000  0.25000000  0.37810000  1.0 -0.1918820812
N  N11  1  0.25000000  0.25000000  0.19660000  1.0 -0.2383765391
N  N12  1  0.25000000  0.25000000  0.87810000  1.0 -0.1918820812
N  N13  1  0.25000000  0.75000000  0.74230000  1.0 -0.2315026565
N  N14  1  0.25000000  0.75000000  0.42280000  1.0 -0.2315026565
N  N15  1  0.25000000  0.75000000  0.24230000  1.0 -0.2182190762
N  N16  1  0.25000000  0.75000000  0.92280000  1.0 -0.2315026565
O  O1  1  0.67500000  0.15720000  0.16840000  1.0 -0.5862444787
O  O2  1  0.65950000  0.83750000  0.21240000  1.0 -0.540431667
O  O3  1  0.52200000  0.19420000  0.19250000  1.0 -0.540431667
O  O4  1  0.33700000  0.96630000  0.21900000  1.0 -0.4338098316
O  O5  1  0.77200000  0.91910000  0.22490000  1.0 -0.5758266693
O  O6  1  0.82500000  0.34280000  0.16840000  1.0 -0.5862444787
O  O7  1  0.84050000  0.66250000  0.21240000  1.0 -0.540431667
O  O8  1  0.97800000  0.30580000  0.19250000  1.0 -0.540431667
O  O9  1  0.16300000  0.53370000  0.21900000  1.0 -0.4338098316
O  O10  1  0.72800000  0.58090000  0.22490000  1.0 -0.5758266693
O  O11  1  0.67500000  0.34280000  0.66840000  1.0 -0.5862444787
O  O12  1  0.65950000  0.66250000  0.71240000  1.0 -0.540431667
O  O13  1  0.52200000  0.30580000  0.69250000  1.0 -0.540431667
O  O14  1  0.33700000  0.53370000  0.71900000  1.0 -0.4338098316
O  O15  1  0.77200000  0.58090000  0.72490000  1.0 -0.5758266693
O  O16  1  0.82500000  0.15720000  0.66840000  1.0 -0.5862444787
O  O17  1  0.84050000  0.83750000  0.71240000  1.0 -0.540431667
O  O18  1  0.97800000  0.19420000  0.69250000  1.0 -0.540431667
O  O19  1  0.16300000  0.96630000  0.71900000  1.0 -0.4338098316
O  O20  1  0.72800000  0.91910000  0.72490000  1.0 -0.5758266693
O  O21  1  0.32500000  0.65720000  0.33160000  1.0 -0.5862444787
O  O22  1  0.34050000  0.33750000  0.28760000  1.0 -0.540431667
O  O23  1  0.47800000  0.69420000  0.30750000  1.0 -0.540431667
O  O24  1  0.66300000  0.46630000  0.28100000  1.0 -0.4338098316
O  O25  1  0.22800000  0.41910000  0.27510000  1.0 -0.5758266693
O  O26  1  0.17500000  0.84280000  0.33160000  1.0 -0.5862444787
O  O27  1  0.15950000  0.16250000  0.28760000  1.0 -0.540431667
O  O28  1  0.02200000  0.80580000  0.30750000  1.0 -0.540431667
O  O29  1  0.83700000  0.03370000  0.28100000  1.0 -0.4338098316
O  O30  1  0.27200000  0.08090000  0.27510000  1.0 -0.5758266693
O  O31  1  0.32500000  0.84280000  0.83160000  1.0 -0.5862444787
O  O32  1  0.34050000  0.16250000  0.78760000  1.0 -0.540431667
O  O33  1  0.47800000  0.80580000  0.80750000  1.0 -0.540431667
O  O34  1  0.66300000  0.03370000  0.78100000  1.0 -0.4338098316
O  O35  1  0.22800000  0.08090000  0.77510000  1.0 -0.5744991972
O  O36  1  0.17500000  0.65720000  0.83160000  1.0 -0.5862444787
O  O37  1  0.15950000  0.33750000  0.78760000  1.0 -0.540431667
O  O38  1  0.02200000  0.69420000  0.80750000  1.0 -0.540431667
O  O39  1  0.83700000  0.46630000  0.78100000  1.0 -0.4338098316
O  O40  1  0.27200000  0.41910000  0.77510000  1.0 -0.5758266693
