# DDEC6 charges by PACMAN v1.1 (https://github.com/mtap-research/PACMAN-charge/)
data_QEQXUI07_ASR_pacman
_symmetry_space_group_name_H-M   'P 1'
_cell_length_a   13.49600000
_cell_length_b   19.21200000
_cell_length_c   22.38100000
_cell_angle_alpha   90.00000000
_cell_angle_beta   90.00000000
_cell_angle_gamma   90.00000000
_symmetry_Int_Tables_number   1
_chemical_formula_structural   NiH11C18N2O5
_chemical_formula_sum   'Ni8 H88 C144 N16 O40'
_cell_volume   5803.06098691
_cell_formula_units_Z   8
loop_
 _symmetry_equiv_pos_site_id
 _symmetry_equiv_pos_as_xyz
  1  'x, y, z'
loop_
 _atom_site_type_symbol
 _atom_site_label
 _atom_site_symmetry_multiplicity
 _atom_site_fract_x
 _atom_site_fract_y
 _atom_site_fract_z
 _atom_site_occupancy
 _atom_site_charge
Ni  Ni1  1  0.75000000  0.75000000  0.21690000  1.0 0.6707902883
Ni  Ni2  1  0.75000000  0.75000000  0.71690000  1.0 0.6707902883
Ni  Ni3  1  0.75000000  0.25000000  0.16627000  1.0 0.7595684265
Ni  Ni4  1  0.75000000  0.25000000  0.66627000  1.0 0.7595684265
Ni  Ni5  1  0.25000000  0.25000000  0.28310000  1.0 0.6707902883
Ni  Ni6  1  0.25000000  0.25000000  0.78310000  1.0 0.6707902883
Ni  Ni7  1  0.25000000  0.75000000  0.33373000  1.0 0.7595684265
Ni  Ni8  1  0.25000000  0.75000000  0.83373000  1.0 0.7595684265
H  H1  1  0.31400000  0.98840000  0.23900000  1.0 0.3606081453
H  H2  1  0.70010000  0.03860000  0.19390000  1.0 0.1208619398
H  H3  1  0.41050000  0.08700000  0.19300000  1.0 0.1392662095
H  H4  1  0.49660000  0.89040000  0.22540000  1.0 0.1319277565
H  H5  1  0.61820000  0.70660000  0.81250000  1.0 0.1392662095
H  H6  1  0.78620000  0.34950000  0.87450000  1.0 0.1657793258
H  H7  1  0.89210000  0.77460000  0.10640000  1.0 0.1131296341
H  H8  1  0.88990000  0.77900000  0.00250000  1.0 0.1208619398
H  H9  1  0.79550000  0.34760000  0.06260000  1.0 0.1319277565
H  H10  1  0.79230000  0.34790000  0.96420000  1.0 0.1392662095
H  H11  1  0.61790000  0.70620000  0.91440000  1.0 0.1392662095
H  H12  1  0.18600000  0.51160000  0.23900000  1.0 0.3606081453
H  H13  1  0.79990000  0.46140000  0.19390000  1.0 0.1208619398
H  H14  1  0.08950000  0.41300000  0.19300000  1.0 0.1392662095
H  H15  1  0.00340000  0.60960000  0.22540000  1.0 0.1319277565
H  H16  1  0.88180000  0.79340000  0.81250000  1.0 0.1392662095
H  H17  1  0.71380000  0.15050000  0.87450000  1.0 0.1657793258
H  H18  1  0.60790000  0.72540000  0.10640000  1.0 0.1131296341
H  H19  1  0.61010000  0.72100000  0.00250000  1.0 0.1208619398
H  H20  1  0.70450000  0.15240000  0.06260000  1.0 0.1319277565
H  H21  1  0.70770000  0.15210000  0.96420000  1.0 0.1392662095
H  H22  1  0.88210000  0.79380000  0.91440000  1.0 0.1392662095
H  H23  1  0.31400000  0.51160000  0.73900000  1.0 0.3606081453
H  H24  1  0.70010000  0.46140000  0.69390000  1.0 0.1208619398
H  H25  1  0.41050000  0.41300000  0.69300000  1.0 0.1392662095
H  H26  1  0.49660000  0.60960000  0.72540000  1.0 0.1319277565
H  H27  1  0.61820000  0.79340000  0.31250000  1.0 0.1392662095
H  H28  1  0.78620000  0.15050000  0.37450000  1.0 0.1657793258
H  H29  1  0.89210000  0.72540000  0.60640000  1.0 0.1131296341
H  H30  1  0.88990000  0.72100000  0.50250000  1.0 0.1208619398
H  H31  1  0.79550000  0.15240000  0.56260000  1.0 0.1319277565
H  H32  1  0.79230000  0.15210000  0.46420000  1.0 0.1392662095
H  H33  1  0.61790000  0.79380000  0.41440000  1.0 0.1392662095
H  H34  1  0.18600000  0.98840000  0.73900000  1.0 0.3606081453
H  H35  1  0.79990000  0.03860000  0.69390000  1.0 0.1208619398
H  H36  1  0.08950000  0.08700000  0.69300000  1.0 0.1392662095
H  H37  1  0.00340000  0.89040000  0.72540000  1.0 0.1319277565
H  H38  1  0.88180000  0.70660000  0.31250000  1.0 0.1392662095
H  H39  1  0.71380000  0.34950000  0.37450000  1.0 0.1657793258
H  H40  1  0.60790000  0.77460000  0.60640000  1.0 0.1131296341
H  H41  1  0.61010000  0.77900000  0.50250000  1.0 0.1208619398
H  H42  1  0.70450000  0.34760000  0.56260000  1.0 0.1319277565
H  H43  1  0.70770000  0.34790000  0.46420000  1.0 0.1392662095
H  H44  1  0.88210000  0.70620000  0.41440000  1.0 0.1392662095
H  H45  1  0.68600000  0.48840000  0.26100000  1.0 0.3606081453
H  H46  1  0.29990000  0.53860000  0.30610000  1.0 0.1208619398
H  H47  1  0.58950000  0.58700000  0.30700000  1.0 0.1392662095
H  H48  1  0.50340000  0.39040000  0.27460000  1.0 0.1319277565
H  H49  1  0.38180000  0.20660000  0.68750000  1.0 0.1392662095
H  H50  1  0.21380000  0.84950000  0.62550000  1.0 0.1657793258
H  H51  1  0.10790000  0.27460000  0.39360000  1.0 0.1131296341
H  H52  1  0.11010000  0.27900000  0.49750000  1.0 0.1208619398
H  H53  1  0.20450000  0.84760000  0.43740000  1.0 0.1319277565
H  H54  1  0.20770000  0.84790000  0.53580000  1.0 0.1392662095
H  H55  1  0.38210000  0.20620000  0.58560000  1.0 0.1392662095
H  H56  1  0.81400000  0.01160000  0.26100000  1.0 0.3606081453
H  H57  1  0.20010000  0.96140000  0.30610000  1.0 0.1208619398
H  H58  1  0.91050000  0.91300000  0.30700000  1.0 0.1392662095
H  H59  1  0.99660000  0.10960000  0.27460000  1.0 0.1319277565
H  H60  1  0.11820000  0.29340000  0.68750000  1.0 0.1392662095
H  H61  1  0.28620000  0.65050000  0.62550000  1.0 0.1657793258
H  H62  1  0.39210000  0.22540000  0.39360000  1.0 0.1131296341
H  H63  1  0.38990000  0.22100000  0.49750000  1.0 0.1208619398
H  H64  1  0.29550000  0.65240000  0.43740000  1.0 0.1319277565
H  H65  1  0.29230000  0.65210000  0.53580000  1.0 0.1392662095
H  H66  1  0.11790000  0.29380000  0.58560000  1.0 0.1392662095
H  H67  1  0.68600000  0.01160000  0.76100000  1.0 0.3606081453
H  H68  1  0.29990000  0.96140000  0.80610000  1.0 0.1208619398
H  H69  1  0.58950000  0.91300000  0.80700000  1.0 0.1392662095
H  H70  1  0.50340000  0.10960000  0.77460000  1.0 0.1319277565
H  H71  1  0.38180000  0.29340000  0.18750000  1.0 0.1392662095
H  H72  1  0.21380000  0.65050000  0.12550000  1.0 0.1657793258
H  H73  1  0.10790000  0.22540000  0.89360000  1.0 0.1131296341
H  H74  1  0.11010000  0.22100000  0.99750000  1.0 0.1208619398
H  H75  1  0.20450000  0.65240000  0.93740000  1.0 0.1319277565
H  H76  1  0.20770000  0.65210000  0.03580000  1.0 0.1392662095
H  H77  1  0.38210000  0.29380000  0.08560000  1.0 0.1392662095
H  H78  1  0.81400000  0.48840000  0.76100000  1.0 0.3606081453
H  H79  1  0.20010000  0.53860000  0.80610000  1.0 0.1208619398
H  H80  1  0.91050000  0.58700000  0.80700000  1.0 0.1392662095
H  H81  1  0.99660000  0.39040000  0.77460000  1.0 0.1319277565
H  H82  1  0.11820000  0.20660000  0.18750000  1.0 0.1392662095
H  H83  1  0.28620000  0.84950000  0.12550000  1.0 0.1657793258
H  H84  1  0.39210000  0.27460000  0.89360000  1.0 0.1131296341
H  H85  1  0.38990000  0.27900000  0.99750000  1.0 0.1208619398
H  H86  1  0.29550000  0.84760000  0.93740000  1.0 0.1319277565
H  H87  1  0.29230000  0.84790000  0.03580000  1.0 0.1392662095
H  H88  1  0.11790000  0.20620000  0.08560000  1.0 0.1392662095
C  C1  1  0.63420000  0.02530000  0.19800000  1.0 -0.1015106759
C  C2  1  0.55920000  0.07420000  0.19130000  1.0 -0.0442644938
C  C3  1  0.46070000  0.05430000  0.19740000  1.0 -0.1989637132
C  C4  1  0.43720000  0.98540000  0.21020000  1.0 0.3208799583
C  C5  1  0.51230000  0.93650000  0.21690000  1.0 -0.1989637132
C  C6  1  0.61080000  0.95640000  0.21080000  1.0 -0.0580956194
C  C7  1  0.58800000  0.14420000  0.17750000  1.0 0.5463455503
C  C8  1  0.67230000  0.72440000  0.83333000  1.0 0.1007643926
C  C9  1  0.77100000  0.30840000  0.85460000  1.0 -0.2395564379
C  C10  1  0.77200000  0.31010000  0.79060000  1.0 0.1319277565
C  C11  1  0.83260000  0.76490000  0.08720000  1.0 0.0780048697
C  C12  1  0.83230000  0.76640000  0.02260000  1.0 -0.170035329
C  C13  1  0.77600000  0.30700000  0.04320000  1.0 0.0661196743
C  C14  1  0.77500000  0.30730000  0.98440000  1.0 -0.1636364556
C  C15  1  0.67260000  0.72440000  0.89460000  1.0 -0.1636364556
C  C16  1  0.68000000  0.90130000  0.21940000  1.0 0.5430271958
C  C17  1  0.86580000  0.47470000  0.19800000  1.0 -0.1015106759
C  C18  1  0.94080000  0.42580000  0.19130000  1.0 -0.0442644938
C  C19  1  0.03930000  0.44570000  0.19740000  1.0 -0.1989637132
C  C20  1  0.06280000  0.51460000  0.21020000  1.0 0.3208799583
C  C21  1  0.98770000  0.56350000  0.21690000  1.0 -0.1989637132
C  C22  1  0.88920000  0.54360000  0.21080000  1.0 -0.0580956194
C  C23  1  0.91200000  0.35580000  0.17750000  1.0 0.5463455503
C  C24  1  0.82770000  0.77560000  0.83333000  1.0 0.1007643926
C  C25  1  0.72900000  0.19160000  0.85460000  1.0 -0.2395564379
C  C26  1  0.72800000  0.18990000  0.79060000  1.0 0.1392662095
C  C27  1  0.66740000  0.73510000  0.08720000  1.0 0.0780048697
C  C28  1  0.66770000  0.73360000  0.02260000  1.0 -0.170035329
C  C29  1  0.72400000  0.19300000  0.04320000  1.0 0.0661196743
C  C30  1  0.72500000  0.19270000  0.98440000  1.0 -0.1636364556
C  C31  1  0.82740000  0.77560000  0.89460000  1.0 -0.1636364556
C  C32  1  0.82000000  0.59870000  0.21940000  1.0 0.5430271958
C  C33  1  0.63420000  0.47470000  0.69800000  1.0 -0.1015106759
C  C34  1  0.55920000  0.42580000  0.69130000  1.0 -0.0442644938
C  C35  1  0.46070000  0.44570000  0.69740000  1.0 -0.1989637132
C  C36  1  0.43720000  0.51460000  0.71020000  1.0 0.3208799583
C  C37  1  0.51230000  0.56350000  0.71690000  1.0 -0.1989637132
C  C38  1  0.61080000  0.54360000  0.71080000  1.0 -0.0580956194
C  C39  1  0.58800000  0.35580000  0.67750000  1.0 0.5463455503
C  C40  1  0.67230000  0.77560000  0.33333333  1.0 0.1007643926
C  C41  1  0.77100000  0.19160000  0.35460000  1.0 -0.2395564379
C  C42  1  0.77200000  0.18990000  0.29060000  1.0 0.1392662095
C  C43  1  0.83260000  0.73510000  0.58720000  1.0 0.0780048697
C  C44  1  0.83230000  0.73360000  0.52260000  1.0 -0.170035329
C  C45  1  0.77600000  0.19300000  0.54320000  1.0 0.0661196743
C  C46  1  0.77500000  0.19270000  0.48440000  1.0 -0.1636364556
C  C47  1  0.67260000  0.77560000  0.39460000  1.0 -0.1636364556
C  C48  1  0.68000000  0.59870000  0.71940000  1.0 0.5430271958
C  C49  1  0.86580000  0.02530000  0.69800000  1.0 -0.1015106759
C  C50  1  0.94080000  0.07420000  0.69130000  1.0 -0.0442644938
C  C51  1  0.03930000  0.05430000  0.69740000  1.0 -0.1989637132
C  C52  1  0.06280000  0.98540000  0.71020000  1.0 0.3208799583
C  C53  1  0.98770000  0.93650000  0.71690000  1.0 -0.1989637132
C  C54  1  0.88920000  0.95640000  0.71080000  1.0 -0.0580956194
C  C55  1  0.91200000  0.14420000  0.67750000  1.0 0.5463455503
C  C56  1  0.82770000  0.72440000  0.33333333  1.0 0.1007643926
C  C57  1  0.72900000  0.30840000  0.35460000  1.0 -0.2395564379
C  C58  1  0.72800000  0.31010000  0.29060000  1.0 0.1319277565
C  C59  1  0.66740000  0.76490000  0.58720000  1.0 0.0780048697
C  C60  1  0.66770000  0.76640000  0.52260000  1.0 -0.170035329
C  C61  1  0.72400000  0.30700000  0.54320000  1.0 0.0661196743
C  C62  1  0.72500000  0.30730000  0.48440000  1.0 -0.1636364556
C  C63  1  0.82740000  0.72440000  0.39460000  1.0 -0.1636364556
C  C64  1  0.82000000  0.90130000  0.71940000  1.0 0.5430271958
C  C65  1  0.75000000  0.75000000  0.99050000  1.0 0.0780048697
C  C66  1  0.75000000  0.75000000  0.92830000  1.0 0.1007643926
C  C67  1  0.75000000  0.75000000  0.49050000  1.0 0.0780048697
C  C68  1  0.75000000  0.75000000  0.42830000  1.0 0.1007643926
C  C69  1  0.75000000  0.25000000  0.95250000  1.0 0.0867932473
C  C70  1  0.75000000  0.25000000  0.88970000  1.0 0.1007643926
C  C71  1  0.75000000  0.25000000  0.45250000  1.0 0.0867932473
C  C72  1  0.75000000  0.25000000  0.38970000  1.0 0.1007643926
C  C73  1  0.36580000  0.52530000  0.30200000  1.0 -0.1015106759
C  C74  1  0.44080000  0.57420000  0.30870000  1.0 -0.0442644938
C  C75  1  0.53930000  0.55430000  0.30260000  1.0 -0.1989637132
C  C76  1  0.56280000  0.48540000  0.28980000  1.0 0.3208799583
C  C77  1  0.48770000  0.43650000  0.28310000  1.0 -0.1989637132
C  C78  1  0.38920000  0.45640000  0.28920000  1.0 -0.0580956194
C  C79  1  0.41200000  0.64420000  0.32250000  1.0 0.5463455503
C  C80  1  0.32770000  0.22440000  0.66666667  1.0 0.1007643926
C  C81  1  0.22900000  0.80840000  0.64540000  1.0 -0.2395564379
C  C82  1  0.22800000  0.81010000  0.70940000  1.0 0.1319277565
C  C83  1  0.16740000  0.26490000  0.41280000  1.0 0.0780048697
C  C84  1  0.16770000  0.26640000  0.47740000  1.0 -0.170035329
C  C85  1  0.22400000  0.80700000  0.45680000  1.0 0.0661196743
C  C86  1  0.22500000  0.80730000  0.51560000  1.0 -0.1636364556
C  C87  1  0.32740000  0.22440000  0.60540000  1.0 -0.1636364556
C  C88  1  0.32000000  0.40130000  0.28060000  1.0 0.5430271958
C  C89  1  0.13420000  0.97470000  0.30200000  1.0 -0.1015106759
C  C90  1  0.05920000  0.92580000  0.30870000  1.0 -0.0442644938
C  C91  1  0.96070000  0.94570000  0.30260000  1.0 -0.1989637132
C  C92  1  0.93720000  0.01460000  0.28980000  1.0 0.3208799583
C  C93  1  0.01230000  0.06350000  0.28310000  1.0 -0.1989637132
C  C94  1  0.11080000  0.04360000  0.28920000  1.0 -0.0580956194
C  C95  1  0.08800000  0.85580000  0.32250000  1.0 0.5463455503
C  C96  1  0.17230000  0.27560000  0.66666667  1.0 0.1007643926
C  C97  1  0.27100000  0.69160000  0.64540000  1.0 -0.2395564379
C  C98  1  0.27200000  0.68990000  0.70940000  1.0 0.1319277565
C  C99  1  0.33260000  0.23510000  0.41280000  1.0 0.0780048697
C  C100  1  0.33230000  0.23360000  0.47740000  1.0 -0.170035329
C  C101  1  0.27600000  0.69300000  0.45680000  1.0 0.0661196743
C  C102  1  0.27500000  0.69270000  0.51560000  1.0 -0.1636364556
C  C103  1  0.17260000  0.27560000  0.60540000  1.0 -0.1636364556
C  C104  1  0.18000000  0.09870000  0.28060000  1.0 0.5430271958
C  C105  1  0.36580000  0.97470000  0.80200000  1.0 -0.1015106759
C  C106  1  0.44080000  0.92580000  0.80870000  1.0 -0.0442644938
C  C107  1  0.53930000  0.94570000  0.80260000  1.0 -0.1989637132
C  C108  1  0.56280000  0.01460000  0.78980000  1.0 0.3208799583
C  C109  1  0.48770000  0.06350000  0.78310000  1.0 -0.1989637132
C  C110  1  0.38920000  0.04360000  0.78920000  1.0 -0.0580956194
C  C111  1  0.41200000  0.85580000  0.82250000  1.0 0.5463455503
C  C112  1  0.32770000  0.27560000  0.16667000  1.0 0.1007643926
C  C113  1  0.22900000  0.69160000  0.14540000  1.0 -0.2395564379
C  C114  1  0.22800000  0.68990000  0.20940000  1.0 0.1319277565
C  C115  1  0.16740000  0.23510000  0.91280000  1.0 0.0780048697
C  C116  1  0.16770000  0.23360000  0.97740000  1.0 -0.170035329
C  C117  1  0.22400000  0.69300000  0.95680000  1.0 0.0661196743
C  C118  1  0.22500000  0.69270000  0.01560000  1.0 -0.1636364556
C  C119  1  0.32740000  0.27560000  0.10540000  1.0 -0.1636364556
C  C120  1  0.32000000  0.09870000  0.78060000  1.0 0.5430271958
C  C121  1  0.13420000  0.52530000  0.80200000  1.0 -0.1015106759
C  C122  1  0.05920000  0.57420000  0.80870000  1.0 -0.0442644938
C  C123  1  0.96070000  0.55430000  0.80260000  1.0 -0.1989637132
C  C124  1  0.93720000  0.48540000  0.78980000  1.0 0.3208799583
C  C125  1  0.01230000  0.43650000  0.78310000  1.0 -0.1989637132
C  C126  1  0.11080000  0.45640000  0.78920000  1.0 -0.0580956194
C  C127  1  0.08800000  0.64420000  0.82250000  1.0 0.5463455503
C  C128  1  0.17230000  0.22440000  0.16667000  1.0 0.1007643926
C  C129  1  0.27100000  0.80840000  0.14540000  1.0 -0.2395564379
C  C130  1  0.27200000  0.81010000  0.20940000  1.0 0.1319277565
C  C131  1  0.33260000  0.26490000  0.91280000  1.0 0.0780048697
C  C132  1  0.33230000  0.26640000  0.97740000  1.0 -0.170035329
C  C133  1  0.27600000  0.80700000  0.95680000  1.0 0.0661196743
C  C134  1  0.27500000  0.80730000  0.01560000  1.0 -0.1636364556
C  C135  1  0.17260000  0.22440000  0.10540000  1.0 -0.1636364556
C  C136  1  0.18000000  0.40130000  0.78060000  1.0 0.5430271958
C  C137  1  0.25000000  0.25000000  0.50950000  1.0 0.0780048697
C  C138  1  0.25000000  0.25000000  0.57170000  1.0 0.1007643926
C  C139  1  0.25000000  0.25000000  0.00950000  1.0 0.0780048697
C  C140  1  0.25000000  0.25000000  0.07170000  1.0 0.1007643926
C  C141  1  0.25000000  0.75000000  0.54750000  1.0 0.0867932473
C  C142  1  0.25000000  0.75000000  0.61030000  1.0 0.1007643926
C  C143  1  0.25000000  0.75000000  0.04750000  1.0 0.0867932473
C  C144  1  0.25000000  0.75000000  0.11030000  1.0 0.1007643926
N  N1  1  0.75000000  0.75000000  0.80360000  1.0 -0.1487819518
N  N2  1  0.75000000  0.75000000  0.12340000  1.0 -0.253005829
N  N3  1  0.75000000  0.75000000  0.30360000  1.0 -0.1487819518
N  N4  1  0.75000000  0.75000000  0.62340000  1.0 -0.253005829
N  N5  1  0.75000000  0.25000000  0.75920000  1.0 -0.2395564379
N  N6  1  0.75000000  0.25000000  0.07870000  1.0 -0.2395564379
N  N7  1  0.75000000  0.25000000  0.25920000  1.0 -0.2395564379
N  N8  1  0.75000000  0.25000000  0.57870000  1.0 -0.2395564379
N  N9  1  0.25000000  0.25000000  0.69640000  1.0 -0.1487819518
N  N10  1  0.25000000  0.25000000  0.37660000  1.0 -0.253005829
N  N11  1  0.25000000  0.25000000  0.19640000  1.0 -0.1487819518
N  N12  1  0.25000000  0.25000000  0.87660000  1.0 -0.253005829
N  N13  1  0.25000000  0.75000000  0.74080000  1.0 -0.234218892
N  N14  1  0.25000000  0.75000000  0.42130000  1.0 -0.2395564379
N  N15  1  0.25000000  0.75000000  0.24080000  1.0 -0.234218892
N  N16  1  0.25000000  0.75000000  0.92130000  1.0 -0.2395564379
O  O1  1  0.68200000  0.15920000  0.17250000  1.0 -0.5587334002
O  O2  1  0.65790000  0.83720000  0.23140000  1.0 -0.4989994283
O  O3  1  0.51990000  0.19150000  0.17080000  1.0 -0.5732065703
O  O4  1  0.34680000  0.96470000  0.21630000  1.0 -0.3986818904
O  O5  1  0.77390000  0.91960000  0.21420000  1.0 -0.5820080305
O  O6  1  0.81800000  0.34080000  0.17250000  1.0 -0.5587334002
O  O7  1  0.84210000  0.66280000  0.23140000  1.0 -0.4989994283
O  O8  1  0.98010000  0.30850000  0.17080000  1.0 -0.5732065703
O  O9  1  0.15320000  0.53530000  0.21630000  1.0 -0.3986818904
O  O10  1  0.72610000  0.58040000  0.21420000  1.0 -0.5820080305
O  O11  1  0.68200000  0.34080000  0.67250000  1.0 -0.5587334002
O  O12  1  0.65790000  0.66280000  0.73140000  1.0 -0.4989994283
O  O13  1  0.51990000  0.30850000  0.67080000  1.0 -0.5732065703
O  O14  1  0.34680000  0.53530000  0.71630000  1.0 -0.3986818904
O  O15  1  0.77390000  0.58040000  0.71420000  1.0 -0.5820080305
O  O16  1  0.81800000  0.15920000  0.67250000  1.0 -0.5587334002
O  O17  1  0.84210000  0.83720000  0.73140000  1.0 -0.4989994283
O  O18  1  0.98010000  0.19150000  0.67080000  1.0 -0.5732065703
O  O19  1  0.15320000  0.96470000  0.71630000  1.0 -0.3986818904
O  O20  1  0.72610000  0.91960000  0.71420000  1.0 -0.5820080305
O  O21  1  0.31800000  0.65920000  0.32750000  1.0 -0.5587334002
O  O22  1  0.34210000  0.33720000  0.26860000  1.0 -0.4989994283
O  O23  1  0.48010000  0.69150000  0.32920000  1.0 -0.5732065703
O  O24  1  0.65320000  0.46470000  0.28370000  1.0 -0.3986818904
O  O25  1  0.22610000  0.41960000  0.28580000  1.0 -0.5820080305
O  O26  1  0.18200000  0.84080000  0.32750000  1.0 -0.5587334002
O  O27  1  0.15790000  0.16280000  0.26860000  1.0 -0.4989994283
O  O28  1  0.01990000  0.80850000  0.32920000  1.0 -0.5732065703
O  O29  1  0.84680000  0.03530000  0.28370000  1.0 -0.3986818904
O  O30  1  0.27390000  0.08040000  0.28580000  1.0 -0.5820080305
O  O31  1  0.31800000  0.84080000  0.82750000  1.0 -0.5587334002
O  O32  1  0.34210000  0.16280000  0.76860000  1.0 -0.4989994283
O  O33  1  0.48010000  0.80850000  0.82920000  1.0 -0.5732065703
O  O34  1  0.65320000  0.03530000  0.78370000  1.0 -0.3986818904
O  O35  1  0.22610000  0.08040000  0.78580000  1.0 -0.5820080305
O  O36  1  0.18200000  0.65920000  0.82750000  1.0 -0.5587334002
O  O37  1  0.15790000  0.33720000  0.76860000  1.0 -0.4989994283
O  O38  1  0.01990000  0.69150000  0.82920000  1.0 -0.5732065703
O  O39  1  0.84680000  0.46470000  0.78370000  1.0 -0.3986818904
O  O40  1  0.27390000  0.41960000  0.78580000  1.0 -0.5820080305
