# DDEC6 charges by PACMAN v1.1 (https://github.com/mtap-research/PACMAN-charge/)
data_QEQXUI08_ASR_pacman
_symmetry_space_group_name_H-M   'P 1'
_cell_length_a   13.71900000
_cell_length_b   19.09260000
_cell_length_c   22.50900000
_cell_angle_alpha   90.00000000
_cell_angle_beta   90.00000000
_cell_angle_gamma   90.00000000
_symmetry_Int_Tables_number   1
_chemical_formula_structural   NiH12C18N2O5
_chemical_formula_sum   'Ni8 H96 C144 N16 O40'
_cell_volume   5895.81341891
_cell_formula_units_Z   8
loop_
 _symmetry_equiv_pos_site_id
 _symmetry_equiv_pos_as_xyz
  1  'x, y, z'
loop_
 _atom_site_type_symbol
 _atom_site_label
 _atom_site_symmetry_multiplicity
 _atom_site_fract_x
 _atom_site_fract_y
 _atom_site_fract_z
 _atom_site_occupancy
 _atom_site_charge
Ni  Ni1  1  0.75000000  0.75000000  0.23424000  1.0 0.6631889922
Ni  Ni2  1  0.75000000  0.75000000  0.73424000  1.0 0.6631889922
Ni  Ni3  1  0.75000000  0.25000000  0.15814000  1.0 0.6734274459
Ni  Ni4  1  0.75000000  0.25000000  0.65814000  1.0 0.6734274459
Ni  Ni5  1  0.25000000  0.25000000  0.26576000  1.0 0.6631889922
Ni  Ni6  1  0.25000000  0.25000000  0.76576000  1.0 0.6631889922
Ni  Ni7  1  0.25000000  0.75000000  0.34186000  1.0 0.6734274459
Ni  Ni8  1  0.25000000  0.75000000  0.84186000  1.0 0.6734274459
H  H1  1  0.31200000  0.99860000  0.21980000  1.0 0.3450881374
H  H2  1  0.70220000  0.03440000  0.19820000  1.0 0.1199627218
H  H3  1  0.61250000  0.76980000  0.13300000  1.0 0.1199627218
H  H4  1  0.49540000  0.88950000  0.22910000  1.0 0.1300840062
H  H5  1  0.41880000  0.08400000  0.18600000  1.0 0.1390228671
H  H6  1  0.62950000  0.19800000  0.05470000  1.0 0.1199627218
H  H7  1  0.80780000  0.34340000  0.86210000  1.0 0.1390228671
H  H8  1  0.60570000  0.76780000  0.02910000  1.0 0.1390228671
H  H9  1  0.80210000  0.34600000  0.76050000  1.0 0.1199627218
H  H10  1  0.62790000  0.19520000  0.95330000  1.0 0.1390228671
H  H11  1  0.62130000  0.69980000  0.93840000  1.0 0.1390228671
H  H12  1  0.62450000  0.70350000  0.83730000  1.0 0.1199627218
H  H13  1  0.18800000  0.50140000  0.21980000  1.0 0.3450881374
H  H14  1  0.79780000  0.46560000  0.19820000  1.0 0.1199627218
H  H15  1  0.88750000  0.73020000  0.13300000  1.0 0.1199627218
H  H16  1  0.00460000  0.61050000  0.22910000  1.0 0.1300840062
H  H17  1  0.08120000  0.41600000  0.18600000  1.0 0.1390228671
H  H18  1  0.87050000  0.30200000  0.05470000  1.0 0.1199627218
H  H19  1  0.69220000  0.15660000  0.86210000  1.0 0.1390228671
H  H20  1  0.89430000  0.73220000  0.02910000  1.0 0.1390228671
H  H21  1  0.69790000  0.15400000  0.76050000  1.0 0.1199627218
H  H22  1  0.87210000  0.30480000  0.95330000  1.0 0.1390228671
H  H23  1  0.87870000  0.80020000  0.93840000  1.0 0.1390228671
H  H24  1  0.87550000  0.79650000  0.83730000  1.0 0.1199627218
H  H25  1  0.31200000  0.50140000  0.71980000  1.0 0.3450881374
H  H26  1  0.70220000  0.46560000  0.69820000  1.0 0.1199627218
H  H27  1  0.61250000  0.73020000  0.63300000  1.0 0.1199627218
H  H28  1  0.49540000  0.61050000  0.72910000  1.0 0.1300840062
H  H29  1  0.41880000  0.41600000  0.68600000  1.0 0.1390228671
H  H30  1  0.62950000  0.30200000  0.55470000  1.0 0.1199627218
H  H31  1  0.80780000  0.15660000  0.36210000  1.0 0.1390228671
H  H32  1  0.60570000  0.73220000  0.52910000  1.0 0.1390228671
H  H33  1  0.80210000  0.15400000  0.26050000  1.0 0.1199627218
H  H34  1  0.62790000  0.30480000  0.45330000  1.0 0.1390228671
H  H35  1  0.62130000  0.80020000  0.43840000  1.0 0.1390228671
H  H36  1  0.62450000  0.79650000  0.33730000  1.0 0.1199627218
H  H37  1  0.18800000  0.99860000  0.71980000  1.0 0.3450881374
H  H38  1  0.79780000  0.03440000  0.69820000  1.0 0.1199627218
H  H39  1  0.88750000  0.76980000  0.63300000  1.0 0.1199627218
H  H40  1  0.00460000  0.88950000  0.72910000  1.0 0.1300840062
H  H41  1  0.08120000  0.08400000  0.68600000  1.0 0.1390228671
H  H42  1  0.87050000  0.19800000  0.55470000  1.0 0.1199627218
H  H43  1  0.69220000  0.34340000  0.36210000  1.0 0.1390228671
H  H44  1  0.89430000  0.76780000  0.52910000  1.0 0.1390228671
H  H45  1  0.69790000  0.34600000  0.26050000  1.0 0.1199627218
H  H46  1  0.87210000  0.19520000  0.45330000  1.0 0.1390228671
H  H47  1  0.87870000  0.69980000  0.43840000  1.0 0.1390228671
H  H48  1  0.87550000  0.70350000  0.33730000  1.0 0.1199627218
H  H49  1  0.68800000  0.49860000  0.28020000  1.0 0.3450881374
H  H50  1  0.29780000  0.53440000  0.30180000  1.0 0.1199627218
H  H51  1  0.38750000  0.26980000  0.36700000  1.0 0.1199627218
H  H52  1  0.50460000  0.38950000  0.27090000  1.0 0.1300840062
H  H53  1  0.58120000  0.58400000  0.31400000  1.0 0.1390228671
H  H54  1  0.37050000  0.69800000  0.44530000  1.0 0.1199627218
H  H55  1  0.19220000  0.84340000  0.63790000  1.0 0.1390228671
H  H56  1  0.39430000  0.26780000  0.47090000  1.0 0.1390228671
H  H57  1  0.19790000  0.84600000  0.73950000  1.0 0.1199627218
H  H58  1  0.37210000  0.69520000  0.54670000  1.0 0.1390228671
H  H59  1  0.37870000  0.19980000  0.56160000  1.0 0.1390228671
H  H60  1  0.37550000  0.20350000  0.66270000  1.0 0.1199627218
H  H61  1  0.81200000  0.00140000  0.28020000  1.0 0.3450881374
H  H62  1  0.20220000  0.96560000  0.30180000  1.0 0.1199627218
H  H63  1  0.11250000  0.23020000  0.36700000  1.0 0.1199627218
H  H64  1  0.99540000  0.11050000  0.27090000  1.0 0.1300840062
H  H65  1  0.91880000  0.91600000  0.31400000  1.0 0.1390228671
H  H66  1  0.12950000  0.80200000  0.44530000  1.0 0.1199627218
H  H67  1  0.30780000  0.65660000  0.63790000  1.0 0.1390228671
H  H68  1  0.10570000  0.23220000  0.47090000  1.0 0.1390228671
H  H69  1  0.30210000  0.65400000  0.73950000  1.0 0.1199627218
H  H70  1  0.12790000  0.80480000  0.54670000  1.0 0.1390228671
H  H71  1  0.12130000  0.30020000  0.56160000  1.0 0.1390228671
H  H72  1  0.12450000  0.29650000  0.66270000  1.0 0.1199627218
H  H73  1  0.68800000  0.00140000  0.78020000  1.0 0.3450881374
H  H74  1  0.29780000  0.96560000  0.80180000  1.0 0.1199627218
H  H75  1  0.38750000  0.23020000  0.86700000  1.0 0.1199627218
H  H76  1  0.50460000  0.11050000  0.77090000  1.0 0.1300840062
H  H77  1  0.58120000  0.91600000  0.81400000  1.0 0.1390228671
H  H78  1  0.37050000  0.80200000  0.94530000  1.0 0.1199627218
H  H79  1  0.19220000  0.65660000  0.13790000  1.0 0.1390228671
H  H80  1  0.39430000  0.23220000  0.97090000  1.0 0.1390228671
H  H81  1  0.19790000  0.65400000  0.23950000  1.0 0.1199627218
H  H82  1  0.37210000  0.80480000  0.04670000  1.0 0.1390228671
H  H83  1  0.37870000  0.30020000  0.06160000  1.0 0.1390228671
H  H84  1  0.37550000  0.29650000  0.16270000  1.0 0.1199627218
H  H85  1  0.81200000  0.49860000  0.78020000  1.0 0.3450881374
H  H86  1  0.20220000  0.53440000  0.80180000  1.0 0.1199627218
H  H87  1  0.11250000  0.26980000  0.86700000  1.0 0.1199627218
H  H88  1  0.99540000  0.38950000  0.77090000  1.0 0.1300840062
H  H89  1  0.91880000  0.58400000  0.81400000  1.0 0.1390228671
H  H90  1  0.12950000  0.69800000  0.94530000  1.0 0.1199627218
H  H91  1  0.30780000  0.84340000  0.13790000  1.0 0.1390228671
H  H92  1  0.10570000  0.26780000  0.97090000  1.0 0.1390228671
H  H93  1  0.30210000  0.84600000  0.23950000  1.0 0.1199627218
H  H94  1  0.12790000  0.69520000  0.04670000  1.0 0.1390228671
H  H95  1  0.12130000  0.19980000  0.06160000  1.0 0.1390228671
H  H96  1  0.12450000  0.20350000  0.16270000  1.0 0.1199627218
C  C1  1  0.56318000  0.07027000  0.19154000  1.0 0.0158935116
C  C2  1  0.61074000  0.95292000  0.21666000  1.0 -0.0184123252
C  C3  1  0.63699000  0.02162000  0.20150000  1.0 -0.1336716487
C  C4  1  0.59125000  0.14595000  0.17674000  1.0 0.5395398867
C  C5  1  0.68778000  0.90075000  0.22978000  1.0 0.5519601238
C  C6  1  0.66933000  0.76123000  0.11160000  1.0 0.1031082202
C  C7  1  0.51323000  0.93506000  0.21928000  1.0 -0.2111836883
C  C8  1  0.46721000  0.05119000  0.19381000  1.0 -0.2111836883
C  C9  1  0.68028000  0.21961000  0.03438000  1.0 0.0901053009
C  C10  1  0.44270000  0.98392000  0.20751000  1.0 0.2739859057
C  C11  1  0.78291000  0.30478000  0.84201000  1.0 -0.1830467748
C  C12  1  0.66443000  0.76091000  0.04893000  1.0 -0.1902956788
C  C13  1  0.78143000  0.30624000  0.78073000  1.0 0.1031082202
C  C14  1  0.67860000  0.21818000  0.97259000  1.0 -0.1997995518
C  C15  1  0.67371000  0.72055000  0.91892000  1.0 -0.1902956788
C  C16  1  0.67674000  0.72250000  0.85810000  1.0 0.1031082202
C  C17  1  0.93682000  0.42973000  0.19154000  1.0 0.0158935116
C  C18  1  0.88926000  0.54708000  0.21666000  1.0 -0.0184123252
C  C19  1  0.86301000  0.47838000  0.20150000  1.0 -0.1336716487
C  C20  1  0.90875000  0.35405000  0.17674000  1.0 0.5395398867
C  C21  1  0.81222000  0.59925000  0.22978000  1.0 0.5519601238
C  C22  1  0.83067000  0.73877000  0.11160000  1.0 0.1031082202
C  C23  1  0.98677000  0.56494000  0.21928000  1.0 -0.2111836883
C  C24  1  0.03279000  0.44881000  0.19381000  1.0 -0.2111836883
C  C25  1  0.81972000  0.28039000  0.03438000  1.0 0.0901053009
C  C26  1  0.05730000  0.51608000  0.20751000  1.0 0.2739859057
C  C27  1  0.71709000  0.19522000  0.84201000  1.0 -0.1830467748
C  C28  1  0.83557000  0.73909000  0.04893000  1.0 -0.1902956788
C  C29  1  0.71857000  0.19376000  0.78073000  1.0 0.1031082202
C  C30  1  0.82140000  0.28182000  0.97259000  1.0 -0.1997995518
C  C31  1  0.82629000  0.77945000  0.91892000  1.0 -0.1902956788
C  C32  1  0.82326000  0.77750000  0.85810000  1.0 0.1031082202
C  C33  1  0.56318000  0.42973000  0.69154000  1.0 0.0158935116
C  C34  1  0.61074000  0.54708000  0.71666000  1.0 -0.0184123252
C  C35  1  0.63699000  0.47838000  0.70150000  1.0 -0.1336716487
C  C36  1  0.59125000  0.35405000  0.67674000  1.0 0.5395398867
C  C37  1  0.68778000  0.59925000  0.72978000  1.0 0.5519601238
C  C38  1  0.66933000  0.73877000  0.61160000  1.0 0.1031082202
C  C39  1  0.51323000  0.56494000  0.71928000  1.0 -0.2111836883
C  C40  1  0.46721000  0.44881000  0.69381000  1.0 -0.2111836883
C  C41  1  0.68028000  0.28039000  0.53438000  1.0 0.0901053009
C  C42  1  0.44270000  0.51608000  0.70751000  1.0 0.2739859057
C  C43  1  0.78291000  0.19522000  0.34201000  1.0 -0.1830467748
C  C44  1  0.66443000  0.73909000  0.54893000  1.0 -0.1902956788
C  C45  1  0.78143000  0.19376000  0.28073000  1.0 0.1031082202
C  C46  1  0.67860000  0.28182000  0.47259000  1.0 -0.1997995518
C  C47  1  0.67371000  0.77945000  0.41892000  1.0 -0.1902956788
C  C48  1  0.67674000  0.77750000  0.35810000  1.0 0.1031082202
C  C49  1  0.93682000  0.07027000  0.69154000  1.0 0.0158935116
C  C50  1  0.88926000  0.95292000  0.71666000  1.0 -0.0184123252
C  C51  1  0.86301000  0.02162000  0.70150000  1.0 -0.1336716487
C  C52  1  0.90875000  0.14595000  0.67674000  1.0 0.5395398867
C  C53  1  0.81222000  0.90075000  0.72978000  1.0 0.5519601238
C  C54  1  0.83067000  0.76123000  0.61160000  1.0 0.1031082202
C  C55  1  0.98677000  0.93506000  0.71928000  1.0 -0.2111836883
C  C56  1  0.03279000  0.05119000  0.69381000  1.0 -0.2111836883
C  C57  1  0.81972000  0.21961000  0.53438000  1.0 0.0901053009
C  C58  1  0.05730000  0.98392000  0.70751000  1.0 0.2739859057
C  C59  1  0.71709000  0.30478000  0.34201000  1.0 -0.1830467748
C  C60  1  0.83557000  0.76091000  0.54893000  1.0 -0.1902956788
C  C61  1  0.71857000  0.30624000  0.28073000  1.0 0.1031082202
C  C62  1  0.82140000  0.21818000  0.47259000  1.0 -0.1997995518
C  C63  1  0.82629000  0.72055000  0.41892000  1.0 -0.1902956788
C  C64  1  0.82326000  0.72250000  0.35810000  1.0 0.1031082202
C  C65  1  0.75000000  0.75000000  0.01835000  1.0 0.1070822478
C  C66  1  0.75000000  0.75000000  0.95130000  1.0 0.1070822478
C  C67  1  0.75000000  0.75000000  0.51835000  1.0 0.1070822478
C  C68  1  0.75000000  0.75000000  0.45130000  1.0 0.1070822478
C  C69  1  0.75000000  0.25000000  0.93963000  1.0 0.1070822478
C  C70  1  0.75000000  0.25000000  0.87428000  1.0 0.1031082202
C  C71  1  0.75000000  0.25000000  0.43963000  1.0 0.1070822478
C  C72  1  0.75000000  0.25000000  0.37428000  1.0 0.1031082202
C  C73  1  0.43682000  0.57027000  0.30846000  1.0 0.0158935116
C  C74  1  0.38926000  0.45292000  0.28334000  1.0 -0.0184123252
C  C75  1  0.36301000  0.52162000  0.29850000  1.0 -0.1336716487
C  C76  1  0.40875000  0.64595000  0.32326000  1.0 0.5395398867
C  C77  1  0.31222000  0.40075000  0.27022000  1.0 0.5519601238
C  C78  1  0.33067000  0.26123000  0.38840000  1.0 0.1031082202
C  C79  1  0.48677000  0.43506000  0.28072000  1.0 -0.2111836883
C  C80  1  0.53279000  0.55119000  0.30619000  1.0 -0.2111836883
C  C81  1  0.31972000  0.71961000  0.46562000  1.0 0.0901053009
C  C82  1  0.55730000  0.48392000  0.29249000  1.0 0.2739859057
C  C83  1  0.21709000  0.80478000  0.65799000  1.0 -0.1830467748
C  C84  1  0.33557000  0.26091000  0.45107000  1.0 -0.1902956788
C  C85  1  0.21857000  0.80624000  0.71927000  1.0 0.1031082202
C  C86  1  0.32140000  0.71818000  0.52741000  1.0 -0.1997995518
C  C87  1  0.32629000  0.22055000  0.58108000  1.0 -0.1902956788
C  C88  1  0.32326000  0.22250000  0.64190000  1.0 0.1031082202
C  C89  1  0.06318000  0.92973000  0.30846000  1.0 0.0158935116
C  C90  1  0.11074000  0.04708000  0.28334000  1.0 -0.0184123252
C  C91  1  0.13699000  0.97838000  0.29850000  1.0 -0.1336716487
C  C92  1  0.09125000  0.85405000  0.32326000  1.0 0.5395398867
C  C93  1  0.18778000  0.09925000  0.27022000  1.0 0.5519601238
C  C94  1  0.16933000  0.23877000  0.38840000  1.0 0.1031082202
C  C95  1  0.01323000  0.06494000  0.28072000  1.0 -0.2111836883
C  C96  1  0.96721000  0.94881000  0.30619000  1.0 -0.2111836883
C  C97  1  0.18028000  0.78039000  0.46562000  1.0 0.0901053009
C  C98  1  0.94270000  0.01608000  0.29249000  1.0 0.2739859057
C  C99  1  0.28291000  0.69522000  0.65799000  1.0 -0.1830467748
C  C100  1  0.16443000  0.23909000  0.45107000  1.0 -0.1902956788
C  C101  1  0.28143000  0.69376000  0.71927000  1.0 0.1031082202
C  C102  1  0.17860000  0.78182000  0.52741000  1.0 -0.1997995518
C  C103  1  0.17371000  0.27945000  0.58108000  1.0 -0.1902956788
C  C104  1  0.17674000  0.27750000  0.64190000  1.0 0.1031082202
C  C105  1  0.43682000  0.92973000  0.80846000  1.0 0.0158935116
C  C106  1  0.38926000  0.04708000  0.78334000  1.0 -0.0184123252
C  C107  1  0.36301000  0.97838000  0.79850000  1.0 -0.1336716487
C  C108  1  0.40875000  0.85405000  0.82326000  1.0 0.5395398867
C  C109  1  0.31222000  0.09925000  0.77022000  1.0 0.5519601238
C  C110  1  0.33067000  0.23877000  0.88840000  1.0 0.1031082202
C  C111  1  0.48677000  0.06494000  0.78072000  1.0 -0.2111836883
C  C112  1  0.53279000  0.94881000  0.80619000  1.0 -0.2111836883
C  C113  1  0.31972000  0.78039000  0.96562000  1.0 0.0901053009
C  C114  1  0.55730000  0.01608000  0.79249000  1.0 0.2739859057
C  C115  1  0.21709000  0.69522000  0.15799000  1.0 -0.1830467748
C  C116  1  0.33557000  0.23909000  0.95107000  1.0 -0.1902956788
C  C117  1  0.21857000  0.69376000  0.21927000  1.0 0.1031082202
C  C118  1  0.32140000  0.78182000  0.02741000  1.0 -0.1997995518
C  C119  1  0.32629000  0.27945000  0.08108000  1.0 -0.1902956788
C  C120  1  0.32326000  0.27750000  0.14190000  1.0 0.1031082202
C  C121  1  0.06318000  0.57027000  0.80846000  1.0 0.0158935116
C  C122  1  0.11074000  0.45292000  0.78334000  1.0 -0.0184123252
C  C123  1  0.13699000  0.52162000  0.79850000  1.0 -0.1336716487
C  C124  1  0.09125000  0.64595000  0.82326000  1.0 0.5395398867
C  C125  1  0.18778000  0.40075000  0.77022000  1.0 0.5519601238
C  C126  1  0.16933000  0.26123000  0.88840000  1.0 0.1031082202
C  C127  1  0.01323000  0.43506000  0.78072000  1.0 -0.2111836883
C  C128  1  0.96721000  0.55119000  0.80619000  1.0 -0.2111836883
C  C129  1  0.18028000  0.71961000  0.96562000  1.0 0.0901053009
C  C130  1  0.94270000  0.48392000  0.79249000  1.0 0.2739859057
C  C131  1  0.28291000  0.80478000  0.15799000  1.0 -0.1830467748
C  C132  1  0.16443000  0.26091000  0.95107000  1.0 -0.1902956788
C  C133  1  0.28143000  0.80624000  0.21927000  1.0 0.1031082202
C  C134  1  0.17860000  0.71818000  0.02741000  1.0 -0.1997995518
C  C135  1  0.17371000  0.22055000  0.08108000  1.0 -0.1902956788
C  C136  1  0.17674000  0.22250000  0.14190000  1.0 0.1031082202
C  C137  1  0.25000000  0.25000000  0.48165000  1.0 0.1070822478
C  C138  1  0.25000000  0.25000000  0.54870000  1.0 0.1070822478
C  C139  1  0.25000000  0.25000000  0.98165000  1.0 0.1070822478
C  C140  1  0.25000000  0.25000000  0.04870000  1.0 0.1070822478
C  C141  1  0.25000000  0.75000000  0.56037000  1.0 0.1070822478
C  C142  1  0.25000000  0.75000000  0.62572000  1.0 0.1031082202
C  C143  1  0.25000000  0.75000000  0.06037000  1.0 0.1070822478
C  C144  1  0.25000000  0.75000000  0.12572000  1.0 0.1031082202
N  N1  1  0.75000000  0.75000000  0.82684000  1.0 -0.1997995518
N  N2  1  0.75000000  0.75000000  0.14093000  1.0 -0.1902956788
N  N3  1  0.75000000  0.75000000  0.32684000  1.0 -0.1997995518
N  N4  1  0.75000000  0.75000000  0.64093000  1.0 -0.1902956788
N  N5  1  0.75000000  0.25000000  0.75049000  1.0 -0.1902956788
N  N6  1  0.75000000  0.25000000  0.06601000  1.0 -0.2111836883
N  N7  1  0.75000000  0.25000000  0.25049000  1.0 -0.1902956788
N  N8  1  0.75000000  0.25000000  0.56601000  1.0 -0.2111836883
N  N9  1  0.25000000  0.25000000  0.67316000  1.0 -0.1997995518
N  N10  1  0.25000000  0.25000000  0.35907000  1.0 -0.1902956788
N  N11  1  0.25000000  0.25000000  0.17316000  1.0 -0.1997995518
N  N12  1  0.25000000  0.25000000  0.85907000  1.0 -0.1902956788
N  N13  1  0.25000000  0.75000000  0.74951000  1.0 -0.1902956788
N  N14  1  0.25000000  0.75000000  0.43399000  1.0 -0.2111836883
N  N15  1  0.25000000  0.75000000  0.24951000  1.0 -0.1902956788
N  N16  1  0.25000000  0.75000000  0.93399000  1.0 -0.2111836883
O  O1  1  0.67574000  0.15666000  0.16068000  1.0 -0.5346356871
O  O2  1  0.66269000  0.83792000  0.23147000  1.0 -0.5483753996
O  O3  1  0.52502000  0.19142000  0.18068000  1.0 -0.5861816126
O  O4  1  0.34557000  0.96400000  0.21284000  1.0 -0.4801507461
O  O5  1  0.77397000  0.92145000  0.23618000  1.0 -0.5483753996
O  O6  1  0.82426000  0.34334000  0.16068000  1.0 -0.5346356871
O  O7  1  0.83731000  0.66208000  0.23147000  1.0 -0.5483753996
O  O8  1  0.97498000  0.30858000  0.18068000  1.0 -0.5861816126
O  O9  1  0.15443000  0.53600000  0.21284000  1.0 -0.4801507461
O  O10  1  0.72603000  0.57855000  0.23618000  1.0 -0.5483753996
O  O11  1  0.67574000  0.34334000  0.66068000  1.0 -0.5346356871
O  O12  1  0.66269000  0.66208000  0.73147000  1.0 -0.5483753996
O  O13  1  0.52502000  0.30858000  0.68068000  1.0 -0.5861816126
O  O14  1  0.34557000  0.53600000  0.71284000  1.0 -0.4801507461
O  O15  1  0.77397000  0.57855000  0.73618000  1.0 -0.5483753996
O  O16  1  0.82426000  0.15666000  0.66068000  1.0 -0.5346356871
O  O17  1  0.83731000  0.83792000  0.73147000  1.0 -0.5483753996
O  O18  1  0.97498000  0.19142000  0.68068000  1.0 -0.5861816126
O  O19  1  0.15443000  0.96400000  0.71284000  1.0 -0.4801507461
O  O20  1  0.72603000  0.92145000  0.73618000  1.0 -0.5483753996
O  O21  1  0.32426000  0.65666000  0.33932000  1.0 -0.5346356871
O  O22  1  0.33731000  0.33792000  0.26853000  1.0 -0.5483753996
O  O23  1  0.47498000  0.69142000  0.31932000  1.0 -0.5861816126
O  O24  1  0.65443000  0.46400000  0.28716000  1.0 -0.4801507461
O  O25  1  0.22603000  0.42145000  0.26382000  1.0 -0.5483753996
O  O26  1  0.17574000  0.84334000  0.33932000  1.0 -0.5346356871
O  O27  1  0.16269000  0.16208000  0.26853000  1.0 -0.5483753996
O  O28  1  0.02502000  0.80858000  0.31932000  1.0 -0.5861816126
O  O29  1  0.84557000  0.03600000  0.28716000  1.0 -0.4801507461
O  O30  1  0.27397000  0.07855000  0.26382000  1.0 -0.5483753996
O  O31  1  0.32426000  0.84334000  0.83932000  1.0 -0.5346356871
O  O32  1  0.33731000  0.16208000  0.76853000  1.0 -0.5483753996
O  O33  1  0.47498000  0.80858000  0.81932000  1.0 -0.5861816126
O  O34  1  0.65443000  0.03600000  0.78716000  1.0 -0.4801507461
O  O35  1  0.22603000  0.07855000  0.76382000  1.0 -0.5483753996
O  O36  1  0.17574000  0.65666000  0.83932000  1.0 -0.5346356871
O  O37  1  0.16269000  0.33792000  0.76853000  1.0 -0.5483753996
O  O38  1  0.02502000  0.69142000  0.81932000  1.0 -0.5861816126
O  O39  1  0.84557000  0.46400000  0.78716000  1.0 -0.4801507461
O  O40  1  0.27397000  0.42145000  0.76382000  1.0 -0.5483753996
