# DDEC6 charges by PACMAN v1.1 (https://github.com/mtap-research/PACMAN-charge/)
data_QEQYET_ASR_pacman
_symmetry_space_group_name_H-M   'P 1'
_cell_length_a   13.57600000
_cell_length_b   19.14800000
_cell_length_c   22.43700000
_cell_angle_alpha   90.00000000
_cell_angle_beta   90.00000000
_cell_angle_gamma   90.00000000
_symmetry_Int_Tables_number   1
_chemical_formula_structural   NiH12C18N2O5
_chemical_formula_sum   'Ni8 H96 C144 N16 O40'
_cell_volume   5832.57102538
_cell_formula_units_Z   8
loop_
 _symmetry_equiv_pos_site_id
 _symmetry_equiv_pos_as_xyz
  1  'x, y, z'
loop_
 _atom_site_type_symbol
 _atom_site_label
 _atom_site_symmetry_multiplicity
 _atom_site_fract_x
 _atom_site_fract_y
 _atom_site_fract_z
 _atom_site_occupancy
 _atom_site_charge
Ni  Ni1  1  0.75000000  0.75000000  0.23087000  1.0 0.5818313493
Ni  Ni2  1  0.75000000  0.75000000  0.73087000  1.0 0.5818313493
Ni  Ni3  1  0.75000000  0.25000000  0.16181000  1.0 0.7018690243
Ni  Ni4  1  0.75000000  0.25000000  0.66181000  1.0 0.7018690243
Ni  Ni5  1  0.25000000  0.25000000  0.26913000  1.0 0.5818313493
Ni  Ni6  1  0.25000000  0.25000000  0.76913000  1.0 0.5818313493
Ni  Ni7  1  0.25000000  0.75000000  0.33819000  1.0 0.7018690243
Ni  Ni8  1  0.25000000  0.75000000  0.83819000  1.0 0.7018690243
H  H1  1  0.31800000  0.99300000  0.22700000  1.0 0.3492837085
H  H2  1  0.70270000  0.03560000  0.19750000  1.0 0.1192719958
H  H3  1  0.41530000  0.08480000  0.18890000  1.0 0.1381442028
H  H4  1  0.49760000  0.88880000  0.22890000  1.0 0.1341097302
H  H5  1  0.62240000  0.70200000  0.83460000  1.0 0.1192719958
H  H6  1  0.61730000  0.70750000  0.93750000  1.0 0.1341097302
H  H7  1  0.80730000  0.34490000  0.86740000  1.0 0.1381442028
H  H8  1  0.80350000  0.34510000  0.76450000  1.0 0.1192719958
H  H9  1  0.89360000  0.73470000  0.13180000  1.0 0.1192719958
H  H10  1  0.89200000  0.72760000  0.02970000  1.0 0.1381442028
H  H11  1  0.85670000  0.32060000  0.05870000  1.0 0.1192719958
H  H12  1  0.84460000  0.32720000  0.95610000  1.0 0.1341097302
H  H13  1  0.18200000  0.50700000  0.22700000  1.0 0.3492837085
H  H14  1  0.79730000  0.46440000  0.19750000  1.0 0.1192719958
H  H15  1  0.08470000  0.41520000  0.18890000  1.0 0.1381442028
H  H16  1  0.00240000  0.61120000  0.22890000  1.0 0.1341097302
H  H17  1  0.87760000  0.79800000  0.83460000  1.0 0.1192719958
H  H18  1  0.88270000  0.79250000  0.93750000  1.0 0.1341097302
H  H19  1  0.69270000  0.15510000  0.86740000  1.0 0.1381442028
H  H20  1  0.69650000  0.15490000  0.76450000  1.0 0.1192719958
H  H21  1  0.60640000  0.76530000  0.13180000  1.0 0.1192719958
H  H22  1  0.60800000  0.77240000  0.02970000  1.0 0.1381442028
H  H23  1  0.64330000  0.17940000  0.05870000  1.0 0.1192719958
H  H24  1  0.65540000  0.17280000  0.95610000  1.0 0.1341097302
H  H25  1  0.31800000  0.50700000  0.72700000  1.0 0.3492837085
H  H26  1  0.70270000  0.46440000  0.69750000  1.0 0.1192719958
H  H27  1  0.41530000  0.41520000  0.68890000  1.0 0.1381442028
H  H28  1  0.49760000  0.61120000  0.72890000  1.0 0.1341097302
H  H29  1  0.62240000  0.79800000  0.33460000  1.0 0.1192719958
H  H30  1  0.61730000  0.79250000  0.43750000  1.0 0.1341097302
H  H31  1  0.80730000  0.15510000  0.36740000  1.0 0.1381442028
H  H32  1  0.80350000  0.15490000  0.26450000  1.0 0.1192719958
H  H33  1  0.89360000  0.76530000  0.63180000  1.0 0.1192719958
H  H34  1  0.89200000  0.77240000  0.52970000  1.0 0.1381442028
H  H35  1  0.85670000  0.17940000  0.55870000  1.0 0.1192719958
H  H36  1  0.84460000  0.17280000  0.45610000  1.0 0.1341097302
H  H37  1  0.18200000  0.99300000  0.72700000  1.0 0.3492837085
H  H38  1  0.79730000  0.03560000  0.69750000  1.0 0.1192719958
H  H39  1  0.08470000  0.08480000  0.68890000  1.0 0.1381442028
H  H40  1  0.00240000  0.88880000  0.72890000  1.0 0.1341097302
H  H41  1  0.87760000  0.70200000  0.33460000  1.0 0.1192719958
H  H42  1  0.88270000  0.70750000  0.43750000  1.0 0.1341097302
H  H43  1  0.69270000  0.34490000  0.36740000  1.0 0.1381442028
H  H44  1  0.69650000  0.34510000  0.26450000  1.0 0.1192719958
H  H45  1  0.60640000  0.73470000  0.63180000  1.0 0.1192719958
H  H46  1  0.60800000  0.72760000  0.52970000  1.0 0.1381442028
H  H47  1  0.64330000  0.32060000  0.55870000  1.0 0.1192719958
H  H48  1  0.65540000  0.32720000  0.45610000  1.0 0.1341097302
H  H49  1  0.68200000  0.49300000  0.27300000  1.0 0.3492837085
H  H50  1  0.29730000  0.53560000  0.30250000  1.0 0.1192719958
H  H51  1  0.58470000  0.58480000  0.31110000  1.0 0.1381442028
H  H52  1  0.50240000  0.38880000  0.27110000  1.0 0.1341097302
H  H53  1  0.37760000  0.20200000  0.66540000  1.0 0.1192719958
H  H54  1  0.38270000  0.20750000  0.56250000  1.0 0.1341097302
H  H55  1  0.19270000  0.84490000  0.63260000  1.0 0.1381442028
H  H56  1  0.19650000  0.84510000  0.73550000  1.0 0.1192719958
H  H57  1  0.10640000  0.23470000  0.36820000  1.0 0.1192719958
H  H58  1  0.10800000  0.22760000  0.47030000  1.0 0.1381442028
H  H59  1  0.14330000  0.82060000  0.44130000  1.0 0.1192719958
H  H60  1  0.15540000  0.82720000  0.54390000  1.0 0.1341097302
H  H61  1  0.81800000  0.00700000  0.27300000  1.0 0.3492837085
H  H62  1  0.20270000  0.96440000  0.30250000  1.0 0.1192719958
H  H63  1  0.91530000  0.91520000  0.31110000  1.0 0.1381442028
H  H64  1  0.99760000  0.11120000  0.27110000  1.0 0.1341097302
H  H65  1  0.12240000  0.29800000  0.66540000  1.0 0.1192719958
H  H66  1  0.11730000  0.29250000  0.56250000  1.0 0.1341097302
H  H67  1  0.30730000  0.65510000  0.63260000  1.0 0.1381442028
H  H68  1  0.30350000  0.65490000  0.73550000  1.0 0.1192719958
H  H69  1  0.39360000  0.26530000  0.36820000  1.0 0.1192719958
H  H70  1  0.39200000  0.27240000  0.47030000  1.0 0.1381442028
H  H71  1  0.35670000  0.67940000  0.44130000  1.0 0.1192719958
H  H72  1  0.34460000  0.67280000  0.54390000  1.0 0.1341097302
H  H73  1  0.68200000  0.00700000  0.77300000  1.0 0.3492837085
H  H74  1  0.29730000  0.96440000  0.80250000  1.0 0.1192719958
H  H75  1  0.58470000  0.91520000  0.81110000  1.0 0.1381442028
H  H76  1  0.50240000  0.11120000  0.77110000  1.0 0.1341097302
H  H77  1  0.37760000  0.29800000  0.16540000  1.0 0.1192719958
H  H78  1  0.38270000  0.29250000  0.06250000  1.0 0.1341097302
H  H79  1  0.19270000  0.65510000  0.13260000  1.0 0.1381442028
H  H80  1  0.19650000  0.65490000  0.23550000  1.0 0.1192719958
H  H81  1  0.10640000  0.26530000  0.86820000  1.0 0.1192719958
H  H82  1  0.10800000  0.27240000  0.97030000  1.0 0.1381442028
H  H83  1  0.14330000  0.67940000  0.94130000  1.0 0.1192719958
H  H84  1  0.15540000  0.67280000  0.04390000  1.0 0.1341097302
H  H85  1  0.81800000  0.49300000  0.77300000  1.0 0.3492837085
H  H86  1  0.20270000  0.53560000  0.80250000  1.0 0.1192719958
H  H87  1  0.91530000  0.58480000  0.81110000  1.0 0.1381442028
H  H88  1  0.99760000  0.38880000  0.77110000  1.0 0.1341097302
H  H89  1  0.12240000  0.20200000  0.16540000  1.0 0.1192719958
H  H90  1  0.11730000  0.20750000  0.06250000  1.0 0.1341097302
H  H91  1  0.30730000  0.84490000  0.13260000  1.0 0.1381442028
H  H92  1  0.30350000  0.84510000  0.23550000  1.0 0.1192719958
H  H93  1  0.39360000  0.23470000  0.86820000  1.0 0.1192719958
H  H94  1  0.39200000  0.22760000  0.97030000  1.0 0.1381442028
H  H95  1  0.35670000  0.82060000  0.94130000  1.0 0.1192719958
H  H96  1  0.34460000  0.82720000  0.04390000  1.0 0.1341097302
C  C1  1  0.63690000  0.02250000  0.20050000  1.0 -0.1252110765
C  C2  1  0.56300000  0.07150000  0.19090000  1.0 -0.0177421771
C  C3  1  0.46470000  0.05210000  0.19540000  1.0 -0.2188441322
C  C4  1  0.44020000  0.98360000  0.20970000  1.0 0.3218109741
C  C5  1  0.51400000  0.93460000  0.21940000  1.0 -0.2264674918
C  C6  1  0.61230000  0.95410000  0.21480000  1.0 -0.0177421771
C  C7  1  0.59230000  0.14340000  0.17610000  1.0 0.5498365521
C  C8  1  0.67410000  0.72230000  0.85560000  1.0 0.1098160976
C  C9  1  0.67310000  0.72440000  0.91830000  1.0 -0.1779331748
C  C10  1  0.78330000  0.30600000  0.84730000  1.0 -0.1779331748
C  C11  1  0.78180000  0.30560000  0.78480000  1.0 0.102164726
C  C12  1  0.83500000  0.74010000  0.11090000  1.0 0.102164726
C  C13  1  0.83320000  0.73790000  0.04900000  1.0 -0.199715529
C  C14  1  0.81100000  0.29230000  0.03960000  1.0 0.0829504216
C  C15  1  0.80680000  0.29420000  0.97620000  1.0 -0.189021579
C  C16  1  0.68330000  0.89690000  0.22430000  1.0 0.5498365521
C  C17  1  0.86310000  0.47750000  0.20050000  1.0 -0.1252110765
C  C18  1  0.93700000  0.42850000  0.19090000  1.0 -0.0177421771
C  C19  1  0.03530000  0.44790000  0.19540000  1.0 -0.2188441322
C  C20  1  0.05980000  0.51640000  0.20970000  1.0 0.3218109741
C  C21  1  0.98600000  0.56540000  0.21940000  1.0 -0.2264674918
C  C22  1  0.88770000  0.54590000  0.21480000  1.0 -0.0177421771
C  C23  1  0.90770000  0.35660000  0.17610000  1.0 0.5498365521
C  C24  1  0.82590000  0.77770000  0.85560000  1.0 0.1098160976
C  C25  1  0.82690000  0.77560000  0.91830000  1.0 -0.1779331748
C  C26  1  0.71670000  0.19400000  0.84730000  1.0 -0.1779331748
C  C27  1  0.71820000  0.19440000  0.78480000  1.0 0.102164726
C  C28  1  0.66500000  0.75990000  0.11090000  1.0 0.102164726
C  C29  1  0.66680000  0.76210000  0.04900000  1.0 -0.199715529
C  C30  1  0.68900000  0.20770000  0.03960000  1.0 0.0829504216
C  C31  1  0.69320000  0.20580000  0.97620000  1.0 -0.189021579
C  C32  1  0.81670000  0.60310000  0.22430000  1.0 0.5498365521
C  C33  1  0.63690000  0.47750000  0.70050000  1.0 -0.1252110765
C  C34  1  0.56300000  0.42850000  0.69090000  1.0 -0.0177421771
C  C35  1  0.46470000  0.44790000  0.69540000  1.0 -0.2188441322
C  C36  1  0.44020000  0.51640000  0.70970000  1.0 0.3218109741
C  C37  1  0.51400000  0.56540000  0.71940000  1.0 -0.2264674918
C  C38  1  0.61230000  0.54590000  0.71480000  1.0 -0.0177421771
C  C39  1  0.59230000  0.35660000  0.67610000  1.0 0.5498365521
C  C40  1  0.67410000  0.77770000  0.35560000  1.0 0.1098160976
C  C41  1  0.67310000  0.77560000  0.41830000  1.0 -0.1779331748
C  C42  1  0.78330000  0.19400000  0.34730000  1.0 -0.1779331748
C  C43  1  0.78180000  0.19440000  0.28480000  1.0 0.102164726
C  C44  1  0.83500000  0.75990000  0.61090000  1.0 0.102164726
C  C45  1  0.83320000  0.76210000  0.54900000  1.0 -0.199715529
C  C46  1  0.81100000  0.20770000  0.53960000  1.0 0.0829504216
C  C47  1  0.80680000  0.20580000  0.47620000  1.0 -0.189021579
C  C48  1  0.68330000  0.60310000  0.72430000  1.0 0.5498365521
C  C49  1  0.86310000  0.02250000  0.70050000  1.0 -0.1252110765
C  C50  1  0.93700000  0.07150000  0.69090000  1.0 -0.0177421771
C  C51  1  0.03530000  0.05210000  0.69540000  1.0 -0.2188441322
C  C52  1  0.05980000  0.98360000  0.70970000  1.0 0.3218109741
C  C53  1  0.98600000  0.93460000  0.71940000  1.0 -0.2264674918
C  C54  1  0.88770000  0.95410000  0.71480000  1.0 -0.0177421771
C  C55  1  0.90770000  0.14340000  0.67610000  1.0 0.5498365521
C  C56  1  0.82590000  0.72230000  0.35560000  1.0 0.1098160976
C  C57  1  0.82690000  0.72440000  0.41830000  1.0 -0.1779331748
C  C58  1  0.71670000  0.30600000  0.34730000  1.0 -0.1779331748
C  C59  1  0.71820000  0.30560000  0.28480000  1.0 0.102164726
C  C60  1  0.66500000  0.74010000  0.61090000  1.0 0.102164726
C  C61  1  0.66680000  0.73790000  0.54900000  1.0 -0.199715529
C  C62  1  0.68900000  0.29230000  0.53960000  1.0 0.0829504216
C  C63  1  0.69320000  0.29420000  0.47620000  1.0 -0.189021579
C  C64  1  0.81670000  0.89690000  0.72430000  1.0 0.5498365521
C  C65  1  0.75000000  0.75000000  0.01290000  1.0 0.0910868703
C  C66  1  0.75000000  0.75000000  0.95420000  1.0 0.0829504216
C  C67  1  0.75000000  0.75000000  0.51290000  1.0 0.0910868703
C  C68  1  0.75000000  0.75000000  0.45420000  1.0 0.0829504216
C  C69  1  0.75000000  0.25000000  0.94410000  1.0 0.0910868703
C  C70  1  0.75000000  0.25000000  0.87900000  1.0 0.1098160976
C  C71  1  0.75000000  0.25000000  0.44410000  1.0 0.0910868703
C  C72  1  0.75000000  0.25000000  0.37900000  1.0 0.1098160976
C  C73  1  0.36310000  0.52250000  0.29950000  1.0 -0.1252110765
C  C74  1  0.43700000  0.57150000  0.30910000  1.0 -0.0177421771
C  C75  1  0.53530000  0.55210000  0.30460000  1.0 -0.2188441322
C  C76  1  0.55980000  0.48360000  0.29030000  1.0 0.3218109741
C  C77  1  0.48600000  0.43460000  0.28060000  1.0 -0.2264674918
C  C78  1  0.38770000  0.45410000  0.28520000  1.0 -0.0177421771
C  C79  1  0.40770000  0.64340000  0.32390000  1.0 0.5498365521
C  C80  1  0.32590000  0.22230000  0.64440000  1.0 0.1098160976
C  C81  1  0.32690000  0.22440000  0.58170000  1.0 -0.1779331748
C  C82  1  0.21670000  0.80600000  0.65270000  1.0 -0.1779331748
C  C83  1  0.21820000  0.80560000  0.71520000  1.0 0.102164726
C  C84  1  0.16500000  0.24010000  0.38910000  1.0 0.102164726
C  C85  1  0.16680000  0.23790000  0.45100000  1.0 -0.199715529
C  C86  1  0.18900000  0.79230000  0.46040000  1.0 0.0829504216
C  C87  1  0.19320000  0.79420000  0.52380000  1.0 -0.189021579
C  C88  1  0.31670000  0.39690000  0.27570000  1.0 0.5498365521
C  C89  1  0.13690000  0.97750000  0.29950000  1.0 -0.1252110765
C  C90  1  0.06300000  0.92850000  0.30910000  1.0 -0.0177421771
C  C91  1  0.96470000  0.94790000  0.30460000  1.0 -0.2188441322
C  C92  1  0.94020000  0.01640000  0.29030000  1.0 0.3218109741
C  C93  1  0.01400000  0.06540000  0.28060000  1.0 -0.2264674918
C  C94  1  0.11230000  0.04590000  0.28520000  1.0 -0.0177421771
C  C95  1  0.09230000  0.85660000  0.32390000  1.0 0.5498365521
C  C96  1  0.17410000  0.27770000  0.64440000  1.0 0.1098160976
C  C97  1  0.17310000  0.27560000  0.58170000  1.0 -0.1779331748
C  C98  1  0.28330000  0.69400000  0.65270000  1.0 -0.1779331748
C  C99  1  0.28180000  0.69440000  0.71520000  1.0 0.102164726
C  C100  1  0.33500000  0.25990000  0.38910000  1.0 0.102164726
C  C101  1  0.33320000  0.26210000  0.45100000  1.0 -0.199715529
C  C102  1  0.31100000  0.70770000  0.46040000  1.0 0.0829504216
C  C103  1  0.30680000  0.70580000  0.52380000  1.0 -0.189021579
C  C104  1  0.18330000  0.10310000  0.27570000  1.0 0.5498365521
C  C105  1  0.36310000  0.97750000  0.79950000  1.0 -0.1252110765
C  C106  1  0.43700000  0.92850000  0.80910000  1.0 -0.0177421771
C  C107  1  0.53530000  0.94790000  0.80460000  1.0 -0.2188441322
C  C108  1  0.55980000  0.01640000  0.79030000  1.0 0.3218109741
C  C109  1  0.48600000  0.06540000  0.78060000  1.0 -0.2264674918
C  C110  1  0.38770000  0.04590000  0.78520000  1.0 -0.0177421771
C  C111  1  0.40770000  0.85660000  0.82390000  1.0 0.5498365521
C  C112  1  0.32590000  0.27770000  0.14440000  1.0 0.1098160976
C  C113  1  0.32690000  0.27560000  0.08170000  1.0 -0.1779331748
C  C114  1  0.21670000  0.69400000  0.15270000  1.0 -0.1779331748
C  C115  1  0.21820000  0.69440000  0.21520000  1.0 0.102164726
C  C116  1  0.16500000  0.25990000  0.88910000  1.0 0.102164726
C  C117  1  0.16680000  0.26210000  0.95100000  1.0 -0.199715529
C  C118  1  0.18900000  0.70770000  0.96040000  1.0 0.0829504216
C  C119  1  0.19320000  0.70580000  0.02380000  1.0 -0.189021579
C  C120  1  0.31670000  0.10310000  0.77570000  1.0 0.5498365521
C  C121  1  0.13690000  0.52250000  0.79950000  1.0 -0.1252110765
C  C122  1  0.06300000  0.57150000  0.80910000  1.0 -0.0177421771
C  C123  1  0.96470000  0.55210000  0.80460000  1.0 -0.2188441322
C  C124  1  0.94020000  0.48360000  0.79030000  1.0 0.3218109741
C  C125  1  0.01400000  0.43460000  0.78060000  1.0 -0.2264674918
C  C126  1  0.11230000  0.45410000  0.78520000  1.0 -0.0177421771
C  C127  1  0.09230000  0.64340000  0.82390000  1.0 0.5498365521
C  C128  1  0.17410000  0.22230000  0.14440000  1.0 0.1098160976
C  C129  1  0.17310000  0.22440000  0.08170000  1.0 -0.1779331748
C  C130  1  0.28330000  0.80600000  0.15270000  1.0 -0.1779331748
C  C131  1  0.28180000  0.80560000  0.21520000  1.0 0.102164726
C  C132  1  0.33500000  0.24010000  0.88910000  1.0 0.102164726
C  C133  1  0.33320000  0.23790000  0.95100000  1.0 -0.199715529
C  C134  1  0.31100000  0.79230000  0.96040000  1.0 0.0829504216
C  C135  1  0.30680000  0.79420000  0.02380000  1.0 -0.189021579
C  C136  1  0.18330000  0.39690000  0.77570000  1.0 0.5498365521
C  C137  1  0.25000000  0.25000000  0.48710000  1.0 0.0910868703
C  C138  1  0.25000000  0.25000000  0.54580000  1.0 0.0829504216
C  C139  1  0.25000000  0.25000000  0.98710000  1.0 0.0910868703
C  C140  1  0.25000000  0.25000000  0.04580000  1.0 0.0829504216
C  C141  1  0.25000000  0.75000000  0.55590000  1.0 0.0910868703
C  C142  1  0.25000000  0.75000000  0.62100000  1.0 0.1098160976
C  C143  1  0.25000000  0.75000000  0.05590000  1.0 0.0910868703
C  C144  1  0.25000000  0.75000000  0.12100000  1.0 0.1098160976
N  N1  1  0.75000000  0.75000000  0.82710000  1.0 -0.199715529
N  N2  1  0.75000000  0.75000000  0.13910000  1.0 -0.189021579
N  N3  1  0.75000000  0.75000000  0.32710000  1.0 -0.199715529
N  N4  1  0.75000000  0.75000000  0.63910000  1.0 -0.189021579
N  N5  1  0.75000000  0.25000000  0.75290000  1.0 -0.2088665084
N  N6  1  0.75000000  0.25000000  0.07450000  1.0 -0.2413801865
N  N7  1  0.75000000  0.25000000  0.25290000  1.0 -0.2088665084
N  N8  1  0.75000000  0.25000000  0.57450000  1.0 -0.2413801865
N  N9  1  0.25000000  0.25000000  0.67290000  1.0 -0.199715529
N  N10  1  0.25000000  0.25000000  0.36090000  1.0 -0.189021579
N  N11  1  0.25000000  0.25000000  0.17290000  1.0 -0.199715529
N  N12  1  0.25000000  0.25000000  0.86090000  1.0 -0.189021579
N  N13  1  0.25000000  0.75000000  0.74710000  1.0 -0.2088665084
N  N14  1  0.25000000  0.75000000  0.42550000  1.0 -0.2413801865
N  N15  1  0.25000000  0.75000000  0.24710000  1.0 -0.2088665084
N  N16  1  0.25000000  0.75000000  0.92550000  1.0 -0.2413801865
O  O1  1  0.68070000  0.15690000  0.16380000  1.0 -0.5331392453
O  O2  1  0.65410000  0.83590000  0.22660000  1.0 -0.5331392453
O  O3  1  0.52740000  0.19550000  0.17910000  1.0 -0.6089523897
O  O4  1  0.34860000  0.96300000  0.20900000  1.0 -0.4120710657
O  O5  1  0.76720000  0.92250000  0.23310000  1.0 -0.5529014931
O  O6  1  0.81930000  0.34310000  0.16380000  1.0 -0.5331392453
O  O7  1  0.84590000  0.66410000  0.22660000  1.0 -0.5331392453
O  O8  1  0.97260000  0.30450000  0.17910000  1.0 -0.6089523897
O  O9  1  0.15140000  0.53700000  0.20900000  1.0 -0.4120710657
O  O10  1  0.73280000  0.57750000  0.23310000  1.0 -0.5529014931
O  O11  1  0.68070000  0.34310000  0.66380000  1.0 -0.5331392453
O  O12  1  0.65410000  0.66410000  0.72660000  1.0 -0.5331392453
O  O13  1  0.52740000  0.30450000  0.67910000  1.0 -0.6089523897
O  O14  1  0.34860000  0.53700000  0.70900000  1.0 -0.4120710657
O  O15  1  0.76720000  0.57750000  0.73310000  1.0 -0.5529014931
O  O16  1  0.81930000  0.15690000  0.66380000  1.0 -0.5331392453
O  O17  1  0.84590000  0.83590000  0.72660000  1.0 -0.5331392453
O  O18  1  0.97260000  0.19550000  0.67910000  1.0 -0.6089523897
O  O19  1  0.15140000  0.96300000  0.70900000  1.0 -0.4120710657
O  O20  1  0.73280000  0.92250000  0.73310000  1.0 -0.5529014931
O  O21  1  0.31930000  0.65690000  0.33620000  1.0 -0.5331392453
O  O22  1  0.34590000  0.33590000  0.27340000  1.0 -0.5331392453
O  O23  1  0.47260000  0.69550000  0.32090000  1.0 -0.6089523897
O  O24  1  0.65140000  0.46300000  0.29100000  1.0 -0.4120710657
O  O25  1  0.23280000  0.42250000  0.26690000  1.0 -0.5529014931
O  O26  1  0.18070000  0.84310000  0.33620000  1.0 -0.5331392453
O  O27  1  0.15410000  0.16410000  0.27340000  1.0 -0.5331392453
O  O28  1  0.02740000  0.80450000  0.32090000  1.0 -0.6089523897
O  O29  1  0.84860000  0.03700000  0.29100000  1.0 -0.4120710657
O  O30  1  0.26720000  0.07750000  0.26690000  1.0 -0.5529014931
O  O31  1  0.31930000  0.84310000  0.83620000  1.0 -0.5331392453
O  O32  1  0.34590000  0.16410000  0.77340000  1.0 -0.5331392453
O  O33  1  0.47260000  0.80450000  0.82090000  1.0 -0.6089523897
O  O34  1  0.65140000  0.03700000  0.79100000  1.0 -0.4120710657
O  O35  1  0.23280000  0.07750000  0.76690000  1.0 -0.5529014931
O  O36  1  0.18070000  0.65690000  0.83620000  1.0 -0.5331392453
O  O37  1  0.15410000  0.33590000  0.77340000  1.0 -0.5331392453
O  O38  1  0.02740000  0.69550000  0.82090000  1.0 -0.6089523897
O  O39  1  0.84860000  0.46300000  0.79100000  1.0 -0.4120710657
O  O40  1  0.26720000  0.42250000  0.76690000  1.0 -0.5529014931
