# DDEC6 charges by PACMAN v1.1 (https://github.com/mtap-research/PACMAN-charge/)
data_QEQYAP_ASR_pacman
_symmetry_space_group_name_H-M   'P 1'
_cell_length_a   13.44000000
_cell_length_b   19.13600000
_cell_length_c   22.39100000
_cell_angle_alpha   90.00000000
_cell_angle_beta   90.00000000
_cell_angle_gamma   90.00000000
_symmetry_Int_Tables_number   1
_chemical_formula_structural   NiH12C18N2O5
_chemical_formula_sum   'Ni8 H96 C144 N16 O40'
_cell_volume   5758.69292544
_cell_formula_units_Z   8
loop_
 _symmetry_equiv_pos_site_id
 _symmetry_equiv_pos_as_xyz
  1  'x, y, z'
loop_
 _atom_site_type_symbol
 _atom_site_label
 _atom_site_symmetry_multiplicity
 _atom_site_fract_x
 _atom_site_fract_y
 _atom_site_fract_z
 _atom_site_occupancy
 _atom_site_charge
Ni  Ni1  1  0.75000000  0.75000000  0.21860000  1.0 0.6538976387
Ni  Ni2  1  0.75000000  0.75000000  0.71860000  1.0 0.6538976387
Ni  Ni3  1  0.75000000  0.25000000  0.16480000  1.0 0.7223878459
Ni  Ni4  1  0.75000000  0.25000000  0.66480000  1.0 0.7223878459
Ni  Ni5  1  0.25000000  0.25000000  0.28140000  1.0 0.6538976387
Ni  Ni6  1  0.25000000  0.25000000  0.78140000  1.0 0.6538976387
Ni  Ni7  1  0.25000000  0.75000000  0.33520000  1.0 0.7223878459
Ni  Ni8  1  0.25000000  0.75000000  0.83520000  1.0 0.7223878459
H  H1  1  0.31900000  0.99930000  0.22600000  1.0 0.3435306505
H  H2  1  0.70570000  0.03230000  0.19410000  1.0 0.11964029
H  H3  1  0.41730000  0.08650000  0.20240000  1.0 0.1375133189
H  H4  1  0.49820000  0.88690000  0.22960000  1.0 0.1375133189
H  H5  1  0.61300000  0.71410000  0.81480000  1.0 0.1306847673
H  H6  1  0.71180000  0.35110000  0.87520000  1.0 0.1375133189
H  H7  1  0.71310000  0.34940000  0.77210000  1.0 0.11964029
H  H8  1  0.60900000  0.77890000  0.11750000  1.0 0.1306847673
H  H9  1  0.60870000  0.77880000  0.01620000  1.0 0.1375133189
H  H10  1  0.65600000  0.32350000  0.06570000  1.0 0.1306847673
H  H11  1  0.65300000  0.32770000  0.96070000  1.0 0.1375133189
H  H12  1  0.61930000  0.70270000  0.91570000  1.0 0.1375133189
H  H13  1  0.18100000  0.50070000  0.22600000  1.0 0.3435306505
H  H14  1  0.79430000  0.46770000  0.19410000  1.0 0.11964029
H  H15  1  0.08270000  0.41350000  0.20240000  1.0 0.1375133189
H  H16  1  0.00180000  0.61310000  0.22960000  1.0 0.1375133189
H  H17  1  0.88700000  0.78590000  0.81480000  1.0 0.1306847673
H  H18  1  0.78820000  0.14890000  0.87520000  1.0 0.1375133189
H  H19  1  0.78690000  0.15060000  0.77210000  1.0 0.11964029
H  H20  1  0.89100000  0.72110000  0.11750000  1.0 0.1306847673
H  H21  1  0.89130000  0.72120000  0.01620000  1.0 0.1375133189
H  H22  1  0.84400000  0.17650000  0.06570000  1.0 0.1306847673
H  H23  1  0.84700000  0.17230000  0.96070000  1.0 0.1375133189
H  H24  1  0.88070000  0.79730000  0.91570000  1.0 0.1375133189
H  H25  1  0.31900000  0.50070000  0.72600000  1.0 0.3435306505
H  H26  1  0.70570000  0.46770000  0.69410000  1.0 0.11964029
H  H27  1  0.41730000  0.41350000  0.70240000  1.0 0.1375133189
H  H28  1  0.49820000  0.61310000  0.72960000  1.0 0.1375133189
H  H29  1  0.61300000  0.78590000  0.31480000  1.0 0.1306847673
H  H30  1  0.71180000  0.14890000  0.37520000  1.0 0.1375133189
H  H31  1  0.71310000  0.15060000  0.27210000  1.0 0.11964029
H  H32  1  0.60900000  0.72110000  0.61750000  1.0 0.1306847673
H  H33  1  0.60870000  0.72120000  0.51620000  1.0 0.1375133189
H  H34  1  0.65600000  0.17650000  0.56570000  1.0 0.1306847673
H  H35  1  0.65300000  0.17230000  0.46070000  1.0 0.1375133189
H  H36  1  0.61930000  0.79730000  0.41570000  1.0 0.1375133189
H  H37  1  0.18100000  0.99930000  0.72600000  1.0 0.3435306505
H  H38  1  0.79430000  0.03230000  0.69410000  1.0 0.11964029
H  H39  1  0.08270000  0.08650000  0.70240000  1.0 0.1375133189
H  H40  1  0.00180000  0.88690000  0.72960000  1.0 0.1375133189
H  H41  1  0.88700000  0.71410000  0.31480000  1.0 0.1306847673
H  H42  1  0.78820000  0.35110000  0.37520000  1.0 0.1375133189
H  H43  1  0.78690000  0.34940000  0.27210000  1.0 0.11964029
H  H44  1  0.89100000  0.77890000  0.61750000  1.0 0.1306847673
H  H45  1  0.89130000  0.77880000  0.51620000  1.0 0.1375133189
H  H46  1  0.84400000  0.32350000  0.56570000  1.0 0.1306847673
H  H47  1  0.84700000  0.32770000  0.46070000  1.0 0.1375133189
H  H48  1  0.88070000  0.70270000  0.41570000  1.0 0.1375133189
H  H49  1  0.68100000  0.49930000  0.27400000  1.0 0.3435306505
H  H50  1  0.29430000  0.53230000  0.30590000  1.0 0.11964029
H  H51  1  0.58270000  0.58650000  0.29760000  1.0 0.1375133189
H  H52  1  0.50180000  0.38690000  0.27040000  1.0 0.1375133189
H  H53  1  0.38700000  0.21410000  0.68520000  1.0 0.1306847673
H  H54  1  0.28820000  0.85110000  0.62480000  1.0 0.1375133189
H  H55  1  0.28690000  0.84940000  0.72790000  1.0 0.11964029
H  H56  1  0.39100000  0.27890000  0.38250000  1.0 0.1306847673
H  H57  1  0.39130000  0.27880000  0.48380000  1.0 0.1306847673
H  H58  1  0.34400000  0.82350000  0.43430000  1.0 0.1306847673
H  H59  1  0.34700000  0.82770000  0.53930000  1.0 0.1375133189
H  H60  1  0.38070000  0.20270000  0.58430000  1.0 0.1375133189
H  H61  1  0.81900000  0.00070000  0.27400000  1.0 0.3435306505
H  H62  1  0.20570000  0.96770000  0.30590000  1.0 0.11964029
H  H63  1  0.91730000  0.91350000  0.29760000  1.0 0.1375133189
H  H64  1  0.99820000  0.11310000  0.27040000  1.0 0.1375133189
H  H65  1  0.11300000  0.28590000  0.68520000  1.0 0.1306847673
H  H66  1  0.21180000  0.64890000  0.62480000  1.0 0.1375133189
H  H67  1  0.21310000  0.65060000  0.72790000  1.0 0.11964029
H  H68  1  0.10900000  0.22110000  0.38250000  1.0 0.1306847673
H  H69  1  0.10870000  0.22120000  0.48380000  1.0 0.1306847673
H  H70  1  0.15600000  0.67650000  0.43430000  1.0 0.1306847673
H  H71  1  0.15300000  0.67230000  0.53930000  1.0 0.1375133189
H  H72  1  0.11930000  0.29730000  0.58430000  1.0 0.1375133189
H  H73  1  0.68100000  0.00070000  0.77400000  1.0 0.3435306505
H  H74  1  0.29430000  0.96770000  0.80590000  1.0 0.11964029
H  H75  1  0.58270000  0.91350000  0.79760000  1.0 0.1375133189
H  H76  1  0.50180000  0.11310000  0.77040000  1.0 0.1375133189
H  H77  1  0.38700000  0.28590000  0.18520000  1.0 0.1306847673
H  H78  1  0.28820000  0.64890000  0.12480000  1.0 0.1375133189
H  H79  1  0.28690000  0.65060000  0.22790000  1.0 0.11964029
H  H80  1  0.39100000  0.22110000  0.88250000  1.0 0.1306847673
H  H81  1  0.39130000  0.22120000  0.98380000  1.0 0.1306847673
H  H82  1  0.34400000  0.67650000  0.93430000  1.0 0.1306847673
H  H83  1  0.34700000  0.67230000  0.03930000  1.0 0.1375133189
H  H84  1  0.38070000  0.29730000  0.08430000  1.0 0.1375133189
H  H85  1  0.81900000  0.49930000  0.77400000  1.0 0.3435306505
H  H86  1  0.20570000  0.53230000  0.80590000  1.0 0.11964029
H  H87  1  0.91730000  0.58650000  0.79760000  1.0 0.1375133189
H  H88  1  0.99820000  0.38690000  0.77040000  1.0 0.1375133189
H  H89  1  0.11300000  0.21410000  0.18520000  1.0 0.1306847673
H  H90  1  0.21180000  0.85110000  0.12480000  1.0 0.1375133189
H  H91  1  0.21310000  0.84940000  0.22790000  1.0 0.11964029
H  H92  1  0.10900000  0.27890000  0.88250000  1.0 0.1306847673
H  H93  1  0.10870000  0.27880000  0.98380000  1.0 0.1306847673
H  H94  1  0.15600000  0.82350000  0.93430000  1.0 0.1306847673
H  H95  1  0.15300000  0.82770000  0.03930000  1.0 0.1375133189
H  H96  1  0.11930000  0.20270000  0.08430000  1.0 0.1375133189
C  C1  1  0.63950000  0.02010000  0.20000000  1.0 -0.0896693782
C  C2  1  0.56570000  0.07080000  0.19620000  1.0 -0.0896693782
C  C3  1  0.46660000  0.05260000  0.20490000  1.0 -0.189519307
C  C4  1  0.44140000  0.98370000  0.21740000  1.0 0.3223633424
C  C5  1  0.51510000  0.93300000  0.22120000  1.0 -0.189519307
C  C6  1  0.61420000  0.95120000  0.21250000  1.0 -0.0743631886
C  C7  1  0.58300000  0.14110000  0.18630000  1.0 0.511962469
C  C8  1  0.67090000  0.72760000  0.83440000  1.0 0.080641906
C  C9  1  0.72730000  0.31030000  0.85460000  1.0 -0.1622025265
C  C10  1  0.72840000  0.30800000  0.79190000  1.0 0.0937138901
C  C11  1  0.66790000  0.76680000  0.09830000  1.0 0.0718584768
C  C12  1  0.66830000  0.76670000  0.03460000  1.0 -0.189519307
C  C13  1  0.69620000  0.29240000  0.04490000  1.0 0.1070013524
C  C14  1  0.69340000  0.29510000  0.97970000  1.0 -0.2097716394
C  C15  1  0.67290000  0.72390000  0.89680000  1.0 -0.1702035262
C  C16  1  0.69140000  0.90220000  0.22190000  1.0 0.5376520113
C  C17  1  0.86050000  0.47990000  0.20000000  1.0 -0.0896693782
C  C18  1  0.93430000  0.42920000  0.19620000  1.0 -0.0896693782
C  C19  1  0.03340000  0.44740000  0.20490000  1.0 -0.189519307
C  C20  1  0.05860000  0.51630000  0.21740000  1.0 0.3223633424
C  C21  1  0.98490000  0.56700000  0.22120000  1.0 -0.189519307
C  C22  1  0.88580000  0.54880000  0.21250000  1.0 -0.0743631886
C  C23  1  0.91700000  0.35890000  0.18630000  1.0 0.511962469
C  C24  1  0.82910000  0.77240000  0.83440000  1.0 0.080641906
C  C25  1  0.77270000  0.18970000  0.85460000  1.0 -0.1622025265
C  C26  1  0.77160000  0.19200000  0.79190000  1.0 0.0937138901
C  C27  1  0.83210000  0.73320000  0.09830000  1.0 0.0718584768
C  C28  1  0.83170000  0.73330000  0.03460000  1.0 -0.189519307
C  C29  1  0.80380000  0.20760000  0.04490000  1.0 0.1070013524
C  C30  1  0.80660000  0.20490000  0.97970000  1.0 -0.2097716394
C  C31  1  0.82710000  0.77610000  0.89680000  1.0 -0.1702035262
C  C32  1  0.80860000  0.59780000  0.22190000  1.0 0.5376520113
C  C33  1  0.63950000  0.47990000  0.70000000  1.0 -0.0896693782
C  C34  1  0.56570000  0.42920000  0.69620000  1.0 -0.0896693782
C  C35  1  0.46660000  0.44740000  0.70490000  1.0 -0.189519307
C  C36  1  0.44140000  0.51630000  0.71740000  1.0 0.3223633424
C  C37  1  0.51510000  0.56700000  0.72120000  1.0 -0.189519307
C  C38  1  0.61420000  0.54880000  0.71250000  1.0 -0.0743631886
C  C39  1  0.58300000  0.35890000  0.68630000  1.0 0.511962469
C  C40  1  0.67090000  0.77240000  0.33440000  1.0 0.080641906
C  C41  1  0.72730000  0.18970000  0.35460000  1.0 -0.1622025265
C  C42  1  0.72840000  0.19200000  0.29190000  1.0 0.0937138901
C  C43  1  0.66790000  0.73320000  0.59830000  1.0 0.0718584768
C  C44  1  0.66830000  0.73330000  0.53460000  1.0 -0.189519307
C  C45  1  0.69620000  0.20760000  0.54490000  1.0 0.1070013524
C  C46  1  0.69340000  0.20490000  0.47970000  1.0 -0.2097716394
C  C47  1  0.67290000  0.77610000  0.39680000  1.0 -0.1702035262
C  C48  1  0.69140000  0.59780000  0.72190000  1.0 0.5376520113
C  C49  1  0.86050000  0.02010000  0.70000000  1.0 -0.0896693782
C  C50  1  0.93430000  0.07080000  0.69620000  1.0 -0.0896693782
C  C51  1  0.03340000  0.05260000  0.70490000  1.0 -0.189519307
C  C52  1  0.05860000  0.98370000  0.71740000  1.0 0.3223633424
C  C53  1  0.98490000  0.93300000  0.72120000  1.0 -0.189519307
C  C54  1  0.88580000  0.95120000  0.71250000  1.0 -0.0743631886
C  C55  1  0.91700000  0.14110000  0.68630000  1.0 0.511962469
C  C56  1  0.82910000  0.72760000  0.33440000  1.0 0.080641906
C  C57  1  0.77270000  0.31030000  0.35460000  1.0 -0.1622025265
C  C58  1  0.77160000  0.30800000  0.29190000  1.0 0.0937138901
C  C59  1  0.83210000  0.76680000  0.59830000  1.0 0.0718584768
C  C60  1  0.83170000  0.76670000  0.53460000  1.0 -0.189519307
C  C61  1  0.80380000  0.29240000  0.54490000  1.0 0.1070013524
C  C62  1  0.80660000  0.29510000  0.47970000  1.0 -0.2097716394
C  C63  1  0.82710000  0.72390000  0.39680000  1.0 -0.1702035262
C  C64  1  0.80860000  0.90220000  0.72190000  1.0 0.5376520113
C  C65  1  0.75000000  0.75000000  0.99530000  1.0 0.080641906
C  C66  1  0.75000000  0.75000000  0.93320000  1.0 0.0718584768
C  C67  1  0.75000000  0.75000000  0.49530000  1.0 0.080641906
C  C68  1  0.75000000  0.75000000  0.43320000  1.0 0.0718584768
C  C69  1  0.75000000  0.25000000  0.94620000  1.0 0.1045881633
C  C70  1  0.75000000  0.25000000  0.88350000  1.0 0.080641906
C  C71  1  0.75000000  0.25000000  0.44620000  1.0 0.1045881633
C  C72  1  0.75000000  0.25000000  0.38350000  1.0 0.080641906
C  C73  1  0.36050000  0.52010000  0.30000000  1.0 -0.0896693782
C  C74  1  0.43430000  0.57080000  0.30380000  1.0 -0.0896693782
C  C75  1  0.53340000  0.55260000  0.29510000  1.0 -0.189519307
C  C76  1  0.55860000  0.48370000  0.28260000  1.0 0.3223633424
C  C77  1  0.48490000  0.43300000  0.27880000  1.0 -0.189519307
C  C78  1  0.38580000  0.45120000  0.28750000  1.0 -0.0743631886
C  C79  1  0.41700000  0.64110000  0.31370000  1.0 0.511962469
C  C80  1  0.32910000  0.22760000  0.66560000  1.0 0.080641906
C  C81  1  0.27270000  0.81030000  0.64540000  1.0 -0.1622025265
C  C82  1  0.27160000  0.80800000  0.70810000  1.0 0.0937138901
C  C83  1  0.33210000  0.26680000  0.40170000  1.0 0.0718584768
C  C84  1  0.33170000  0.26670000  0.46540000  1.0 -0.189519307
C  C85  1  0.30380000  0.79240000  0.45510000  1.0 0.1070013524
C  C86  1  0.30660000  0.79510000  0.52030000  1.0 -0.2097716394
C  C87  1  0.32710000  0.22390000  0.60320000  1.0 -0.1702035262
C  C88  1  0.30860000  0.40220000  0.27810000  1.0 0.5376520113
C  C89  1  0.13950000  0.97990000  0.30000000  1.0 -0.0896693782
C  C90  1  0.06570000  0.92920000  0.30380000  1.0 -0.0896693782
C  C91  1  0.96660000  0.94740000  0.29510000  1.0 -0.189519307
C  C92  1  0.94140000  0.01630000  0.28260000  1.0 0.3223633424
C  C93  1  0.01510000  0.06700000  0.27880000  1.0 -0.189519307
C  C94  1  0.11420000  0.04880000  0.28750000  1.0 -0.0743631886
C  C95  1  0.08300000  0.85890000  0.31370000  1.0 0.511962469
C  C96  1  0.17090000  0.27240000  0.66560000  1.0 0.080641906
C  C97  1  0.22730000  0.68970000  0.64540000  1.0 -0.1622025265
C  C98  1  0.22840000  0.69200000  0.70810000  1.0 0.0937138901
C  C99  1  0.16790000  0.23320000  0.40170000  1.0 0.0718584768
C  C100  1  0.16830000  0.23330000  0.46540000  1.0 -0.189519307
C  C101  1  0.19620000  0.70760000  0.45510000  1.0 0.1070013524
C  C102  1  0.19340000  0.70490000  0.52030000  1.0 -0.2097716394
C  C103  1  0.17290000  0.27610000  0.60320000  1.0 -0.1702035262
C  C104  1  0.19140000  0.09780000  0.27810000  1.0 0.5376520113
C  C105  1  0.36050000  0.97990000  0.80000000  1.0 -0.0896693782
C  C106  1  0.43430000  0.92920000  0.80380000  1.0 -0.0896693782
C  C107  1  0.53340000  0.94740000  0.79510000  1.0 -0.189519307
C  C108  1  0.55860000  0.01630000  0.78260000  1.0 0.3223633424
C  C109  1  0.48490000  0.06700000  0.77880000  1.0 -0.189519307
C  C110  1  0.38580000  0.04880000  0.78750000  1.0 -0.0743631886
C  C111  1  0.41700000  0.85890000  0.81370000  1.0 0.511962469
C  C112  1  0.32910000  0.27240000  0.16560000  1.0 0.080641906
C  C113  1  0.27270000  0.68970000  0.14540000  1.0 -0.1622025265
C  C114  1  0.27160000  0.69200000  0.20810000  1.0 0.0937138901
C  C115  1  0.33210000  0.23320000  0.90170000  1.0 0.0718584768
C  C116  1  0.33170000  0.23330000  0.96540000  1.0 -0.189519307
C  C117  1  0.30380000  0.70760000  0.95510000  1.0 0.1070013524
C  C118  1  0.30660000  0.70490000  0.02030000  1.0 -0.2097716394
C  C119  1  0.32710000  0.27610000  0.10320000  1.0 -0.1702035262
C  C120  1  0.30860000  0.09780000  0.77810000  1.0 0.5376520113
C  C121  1  0.13950000  0.52010000  0.80000000  1.0 -0.0896693782
C  C122  1  0.06570000  0.57080000  0.80380000  1.0 -0.0896693782
C  C123  1  0.96660000  0.55260000  0.79510000  1.0 -0.189519307
C  C124  1  0.94140000  0.48370000  0.78260000  1.0 0.3223633424
C  C125  1  0.01510000  0.43300000  0.77880000  1.0 -0.189519307
C  C126  1  0.11420000  0.45120000  0.78750000  1.0 -0.0743631886
C  C127  1  0.08300000  0.64110000  0.81370000  1.0 0.511962469
C  C128  1  0.17090000  0.22760000  0.16560000  1.0 0.080641906
C  C129  1  0.22730000  0.81030000  0.14540000  1.0 -0.1622025265
C  C130  1  0.22840000  0.80800000  0.20810000  1.0 0.0937138901
C  C131  1  0.16790000  0.26680000  0.90170000  1.0 0.0718584768
C  C132  1  0.16830000  0.26670000  0.96540000  1.0 -0.189519307
C  C133  1  0.19620000  0.79240000  0.95510000  1.0 0.1070013524
C  C134  1  0.19340000  0.79510000  0.02030000  1.0 -0.2097716394
C  C135  1  0.17290000  0.22390000  0.10320000  1.0 -0.1702035262
C  C136  1  0.19140000  0.40220000  0.77810000  1.0 0.5376520113
C  C137  1  0.25000000  0.25000000  0.50470000  1.0 0.080641906
C  C138  1  0.25000000  0.25000000  0.56680000  1.0 0.0718584768
C  C139  1  0.25000000  0.25000000  0.00470000  1.0 0.080641906
C  C140  1  0.25000000  0.25000000  0.06680000  1.0 0.0718584768
C  C141  1  0.25000000  0.75000000  0.55380000  1.0 0.1045881633
C  C142  1  0.25000000  0.75000000  0.61650000  1.0 0.080641906
C  C143  1  0.25000000  0.75000000  0.05380000  1.0 0.1045881633
C  C144  1  0.25000000  0.75000000  0.11650000  1.0 0.080641906
N  N1  1  0.75000000  0.75000000  0.80050000  1.0 -0.1839313998
N  N2  1  0.75000000  0.75000000  0.13360000  1.0 -0.189519307
N  N3  1  0.75000000  0.75000000  0.30050000  1.0 -0.1839313998
N  N4  1  0.75000000  0.75000000  0.63360000  1.0 -0.189519307
N  N5  1  0.75000000  0.25000000  0.75590000  1.0 -0.2409391745
N  N6  1  0.75000000  0.25000000  0.07550000  1.0 -0.2047860368
N  N7  1  0.75000000  0.25000000  0.25590000  1.0 -0.2409391745
N  N8  1  0.75000000  0.25000000  0.57550000  1.0 -0.2047860368
N  N9  1  0.25000000  0.25000000  0.69950000  1.0 -0.1839313998
N  N10  1  0.25000000  0.25000000  0.36640000  1.0 -0.189519307
N  N11  1  0.25000000  0.25000000  0.19950000  1.0 -0.1839313998
N  N12  1  0.25000000  0.25000000  0.86640000  1.0 -0.189519307
N  N13  1  0.25000000  0.75000000  0.74410000  1.0 -0.2409391745
N  N14  1  0.25000000  0.75000000  0.42450000  1.0 -0.2047860368
N  N15  1  0.25000000  0.75000000  0.24410000  1.0 -0.2409391745
N  N16  1  0.25000000  0.75000000  0.92450000  1.0 -0.2047860368
O  O1  1  0.67300000  0.15760000  0.16680000  1.0 -0.5615101128
O  O2  1  0.66890000  0.83820000  0.21260000  1.0 -0.4959149107
O  O3  1  0.52000000  0.19450000  0.19150000  1.0 -0.575627391
O  O4  1  0.34980000  0.96260000  0.22360000  1.0 -0.4101445421
O  O5  1  0.78880000  0.91910000  0.22070000  1.0 -0.5615101128
O  O6  1  0.82700000  0.34240000  0.16680000  1.0 -0.5615101128
O  O7  1  0.83110000  0.66180000  0.21260000  1.0 -0.4959149107
O  O8  1  0.98000000  0.30550000  0.19150000  1.0 -0.575627391
O  O9  1  0.15020000  0.53740000  0.22360000  1.0 -0.4101445421
O  O10  1  0.71120000  0.58090000  0.22070000  1.0 -0.5615101128
O  O11  1  0.67300000  0.34240000  0.66680000  1.0 -0.5615101128
O  O12  1  0.66890000  0.66180000  0.71260000  1.0 -0.4959149107
O  O13  1  0.52000000  0.30550000  0.69150000  1.0 -0.575627391
O  O14  1  0.34980000  0.53740000  0.72360000  1.0 -0.4101445421
O  O15  1  0.78880000  0.58090000  0.72070000  1.0 -0.5615101128
O  O16  1  0.82700000  0.15760000  0.66680000  1.0 -0.5615101128
O  O17  1  0.83110000  0.83820000  0.71260000  1.0 -0.4959149107
O  O18  1  0.98000000  0.19450000  0.69150000  1.0 -0.575627391
O  O19  1  0.15020000  0.96260000  0.72360000  1.0 -0.4101445421
O  O20  1  0.71120000  0.91910000  0.72070000  1.0 -0.5615101128
O  O21  1  0.32700000  0.65760000  0.33320000  1.0 -0.5615101128
O  O22  1  0.33110000  0.33820000  0.28740000  1.0 -0.4959149107
O  O23  1  0.48000000  0.69450000  0.30850000  1.0 -0.575627391
O  O24  1  0.65020000  0.46260000  0.27640000  1.0 -0.4101445421
O  O25  1  0.21120000  0.41910000  0.27930000  1.0 -0.5615101128
O  O26  1  0.17300000  0.84240000  0.33320000  1.0 -0.5615101128
O  O27  1  0.16890000  0.16180000  0.28740000  1.0 -0.4959149107
O  O28  1  0.02000000  0.80550000  0.30850000  1.0 -0.575627391
O  O29  1  0.84980000  0.03740000  0.27640000  1.0 -0.4101445421
O  O30  1  0.28880000  0.08090000  0.27930000  1.0 -0.5615101128
O  O31  1  0.32700000  0.84240000  0.83320000  1.0 -0.5615101128
O  O32  1  0.33110000  0.16180000  0.78740000  1.0 -0.4959149107
O  O33  1  0.48000000  0.80550000  0.80850000  1.0 -0.575627391
O  O34  1  0.65020000  0.03740000  0.77640000  1.0 -0.4101445421
O  O35  1  0.21120000  0.08090000  0.77930000  1.0 -0.5615101128
O  O36  1  0.17300000  0.65760000  0.83320000  1.0 -0.5615101128
O  O37  1  0.16890000  0.33820000  0.78740000  1.0 -0.4959149107
O  O38  1  0.02000000  0.69450000  0.80850000  1.0 -0.575627391
O  O39  1  0.84980000  0.46260000  0.77640000  1.0 -0.4101445421
O  O40  1  0.28880000  0.41910000  0.77930000  1.0 -0.5615101128
