# DDEC6 charges by PACMAN v1.1 (https://github.com/mtap-research/PACMAN-charge/)
data_QEQYOD_ASR_pacman
_symmetry_space_group_name_H-M   'P 1'
_cell_length_a   12.61000000
_cell_length_b   19.08600000
_cell_length_c   22.36000000
_cell_angle_alpha   90.00000000
_cell_angle_beta   90.00000000
_cell_angle_gamma   90.00000000
_symmetry_Int_Tables_number   1
_chemical_formula_structural   NiC18N2O5
_chemical_formula_sum   'Ni8 C144 N16 O40'
_cell_volume   5381.48092560
_cell_formula_units_Z   8
loop_
 _symmetry_equiv_pos_site_id
 _symmetry_equiv_pos_as_xyz
  1  'x, y, z'
loop_
 _atom_site_type_symbol
 _atom_site_label
 _atom_site_symmetry_multiplicity
 _atom_site_fract_x
 _atom_site_fract_y
 _atom_site_fract_z
 _atom_site_occupancy
 _atom_site_charge
Ni  Ni1  1  0.75000000  0.75000000  0.21240000  1.0 0.6460403829
Ni  Ni2  1  0.75000000  0.75000000  0.71240000  1.0 0.6433784395
Ni  Ni3  1  0.75000000  0.25000000  0.15740000  1.0 0.6217933327
Ni  Ni4  1  0.75000000  0.25000000  0.65740000  1.0 0.6217933327
Ni  Ni5  1  0.25000000  0.25000000  0.28760000  1.0 0.6460403829
Ni  Ni6  1  0.25000000  0.25000000  0.78760000  1.0 0.6433784395
Ni  Ni7  1  0.25000000  0.75000000  0.34260000  1.0 0.6217933327
Ni  Ni8  1  0.25000000  0.75000000  0.84260000  1.0 0.6217933327
C  C1  1  0.64360000  0.02530000  0.19170000  1.0 0.106355521
C  C2  1  0.56700000  0.07770000  0.19220000  1.0 -0.1205628748
C  C3  1  0.46090000  0.06050000  0.20090000  1.0 0.0028988208
C  C4  1  0.43160000  0.99090000  0.20910000  1.0 0.2789497554
C  C5  1  0.50800000  0.93860000  0.20860000  1.0 -0.1205628748
C  C6  1  0.61400000  0.95580000  0.19990000  1.0 -0.051797313
C  C7  1  0.59800000  0.14570000  0.18320000  1.0 0.5290357798
C  C8  1  0.69600000  0.90210000  0.18910000  1.0 0.5629742026
C  C9  1  0.77300000  0.19160000  0.03960000  1.0 0.2221863482
C  C10  1  0.74300000  0.31230000  0.84260000  1.0 -0.0744119481
C  C11  1  0.74200000  0.31090000  0.77830000  1.0 0.2259986107
C  C12  1  0.78000000  0.19250000  0.97800000  1.0 -0.1205628748
C  C13  1  0.66380000  0.73100000  0.08990000  1.0 0.2221863482
C  C14  1  0.68100000  0.71000000  0.03080000  1.0 -0.1033547268
C  C15  1  0.67080000  0.71930000  0.89250000  1.0 -0.1205628748
C  C16  1  0.69100000  0.70360000  0.83480000  1.0 0.1989348634
C  C17  1  0.85640000  0.47470000  0.19170000  1.0 0.106355521
C  C18  1  0.93300000  0.42230000  0.19220000  1.0 -0.1205628748
C  C19  1  0.03910000  0.43950000  0.20090000  1.0 0.0028988208
C  C20  1  0.06840000  0.50910000  0.20910000  1.0 0.2789497554
C  C21  1  0.99200000  0.56140000  0.20860000  1.0 -0.1205628748
C  C22  1  0.88600000  0.54420000  0.19990000  1.0 -0.051797313
C  C23  1  0.90200000  0.35430000  0.18320000  1.0 0.5290357798
C  C24  1  0.80400000  0.59790000  0.18910000  1.0 0.5629742026
C  C25  1  0.72700000  0.30840000  0.03960000  1.0 0.2221863482
C  C26  1  0.75700000  0.18770000  0.84260000  1.0 -0.0744119481
C  C27  1  0.75800000  0.18910000  0.77830000  1.0 0.2259986107
C  C28  1  0.72000000  0.30750000  0.97800000  1.0 -0.1205628748
C  C29  1  0.83620000  0.76900000  0.08990000  1.0 0.2221863482
C  C30  1  0.81900000  0.79000000  0.03080000  1.0 -0.1033547268
C  C31  1  0.82920000  0.78070000  0.89250000  1.0 -0.1205628748
C  C32  1  0.80900000  0.79640000  0.83480000  1.0 0.1989348634
C  C33  1  0.64360000  0.47470000  0.69170000  1.0 0.1040816381
C  C34  1  0.56700000  0.42230000  0.69220000  1.0 -0.1205628748
C  C35  1  0.46090000  0.43950000  0.70090000  1.0 0.0028988208
C  C36  1  0.43160000  0.50910000  0.70910000  1.0 0.2789497554
C  C37  1  0.50800000  0.56140000  0.70860000  1.0 -0.1205628748
C  C38  1  0.61400000  0.54420000  0.69990000  1.0 -0.051797313
C  C39  1  0.59800000  0.35430000  0.68320000  1.0 0.5290357798
C  C40  1  0.69600000  0.59790000  0.68910000  1.0 0.5629742026
C  C41  1  0.77300000  0.30840000  0.53960000  1.0 0.2221863482
C  C42  1  0.74300000  0.18770000  0.34260000  1.0 -0.0764233887
C  C43  1  0.74200000  0.18910000  0.27830000  1.0 0.2259986107
C  C44  1  0.78000000  0.30750000  0.47800000  1.0 -0.1205628748
C  C45  1  0.66380000  0.76900000  0.58990000  1.0 0.2221863482
C  C46  1  0.68100000  0.79000000  0.53080000  1.0 -0.1059483558
C  C47  1  0.67080000  0.78070000  0.39250000  1.0 -0.1205628748
C  C48  1  0.69100000  0.79640000  0.33480000  1.0 0.1989348634
C  C49  1  0.85640000  0.02530000  0.69170000  1.0 0.106355521
C  C50  1  0.93300000  0.07770000  0.69220000  1.0 -0.1205628748
C  C51  1  0.03910000  0.06050000  0.70090000  1.0 0.0028988208
C  C52  1  0.06840000  0.99090000  0.70910000  1.0 0.2789497554
C  C53  1  0.99200000  0.93860000  0.70860000  1.0 -0.1205628748
C  C54  1  0.88600000  0.95580000  0.69990000  1.0 -0.051797313
C  C55  1  0.90200000  0.14570000  0.68320000  1.0 0.5290357798
C  C56  1  0.80400000  0.90210000  0.68910000  1.0 0.5629742026
C  C57  1  0.72700000  0.19160000  0.53960000  1.0 0.2221863482
C  C58  1  0.75700000  0.31230000  0.34260000  1.0 -0.0764233887
C  C59  1  0.75800000  0.31090000  0.27830000  1.0 0.2259986107
C  C60  1  0.72000000  0.19250000  0.47800000  1.0 -0.1205628748
C  C61  1  0.83620000  0.73100000  0.58990000  1.0 0.2221863482
C  C62  1  0.81900000  0.71000000  0.53080000  1.0 -0.1059483558
C  C63  1  0.82920000  0.71930000  0.39250000  1.0 -0.1205628748
C  C64  1  0.80900000  0.70360000  0.33480000  1.0 0.1989348634
C  C65  1  0.75000000  0.75000000  0.99840000  1.0 0.168992161
C  C66  1  0.75000000  0.75000000  0.93190000  1.0 0.2081374928
C  C67  1  0.75000000  0.75000000  0.49840000  1.0 0.168992161
C  C68  1  0.75000000  0.75000000  0.43190000  1.0 0.2081374928
C  C69  1  0.75000000  0.25000000  0.94370000  1.0 0.1458240628
C  C70  1  0.75000000  0.25000000  0.87880000  1.0 0.1405294604
C  C71  1  0.75000000  0.25000000  0.44370000  1.0 0.1458240628
C  C72  1  0.75000000  0.25000000  0.37880000  1.0 0.1405294604
C  C73  1  0.35640000  0.52530000  0.30830000  1.0 0.1040816381
C  C74  1  0.43300000  0.57770000  0.30780000  1.0 -0.1205628748
C  C75  1  0.53910000  0.56050000  0.29910000  1.0 0.0028988208
C  C76  1  0.56840000  0.49090000  0.29090000  1.0 0.2789497554
C  C77  1  0.49200000  0.43860000  0.29140000  1.0 -0.1205628748
C  C78  1  0.38600000  0.45580000  0.30010000  1.0 -0.051797313
C  C79  1  0.40200000  0.64570000  0.31680000  1.0 0.5290357798
C  C80  1  0.30400000  0.40210000  0.31090000  1.0 0.5629742026
C  C81  1  0.22700000  0.69160000  0.46040000  1.0 0.2221863482
C  C82  1  0.25700000  0.81230000  0.65740000  1.0 -0.0744119481
C  C83  1  0.25800000  0.81090000  0.72170000  1.0 0.2221863482
C  C84  1  0.22000000  0.69250000  0.52200000  1.0 -0.1205628748
C  C85  1  0.33620000  0.23100000  0.41010000  1.0 0.2221863482
C  C86  1  0.31900000  0.21000000  0.46920000  1.0 -0.1033547268
C  C87  1  0.32920000  0.21930000  0.60750000  1.0 -0.1205628748
C  C88  1  0.30900000  0.20360000  0.66520000  1.0 0.1989348634
C  C89  1  0.14360000  0.97470000  0.30830000  1.0 0.1040816381
C  C90  1  0.06700000  0.92230000  0.30780000  1.0 -0.1205628748
C  C91  1  0.96090000  0.93950000  0.29910000  1.0 0.0028988208
C  C92  1  0.93160000  0.00910000  0.29090000  1.0 0.2789497554
C  C93  1  0.00800000  0.06140000  0.29140000  1.0 -0.1205628748
C  C94  1  0.11400000  0.04420000  0.30010000  1.0 -0.051797313
C  C95  1  0.09800000  0.85430000  0.31680000  1.0 0.5290357798
C  C96  1  0.19600000  0.09790000  0.31090000  1.0 0.5629742026
C  C97  1  0.27300000  0.80840000  0.46040000  1.0 0.2221863482
C  C98  1  0.24300000  0.68770000  0.65740000  1.0 -0.0744119481
C  C99  1  0.24200000  0.68910000  0.72170000  1.0 0.2221863482
C  C100  1  0.28000000  0.80750000  0.52200000  1.0 -0.1205628748
C  C101  1  0.16380000  0.26900000  0.41010000  1.0 0.2221863482
C  C102  1  0.18100000  0.29000000  0.46920000  1.0 -0.1033547268
C  C103  1  0.17080000  0.28070000  0.60750000  1.0 -0.1205628748
C  C104  1  0.19100000  0.29640000  0.66520000  1.0 0.1989348634
C  C105  1  0.35640000  0.97470000  0.80830000  1.0 0.1040816381
C  C106  1  0.43300000  0.92230000  0.80780000  1.0 -0.1205628748
C  C107  1  0.53910000  0.93950000  0.79910000  1.0 0.0028988208
C  C108  1  0.56840000  0.00910000  0.79090000  1.0 0.2789497554
C  C109  1  0.49200000  0.06140000  0.79140000  1.0 -0.1205628748
C  C110  1  0.38600000  0.04420000  0.80010000  1.0 -0.051797313
C  C111  1  0.40200000  0.85430000  0.81680000  1.0 0.5290357798
C  C112  1  0.30400000  0.09790000  0.81090000  1.0 0.5629742026
C  C113  1  0.22700000  0.80840000  0.96040000  1.0 0.2221863482
C  C114  1  0.25700000  0.68770000  0.15740000  1.0 -0.0764233887
C  C115  1  0.25800000  0.68910000  0.22170000  1.0 0.2259986107
C  C116  1  0.22000000  0.80750000  0.02200000  1.0 -0.1205628748
C  C117  1  0.33620000  0.26900000  0.91010000  1.0 0.2221863482
C  C118  1  0.31900000  0.29000000  0.96920000  1.0 -0.1059483558
C  C119  1  0.32920000  0.28070000  0.10750000  1.0 -0.1205628748
C  C120  1  0.30900000  0.29640000  0.16520000  1.0 0.1989348634
C  C121  1  0.14360000  0.52530000  0.80830000  1.0 0.1040816381
C  C122  1  0.06700000  0.57770000  0.80780000  1.0 -0.1205628748
C  C123  1  0.96090000  0.56050000  0.79910000  1.0 0.0028988208
C  C124  1  0.93160000  0.49090000  0.79090000  1.0 0.2789497554
C  C125  1  0.00800000  0.43860000  0.79140000  1.0 -0.1205628748
C  C126  1  0.11400000  0.45580000  0.80010000  1.0 -0.051797313
C  C127  1  0.09800000  0.64570000  0.81680000  1.0 0.5290357798
C  C128  1  0.19600000  0.40210000  0.81090000  1.0 0.5629742026
C  C129  1  0.27300000  0.69160000  0.96040000  1.0 0.2221863482
C  C130  1  0.24300000  0.81230000  0.15740000  1.0 -0.0764233887
C  C131  1  0.24200000  0.81090000  0.22170000  1.0 0.2259986107
C  C132  1  0.28000000  0.69250000  0.02200000  1.0 -0.1205628748
C  C133  1  0.16380000  0.23100000  0.91010000  1.0 0.2221863482
C  C134  1  0.18100000  0.21000000  0.96920000  1.0 -0.1059483558
C  C135  1  0.17080000  0.21930000  0.10750000  1.0 -0.1205628748
C  C136  1  0.19100000  0.20360000  0.16520000  1.0 0.1989348634
C  C137  1  0.25000000  0.25000000  0.50160000  1.0 0.168992161
C  C138  1  0.25000000  0.25000000  0.56810000  1.0 0.2081374928
C  C139  1  0.25000000  0.25000000  0.00160000  1.0 0.168992161
C  C140  1  0.25000000  0.25000000  0.06810000  1.0 0.2081374928
C  C141  1  0.25000000  0.75000000  0.55630000  1.0 0.1458240628
C  C142  1  0.25000000  0.75000000  0.62120000  1.0 0.1405294604
C  C143  1  0.25000000  0.75000000  0.05630000  1.0 0.1458240628
C  C144  1  0.25000000  0.75000000  0.12120000  1.0 0.1405294604
N  N1  1  0.75000000  0.75000000  0.80540000  1.0 -0.1793091587
N  N2  1  0.75000000  0.75000000  0.12550000  1.0 -0.2292613693
N  N3  1  0.75000000  0.75000000  0.30540000  1.0 -0.1793091587
N  N4  1  0.75000000  0.75000000  0.62550000  1.0 -0.2292613693
N  N5  1  0.75000000  0.25000000  0.75310000  1.0 -0.1724797234
N  N6  1  0.75000000  0.25000000  0.07260000  1.0 -0.1793091587
N  N7  1  0.75000000  0.25000000  0.25310000  1.0 -0.1724797234
N  N8  1  0.75000000  0.25000000  0.57260000  1.0 -0.1793091587
N  N9  1  0.25000000  0.25000000  0.69460000  1.0 -0.1793091587
N  N10  1  0.25000000  0.25000000  0.37450000  1.0 -0.2292613693
N  N11  1  0.25000000  0.25000000  0.19460000  1.0 -0.1864182025
N  N12  1  0.25000000  0.25000000  0.87450000  1.0 -0.2292613693
N  N13  1  0.25000000  0.75000000  0.74690000  1.0 -0.1724797234
N  N14  1  0.25000000  0.75000000  0.42740000  1.0 -0.1793091587
N  N15  1  0.25000000  0.75000000  0.24690000  1.0 -0.1724797234
N  N16  1  0.25000000  0.75000000  0.92740000  1.0 -0.1793091587
O  O1  1  0.67300000  0.15970000  0.14870000  1.0 -0.4656673938
O  O2  1  0.67200000  0.84240000  0.19590000  1.0 -0.452729062
O  O3  1  0.55100000  0.19690000  0.20280000  1.0 -0.4596353516
O  O4  1  0.33000000  0.97710000  0.21720000  1.0 -0.4209684123
O  O5  1  0.79000000  0.91790000  0.19670000  1.0 -0.4209684123
O  O6  1  0.82700000  0.34030000  0.14870000  1.0 -0.4656673938
O  O7  1  0.82800000  0.65760000  0.19590000  1.0 -0.452729062
O  O8  1  0.94900000  0.30310000  0.20280000  1.0 -0.4596353516
O  O9  1  0.17000000  0.52290000  0.21720000  1.0 -0.4209684123
O  O10  1  0.71000000  0.58210000  0.19670000  1.0 -0.4209684123
O  O11  1  0.67300000  0.34030000  0.64870000  1.0 -0.4596353516
O  O12  1  0.67200000  0.65760000  0.69590000  1.0 -0.452729062
O  O13  1  0.55100000  0.30310000  0.70280000  1.0 -0.4596353516
O  O14  1  0.33000000  0.52290000  0.71720000  1.0 -0.4209684123
O  O15  1  0.79000000  0.58210000  0.69670000  1.0 -0.4209684123
O  O16  1  0.82700000  0.15970000  0.64870000  1.0 -0.4596353516
O  O17  1  0.82800000  0.84240000  0.69590000  1.0 -0.452729062
O  O18  1  0.94900000  0.19690000  0.70280000  1.0 -0.4596353516
O  O19  1  0.17000000  0.97710000  0.71720000  1.0 -0.4209684123
O  O20  1  0.71000000  0.91790000  0.69670000  1.0 -0.4209684123
O  O21  1  0.32700000  0.65970000  0.35130000  1.0 -0.4656673938
O  O22  1  0.32800000  0.34240000  0.30410000  1.0 -0.452729062
O  O23  1  0.44900000  0.69690000  0.29720000  1.0 -0.4596353516
O  O24  1  0.67000000  0.47710000  0.28280000  1.0 -0.4209684123
O  O25  1  0.21000000  0.41790000  0.30330000  1.0 -0.4209684123
O  O26  1  0.17300000  0.84030000  0.35130000  1.0 -0.4656673938
O  O27  1  0.17200000  0.15760000  0.30410000  1.0 -0.452729062
O  O28  1  0.05100000  0.80310000  0.29720000  1.0 -0.4596353516
O  O29  1  0.83000000  0.02290000  0.28280000  1.0 -0.4209684123
O  O30  1  0.29000000  0.08210000  0.30330000  1.0 -0.4209684123
O  O31  1  0.32700000  0.84030000  0.85130000  1.0 -0.4596353516
O  O32  1  0.32800000  0.15760000  0.80410000  1.0 -0.452729062
O  O33  1  0.44900000  0.80310000  0.79720000  1.0 -0.4596353516
O  O34  1  0.67000000  0.02290000  0.78280000  1.0 -0.4209684123
O  O35  1  0.21000000  0.08210000  0.80330000  1.0 -0.4209684123
O  O36  1  0.17300000  0.65970000  0.85130000  1.0 -0.4596353516
O  O37  1  0.17200000  0.34240000  0.80410000  1.0 -0.452729062
O  O38  1  0.05100000  0.69690000  0.79720000  1.0 -0.4596353516
O  O39  1  0.83000000  0.47710000  0.78280000  1.0 -0.4209684123
O  O40  1  0.29000000  0.41790000  0.80330000  1.0 -0.4209684123
