# DDEC6 charges by PACMAN v1.1 (https://github.com/mtap-research/PACMAN-charge/)
data_QEQZUK_ASR_pacman
_symmetry_space_group_name_H-M   'P 1'
_cell_length_a   13.64900000
_cell_length_b   19.33300000
_cell_length_c   22.58400000
_cell_angle_alpha   90.00000000
_cell_angle_beta   90.00000000
_cell_angle_gamma   90.00000000
_symmetry_Int_Tables_number   1
_chemical_formula_structural   NiH12C18N2O5
_chemical_formula_sum   'Ni8 H96 C144 N16 O40'
_cell_volume   5959.37822633
_cell_formula_units_Z   8
loop_
 _symmetry_equiv_pos_site_id
 _symmetry_equiv_pos_as_xyz
  1  'x, y, z'
loop_
 _atom_site_type_symbol
 _atom_site_label
 _atom_site_symmetry_multiplicity
 _atom_site_fract_x
 _atom_site_fract_y
 _atom_site_fract_z
 _atom_site_occupancy
 _atom_site_charge
Ni  Ni1  1  0.75000000  0.75000000  0.21274000  1.0 0.6296121187
Ni  Ni2  1  0.75000000  0.75000000  0.71274000  1.0 0.6296121187
Ni  Ni3  1  0.75000000  0.25000000  0.16713000  1.0 0.6296121187
Ni  Ni4  1  0.75000000  0.25000000  0.66713000  1.0 0.6296121187
Ni  Ni5  1  0.25000000  0.25000000  0.28726000  1.0 0.6296121187
Ni  Ni6  1  0.25000000  0.25000000  0.78726000  1.0 0.6296121187
Ni  Ni7  1  0.25000000  0.75000000  0.33287000  1.0 0.6296121187
Ni  Ni8  1  0.25000000  0.75000000  0.83287000  1.0 0.6296121187
H  H1  1  0.30860000  0.99670000  0.23270000  1.0 0.3505802534
H  H2  1  0.69330000  0.03250000  0.19370000  1.0 0.1111799843
H  H3  1  0.41220000  0.08920000  0.21460000  1.0 0.1368802991
H  H4  1  0.48810000  0.88900000  0.22830000  1.0 0.130298815
H  H5  1  0.62680000  0.69780000  0.81220000  1.0 0.1111799843
H  H6  1  0.62640000  0.70000000  0.91990000  1.0 0.1368802991
H  H7  1  0.77150000  0.35120000  0.87150000  1.0 0.130298815
H  H8  1  0.77250000  0.35140000  0.77140000  1.0 0.1111799843
H  H9  1  0.86140000  0.68350000  0.10450000  1.0 0.1111799843
H  H10  1  0.85820000  0.68450000  0.00260000  1.0 0.1368802991
H  H11  1  0.70010000  0.34540000  0.06000000  1.0 0.1187318644
H  H12  1  0.69520000  0.34700000  0.96100000  1.0 0.1187318644
H  H13  1  0.19140000  0.50330000  0.23270000  1.0 0.3505802534
H  H14  1  0.80670000  0.46750000  0.19370000  1.0 0.1111799843
H  H15  1  0.08780000  0.41080000  0.21460000  1.0 0.1368802991
H  H16  1  0.01190000  0.61100000  0.22830000  1.0 0.130298815
H  H17  1  0.87320000  0.80220000  0.81220000  1.0 0.1111799843
H  H18  1  0.87360000  0.80000000  0.91990000  1.0 0.1368802991
H  H19  1  0.72850000  0.14880000  0.87150000  1.0 0.130298815
H  H20  1  0.72750000  0.14860000  0.77140000  1.0 0.1111799843
H  H21  1  0.63860000  0.81650000  0.10450000  1.0 0.1111799843
H  H22  1  0.64180000  0.81550000  0.00260000  1.0 0.1368802991
H  H23  1  0.79990000  0.15460000  0.06000000  1.0 0.1187318644
H  H24  1  0.80480000  0.15300000  0.96100000  1.0 0.1187318644
H  H25  1  0.30860000  0.50330000  0.73270000  1.0 0.3505802534
H  H26  1  0.69330000  0.46750000  0.69370000  1.0 0.1111799843
H  H27  1  0.41220000  0.41080000  0.71460000  1.0 0.1368802991
H  H28  1  0.48810000  0.61100000  0.72830000  1.0 0.130298815
H  H29  1  0.62680000  0.80220000  0.31220000  1.0 0.1111799843
H  H30  1  0.62640000  0.80000000  0.41990000  1.0 0.1368802991
H  H31  1  0.77150000  0.14880000  0.37150000  1.0 0.130298815
H  H32  1  0.77250000  0.14860000  0.27140000  1.0 0.1111799843
H  H33  1  0.86140000  0.81650000  0.60450000  1.0 0.1111799843
H  H34  1  0.85820000  0.81550000  0.50260000  1.0 0.1368802991
H  H35  1  0.70010000  0.15460000  0.56000000  1.0 0.1187318644
H  H36  1  0.69520000  0.15300000  0.46100000  1.0 0.1187318644
H  H37  1  0.19140000  0.99670000  0.73270000  1.0 0.3505802534
H  H38  1  0.80670000  0.03250000  0.69370000  1.0 0.1111799843
H  H39  1  0.08780000  0.08920000  0.71460000  1.0 0.1368802991
H  H40  1  0.01190000  0.88900000  0.72830000  1.0 0.130298815
H  H41  1  0.87320000  0.69780000  0.31220000  1.0 0.1111799843
H  H42  1  0.87360000  0.70000000  0.41990000  1.0 0.1368802991
H  H43  1  0.72850000  0.35120000  0.37150000  1.0 0.130298815
H  H44  1  0.72750000  0.35140000  0.27140000  1.0 0.1111799843
H  H45  1  0.63860000  0.68350000  0.60450000  1.0 0.1111799843
H  H46  1  0.64180000  0.68450000  0.50260000  1.0 0.1368802991
H  H47  1  0.79990000  0.34540000  0.56000000  1.0 0.1187318644
H  H48  1  0.80480000  0.34700000  0.46100000  1.0 0.1187318644
H  H49  1  0.69140000  0.49670000  0.26730000  1.0 0.3505802534
H  H50  1  0.30670000  0.53250000  0.30630000  1.0 0.1111799843
H  H51  1  0.58780000  0.58920000  0.28540000  1.0 0.1368802991
H  H52  1  0.51190000  0.38900000  0.27170000  1.0 0.130298815
H  H53  1  0.37320000  0.19780000  0.68780000  1.0 0.1111799843
H  H54  1  0.37360000  0.20000000  0.58010000  1.0 0.1368802991
H  H55  1  0.22850000  0.85120000  0.62850000  1.0 0.130298815
H  H56  1  0.22750000  0.85140000  0.72860000  1.0 0.1111799843
H  H57  1  0.13860000  0.18350000  0.39550000  1.0 0.1111799843
H  H58  1  0.14180000  0.18450000  0.49740000  1.0 0.1368802991
H  H59  1  0.29990000  0.84540000  0.44000000  1.0 0.1187318644
H  H60  1  0.30480000  0.84700000  0.53900000  1.0 0.1187318644
H  H61  1  0.80860000  0.00330000  0.26730000  1.0 0.3505802534
H  H62  1  0.19330000  0.96750000  0.30630000  1.0 0.1111799843
H  H63  1  0.91220000  0.91080000  0.28540000  1.0 0.1368802991
H  H64  1  0.98810000  0.11100000  0.27170000  1.0 0.130298815
H  H65  1  0.12680000  0.30220000  0.68780000  1.0 0.1111799843
H  H66  1  0.12640000  0.30000000  0.58010000  1.0 0.1368802991
H  H67  1  0.27150000  0.64880000  0.62850000  1.0 0.130298815
H  H68  1  0.27250000  0.64860000  0.72860000  1.0 0.1111799843
H  H69  1  0.36140000  0.31650000  0.39550000  1.0 0.1111799843
H  H70  1  0.35820000  0.31550000  0.49740000  1.0 0.1368802991
H  H71  1  0.20010000  0.65460000  0.44000000  1.0 0.1187318644
H  H72  1  0.19520000  0.65300000  0.53900000  1.0 0.1187318644
H  H73  1  0.69140000  0.00330000  0.76730000  1.0 0.3505802534
H  H74  1  0.30670000  0.96750000  0.80630000  1.0 0.1111799843
H  H75  1  0.58780000  0.91080000  0.78540000  1.0 0.1368802991
H  H76  1  0.51190000  0.11100000  0.77170000  1.0 0.130298815
H  H77  1  0.37320000  0.30220000  0.18780000  1.0 0.1111799843
H  H78  1  0.37360000  0.30000000  0.08010000  1.0 0.1368802991
H  H79  1  0.22850000  0.64880000  0.12850000  1.0 0.130298815
H  H80  1  0.22750000  0.64860000  0.22860000  1.0 0.1111799843
H  H81  1  0.13860000  0.31650000  0.89550000  1.0 0.1111799843
H  H82  1  0.14180000  0.31550000  0.99740000  1.0 0.1368802991
H  H83  1  0.29990000  0.65460000  0.94000000  1.0 0.1187318644
H  H84  1  0.30480000  0.65300000  0.03900000  1.0 0.1187318644
H  H85  1  0.80860000  0.49670000  0.76730000  1.0 0.3505802534
H  H86  1  0.19330000  0.53250000  0.80630000  1.0 0.1111799843
H  H87  1  0.91220000  0.58920000  0.78540000  1.0 0.1368802991
H  H88  1  0.98810000  0.38900000  0.77170000  1.0 0.130298815
H  H89  1  0.12680000  0.19780000  0.18780000  1.0 0.1111799843
H  H90  1  0.12640000  0.20000000  0.08010000  1.0 0.1368802991
H  H91  1  0.27150000  0.85120000  0.12850000  1.0 0.130298815
H  H92  1  0.27250000  0.85140000  0.22860000  1.0 0.1111799843
H  H93  1  0.36140000  0.18350000  0.89550000  1.0 0.1111799843
H  H94  1  0.35820000  0.18450000  0.99740000  1.0 0.1368802991
H  H95  1  0.20010000  0.84540000  0.94000000  1.0 0.1187318644
H  H96  1  0.19520000  0.84700000  0.03900000  1.0 0.1187318644
C  C1  1  0.62830000  0.02090000  0.20110000  1.0 -0.1176953608
C  C2  1  0.55700000  0.07220000  0.20250000  1.0 -0.034547563
C  C3  1  0.45990000  0.05490000  0.21370000  1.0 -0.2231489339
C  C4  1  0.43410000  0.98630000  0.22330000  1.0 0.3290924287
C  C5  1  0.50540000  0.93500000  0.22190000  1.0 -0.2039842599
C  C6  1  0.60250000  0.95230000  0.21070000  1.0 -0.064807027
C  C7  1  0.58500000  0.14130000  0.18640000  1.0 0.5019793145
C  C8  1  0.67710000  0.71940000  0.83300000  1.0 0.130298815
C  C9  1  0.67720000  0.72030000  0.89870000  1.0 -0.1567652685
C  C10  1  0.76300000  0.30940000  0.85180000  1.0 -0.1694966698
C  C11  1  0.76300000  0.30970000  0.79120000  1.0 0.0776545374
C  C12  1  0.81500000  0.71110000  0.08580000  1.0 0.0776545374
C  C13  1  0.81300000  0.71200000  0.02240000  1.0 -0.2039842599
C  C14  1  0.72000000  0.30540000  0.04070000  1.0 0.0493943036
C  C15  1  0.71800000  0.30750000  0.97990000  1.0 -0.180652737
C  C16  1  0.67400000  0.89920000  0.21660000  1.0 0.5093451968
C  C17  1  0.87170000  0.47910000  0.20110000  1.0 -0.1176953608
C  C18  1  0.94300000  0.42780000  0.20250000  1.0 -0.034547563
C  C19  1  0.04010000  0.44510000  0.21370000  1.0 -0.2231489339
C  C20  1  0.06590000  0.51370000  0.22330000  1.0 0.3290924287
C  C21  1  0.99460000  0.56500000  0.22190000  1.0 -0.2039842599
C  C22  1  0.89750000  0.54770000  0.21070000  1.0 -0.064807027
C  C23  1  0.91500000  0.35870000  0.18640000  1.0 0.5019793145
C  C24  1  0.82290000  0.78060000  0.83300000  1.0 0.130298815
C  C25  1  0.82280000  0.77970000  0.89870000  1.0 -0.1567652685
C  C26  1  0.73700000  0.19060000  0.85180000  1.0 -0.1694966698
C  C27  1  0.73700000  0.19030000  0.79120000  1.0 0.0776545374
C  C28  1  0.68500000  0.78890000  0.08580000  1.0 0.0776545374
C  C29  1  0.68700000  0.78800000  0.02240000  1.0 -0.2039842599
C  C30  1  0.78000000  0.19460000  0.04070000  1.0 0.0493943036
C  C31  1  0.78200000  0.19250000  0.97990000  1.0 -0.180652737
C  C32  1  0.82600000  0.60080000  0.21660000  1.0 0.5093451968
C  C33  1  0.62830000  0.47910000  0.70110000  1.0 -0.1176953608
C  C34  1  0.55700000  0.42780000  0.70250000  1.0 -0.034547563
C  C35  1  0.45990000  0.44510000  0.71370000  1.0 -0.2231489339
C  C36  1  0.43410000  0.51370000  0.72330000  1.0 0.3290924287
C  C37  1  0.50540000  0.56500000  0.72190000  1.0 -0.2039842599
C  C38  1  0.60250000  0.54770000  0.71070000  1.0 -0.064807027
C  C39  1  0.58500000  0.35870000  0.68640000  1.0 0.5019793145
C  C40  1  0.67710000  0.78060000  0.33300000  1.0 0.130298815
C  C41  1  0.67720000  0.77970000  0.39870000  1.0 -0.1567652685
C  C42  1  0.76300000  0.19060000  0.35180000  1.0 -0.1694966698
C  C43  1  0.76300000  0.19030000  0.29120000  1.0 0.0776545374
C  C44  1  0.81500000  0.78890000  0.58580000  1.0 0.0776545374
C  C45  1  0.81300000  0.78800000  0.52240000  1.0 -0.2039842599
C  C46  1  0.72000000  0.19460000  0.54070000  1.0 0.0493943036
C  C47  1  0.71800000  0.19250000  0.47990000  1.0 -0.180652737
C  C48  1  0.67400000  0.60080000  0.71660000  1.0 0.5093451968
C  C49  1  0.87170000  0.02090000  0.70110000  1.0 -0.1176953608
C  C50  1  0.94300000  0.07220000  0.70250000  1.0 -0.034547563
C  C51  1  0.04010000  0.05490000  0.71370000  1.0 -0.2231489339
C  C52  1  0.06590000  0.98630000  0.72330000  1.0 0.3290924287
C  C53  1  0.99460000  0.93500000  0.72190000  1.0 -0.2039842599
C  C54  1  0.89750000  0.95230000  0.71070000  1.0 -0.0655695156
C  C55  1  0.91500000  0.14130000  0.68640000  1.0 0.5019793145
C  C56  1  0.82290000  0.71940000  0.33300000  1.0 0.130298815
C  C57  1  0.82280000  0.72030000  0.39870000  1.0 -0.1567652685
C  C58  1  0.73700000  0.30940000  0.35180000  1.0 -0.1694966698
C  C59  1  0.73700000  0.30970000  0.29120000  1.0 0.0776545374
C  C60  1  0.68500000  0.71110000  0.58580000  1.0 0.0776545374
C  C61  1  0.68700000  0.71200000  0.52240000  1.0 -0.2039842599
C  C62  1  0.78000000  0.30540000  0.54070000  1.0 0.0493943036
C  C63  1  0.78200000  0.30750000  0.47990000  1.0 -0.180652737
C  C64  1  0.82600000  0.89920000  0.71660000  1.0 0.5093451968
C  C65  1  0.75000000  0.75000000  0.98920000  1.0 0.0717817092
C  C66  1  0.75000000  0.75000000  0.92610000  1.0 0.0776545374
C  C67  1  0.75000000  0.75000000  0.48920000  1.0 0.0717817092
C  C68  1  0.75000000  0.75000000  0.42610000  1.0 0.0776545374
C  C69  1  0.75000000  0.25000000  0.94510000  1.0 0.0717817092
C  C70  1  0.75000000  0.25000000  0.88540000  1.0 0.0717817092
C  C71  1  0.75000000  0.25000000  0.44510000  1.0 0.0717817092
C  C72  1  0.75000000  0.25000000  0.38540000  1.0 0.0717817092
C  C73  1  0.37170000  0.52090000  0.29890000  1.0 -0.1176953608
C  C74  1  0.44300000  0.57220000  0.29750000  1.0 -0.034547563
C  C75  1  0.54010000  0.55490000  0.28630000  1.0 -0.2231489339
C  C76  1  0.56590000  0.48630000  0.27670000  1.0 0.3290924287
C  C77  1  0.49460000  0.43500000  0.27810000  1.0 -0.2039842599
C  C78  1  0.39750000  0.45230000  0.28930000  1.0 -0.0655695156
C  C79  1  0.41500000  0.64130000  0.31360000  1.0 0.5019793145
C  C80  1  0.32290000  0.21940000  0.66700000  1.0 0.130298815
C  C81  1  0.32280000  0.22030000  0.60130000  1.0 -0.1567652685
C  C82  1  0.23700000  0.80940000  0.64820000  1.0 -0.1694966698
C  C83  1  0.23700000  0.80970000  0.70880000  1.0 0.0776545374
C  C84  1  0.18500000  0.21110000  0.41420000  1.0 0.0776545374
C  C85  1  0.18700000  0.21200000  0.47760000  1.0 -0.2039842599
C  C86  1  0.28000000  0.80540000  0.45930000  1.0 0.0493943036
C  C87  1  0.28200000  0.80750000  0.52010000  1.0 -0.180652737
C  C88  1  0.32600000  0.39920000  0.28340000  1.0 0.5093451968
C  C89  1  0.12830000  0.97910000  0.29890000  1.0 -0.1176953608
C  C90  1  0.05700000  0.92780000  0.29750000  1.0 -0.034547563
C  C91  1  0.95990000  0.94510000  0.28630000  1.0 -0.2231489339
C  C92  1  0.93410000  0.01370000  0.27670000  1.0 0.3290924287
C  C93  1  0.00540000  0.06500000  0.27810000  1.0 -0.2039842599
C  C94  1  0.10250000  0.04770000  0.28930000  1.0 -0.064807027
C  C95  1  0.08500000  0.85870000  0.31360000  1.0 0.5019793145
C  C96  1  0.17710000  0.28060000  0.66700000  1.0 0.130298815
C  C97  1  0.17720000  0.27970000  0.60130000  1.0 -0.1567652685
C  C98  1  0.26300000  0.69060000  0.64820000  1.0 -0.1694966698
C  C99  1  0.26300000  0.69030000  0.70880000  1.0 0.0776545374
C  C100  1  0.31500000  0.28890000  0.41420000  1.0 0.0776545374
C  C101  1  0.31300000  0.28800000  0.47760000  1.0 -0.2039842599
C  C102  1  0.22000000  0.69460000  0.45930000  1.0 0.0493943036
C  C103  1  0.21800000  0.69250000  0.52010000  1.0 -0.180652737
C  C104  1  0.17400000  0.10080000  0.28340000  1.0 0.5093451968
C  C105  1  0.37170000  0.97910000  0.79890000  1.0 -0.1176953608
C  C106  1  0.44300000  0.92780000  0.79750000  1.0 -0.034547563
C  C107  1  0.54010000  0.94510000  0.78630000  1.0 -0.2231489339
C  C108  1  0.56590000  0.01370000  0.77670000  1.0 0.3290924287
C  C109  1  0.49460000  0.06500000  0.77810000  1.0 -0.2039842599
C  C110  1  0.39750000  0.04770000  0.78930000  1.0 -0.0655695156
C  C111  1  0.41500000  0.85870000  0.81360000  1.0 0.5019793145
C  C112  1  0.32290000  0.28060000  0.16700000  1.0 0.130298815
C  C113  1  0.32280000  0.27970000  0.10130000  1.0 -0.1567652685
C  C114  1  0.23700000  0.69060000  0.14820000  1.0 -0.1694966698
C  C115  1  0.23700000  0.69030000  0.20880000  1.0 0.0776545374
C  C116  1  0.18500000  0.28890000  0.91420000  1.0 0.0776545374
C  C117  1  0.18700000  0.28800000  0.97760000  1.0 -0.2039842599
C  C118  1  0.28000000  0.69460000  0.95930000  1.0 0.0493943036
C  C119  1  0.28200000  0.69250000  0.02010000  1.0 -0.180652737
C  C120  1  0.32600000  0.10080000  0.78340000  1.0 0.5093451968
C  C121  1  0.12830000  0.52090000  0.79890000  1.0 -0.1176953608
C  C122  1  0.05700000  0.57220000  0.79750000  1.0 -0.034547563
C  C123  1  0.95990000  0.55490000  0.78630000  1.0 -0.2231489339
C  C124  1  0.93410000  0.48630000  0.77670000  1.0 0.3290924287
C  C125  1  0.00540000  0.43500000  0.77810000  1.0 -0.2039842599
C  C126  1  0.10250000  0.45230000  0.78930000  1.0 -0.064807027
C  C127  1  0.08500000  0.64130000  0.81360000  1.0 0.5019793145
C  C128  1  0.17710000  0.21940000  0.16700000  1.0 0.130298815
C  C129  1  0.17720000  0.22030000  0.10130000  1.0 -0.1567652685
C  C130  1  0.26300000  0.80940000  0.14820000  1.0 -0.1694966698
C  C131  1  0.26300000  0.80970000  0.20880000  1.0 0.0776545374
C  C132  1  0.31500000  0.21110000  0.91420000  1.0 0.0776545374
C  C133  1  0.31300000  0.21200000  0.97760000  1.0 -0.2039842599
C  C134  1  0.22000000  0.80540000  0.95930000  1.0 0.0493943036
C  C135  1  0.21800000  0.80750000  0.02010000  1.0 -0.180652737
C  C136  1  0.17400000  0.39920000  0.78340000  1.0 0.5093451968
C  C137  1  0.25000000  0.25000000  0.51080000  1.0 0.0717817092
C  C138  1  0.25000000  0.25000000  0.57390000  1.0 0.0776545374
C  C139  1  0.25000000  0.25000000  0.01080000  1.0 0.0717817092
C  C140  1  0.25000000  0.25000000  0.07390000  1.0 0.0776545374
C  C141  1  0.25000000  0.75000000  0.55490000  1.0 0.0717817092
C  C142  1  0.25000000  0.75000000  0.61460000  1.0 0.0717817092
C  C143  1  0.25000000  0.75000000  0.05490000  1.0 0.0717817092
C  C144  1  0.25000000  0.75000000  0.11460000  1.0 0.0717817092
N  N1  1  0.75000000  0.75000000  0.80470000  1.0 -0.2121992254
N  N2  1  0.75000000  0.75000000  0.12140000  1.0 -0.2355841168
N  N3  1  0.75000000  0.75000000  0.30470000  1.0 -0.2121992254
N  N4  1  0.75000000  0.75000000  0.62140000  1.0 -0.2355841168
N  N5  1  0.75000000  0.25000000  0.75860000  1.0 -0.2121992254
N  N6  1  0.75000000  0.25000000  0.07760000  1.0 -0.2616979101
N  N7  1  0.75000000  0.25000000  0.25860000  1.0 -0.2121992254
N  N8  1  0.75000000  0.25000000  0.57760000  1.0 -0.2616979101
N  N9  1  0.25000000  0.25000000  0.69530000  1.0 -0.2121992254
N  N10  1  0.25000000  0.25000000  0.37860000  1.0 -0.2355841168
N  N11  1  0.25000000  0.25000000  0.19530000  1.0 -0.2121992254
N  N12  1  0.25000000  0.25000000  0.87860000  1.0 -0.2355841168
N  N13  1  0.25000000  0.75000000  0.74140000  1.0 -0.2121992254
N  N14  1  0.25000000  0.75000000  0.42240000  1.0 -0.2616979101
N  N15  1  0.25000000  0.75000000  0.24140000  1.0 -0.2121992254
N  N16  1  0.25000000  0.75000000  0.92240000  1.0 -0.2616979101
O  O1  1  0.66600000  0.15660000  0.17050000  1.0 -0.45452993
O  O2  1  0.65300000  0.83730000  0.21290000  1.0 -0.4879165435
O  O3  1  0.53300000  0.19080000  0.20000000  1.0 -0.4879165435
O  O4  1  0.34500000  0.96500000  0.22270000  1.0 -0.3944065688
O  O5  1  0.76100000  0.91360000  0.21740000  1.0 -0.5139457204
O  O6  1  0.83400000  0.34340000  0.17050000  1.0 -0.4554210671
O  O7  1  0.84700000  0.66270000  0.21290000  1.0 -0.4879165435
O  O8  1  0.96700000  0.30920000  0.20000000  1.0 -0.4879165435
O  O9  1  0.15500000  0.53500000  0.22270000  1.0 -0.3944065688
O  O10  1  0.73900000  0.58640000  0.21740000  1.0 -0.5139457204
O  O11  1  0.66600000  0.34340000  0.67050000  1.0 -0.45452993
O  O12  1  0.65300000  0.66270000  0.71290000  1.0 -0.4879165435
O  O13  1  0.53300000  0.30920000  0.70000000  1.0 -0.4879165435
O  O14  1  0.34500000  0.53500000  0.72270000  1.0 -0.3944065688
O  O15  1  0.76100000  0.58640000  0.71740000  1.0 -0.5139457204
O  O16  1  0.83400000  0.15660000  0.67050000  1.0 -0.45452993
O  O17  1  0.84700000  0.83730000  0.71290000  1.0 -0.4879165435
O  O18  1  0.96700000  0.19080000  0.70000000  1.0 -0.4879165435
O  O19  1  0.15500000  0.96500000  0.72270000  1.0 -0.3944065688
O  O20  1  0.73900000  0.91360000  0.71740000  1.0 -0.5139457204
O  O21  1  0.33400000  0.65660000  0.32950000  1.0 -0.4554210671
O  O22  1  0.34700000  0.33730000  0.28710000  1.0 -0.4879165435
O  O23  1  0.46700000  0.69080000  0.30000000  1.0 -0.4879165435
O  O24  1  0.65500000  0.46500000  0.27730000  1.0 -0.3944065688
O  O25  1  0.23900000  0.41360000  0.28260000  1.0 -0.5139457204
O  O26  1  0.16600000  0.84340000  0.32950000  1.0 -0.45452993
O  O27  1  0.15300000  0.16270000  0.28710000  1.0 -0.4879165435
O  O28  1  0.03300000  0.80920000  0.30000000  1.0 -0.4879165435
O  O29  1  0.84500000  0.03500000  0.27730000  1.0 -0.3955097565
O  O30  1  0.26100000  0.08640000  0.28260000  1.0 -0.5139457204
O  O31  1  0.33400000  0.84340000  0.82950000  1.0 -0.4554210671
O  O32  1  0.34700000  0.16270000  0.78710000  1.0 -0.4879165435
O  O33  1  0.46700000  0.80920000  0.80000000  1.0 -0.4879165435
O  O34  1  0.65500000  0.03500000  0.77730000  1.0 -0.3944065688
O  O35  1  0.23900000  0.08640000  0.78260000  1.0 -0.5139457204
O  O36  1  0.16600000  0.65660000  0.82950000  1.0 -0.45452993
O  O37  1  0.15300000  0.33730000  0.78710000  1.0 -0.4879165435
O  O38  1  0.03300000  0.69080000  0.80000000  1.0 -0.4879165435
O  O39  1  0.84500000  0.46500000  0.77730000  1.0 -0.3955097565
O  O40  1  0.26100000  0.41360000  0.78260000  1.0 -0.5139457204
