# DDEC6 charges by PACMAN v1.1 (https://github.com/mtap-research/PACMAN-charge/)
data_QEQZOE_ASR_pacman
_symmetry_space_group_name_H-M   'P 1'
_cell_length_a   13.59000000
_cell_length_b   19.15600000
_cell_length_c   22.34300000
_cell_angle_alpha   90.00000000
_cell_angle_beta   90.00000000
_cell_angle_gamma   90.00000000
_symmetry_Int_Tables_number   1
_chemical_formula_structural   NiH12C18N2O5
_chemical_formula_sum   'Ni8 H96 C144 N16 O40'
_cell_volume   5816.55408372
_cell_formula_units_Z   8
loop_
 _symmetry_equiv_pos_site_id
 _symmetry_equiv_pos_as_xyz
  1  'x, y, z'
loop_
 _atom_site_type_symbol
 _atom_site_label
 _atom_site_symmetry_multiplicity
 _atom_site_fract_x
 _atom_site_fract_y
 _atom_site_fract_z
 _atom_site_occupancy
 _atom_site_charge
Ni  Ni1  1  0.75000000  0.75000000  0.22810000  1.0 0.7355334034
Ni  Ni2  1  0.75000000  0.75000000  0.72810000  1.0 0.7355334034
Ni  Ni3  1  0.75000000  0.25000000  0.16314000  1.0 0.7025210282
Ni  Ni4  1  0.75000000  0.25000000  0.66314000  1.0 0.7025210282
Ni  Ni5  1  0.25000000  0.25000000  0.27190000  1.0 0.7355334034
Ni  Ni6  1  0.25000000  0.25000000  0.77190000  1.0 0.7355334034
Ni  Ni7  1  0.25000000  0.75000000  0.33686000  1.0 0.7025210282
Ni  Ni8  1  0.25000000  0.75000000  0.83686000  1.0 0.7025210282
H  H1  1  0.31600000  0.00000000  0.22800000  1.0 0.3380698172
H  H2  1  0.69260000  0.04560000  0.19560000  1.0 0.1310528801
H  H3  1  0.40180000  0.08350000  0.19350000  1.0 0.1432764875
H  H4  1  0.50130000  0.88940000  0.22500000  1.0 0.1310528801
H  H5  1  0.62130000  0.70430000  0.82340000  1.0 0.1310528801
H  H6  1  0.79460000  0.34690000  0.87160000  1.0 0.1432764875
H  H7  1  0.80710000  0.34420000  0.76820000  1.0 0.1310528801
H  H8  1  0.64660000  0.82200000  0.11670000  1.0 0.1194964022
H  H9  1  0.64770000  0.82310000  0.01320000  1.0 0.1432764875
H  H10  1  0.69110000  0.34260000  0.06890000  1.0 0.1310528801
H  H11  1  0.68940000  0.34470000  0.97100000  1.0 0.1510726286
H  H12  1  0.62270000  0.69980000  0.92640000  1.0 0.1510726286
H  H13  1  0.18400000  0.50000000  0.22800000  1.0 0.3380698172
H  H14  1  0.80740000  0.45440000  0.19560000  1.0 0.1310528801
H  H15  1  0.09820000  0.41650000  0.19350000  1.0 0.1510726286
H  H16  1  0.99870000  0.61060000  0.22500000  1.0 0.1310528801
H  H17  1  0.87870000  0.79570000  0.82340000  1.0 0.1310528801
H  H18  1  0.70540000  0.15310000  0.87160000  1.0 0.1432764875
H  H19  1  0.69290000  0.15580000  0.76820000  1.0 0.1310528801
H  H20  1  0.85340000  0.67800000  0.11670000  1.0 0.1194964022
H  H21  1  0.85230000  0.67690000  0.01320000  1.0 0.1432764875
H  H22  1  0.80890000  0.15740000  0.06890000  1.0 0.1310528801
H  H23  1  0.81060000  0.15530000  0.97100000  1.0 0.1510726286
H  H24  1  0.87730000  0.80020000  0.92640000  1.0 0.1510726286
H  H25  1  0.31600000  0.50000000  0.72800000  1.0 0.3380698172
H  H26  1  0.69260000  0.45440000  0.69560000  1.0 0.1310528801
H  H27  1  0.40180000  0.41650000  0.69350000  1.0 0.1510726286
H  H28  1  0.50130000  0.61060000  0.72500000  1.0 0.1310528801
H  H29  1  0.62130000  0.79570000  0.32340000  1.0 0.1310528801
H  H30  1  0.79460000  0.15310000  0.37160000  1.0 0.1432764875
H  H31  1  0.80710000  0.15580000  0.26820000  1.0 0.1310528801
H  H32  1  0.64660000  0.67800000  0.61670000  1.0 0.1194964022
H  H33  1  0.64770000  0.67690000  0.51320000  1.0 0.1432764875
H  H34  1  0.69110000  0.15740000  0.56890000  1.0 0.1310528801
H  H35  1  0.68940000  0.15530000  0.47100000  1.0 0.1510726286
H  H36  1  0.62270000  0.80020000  0.42640000  1.0 0.1510726286
H  H37  1  0.18400000  0.00000000  0.72800000  1.0 0.3380698172
H  H38  1  0.80740000  0.04560000  0.69560000  1.0 0.1310528801
H  H39  1  0.09820000  0.08350000  0.69350000  1.0 0.1510726286
H  H40  1  0.99870000  0.88940000  0.72500000  1.0 0.1310528801
H  H41  1  0.87870000  0.70430000  0.32340000  1.0 0.1310528801
H  H42  1  0.70540000  0.34690000  0.37160000  1.0 0.1432764875
H  H43  1  0.69290000  0.34420000  0.26820000  1.0 0.1310528801
H  H44  1  0.85340000  0.82200000  0.61670000  1.0 0.1194964022
H  H45  1  0.85230000  0.82310000  0.51320000  1.0 0.1432764875
H  H46  1  0.80890000  0.34260000  0.56890000  1.0 0.1310528801
H  H47  1  0.81060000  0.34470000  0.47100000  1.0 0.1510726286
H  H48  1  0.87730000  0.69980000  0.42640000  1.0 0.1510726286
H  H49  1  0.68400000  0.50000000  0.27200000  1.0 0.3380698172
H  H50  1  0.30740000  0.54560000  0.30440000  1.0 0.1310528801
H  H51  1  0.59820000  0.58350000  0.30650000  1.0 0.1510726286
H  H52  1  0.49870000  0.38940000  0.27500000  1.0 0.1310528801
H  H53  1  0.37870000  0.20430000  0.67660000  1.0 0.1310528801
H  H54  1  0.20540000  0.84690000  0.62840000  1.0 0.1432764875
H  H55  1  0.19290000  0.84420000  0.73180000  1.0 0.1310528801
H  H56  1  0.35340000  0.32200000  0.38330000  1.0 0.1194964022
H  H57  1  0.35230000  0.32310000  0.48680000  1.0 0.1432764875
H  H58  1  0.30890000  0.84260000  0.43110000  1.0 0.1310528801
H  H59  1  0.31060000  0.84470000  0.52900000  1.0 0.1510726286
H  H60  1  0.37730000  0.19980000  0.57360000  1.0 0.1510726286
H  H61  1  0.81600000  0.00000000  0.27200000  1.0 0.3380698172
H  H62  1  0.19260000  0.95440000  0.30440000  1.0 0.1310528801
H  H63  1  0.90180000  0.91650000  0.30650000  1.0 0.1510726286
H  H64  1  0.00130000  0.11060000  0.27500000  1.0 0.1310528801
H  H65  1  0.12130000  0.29570000  0.67660000  1.0 0.1310528801
H  H66  1  0.29460000  0.65310000  0.62840000  1.0 0.1432764875
H  H67  1  0.30710000  0.65580000  0.73180000  1.0 0.1310528801
H  H68  1  0.14660000  0.17800000  0.38330000  1.0 0.1194964022
H  H69  1  0.14770000  0.17690000  0.48680000  1.0 0.1432764875
H  H70  1  0.19110000  0.65740000  0.43110000  1.0 0.1310528801
H  H71  1  0.18940000  0.65530000  0.52900000  1.0 0.1510726286
H  H72  1  0.12270000  0.30020000  0.57360000  1.0 0.1510726286
H  H73  1  0.68400000  0.00000000  0.77200000  1.0 0.3380698172
H  H74  1  0.30740000  0.95440000  0.80440000  1.0 0.1310528801
H  H75  1  0.59820000  0.91650000  0.80650000  1.0 0.1510726286
H  H76  1  0.49870000  0.11060000  0.77500000  1.0 0.1310528801
H  H77  1  0.37870000  0.29570000  0.17660000  1.0 0.1310528801
H  H78  1  0.20540000  0.65310000  0.12840000  1.0 0.1432764875
H  H79  1  0.19290000  0.65580000  0.23180000  1.0 0.1310528801
H  H80  1  0.35340000  0.17800000  0.88330000  1.0 0.1194964022
H  H81  1  0.35230000  0.17690000  0.98680000  1.0 0.1432764875
H  H82  1  0.30890000  0.65740000  0.93110000  1.0 0.1310528801
H  H83  1  0.31060000  0.65530000  0.02900000  1.0 0.1510726286
H  H84  1  0.37730000  0.30020000  0.07360000  1.0 0.1510726286
H  H85  1  0.81600000  0.50000000  0.77200000  1.0 0.3380698172
H  H86  1  0.19260000  0.54560000  0.80440000  1.0 0.1310528801
H  H87  1  0.90180000  0.58350000  0.80650000  1.0 0.1510726286
H  H88  1  0.00130000  0.38940000  0.77500000  1.0 0.1310528801
H  H89  1  0.12130000  0.20430000  0.17660000  1.0 0.1310528801
H  H90  1  0.29460000  0.84690000  0.12840000  1.0 0.1432764875
H  H91  1  0.30710000  0.84420000  0.23180000  1.0 0.1310528801
H  H92  1  0.14660000  0.32200000  0.88330000  1.0 0.1194964022
H  H93  1  0.14770000  0.32310000  0.98680000  1.0 0.1432764875
H  H94  1  0.19110000  0.84260000  0.93110000  1.0 0.1310528801
H  H95  1  0.18940000  0.84470000  0.02900000  1.0 0.1510726286
H  H96  1  0.12270000  0.19980000  0.07360000  1.0 0.1510726286
C  C1  1  0.62820000  0.02980000  0.19920000  1.0 -0.1191486771
C  C2  1  0.55030000  0.07610000  0.19250000  1.0 -0.06160002
C  C3  1  0.45400000  0.05250000  0.19800000  1.0 -0.1775790316
C  C4  1  0.43560000  0.98250000  0.21020000  1.0 0.285661312
C  C5  1  0.51350000  0.93620000  0.21690000  1.0 -0.220148919
C  C6  1  0.60980000  0.95980000  0.21140000  1.0 -0.0278708872
C  C7  1  0.58000000  0.14440000  0.17930000  1.0 0.5301059356
C  C8  1  0.67430000  0.72250000  0.84470000  1.0 0.114687266
C  C9  1  0.77800000  0.30690000  0.85040000  1.0 -0.1479475515
C  C10  1  0.78100000  0.30510000  0.78740000  1.0 0.0788439987
C  C11  1  0.69000000  0.79200000  0.09730000  1.0 0.073715243
C  C12  1  0.69000000  0.79280000  0.03330000  1.0 -0.1710645642
C  C13  1  0.71510000  0.30480000  0.04740000  1.0 0.0788439987
C  C14  1  0.71530000  0.30440000  0.98810000  1.0 -0.220148919
C  C15  1  0.67480000  0.72100000  0.90640000  1.0 -0.1775790316
C  C16  1  0.67870000  0.90050000  0.22060000  1.0 0.5566929152
C  C17  1  0.87180000  0.47020000  0.19920000  1.0 -0.1191486771
C  C18  1  0.94970000  0.42390000  0.19250000  1.0 -0.06160002
C  C19  1  0.04600000  0.44750000  0.19800000  1.0 -0.1710645642
C  C20  1  0.06440000  0.51750000  0.21020000  1.0 0.285661312
C  C21  1  0.98650000  0.56380000  0.21690000  1.0 -0.220148919
C  C22  1  0.89020000  0.54020000  0.21140000  1.0 -0.0278708872
C  C23  1  0.92000000  0.35560000  0.17930000  1.0 0.5301059356
C  C24  1  0.82570000  0.77750000  0.84470000  1.0 0.114687266
C  C25  1  0.72200000  0.19310000  0.85040000  1.0 -0.1479475515
C  C26  1  0.71900000  0.19490000  0.78740000  1.0 0.0788439987
C  C27  1  0.81000000  0.70800000  0.09730000  1.0 0.073715243
C  C28  1  0.81000000  0.70720000  0.03330000  1.0 -0.1710645642
C  C29  1  0.78490000  0.19520000  0.04740000  1.0 0.0788439987
C  C30  1  0.78470000  0.19560000  0.98810000  1.0 -0.220148919
C  C31  1  0.82520000  0.77900000  0.90640000  1.0 -0.1775790316
C  C32  1  0.82130000  0.59950000  0.22060000  1.0 0.5566929152
C  C33  1  0.62820000  0.47020000  0.69920000  1.0 -0.1191486771
C  C34  1  0.55030000  0.42390000  0.69250000  1.0 -0.06160002
C  C35  1  0.45400000  0.44750000  0.69800000  1.0 -0.1710645642
C  C36  1  0.43560000  0.51750000  0.71020000  1.0 0.285661312
C  C37  1  0.51350000  0.56380000  0.71690000  1.0 -0.220148919
C  C38  1  0.60980000  0.54020000  0.71140000  1.0 -0.0278708872
C  C39  1  0.58000000  0.35560000  0.67930000  1.0 0.5301059356
C  C40  1  0.67430000  0.77750000  0.34470000  1.0 0.114687266
C  C41  1  0.77800000  0.19310000  0.35040000  1.0 -0.1479475515
C  C42  1  0.78100000  0.19490000  0.28740000  1.0 0.0788439987
C  C43  1  0.69000000  0.70800000  0.59730000  1.0 0.073715243
C  C44  1  0.69000000  0.70720000  0.53330000  1.0 -0.1710645642
C  C45  1  0.71510000  0.19520000  0.54740000  1.0 0.0788439987
C  C46  1  0.71530000  0.19560000  0.48810000  1.0 -0.220148919
C  C47  1  0.67480000  0.77900000  0.40640000  1.0 -0.1775790316
C  C48  1  0.67870000  0.59950000  0.72060000  1.0 0.5566929152
C  C49  1  0.87180000  0.02980000  0.69920000  1.0 -0.1191486771
C  C50  1  0.94970000  0.07610000  0.69250000  1.0 -0.06160002
C  C51  1  0.04600000  0.05250000  0.69800000  1.0 -0.1775790316
C  C52  1  0.06440000  0.98250000  0.71020000  1.0 0.285661312
C  C53  1  0.98650000  0.93620000  0.71690000  1.0 -0.220148919
C  C54  1  0.89020000  0.95980000  0.71140000  1.0 -0.0278708872
C  C55  1  0.92000000  0.14440000  0.67930000  1.0 0.5301059356
C  C56  1  0.82570000  0.72250000  0.34470000  1.0 0.114687266
C  C57  1  0.72200000  0.30690000  0.35040000  1.0 -0.1479475515
C  C58  1  0.71900000  0.30510000  0.28740000  1.0 0.0788439987
C  C59  1  0.81000000  0.79200000  0.59730000  1.0 0.073715243
C  C60  1  0.81000000  0.79280000  0.53330000  1.0 -0.1710645642
C  C61  1  0.78490000  0.30480000  0.54740000  1.0 0.0788439987
C  C62  1  0.78470000  0.30440000  0.48810000  1.0 -0.220148919
C  C63  1  0.82520000  0.72100000  0.40640000  1.0 -0.1775790316
C  C64  1  0.82130000  0.90050000  0.72060000  1.0 0.5566929152
C  C65  1  0.75000000  0.75000000  0.00110000  1.0 0.073715243
C  C66  1  0.75000000  0.75000000  0.93960000  1.0 0.0980526136
C  C67  1  0.75000000  0.75000000  0.50110000  1.0 0.073715243
C  C68  1  0.75000000  0.75000000  0.43960000  1.0 0.0980526136
C  C69  1  0.75000000  0.25000000  0.94210000  1.0 0.1194964022
C  C70  1  0.75000000  0.25000000  0.87750000  1.0 0.0788439987
C  C71  1  0.75000000  0.25000000  0.44210000  1.0 0.1194964022
C  C72  1  0.75000000  0.25000000  0.37750000  1.0 0.0788439987
C  C73  1  0.37180000  0.52980000  0.30080000  1.0 -0.1191486771
C  C74  1  0.44970000  0.57610000  0.30750000  1.0 -0.06160002
C  C75  1  0.54600000  0.55250000  0.30200000  1.0 -0.1710645642
C  C76  1  0.56440000  0.48250000  0.28980000  1.0 0.285661312
C  C77  1  0.48650000  0.43620000  0.28310000  1.0 -0.220148919
C  C78  1  0.39020000  0.45980000  0.28860000  1.0 -0.0278708872
C  C79  1  0.42000000  0.64440000  0.32070000  1.0 0.5301059356
C  C80  1  0.32570000  0.22250000  0.65530000  1.0 0.114687266
C  C81  1  0.22200000  0.80690000  0.64960000  1.0 -0.1479475515
C  C82  1  0.21900000  0.80510000  0.71260000  1.0 0.0788439987
C  C83  1  0.31000000  0.29200000  0.40270000  1.0 0.073715243
C  C84  1  0.31000000  0.29280000  0.46670000  1.0 -0.1710645642
C  C85  1  0.28490000  0.80480000  0.45260000  1.0 0.0788439987
C  C86  1  0.28470000  0.80440000  0.51190000  1.0 -0.220148919
C  C87  1  0.32520000  0.22100000  0.59360000  1.0 -0.1775790316
C  C88  1  0.32130000  0.40050000  0.27940000  1.0 0.5566929152
C  C89  1  0.12820000  0.97020000  0.30080000  1.0 -0.1191486771
C  C90  1  0.05030000  0.92390000  0.30750000  1.0 -0.06160002
C  C91  1  0.95400000  0.94750000  0.30200000  1.0 -0.1710645642
C  C92  1  0.93560000  0.01750000  0.28980000  1.0 0.285661312
C  C93  1  0.01350000  0.06380000  0.28310000  1.0 -0.220148919
C  C94  1  0.10980000  0.04020000  0.28860000  1.0 -0.0278708872
C  C95  1  0.08000000  0.85560000  0.32070000  1.0 0.5301059356
C  C96  1  0.17430000  0.27750000  0.65530000  1.0 0.114687266
C  C97  1  0.27800000  0.69310000  0.64960000  1.0 -0.1479475515
C  C98  1  0.28100000  0.69490000  0.71260000  1.0 0.0788439987
C  C99  1  0.19000000  0.20800000  0.40270000  1.0 0.073715243
C  C100  1  0.19000000  0.20720000  0.46670000  1.0 -0.1710645642
C  C101  1  0.21510000  0.69520000  0.45260000  1.0 0.0788439987
C  C102  1  0.21530000  0.69560000  0.51190000  1.0 -0.220148919
C  C103  1  0.17480000  0.27900000  0.59360000  1.0 -0.1775790316
C  C104  1  0.17870000  0.09950000  0.27940000  1.0 0.5566929152
C  C105  1  0.37180000  0.97020000  0.80080000  1.0 -0.1191486771
C  C106  1  0.44970000  0.92390000  0.80750000  1.0 -0.06160002
C  C107  1  0.54600000  0.94750000  0.80200000  1.0 -0.1710645642
C  C108  1  0.56440000  0.01750000  0.78980000  1.0 0.285661312
C  C109  1  0.48650000  0.06380000  0.78310000  1.0 -0.220148919
C  C110  1  0.39020000  0.04020000  0.78860000  1.0 -0.0278708872
C  C111  1  0.42000000  0.85560000  0.82070000  1.0 0.5301059356
C  C112  1  0.32570000  0.27750000  0.15530000  1.0 0.114687266
C  C113  1  0.22200000  0.69310000  0.14960000  1.0 -0.1479475515
C  C114  1  0.21900000  0.69490000  0.21260000  1.0 0.0788439987
C  C115  1  0.31000000  0.20800000  0.90270000  1.0 0.073715243
C  C116  1  0.31000000  0.20720000  0.96670000  1.0 -0.1710645642
C  C117  1  0.28490000  0.69520000  0.95260000  1.0 0.0788439987
C  C118  1  0.28470000  0.69560000  0.01190000  1.0 -0.220148919
C  C119  1  0.32520000  0.27900000  0.09360000  1.0 -0.1710645642
C  C120  1  0.32130000  0.09950000  0.77940000  1.0 0.5566929152
C  C121  1  0.12820000  0.52980000  0.80080000  1.0 -0.1191486771
C  C122  1  0.05030000  0.57610000  0.80750000  1.0 -0.06160002
C  C123  1  0.95400000  0.55250000  0.80200000  1.0 -0.1775790316
C  C124  1  0.93560000  0.48250000  0.78980000  1.0 0.285661312
C  C125  1  0.01350000  0.43620000  0.78310000  1.0 -0.220148919
C  C126  1  0.10980000  0.45980000  0.78860000  1.0 -0.0278708872
C  C127  1  0.08000000  0.64440000  0.82070000  1.0 0.5301059356
C  C128  1  0.17430000  0.22250000  0.15530000  1.0 0.114687266
C  C129  1  0.27800000  0.80690000  0.14960000  1.0 -0.1479475515
C  C130  1  0.28100000  0.80510000  0.21260000  1.0 0.0788439987
C  C131  1  0.19000000  0.29200000  0.90270000  1.0 0.073715243
C  C132  1  0.19000000  0.29280000  0.96670000  1.0 -0.1710645642
C  C133  1  0.21510000  0.80480000  0.95260000  1.0 0.0788439987
C  C134  1  0.21530000  0.80440000  0.01190000  1.0 -0.220148919
C  C135  1  0.17480000  0.22100000  0.09360000  1.0 -0.1775790316
C  C136  1  0.17870000  0.40050000  0.77940000  1.0 0.5566929152
C  C137  1  0.25000000  0.25000000  0.49890000  1.0 0.073715243
C  C138  1  0.25000000  0.25000000  0.56040000  1.0 0.0980526136
C  C139  1  0.25000000  0.25000000  0.99890000  1.0 0.073715243
C  C140  1  0.25000000  0.25000000  0.06040000  1.0 0.0980526136
C  C141  1  0.25000000  0.75000000  0.55790000  1.0 0.1194964022
C  C142  1  0.25000000  0.75000000  0.62250000  1.0 0.0788439987
C  C143  1  0.25000000  0.75000000  0.05790000  1.0 0.1194964022
C  C144  1  0.25000000  0.75000000  0.12250000  1.0 0.0788439987
N  N1  1  0.75000000  0.75000000  0.81620000  1.0 -0.1775790316
N  N2  1  0.75000000  0.75000000  0.13320000  1.0 -0.2427314723
N  N3  1  0.75000000  0.75000000  0.31620000  1.0 -0.1775790316
N  N4  1  0.75000000  0.75000000  0.63320000  1.0 -0.2427314723
N  N5  1  0.75000000  0.25000000  0.75090000  1.0 -0.2144373188
N  N6  1  0.75000000  0.25000000  0.07400000  1.0 -0.1992937381
N  N7  1  0.75000000  0.25000000  0.25090000  1.0 -0.2144373188
N  N8  1  0.75000000  0.25000000  0.57400000  1.0 -0.1992937381
N  N9  1  0.25000000  0.25000000  0.68380000  1.0 -0.1775790316
N  N10  1  0.25000000  0.25000000  0.36680000  1.0 -0.2427314723
N  N11  1  0.25000000  0.25000000  0.18380000  1.0 -0.1775790316
N  N12  1  0.25000000  0.25000000  0.86680000  1.0 -0.2427314723
N  N13  1  0.25000000  0.75000000  0.74910000  1.0 -0.2144373188
N  N14  1  0.25000000  0.75000000  0.42600000  1.0 -0.1992937381
N  N15  1  0.25000000  0.75000000  0.24910000  1.0 -0.2144373188
N  N16  1  0.25000000  0.75000000  0.92600000  1.0 -0.1992937381
O  O1  1  0.67500000  0.15690000  0.16770000  1.0 -0.5596301803
O  O2  1  0.66200000  0.83350000  0.22550000  1.0 -0.5596301803
O  O3  1  0.51300000  0.19490000  0.18660000  1.0 -0.5909322629
O  O4  1  0.33830000  0.96430000  0.21300000  1.0 -0.4583797584
O  O5  1  0.77180000  0.92380000  0.22960000  1.0 -0.5710809508
O  O6  1  0.82500000  0.34310000  0.16770000  1.0 -0.5596301803
O  O7  1  0.83800000  0.66650000  0.22550000  1.0 -0.5596301803
O  O8  1  0.98700000  0.30510000  0.18660000  1.0 -0.5909322629
O  O9  1  0.16170000  0.53570000  0.21300000  1.0 -0.4583797584
O  O10  1  0.72820000  0.57620000  0.22960000  1.0 -0.5710809508
O  O11  1  0.67500000  0.34310000  0.66770000  1.0 -0.5596301803
O  O12  1  0.66200000  0.66650000  0.72550000  1.0 -0.5596301803
O  O13  1  0.51300000  0.30510000  0.68660000  1.0 -0.5909322629
O  O14  1  0.33830000  0.53570000  0.71300000  1.0 -0.4583797584
O  O15  1  0.77180000  0.57620000  0.72960000  1.0 -0.5710809508
O  O16  1  0.82500000  0.15690000  0.66770000  1.0 -0.5596301803
O  O17  1  0.83800000  0.83350000  0.72550000  1.0 -0.5596301803
O  O18  1  0.98700000  0.19490000  0.68660000  1.0 -0.5909322629
O  O19  1  0.16170000  0.96430000  0.71300000  1.0 -0.4583797584
O  O20  1  0.72820000  0.92380000  0.72960000  1.0 -0.5710809508
O  O21  1  0.32500000  0.65690000  0.33230000  1.0 -0.5546950827
O  O22  1  0.33800000  0.33350000  0.27450000  1.0 -0.5596301803
O  O23  1  0.48700000  0.69490000  0.31340000  1.0 -0.5909322629
O  O24  1  0.66170000  0.46430000  0.28700000  1.0 -0.4583797584
O  O25  1  0.22820000  0.42380000  0.27040000  1.0 -0.5710809508
O  O26  1  0.17500000  0.84310000  0.33230000  1.0 -0.5596301803
O  O27  1  0.16200000  0.16650000  0.27450000  1.0 -0.5596301803
O  O28  1  0.01300000  0.80510000  0.31340000  1.0 -0.5909322629
O  O29  1  0.83830000  0.03570000  0.28700000  1.0 -0.4583797584
O  O30  1  0.27180000  0.07620000  0.27040000  1.0 -0.5710809508
O  O31  1  0.32500000  0.84310000  0.83230000  1.0 -0.5596301803
O  O32  1  0.33800000  0.16650000  0.77450000  1.0 -0.5596301803
O  O33  1  0.48700000  0.80510000  0.81340000  1.0 -0.5909322629
O  O34  1  0.66170000  0.03570000  0.78700000  1.0 -0.4583797584
O  O35  1  0.22820000  0.07620000  0.77040000  1.0 -0.5710809508
O  O36  1  0.17500000  0.65690000  0.83230000  1.0 -0.5596301803
O  O37  1  0.16200000  0.33350000  0.77450000  1.0 -0.5596301803
O  O38  1  0.01300000  0.69490000  0.81340000  1.0 -0.5909322629
O  O39  1  0.83830000  0.46430000  0.78700000  1.0 -0.4583797584
O  O40  1  0.27180000  0.42380000  0.77040000  1.0 -0.5710809508
