# DDEC6 charges by PACMAN v1.1 (https://github.com/mtap-research/PACMAN-charge/)
data_QEQZUH_FSR_pacman
_symmetry_space_group_name_H-M   'P 1'
_cell_length_a   11.00100000
_cell_length_b   11.00100000
_cell_length_c   6.33300000
_cell_angle_alpha   90.00000000
_cell_angle_beta   90.00000000
_cell_angle_gamma   120.00000000
_symmetry_Int_Tables_number   1
_chemical_formula_structural   Np(CO3)6
_chemical_formula_sum   'Np2 C12 O36'
_cell_volume   663.74987008
_cell_formula_units_Z   2
loop_
 _symmetry_equiv_pos_site_id
 _symmetry_equiv_pos_as_xyz
  1  'x, y, z'
loop_
 _atom_site_type_symbol
 _atom_site_label
 _atom_site_symmetry_multiplicity
 _atom_site_fract_x
 _atom_site_fract_y
 _atom_site_fract_z
 _atom_site_occupancy
 _atom_site_charge
Np  Np1  1  0.00000000  0.00000000  0.99170000  1.0 0.8941713533
Np  Np2  1  0.33333333  0.66666667  0.99170000  1.0 0.8437329492
C  C1  1  0.11100000  0.78000000  0.04900000  1.0 0.318727549
C  C2  1  0.22000000  0.33100000  0.04900000  1.0 0.318727549
C  C3  1  0.66900000  0.88900000  0.04900000  1.0 0.318727549
C  C4  1  0.22800000  0.89600000  0.04500000  1.0 0.3089103561
C  C5  1  0.10400000  0.33200000  0.04500000  1.0 0.3089103561
C  C6  1  0.66800000  0.77200000  0.04500000  1.0 0.3089103561
C  C7  1  0.94100000  0.02100000  0.49400000  1.0 0.2783110501
C  C8  1  0.97900000  0.92000000  0.49400000  1.0 0.2783110501
C  C9  1  0.08000000  0.05900000  0.49400000  1.0 0.2783110501
C  C10  1  0.32200000  0.59400000  0.49400000  1.0 0.2414481154
C  C11  1  0.40600000  0.72800000  0.49400000  1.0 0.2414481154
C  C12  1  0.27200000  0.67800000  0.49400000  1.0 0.2414481154
O  O1  1  0.01500000  0.80400000  0.12400000  1.0 -0.0510220144
O  O2  1  0.19600000  0.21100000  0.12400000  1.0 -0.0510220144
O  O3  1  0.78900000  0.98500000  0.12400000  1.0 -0.0510220144
O  O4  1  0.19700000  0.97800000  0.12400000  1.0 0.0605612117
O  O5  1  0.02200000  0.21900000  0.12400000  1.0 0.0656239724
O  O6  1  0.78100000  0.80300000  0.12400000  1.0 0.0605612117
O  O7  1  0.92600000  0.07100000  0.66800000  1.0 -0.3910361467
O  O8  1  0.92900000  0.85500000  0.66800000  1.0 -0.3910361467
O  O9  1  0.14500000  0.07400000  0.66800000  1.0 -0.3910361467
O  O10  1  0.86800000  0.93700000  0.31800000  1.0 -0.1879066615
O  O11  1  0.06300000  0.93100000  0.31800000  1.0 -0.1879066615
O  O12  1  0.06900000  0.13200000  0.31800000  1.0 -0.1879066615
O  O13  1  0.34500000  0.89900000  0.95000000  1.0 -0.1298078337
O  O14  1  0.10100000  0.44600000  0.95000000  1.0 -0.1298078337
O  O15  1  0.55400000  0.65500000  0.95000000  1.0 -0.1298078337
O  O16  1  0.10300000  0.65100000  0.93000000  1.0 -0.1298078337
O  O17  1  0.34900000  0.45200000  0.93000000  1.0 -0.1298078337
O  O18  1  0.54800000  0.89700000  0.93000000  1.0 -0.1298078337
O  O19  1  0.26900000  0.53400000  0.31500000  1.0 -0.1665472874
O  O20  1  0.46600000  0.73500000  0.31500000  1.0 -0.1631534287
O  O21  1  0.26500000  0.73100000  0.31500000  1.0 -0.1665472874
O  O22  1  0.40100000  0.59300000  0.66800000  1.0 -0.4280245789
O  O23  1  0.40700000  0.80800000  0.66800000  1.0 -0.4280245789
O  O24  1  0.19200000  0.59900000  0.66800000  1.0 -0.4242895284
O  O25  1  0.00300000  0.77500000  0.91600000  1.0 -0.2037857809
O  O26  1  0.22500000  0.22800000  0.91600000  1.0 -0.2037857809
O  O27  1  0.77200000  0.99700000  0.91600000  1.0 -0.2054086813
O  O28  1  0.23100000  0.01000000  0.95300000  1.0 -0.120711554
O  O29  1  0.99000000  0.22100000  0.95300000  1.0 -0.120711554
O  O30  1  0.77900000  0.76900000  0.95300000  1.0 -0.120711554
O  O31  1  0.32100000  0.85800000  0.13100000  1.0 0.0194973929
O  O32  1  0.14200000  0.46300000  0.13100000  1.0 0.0194973929
O  O33  1  0.53700000  0.67900000  0.13100000  1.0 0.0194973929
O  O34  1  0.13500000  0.69100000  0.12000000  1.0 -0.0016303412
O  O35  1  0.30900000  0.44400000  0.12000000  1.0 -0.0016303412
O  O36  1  0.55600000  0.86500000  0.12000000  1.0 -0.0016303412
