# DDEC6 charges by PACMAN v1.1 (https://github.com/mtap-research/PACMAN-charge/)
data_QESLOQ_FSR_pacman
_symmetry_space_group_name_H-M   'P 1'
_cell_length_a   10.35000000
_cell_length_b   12.19000000
_cell_length_c   13.00000000
_cell_angle_alpha   90.00000000
_cell_angle_beta   90.00000000
_cell_angle_gamma   90.00000000
_symmetry_Int_Tables_number   1
_chemical_formula_structural   In2P2C2O13
_chemical_formula_sum   'In8 P8 C8 O52'
_cell_volume   1640.16450000
_cell_formula_units_Z   4
loop_
 _symmetry_equiv_pos_site_id
 _symmetry_equiv_pos_as_xyz
  1  'x, y, z'
loop_
 _atom_site_type_symbol
 _atom_site_label
 _atom_site_symmetry_multiplicity
 _atom_site_fract_x
 _atom_site_fract_y
 _atom_site_fract_z
 _atom_site_occupancy
 _atom_site_charge
In  In1  1  0.55930000  0.27030000  0.00000000  1.0 1.532922592
In  In2  1  0.44070000  0.72970000  0.00000000  1.0 1.532922592
In  In3  1  0.55930000  0.72970000  0.50000000  1.0 1.532922592
In  In4  1  0.44070000  0.27030000  0.50000000  1.0 1.532922592
In  In5  1  0.27590000  0.00000000  0.25000000  1.0 1.6576738618
In  In6  1  0.72410000  0.00000000  0.25000000  1.0 1.6576738618
In  In7  1  0.72410000  0.00000000  0.75000000  1.0 1.6576738618
In  In8  1  0.27590000  0.00000000  0.75000000  1.0 1.6576738618
P  P1  1  0.50000000  0.20430000  0.25000000  1.0 1.5551311038
P  P2  1  0.50000000  0.79570000  0.25000000  1.0 1.5539040826
P  P3  1  0.50000000  0.79570000  0.75000000  1.0 1.5539040826
P  P4  1  0.50000000  0.20430000  0.75000000  1.0 1.5551311038
P  P5  1  0.78100000  0.08340000  0.00000000  1.0 1.469238814
P  P6  1  0.21900000  0.91660000  0.00000000  1.0 1.469238814
P  P7  1  0.78100000  0.91660000  0.50000000  1.0 1.469238814
P  P8  1  0.21900000  0.08340000  0.50000000  1.0 1.469238814
C  C1  1  0.57400000  0.51230000  0.00000000  1.0 0.5082697533
C  C2  1  0.42600000  0.48770000  0.00000000  1.0 0.5082697533
C  C3  1  0.57400000  0.48770000  0.50000000  1.0 0.5082697533
C  C4  1  0.42600000  0.51230000  0.50000000  1.0 0.5082697533
C  C5  1  0.00000000  0.06670000  0.25000000  1.0 0.5082697533
C  C6  1  0.00000000  0.93330000  0.25000000  1.0 0.5082697533
C  C7  1  0.00000000  0.93330000  0.75000000  1.0 0.5082697533
C  C8  1  0.00000000  0.06670000  0.75000000  1.0 0.5082697533
O  O1  1  0.64780000  0.43190000  0.00000000  1.0 -0.411838863
O  O2  1  0.35220000  0.56810000  0.00000000  1.0 -0.411838863
O  O3  1  0.64780000  0.56810000  0.50000000  1.0 -0.411838863
O  O4  1  0.35220000  0.43190000  0.50000000  1.0 -0.411838863
O  O5  1  0.60710000  0.61110000  0.00000000  1.0 -0.4299049713
O  O6  1  0.39290000  0.38890000  0.00000000  1.0 -0.4299049713
O  O7  1  0.60710000  0.38890000  0.50000000  1.0 -0.4299049713
O  O8  1  0.39290000  0.61110000  0.50000000  1.0 -0.4299049713
O  O9  1  0.54550000  0.27750000  0.16260000  1.0 -0.7635643072
O  O10  1  0.45450000  0.72250000  0.16260000  1.0 -0.7635643072
O  O11  1  0.54550000  0.72250000  0.33740000  1.0 -0.7635643072
O  O12  1  0.45450000  0.27750000  0.33740000  1.0 -0.7635643072
O  O13  1  0.45450000  0.72250000  0.83740000  1.0 -0.7635643072
O  O14  1  0.54550000  0.27750000  0.83740000  1.0 -0.7635643072
O  O15  1  0.45450000  0.27750000  0.66260000  1.0 -0.7635643072
O  O16  1  0.54550000  0.72250000  0.66260000  1.0 -0.7635643072
O  O17  1  0.74260000  0.20150000  0.00000000  1.0 -0.7493372597
O  O18  1  0.25740000  0.79850000  0.00000000  1.0 -0.7493372597
O  O19  1  0.74260000  0.79850000  0.50000000  1.0 -0.7493372597
O  O20  1  0.25740000  0.20150000  0.50000000  1.0 -0.7493372597
O  O21  1  0.41950000  0.14040000  0.00000000  1.0 0.2165041678
O  O22  1  0.58050000  0.85960000  0.00000000  1.0 0.2082786026
O  O23  1  0.41950000  0.85960000  0.50000000  1.0 0.2082786026
O  O24  1  0.58050000  0.14040000  0.50000000  1.0 0.2082786026
O  O25  1  0.39200000  0.13380000  0.21020000  1.0 -0.7381542884
O  O26  1  0.60800000  0.86620000  0.21020000  1.0 -0.7381542884
O  O27  1  0.39200000  0.86620000  0.28980000  1.0 -0.7381542884
O  O28  1  0.60800000  0.13380000  0.28980000  1.0 -0.7381542884
O  O29  1  0.60800000  0.86620000  0.78980000  1.0 -0.7381542884
O  O30  1  0.39200000  0.13380000  0.78980000  1.0 -0.7381542884
O  O31  1  0.60800000  0.13380000  0.71020000  1.0 -0.7381542884
O  O32  1  0.39200000  0.86620000  0.71020000  1.0 -0.7381542884
O  O33  1  0.10570000  0.11190000  0.24050000  1.0 -0.4002535679
O  O34  1  0.89430000  0.88810000  0.24050000  1.0 -0.4002535679
O  O35  1  0.10570000  0.88810000  0.25950000  1.0 -0.4002535679
O  O36  1  0.89430000  0.11190000  0.25950000  1.0 -0.4002535679
O  O37  1  0.89430000  0.88810000  0.75950000  1.0 -0.4002535679
O  O38  1  0.10570000  0.11190000  0.75950000  1.0 -0.4002535679
O  O39  1  0.89430000  0.11190000  0.74050000  1.0 -0.4002535679
O  O40  1  0.10570000  0.88810000  0.74050000  1.0 -0.4002535679
O  O41  1  0.72580000  0.02410000  0.90820000  1.0 -0.7381542884
O  O42  1  0.27420000  0.97590000  0.90820000  1.0 -0.7381542884
O  O43  1  0.72580000  0.97590000  0.59180000  1.0 -0.7381542884
O  O44  1  0.27420000  0.02410000  0.59180000  1.0 -0.7381542884
O  O45  1  0.27420000  0.97590000  0.09180000  1.0 -0.7381542884
O  O46  1  0.72580000  0.02410000  0.09180000  1.0 -0.7381542884
O  O47  1  0.27420000  0.02410000  0.40820000  1.0 -0.7381542884
O  O48  1  0.72580000  0.97590000  0.40820000  1.0 -0.7381542884
O  O49  1  0.92400000  0.09100000  0.00000000  1.0 -0.5698933639
O  O50  1  0.07600000  0.90900000  0.00000000  1.0 -0.5698933639
O  O51  1  0.92400000  0.90900000  0.50000000  1.0 -0.5698933639
O  O52  1  0.07600000  0.09100000  0.50000000  1.0 -0.5698933639
