# DDEC6 charges by PACMAN v1.1 (https://github.com/mtap-research/PACMAN-charge/)
data_QESRAI_FSR_pacman
_symmetry_space_group_name_H-M   'P 1'
_cell_length_a   9.72392000
_cell_length_b   9.72392000
_cell_length_c   14.27870000
_cell_angle_alpha   89.66410000
_cell_angle_beta   90.33590000
_cell_angle_gamma   92.24880000
_symmetry_Int_Tables_number   1
_chemical_formula_structural   ZnPO4
_chemical_formula_sum   'Zn10 P10 O40'
_cell_volume   1349.03265670
_cell_formula_units_Z   10
loop_
 _symmetry_equiv_pos_site_id
 _symmetry_equiv_pos_as_xyz
  1  'x, y, z'
loop_
 _atom_site_type_symbol
 _atom_site_label
 _atom_site_symmetry_multiplicity
 _atom_site_fract_x
 _atom_site_fract_y
 _atom_site_fract_z
 _atom_site_occupancy
 _atom_site_charge
Zn  Zn1  1  0.74810000  0.99130000  0.26580000  1.0 1.1676293751
Zn  Zn2  1  0.99130000  0.74810000  0.23420000  1.0 1.1676293751
Zn  Zn3  1  0.25190000  0.00870000  0.73420000  1.0 1.1676293751
Zn  Zn4  1  0.00870000  0.25190000  0.76580000  1.0 1.1755321562
Zn  Zn5  1  0.29580000  0.24400000  0.12580000  1.0 1.2112454712
Zn  Zn6  1  0.24400000  0.29580000  0.37420000  1.0 1.2029347161
Zn  Zn7  1  0.70420000  0.75600000  0.87420000  1.0 1.2029347161
Zn  Zn8  1  0.75600000  0.70420000  0.62580000  1.0 1.2029347161
Zn  Zn9  1  0.56590000  0.56590000  0.25000000  1.0 1.2151347935
Zn  Zn10  1  0.43410000  0.43410000  0.75000000  1.0 1.2112454712
P  P1  1  0.06960000  0.06960000  0.25000000  1.0 1.3885413945
P  P2  1  0.93040000  0.93040000  0.75000000  1.0 1.3828830063
P  P3  1  0.24070000  0.53370000  0.22630000  1.0 1.3404711723
P  P4  1  0.53370000  0.24070000  0.27370000  1.0 1.3404711723
P  P5  1  0.75930000  0.46630000  0.77370000  1.0 1.3404711723
P  P6  1  0.46630000  0.75930000  0.72630000  1.0 1.3404711723
P  P7  1  0.77200000  0.72160000  0.39280000  1.0 1.3108101726
P  P8  1  0.72160000  0.77200000  0.10720000  1.0 1.3108101726
P  P9  1  0.22800000  0.27840000  0.60720000  1.0 1.3108101726
P  P10  1  0.27840000  0.22800000  0.89280000  1.0 1.3108101726
O  O1  1  0.75880000  0.87540000  0.37630000  1.0 -0.6698840082
O  O2  1  0.87540000  0.75880000  0.12370000  1.0 -0.6698840082
O  O3  1  0.24120000  0.12460000  0.62370000  1.0 -0.6582358897
O  O4  1  0.12460000  0.24120000  0.87630000  1.0 -0.6698840082
O  O5  1  0.91820000  0.09220000  0.23990000  1.0 -0.6467132628
O  O6  1  0.09220000  0.91820000  0.26010000  1.0 -0.6467132628
O  O7  1  0.08180000  0.90780000  0.76010000  1.0 -0.6467132628
O  O8  1  0.90780000  0.08180000  0.73990000  1.0 -0.6382606288
O  O9  1  0.13720000  0.63620000  0.18890000  1.0 -0.5439179599
O  O10  1  0.63620000  0.13720000  0.31110000  1.0 -0.5439179599
O  O11  1  0.86280000  0.36380000  0.81110000  1.0 -0.5439179599
O  O12  1  0.36380000  0.86280000  0.68890000  1.0 -0.5452387393
O  O13  1  0.88980000  0.66780000  0.33750000  1.0 -0.6582358897
O  O14  1  0.66780000  0.88980000  0.16250000  1.0 -0.6582358897
O  O15  1  0.11020000  0.33220000  0.66250000  1.0 -0.6582358897
O  O16  1  0.33220000  0.11020000  0.83750000  1.0 -0.6582358897
O  O17  1  0.12690000  0.14310000  0.33510000  1.0 -0.6382606288
O  O18  1  0.14310000  0.12690000  0.16490000  1.0 -0.6382606288
O  O19  1  0.87310000  0.85690000  0.66490000  1.0 -0.6285511911
O  O20  1  0.85690000  0.87310000  0.83510000  1.0 -0.6285511911
O  O21  1  0.26610000  0.43470000  0.14690000  1.0 -0.6863051117
O  O22  1  0.43470000  0.26610000  0.35310000  1.0 -0.6863051117
O  O23  1  0.73390000  0.56530000  0.85310000  1.0 -0.6863051117
O  O24  1  0.56530000  0.73390000  0.64690000  1.0 -0.6863051117
O  O25  1  0.79750000  0.69490000  0.49560000  1.0 -0.5704416245
O  O26  1  0.69490000  0.79750000  0.00440000  1.0 -0.5704416245
O  O27  1  0.20250000  0.30510000  0.50440000  1.0 -0.5704416245
O  O28  1  0.30510000  0.20250000  0.99560000  1.0 -0.5704416245
O  O29  1  0.18090000  0.45850000  0.31070000  1.0 -0.676756537
O  O30  1  0.45850000  0.18090000  0.18930000  1.0 -0.6698840082
O  O31  1  0.81910000  0.54150000  0.68930000  1.0 -0.6698840082
O  O32  1  0.54150000  0.81910000  0.81070000  1.0 -0.676756537
O  O33  1  0.63850000  0.64570000  0.36410000  1.0 -0.6285511911
O  O34  1  0.64570000  0.63850000  0.13590000  1.0 -0.6285511911
O  O35  1  0.36150000  0.35430000  0.63590000  1.0 -0.6285511911
O  O36  1  0.35430000  0.36150000  0.86410000  1.0 -0.6285511911
O  O37  1  0.37350000  0.61330000  0.24950000  1.0 -0.6192697496
O  O38  1  0.61330000  0.37350000  0.25050000  1.0 -0.6192697496
O  O39  1  0.62650000  0.38670000  0.75050000  1.0 -0.6192697496
O  O40  1  0.38670000  0.62650000  0.74950000  1.0 -0.6192697496
