# DDEC6 charges by PACMAN v1.1 (https://github.com/mtap-research/PACMAN-charge/)
data_QETHUT_ASR_pacman
_symmetry_space_group_name_H-M   'P 1'
_cell_length_a   9.07400000
_cell_length_b   9.23000000
_cell_length_c   9.30900000
_cell_angle_alpha   103.55400000
_cell_angle_beta   92.65700000
_cell_angle_gamma   89.38800000
_symmetry_Int_Tables_number   1
_chemical_formula_structural   Al3P3O12F
_chemical_formula_sum   'Al6 P6 O24 F2'
_cell_volume   757.12816487
_cell_formula_units_Z   2
loop_
 _symmetry_equiv_pos_site_id
 _symmetry_equiv_pos_as_xyz
  1  'x, y, z'
loop_
 _atom_site_type_symbol
 _atom_site_label
 _atom_site_symmetry_multiplicity
 _atom_site_fract_x
 _atom_site_fract_y
 _atom_site_fract_z
 _atom_site_occupancy
 _atom_site_charge
Al  Al1  1  0.16066000  0.62533000  0.92586000  1.0 1.7386075133
Al  Al2  1  0.83934000  0.37467000  0.07414000  1.0 1.7386075133
Al  Al3  1  0.56567000  0.86780000  0.91193000  1.0 1.7315593832
Al  Al4  1  0.43433000  0.13220000  0.08807000  1.0 1.7315593832
Al  Al5  1  0.38097000  0.60901000  0.34189000  1.0 1.7386075133
Al  Al6  1  0.61903000  0.39099000  0.65811000  1.0 1.7315593832
P  P1  1  0.81256000  0.61815000  0.90258000  1.0 1.5327763432
P  P2  1  0.18744000  0.38185000  0.09742000  1.0 1.5364487443
P  P3  1  0.38245000  0.62830000  0.67634000  1.0 1.5364487443
P  P4  1  0.61755000  0.37170000  0.32366000  1.0 1.5364487443
P  P5  1  0.35394000  0.83181000  0.14566000  1.0 1.5207958096
P  P6  1  0.64606000  0.16819000  0.85434000  1.0 1.5207958096
O  O1  1  0.49737000  0.74518000  0.73720000  1.0 -0.7585441357
O  O2  1  0.50263000  0.25482000  0.26280000  1.0 -0.7585441357
O  O3  1  0.34794000  0.00086000  0.18779000  1.0 -0.6912437803
O  O4  1  0.65206000  0.99914000  0.81221000  1.0 -0.6912437803
O  O5  1  0.73794000  0.76720000  0.92873000  1.0 -0.728129459
O  O6  1  0.26206000  0.23280000  0.07127000  1.0 -0.728129459
O  O7  1  0.46679000  0.76674000  0.03311000  1.0 -0.7585441357
O  O8  1  0.53321000  0.23326000  0.96689000  1.0 -0.7585441357
O  O9  1  0.38210000  0.77630000  0.28875000  1.0 -0.7545591718
O  O10  1  0.61790000  0.22370000  0.71125000  1.0 -0.7545591718
O  O11  1  0.24716000  0.64270000  0.76943000  1.0 -0.7545591718
O  O12  1  0.75284000  0.35730000  0.23057000  1.0 -0.7585441357
O  O13  1  0.97536000  0.63820000  0.87730000  1.0 -0.7799826986
O  O14  1  0.02464000  0.36180000  0.12270000  1.0 -0.7799826986
O  O15  1  0.32460000  0.64490000  0.52280000  1.0 -0.7712392336
O  O16  1  0.67540000  0.35510000  0.47720000  1.0 -0.7712392336
O  O17  1  0.80200000  0.54750000  0.03565000  1.0 -0.8088805701
O  O18  1  0.19800000  0.45250000  0.96435000  1.0 -0.8088805701
O  O19  1  0.20005000  0.76960000  0.08065000  1.0 -0.8088805701
O  O20  1  0.79995000  0.23040000  0.91935000  1.0 -0.8088805701
O  O21  1  0.44555000  0.47150000  0.66190000  1.0 -0.8025450236
O  O22  1  0.55445000  0.52850000  0.33810000  1.0 -0.8025450236
O  O23  1  0.74970000  0.50990000  0.76322000  1.0 -0.8088805701
O  O24  1  0.25030000  0.49010000  0.23678000  1.0 -0.8088805701
F  F1  1  0.60581000  0.01361000  0.08364000  1.0 -0.5691264397
F  F2  1  0.39419000  0.98639000  0.91636000  1.0 -0.5691264397
