# DDEC6 charges by PACMAN v1.1 (https://github.com/mtap-research/PACMAN-charge/)
data_QEVMOW01_ASR_pacman
_symmetry_space_group_name_H-M   'P 1'
_cell_length_a   8.52052000
_cell_length_b   8.52052000
_cell_length_c   8.77950000
_cell_angle_alpha   82.67950000
_cell_angle_beta   97.32050000
_cell_angle_gamma   136.64800000
_symmetry_Int_Tables_number   1
_chemical_formula_structural   KLiSb2H4(C2O3)4
_chemical_formula_sum   'K1 Li1 Sb2 H4 C8 O12'
_cell_volume   433.41866384
_cell_formula_units_Z   1
loop_
 _symmetry_equiv_pos_site_id
 _symmetry_equiv_pos_as_xyz
  1  'x, y, z'
loop_
 _atom_site_type_symbol
 _atom_site_label
 _atom_site_symmetry_multiplicity
 _atom_site_fract_x
 _atom_site_fract_y
 _atom_site_fract_z
 _atom_site_occupancy
 _atom_site_charge
K  K1  1  0.52610000  0.52610000  0.50000000  1.0 0.8528245484
Li  Li1  1  0.50300000  0.50300000  0.00000000  1.0 0.8979134356
Sb  Sb1  1  0.87129000  0.19571000  0.45931000  1.0 1.0747169053
Sb  Sb2  1  0.19571000  0.87129000  0.54069000  1.0 1.0805206095
H  H1  1  0.85650000  0.99550000  0.83870000  1.0 0.1017075946
H  H2  1  0.03930000  0.16850000  0.12100000  1.0 0.1017075946
H  H3  1  0.99550000  0.85650000  0.16130000  1.0 0.1017075946
H  H4  1  0.16850000  0.03930000  0.87900000  1.0 0.1017075946
C  C1  1  0.95310000  0.05490000  0.74980000  1.0 0.010691885
C  C2  1  0.14520000  0.31920000  0.74400000  1.0 0.5663110113
C  C3  1  0.98770000  0.08230000  0.22290000  1.0 0.0246059169
C  C4  1  0.71790000  0.88410000  0.21980000  1.0 0.5570062195
C  C5  1  0.05490000  0.95310000  0.25020000  1.0 0.010691885
C  C6  1  0.31920000  0.14520000  0.25600000  1.0 0.5663110113
C  C7  1  0.08230000  0.98770000  0.77710000  1.0 0.0246059169
C  C8  1  0.88410000  0.71790000  0.78020000  1.0 0.5570062195
O  O1  1  0.81560000  0.97000000  0.61400000  1.0 -0.5200770403
O  O2  1  0.16560000  0.42000000  0.61250000  1.0 -0.5510829891
O  O3  1  0.07880000  0.23100000  0.33850000  1.0 -0.5094405914
O  O4  1  0.62750000  0.88850000  0.32070000  1.0 -0.5296911205
O  O5  1  0.27520000  0.42540000  0.85740000  1.0 -0.6120934988
O  O6  1  0.61130000  0.74470000  0.12060000  1.0 -0.5926327313
O  O7  1  0.97000000  0.81560000  0.38600000  1.0 -0.5200770403
O  O8  1  0.42000000  0.16560000  0.38750000  1.0 -0.5510829891
O  O9  1  0.23100000  0.07880000  0.66150000  1.0 -0.5094405914
O  O10  1  0.88850000  0.62750000  0.67930000  1.0 -0.5296911205
O  O11  1  0.42540000  0.27520000  0.14260000  1.0 -0.6120934988
O  O12  1  0.74470000  0.61130000  0.87940000  1.0 -0.5926327313
