# DDEC6 charges by PACMAN v1.1 (https://github.com/mtap-research/PACMAN-charge/)
data_QEVMOW_ASR_pacman
_symmetry_space_group_name_H-M   'P 1'
_cell_length_a   8.39906000
_cell_length_b   8.39906000
_cell_length_c   8.79600000
_cell_angle_alpha   90.00000000
_cell_angle_beta   90.00000000
_cell_angle_gamma   135.97900000
_symmetry_Int_Tables_number   1
_chemical_formula_structural   KLiSb2H4(C2O3)4
_chemical_formula_sum   'K1 Li1 Sb2 H4 C8 O12'
_cell_volume   431.20385396
_cell_formula_units_Z   1
loop_
 _symmetry_equiv_pos_site_id
 _symmetry_equiv_pos_as_xyz
  1  'x, y, z'
loop_
 _atom_site_type_symbol
 _atom_site_label
 _atom_site_symmetry_multiplicity
 _atom_site_fract_x
 _atom_site_fract_y
 _atom_site_fract_z
 _atom_site_occupancy
 _atom_site_charge
K  K1  1  0.50000000  0.50000000  0.50000000  1.0 0.8544592386
Li  Li1  1  0.50000000  0.50000000  0.00000000  1.0 0.8668677336
Sb  Sb1  1  0.16310000  0.83690000  0.50000000  1.0 1.0477163917
Sb  Sb2  1  0.83690000  0.16310000  0.50000000  1.0 1.0477163917
H  H1  1  0.14700000  0.01100000  0.13900000  1.0 0.1050628325
H  H2  1  0.85300000  0.98900000  0.13900000  1.0 0.1050628325
H  H3  1  0.01100000  0.14700000  0.86100000  1.0 0.1050628325
H  H4  1  0.98900000  0.85300000  0.86100000  1.0 0.1050628325
C  C1  1  0.87040000  0.69820000  0.23830000  1.0 0.56879246
C  C2  1  0.05980000  0.96060000  0.23660000  1.0 0.0163229177
C  C3  1  0.12960000  0.30180000  0.23830000  1.0 0.56879246
C  C4  1  0.94020000  0.03940000  0.23660000  1.0 0.0163229177
C  C5  1  0.69820000  0.87040000  0.76170000  1.0 0.56879246
C  C6  1  0.96060000  0.05980000  0.76340000  1.0 0.0163229177
C  C7  1  0.30180000  0.12960000  0.76170000  1.0 0.56879246
C  C8  1  0.03940000  0.94020000  0.76340000  1.0 0.0163229177
O  O1  1  0.20878000  0.05462000  0.36110000  1.0 -0.512983563
O  O2  1  0.73420000  0.59080000  0.13100000  1.0 -0.6023370498
O  O3  1  0.86270000  0.60310000  0.35550000  1.0 -0.5290475363
O  O4  1  0.79122000  0.94538000  0.36110000  1.0 -0.512983563
O  O5  1  0.26580000  0.40920000  0.13100000  1.0 -0.6023370498
O  O6  1  0.13730000  0.39690000  0.35550000  1.0 -0.5290475363
O  O7  1  0.05462000  0.20878000  0.63890000  1.0 -0.512983563
O  O8  1  0.59080000  0.73420000  0.86900000  1.0 -0.6023370498
O  O9  1  0.60310000  0.86270000  0.64450000  1.0 -0.5290475363
O  O10  1  0.94538000  0.79122000  0.63890000  1.0 -0.512983563
O  O11  1  0.40920000  0.26580000  0.86900000  1.0 -0.6023370498
O  O12  1  0.39690000  0.13730000  0.64450000  1.0 -0.5290475363
