# DDEC6 charges by PACMAN v1.1 (https://github.com/mtap-research/PACMAN-charge/)
data_QEVNAJ_FSR_pacman
_symmetry_space_group_name_H-M   'P 1'
_cell_length_a   8.36179000
_cell_length_b   8.36179000
_cell_length_c   8.69160000
_cell_angle_alpha   86.52800000
_cell_angle_beta   93.47200000
_cell_angle_gamma   134.98200000
_symmetry_Int_Tables_number   1
_chemical_formula_structural   KLiSb2H4(C2O3)4
_chemical_formula_sum   'K1 Li1 Sb2 H4 C8 O12'
_cell_volume   428.92805778
_cell_formula_units_Z   1
loop_
 _symmetry_equiv_pos_site_id
 _symmetry_equiv_pos_as_xyz
  1  'x, y, z'
loop_
 _atom_site_type_symbol
 _atom_site_label
 _atom_site_symmetry_multiplicity
 _atom_site_fract_x
 _atom_site_fract_y
 _atom_site_fract_z
 _atom_site_occupancy
 _atom_site_charge
K  K1  1  0.17530000  0.17530000  0.50000000  1.0 0.8601108496
Li  Li1  1  0.17800000  0.17800000  0.00000000  1.0 0.8601108496
Sb  Sb1  1  0.51156000  0.83758000  0.48135000  1.0 1.0655747955
Sb  Sb2  1  0.83758000  0.51156000  0.51865000  1.0 1.0655747955
H  H1  1  0.82240000  0.68400000  0.87400000  1.0 0.1060788562
H  H2  1  0.52330000  0.66050000  0.85550000  1.0 0.1060788562
H  H3  1  0.68400000  0.82240000  0.12600000  1.0 0.1060788562
H  H4  1  0.66050000  0.52330000  0.14450000  1.0 0.1060788562
C  C1  1  0.79860000  0.97200000  0.75510000  1.0 0.5644706194
C  C2  1  0.73630000  0.63490000  0.77490000  1.0 0.0103866058
C  C3  1  0.61330000  0.71270000  0.76230000  1.0 0.0103866058
C  C4  1  0.54800000  0.37660000  0.77390000  1.0 0.5644706194
C  C5  1  0.97200000  0.79860000  0.24490000  1.0 0.5644706194
C  C6  1  0.63490000  0.73630000  0.22510000  1.0 0.0103866058
C  C7  1  0.71270000  0.61330000  0.23770000  1.0 0.0103866058
C  C8  1  0.37660000  0.54800000  0.22610000  1.0 0.5644706194
O  O1  1  0.81060000  0.06680000  0.62790000  1.0 -0.5426553781
O  O2  1  0.88490000  0.72670000  0.65250000  1.0 -0.5105255391
O  O3  1  0.41070000  0.26830000  0.87770000  1.0 -0.5974633391
O  O4  1  0.93150000  0.08130000  0.86580000  1.0 -0.5974633391
O  O5  1  0.46890000  0.62170000  0.63120000  1.0 -0.5105255391
O  O6  1  0.28200000  0.53900000  0.34280000  1.0 -0.5289246733
O  O7  1  0.06680000  0.81060000  0.37210000  1.0 -0.5426553781
O  O8  1  0.72670000  0.88490000  0.34750000  1.0 -0.5105255391
O  O9  1  0.26830000  0.41070000  0.12230000  1.0 -0.5974633391
O  O10  1  0.08130000  0.93150000  0.13420000  1.0 -0.5974633391
O  O11  1  0.62170000  0.46890000  0.36880000  1.0 -0.5105255391
O  O12  1  0.53900000  0.28200000  0.65720000  1.0 -0.5289246733
