# DDEC6 charges by PACMAN v1.1 (https://github.com/mtap-research/PACMAN-charge/)
data_QEZXEY_ion_pacman
_symmetry_space_group_name_H-M   'P 1'
_cell_length_a   18.25790000
_cell_length_b   18.25790000
_cell_length_c   15.97750000
_cell_angle_alpha   80.07730000
_cell_angle_beta   99.92270000
_cell_angle_gamma   92.47440000
_symmetry_Int_Tables_number   1
_chemical_formula_structural   Ag13BC18N2O19F28
_chemical_formula_sum   'Ag52 B4 C72 N8 O76 F112'
_cell_volume   5167.46207328
_cell_formula_units_Z   4
loop_
 _symmetry_equiv_pos_site_id
 _symmetry_equiv_pos_as_xyz
  1  'x, y, z'
loop_
 _atom_site_type_symbol
 _atom_site_label
 _atom_site_symmetry_multiplicity
 _atom_site_fract_x
 _atom_site_fract_y
 _atom_site_fract_z
 _atom_site_occupancy
 _atom_site_charge
Ag  Ag1  1  0.30011000  0.30011000  0.25000000  1.0 0.4189507244
Ag  Ag2  1  0.69989000  0.69989000  0.75000000  1.0 0.4189507244
Ag  Ag3  1  0.17554000  0.18902000  0.33834000  1.0 0.3675184933
Ag  Ag4  1  0.18902000  0.17554000  0.16166000  1.0 0.3675184933
Ag  Ag5  1  0.82446000  0.81098000  0.66166000  1.0 0.3675184933
Ag  Ag6  1  0.81098000  0.82446000  0.83834000  1.0 0.3675184933
Ag  Ag7  1  0.28136000  0.05274000  0.41099000  1.0 0.4593542812
Ag  Ag8  1  0.05274000  0.28136000  0.08901000  1.0 0.4593542812
Ag  Ag9  1  0.71864000  0.94726000  0.58901000  1.0 0.4593542812
Ag  Ag10  1  0.94726000  0.71864000  0.91099000  1.0 0.4593542812
Ag  Ag11  1  0.43107000  0.19019000  0.32955000  1.0 0.4474565504
Ag  Ag12  1  0.19019000  0.43107000  0.17045000  1.0 0.4474565504
Ag  Ag13  1  0.56893000  0.80981000  0.67045000  1.0 0.4474565504
Ag  Ag14  1  0.80981000  0.56893000  0.82955000  1.0 0.4474565504
Ag  Ag15  1  0.03778000  0.27588000  0.27082000  1.0 0.4387364251
Ag  Ag16  1  0.27588000  0.03778000  0.22918000  1.0 0.4387364251
Ag  Ag17  1  0.96222000  0.72412000  0.72918000  1.0 0.4387364251
Ag  Ag18  1  0.72412000  0.96222000  0.77082000  1.0 0.4387364251
Ag  Ag19  1  0.16375000  0.35483000  0.34952000  1.0 0.4692939607
Ag  Ag20  1  0.35483000  0.16375000  0.15048000  1.0 0.4692939607
Ag  Ag21  1  0.83625000  0.64517000  0.65048000  1.0 0.4692939607
Ag  Ag22  1  0.64517000  0.83625000  0.84952000  1.0 0.4692939607
Ag  Ag23  1  0.32713000  0.20079000  0.45432000  1.0 0.4593542812
Ag  Ag24  1  0.20079000  0.32713000  0.04568000  1.0 0.4593542812
Ag  Ag25  1  0.67287000  0.79921000  0.54568000  1.0 0.4593542812
Ag  Ag26  1  0.79921000  0.67287000  0.95432000  1.0 0.4593542812
Ag  Ag27  1  0.27433000  0.33437000  0.58296000  1.0 0.4019244076
Ag  Ag28  1  0.33437000  0.27433000  0.91704000  1.0 0.4019244076
Ag  Ag29  1  0.72567000  0.66563000  0.41704000  1.0 0.4019244076
Ag  Ag30  1  0.66563000  0.72567000  0.08296000  1.0 0.4019244076
Ag  Ag31  1  0.38955000  0.22753000  0.67379000  1.0 0.4019244076
Ag  Ag32  1  0.22753000  0.38955000  0.82621000  1.0 0.3930826764
Ag  Ag33  1  0.61045000  0.77247000  0.32621000  1.0 0.4019244076
Ag  Ag34  1  0.77247000  0.61045000  0.17379000  1.0 0.3930826764
Ag  Ag35  1  0.05535000  0.05091000  0.46331000  1.0 0.4692939607
Ag  Ag36  1  0.05091000  0.05535000  0.03669000  1.0 0.4692939607
Ag  Ag37  1  0.94465000  0.94909000  0.53669000  1.0 0.4692939607
Ag  Ag38  1  0.94909000  0.94465000  0.96331000  1.0 0.4692939607
Ag  Ag39  1  0.23656000  0.89174000  0.57351000  1.0 0.4019244076
Ag  Ag40  1  0.89174000  0.23656000  0.92649000  1.0 0.4019244076
Ag  Ag41  1  0.76344000  0.10826000  0.42649000  1.0 0.4019244076
Ag  Ag42  1  0.10826000  0.76344000  0.07351000  1.0 0.4104016063
Ag  Ag43  1  0.13575000  0.78413000  0.64129000  1.0 0.4189507244
Ag  Ag44  1  0.78413000  0.13575000  0.85871000  1.0 0.4189507244
Ag  Ag45  1  0.86425000  0.21587000  0.35871000  1.0 0.4104016063
Ag  Ag46  1  0.21587000  0.86425000  0.14129000  1.0 0.4189507244
Ag  Ag47  1  0.45353000  0.45353000  0.25000000  1.0 0.6176522909
Ag  Ag48  1  0.54647000  0.54647000  0.75000000  1.0 0.6176522909
Ag  Ag49  1  0.61300000  0.27020000  0.36490000  1.0 0.5615795591
Ag  Ag50  1  0.27020000  0.61300000  0.13510000  1.0 0.5615795591
Ag  Ag51  1  0.38700000  0.72980000  0.63510000  1.0 0.5543912588
Ag  Ag52  1  0.72980000  0.38700000  0.86490000  1.0 0.5615795591
B  B1  1  0.94880000  0.44420000  0.17610000  1.0 1.068147832
B  B2  1  0.44420000  0.94880000  0.32390000  1.0 1.068147832
B  B3  1  0.05120000  0.55580000  0.82390000  1.0 1.068147832
B  B4  1  0.55580000  0.05120000  0.67610000  1.0 1.068147832
C  C1  1  0.30660000  0.16480000  0.33140000  1.0 -0.3867658588
C  C2  1  0.16480000  0.30660000  0.16860000  1.0 -0.3867658588
C  C3  1  0.69340000  0.83520000  0.66860000  1.0 -0.3867658588
C  C4  1  0.83520000  0.69340000  0.83140000  1.0 -0.3867658588
C  C5  1  0.14810000  0.29950000  0.23630000  1.0 -0.3839613857
C  C6  1  0.29950000  0.14810000  0.26370000  1.0 -0.3839613857
C  C7  1  0.85190000  0.70050000  0.76370000  1.0 -0.3839613857
C  C8  1  0.70050000  0.85190000  0.73630000  1.0 -0.3839613857
C  C9  1  0.11870000  0.89330000  0.57690000  1.0 -0.1528828591
C  C10  1  0.89330000  0.11870000  0.92310000  1.0 -0.1528828591
C  C11  1  0.88130000  0.10670000  0.42310000  1.0 -0.1528828591
C  C12  1  0.10670000  0.88130000  0.07690000  1.0 -0.1528828591
C  C13  1  0.30490000  0.06610000  0.60920000  1.0 0.3930826764
C  C14  1  0.06610000  0.30490000  0.89080000  1.0 0.3930826764
C  C15  1  0.69510000  0.93390000  0.39080000  1.0 0.3930826764
C  C16  1  0.93390000  0.69510000  0.10920000  1.0 0.3930826764
C  C17  1  0.31710000  0.03390000  0.70100000  1.0 0.4809867976
C  C18  1  0.03390000  0.31710000  0.79900000  1.0 0.4809867976
C  C19  1  0.68290000  0.96610000  0.29900000  1.0 0.4809867976
C  C20  1  0.96610000  0.68290000  0.20100000  1.0 0.4809867976
C  C21  1  0.49210000  0.25290000  0.50850000  1.0 0.4019244076
C  C22  1  0.25290000  0.49210000  0.99150000  1.0 0.4019244076
C  C23  1  0.50790000  0.74710000  0.49150000  1.0 0.4019244076
C  C24  1  0.74710000  0.50790000  0.00850000  1.0 0.4019244076
C  C25  1  0.55720000  0.28100000  0.56200000  1.0 0.489685463
C  C26  1  0.28100000  0.55720000  0.93800000  1.0 0.489685463
C  C27  1  0.44280000  0.71900000  0.43800000  1.0 0.489685463
C  C28  1  0.71900000  0.44280000  0.06200000  1.0 0.489685463
C  C29  1  0.34520000  0.38880000  0.40620000  1.0 0.3930826764
C  C30  1  0.38880000  0.34520000  0.09380000  1.0 0.3930826764
C  C31  1  0.65480000  0.61120000  0.59380000  1.0 0.3930826764
C  C32  1  0.61120000  0.65480000  0.90620000  1.0 0.3930826764
C  C33  1  0.38960000  0.44580000  0.44830000  1.0 0.495861842
C  C34  1  0.44580000  0.38960000  0.05170000  1.0 0.495861842
C  C35  1  0.61040000  0.55420000  0.55170000  1.0 0.495861842
C  C36  1  0.55420000  0.61040000  0.94830000  1.0 0.489685463
C  C37  1  0.52920000  0.20400000  0.18620000  1.0 0.3930826764
C  C38  1  0.20400000  0.52920000  0.31380000  1.0 0.3930826764
C  C39  1  0.47080000  0.79600000  0.81380000  1.0 0.3930826764
C  C40  1  0.79600000  0.47080000  0.68620000  1.0 0.3930826764
C  C41  1  0.59950000  0.21470000  0.15150000  1.0 0.489685463
C  C42  1  0.21470000  0.59950000  0.34850000  1.0 0.489685463
C  C43  1  0.40050000  0.78530000  0.84850000  1.0 0.489685463
C  C44  1  0.78530000  0.40050000  0.65150000  1.0 0.489685463
C  C45  1  0.90800000  0.20900000  0.15200000  1.0 0.4019244076
C  C46  1  0.20900000  0.90800000  0.34800000  1.0 0.4019244076
C  C47  1  0.09200000  0.79100000  0.84800000  1.0 0.4019244076
C  C48  1  0.79100000  0.09200000  0.65200000  1.0 0.4019244076
C  C49  1  0.83230000  0.17670000  0.13450000  1.0 0.4809867976
C  C50  1  0.17670000  0.83230000  0.36550000  1.0 0.4809867976
C  C51  1  0.16770000  0.82330000  0.86550000  1.0 0.4809867976
C  C52  1  0.82330000  0.16770000  0.63450000  1.0 0.4809867976
C  C53  1  0.15490000  0.19910000  0.51780000  1.0 0.3675184933
C  C54  1  0.19910000  0.15490000  0.98220000  1.0 0.3675184933
C  C55  1  0.84510000  0.80090000  0.48220000  1.0 0.3675184933
C  C56  1  0.80090000  0.84510000  0.01780000  1.0 0.3675184933
C  C57  1  0.12540000  0.18840000  0.59710000  1.0 0.4593542812
C  C58  1  0.18840000  0.12540000  0.90290000  1.0 0.4593542812
C  C59  1  0.87460000  0.81160000  0.40290000  1.0 0.4593542812
C  C60  1  0.81160000  0.87460000  0.09710000  1.0 0.4593542812
C  C61  1  0.00650000  0.33850000  0.42710000  1.0 0.3617795495
C  C62  1  0.33850000  0.00650000  0.07290000  1.0 0.3617795495
C  C63  1  0.99350000  0.66150000  0.57290000  1.0 0.3617795495
C  C64  1  0.66150000  0.99350000  0.92710000  1.0 0.3617795495
C  C65  1  0.96460000  0.36240000  0.48610000  1.0 0.4474565504
C  C66  1  0.36240000  0.96460000  0.01390000  1.0 0.4593542812
C  C67  1  0.03540000  0.63760000  0.51390000  1.0 0.4593542812
C  C68  1  0.63760000  0.03540000  0.98610000  1.0 0.4593542812
C  C69  1  0.06680000  0.06680000  0.25000000  1.0 0.1886526284
C  C70  1  0.93320000  0.93320000  0.75000000  1.0 0.1886526284
C  C71  1  0.00910000  0.00910000  0.25000000  1.0 0.3439485667
C  C72  1  0.99090000  0.99090000  0.75000000  1.0 0.3439485667
N  N1  1  0.07560000  0.93500000  0.54630000  1.0 -0.3610723328
N  N2  1  0.93500000  0.07560000  0.95370000  1.0 -0.3610723328
N  N3  1  0.92440000  0.06500000  0.45370000  1.0 -0.3610723328
N  N4  1  0.06500000  0.92440000  0.04630000  1.0 -0.3610723328
N  N5  1  0.31730000  0.30970000  0.71680000  1.0 -0.1528828591
N  N6  1  0.30970000  0.31730000  0.78320000  1.0 -0.1528828591
N  N7  1  0.68270000  0.69030000  0.28320000  1.0 -0.1528828591
N  N8  1  0.69030000  0.68270000  0.21680000  1.0 -0.1528828591
O  O1  1  0.32160000  0.13460000  0.59470000  1.0 -0.4887480723
O  O2  1  0.13460000  0.32160000  0.90530000  1.0 -0.4887480723
O  O3  1  0.67840000  0.86540000  0.40530000  1.0 -0.4887480723
O  O4  1  0.86540000  0.67840000  0.09470000  1.0 -0.4887480723
O  O5  1  0.28060000  0.02520000  0.56120000  1.0 -0.3867658588
O  O6  1  0.02520000  0.28060000  0.93880000  1.0 -0.3867658588
O  O7  1  0.71940000  0.97480000  0.43880000  1.0 -0.3867658588
O  O8  1  0.97480000  0.71940000  0.06120000  1.0 -0.3867658588
O  O9  1  0.50510000  0.24350000  0.44080000  1.0 -0.4175174422
O  O10  1  0.24350000  0.50510000  0.05920000  1.0 -0.4175174422
O  O11  1  0.49490000  0.75650000  0.55920000  1.0 -0.4175174422
O  O12  1  0.75650000  0.49490000  0.94080000  1.0 -0.4175174422
O  O13  1  0.43260000  0.24560000  0.53420000  1.0 -0.4371161567
O  O14  1  0.24560000  0.43260000  0.96580000  1.0 -0.4371161567
O  O15  1  0.56740000  0.75440000  0.46580000  1.0 -0.4371161567
O  O16  1  0.75440000  0.56740000  0.03420000  1.0 -0.4371161567
O  O17  1  0.35750000  0.38750000  0.33190000  1.0 -0.4754376473
O  O18  1  0.38750000  0.35750000  0.16810000  1.0 -0.4754376473
O  O19  1  0.64250000  0.61250000  0.66810000  1.0 -0.4754376473
O  O20  1  0.61250000  0.64250000  0.83190000  1.0 -0.4754376473
O  O21  1  0.30520000  0.34820000  0.44500000  1.0 -0.4371161567
O  O22  1  0.34820000  0.30520000  0.05500000  1.0 -0.4371161567
O  O23  1  0.69480000  0.65180000  0.55500000  1.0 -0.4371161567
O  O24  1  0.65180000  0.69480000  0.94500000  1.0 -0.4371161567
O  O25  1  0.53030000  0.20630000  0.26040000  1.0 -0.4175174422
O  O26  1  0.20630000  0.53030000  0.23960000  1.0 -0.4175174422
O  O27  1  0.46970000  0.79370000  0.73960000  1.0 -0.4175174422
O  O28  1  0.79370000  0.46970000  0.76040000  1.0 -0.4175174422
O  O29  1  0.19610000  0.47310000  0.37220000  1.0 -0.4325791882
O  O30  1  0.47310000  0.19610000  0.12780000  1.0 -0.4325791882
O  O31  1  0.80390000  0.52690000  0.62780000  1.0 -0.4325791882
O  O32  1  0.52690000  0.80390000  0.87220000  1.0 -0.4325791882
O  O33  1  0.93150000  0.21330000  0.22750000  1.0 -0.4116050782
O  O34  1  0.21330000  0.93150000  0.27250000  1.0 -0.4116050782
O  O35  1  0.06850000  0.78670000  0.77250000  1.0 -0.4116050782
O  O36  1  0.78670000  0.06850000  0.72750000  1.0 -0.4116050782
O  O37  1  0.22660000  0.93840000  0.40960000  1.0 -0.3997856115
O  O38  1  0.93840000  0.22660000  0.09040000  1.0 -0.3997856115
O  O39  1  0.77340000  0.06160000  0.59040000  1.0 -0.3997856115
O  O40  1  0.06160000  0.77340000  0.90960000  1.0 -0.3997856115
O  O41  1  0.13020000  0.15580000  0.46750000  1.0 -0.4175174422
O  O42  1  0.15580000  0.13020000  0.03250000  1.0 -0.4175174422
O  O43  1  0.86980000  0.84420000  0.53250000  1.0 -0.4175174422
O  O44  1  0.84420000  0.86980000  0.96750000  1.0 -0.4175174422
O  O45  1  0.19900000  0.24920000  0.50370000  1.0 -0.4371161567
O  O46  1  0.24920000  0.19900000  0.99630000  1.0 -0.4371161567
O  O47  1  0.80100000  0.75080000  0.49630000  1.0 -0.4371161567
O  O48  1  0.75080000  0.80100000  0.00370000  1.0 -0.4371161567
O  O49  1  0.97820000  0.29640000  0.38050000  1.0 -0.3997856115
O  O50  1  0.29640000  0.97820000  0.11950000  1.0 -0.3997856115
O  O51  1  0.02180000  0.70360000  0.61950000  1.0 -0.3997856115
O  O52  1  0.70360000  0.02180000  0.88050000  1.0 -0.3997856115
O  O53  1  0.07390000  0.36270000  0.43710000  1.0 -0.4371161567
O  O54  1  0.36270000  0.07390000  0.06290000  1.0 -0.4371161567
O  O55  1  0.92610000  0.63730000  0.56290000  1.0 -0.4371161567
O  O56  1  0.63730000  0.92610000  0.93710000  1.0 -0.4371161567
O  O57  1  0.09210000  0.08390000  0.32090000  1.0 -0.3997856115
O  O58  1  0.08390000  0.09210000  0.17910000  1.0 -0.3997856115
O  O59  1  0.90790000  0.91610000  0.67910000  1.0 -0.4116050782
O  O60  1  0.91610000  0.90790000  0.82090000  1.0 -0.3997856115
O  O61  1  0.18120000  0.43140000  0.54680000  1.0 0.2670311866
O  O62  1  0.43140000  0.18120000  0.95320000  1.0 0.2670311866
O  O63  1  0.81880000  0.56860000  0.45320000  1.0 0.2670311866
O  O64  1  0.56860000  0.81880000  0.04680000  1.0 0.2764499722
O  O65  1  0.48150000  0.18810000  0.79380000  1.0 0.167337024
O  O66  1  0.18810000  0.48150000  0.70620000  1.0 0.1763905597
O  O67  1  0.51850000  0.81190000  0.20620000  1.0 0.167337024
O  O68  1  0.81190000  0.51850000  0.29380000  1.0 0.1763905597
O  O69  1  0.35820000  0.86600000  0.58400000  1.0 -0.2181103068
O  O70  1  0.86600000  0.35820000  0.91600000  1.0 -0.2093125252
O  O71  1  0.64180000  0.13400000  0.41600000  1.0 -0.2093125252
O  O72  1  0.13400000  0.64180000  0.08400000  1.0 -0.2181103068
O  O73  1  0.17890000  0.68770000  0.71280000  1.0 -0.2497173237
O  O74  1  0.68770000  0.17890000  0.78720000  1.0 -0.2497173237
O  O75  1  0.82110000  0.31230000  0.28720000  1.0 -0.2497173237
O  O76  1  0.31230000  0.82110000  0.21280000  1.0 -0.2497173237
F  F1  1  0.33050000  0.07830000  0.75790000  1.0 -0.2004886629
F  F2  1  0.07830000  0.33050000  0.74210000  1.0 -0.2004886629
F  F3  1  0.66950000  0.92170000  0.24210000  1.0 -0.2004886629
F  F4  1  0.92170000  0.66950000  0.25790000  1.0 -0.2004886629
F  F5  1  0.36960000  0.98360000  0.72590000  1.0 -0.1528828591
F  F6  1  0.98360000  0.36960000  0.77410000  1.0 -0.1528828591
F  F7  1  0.63040000  0.01640000  0.27410000  1.0 -0.1528828591
F  F8  1  0.01640000  0.63040000  0.22590000  1.0 -0.1528828591
F  F9  1  0.25830000  0.99650000  0.72400000  1.0 -0.2004886629
F  F10  1  0.99650000  0.25830000  0.77600000  1.0 -0.2004886629
F  F11  1  0.74170000  0.00350000  0.27600000  1.0 -0.2004886629
F  F12  1  0.00350000  0.74170000  0.22400000  1.0 -0.2004886629
F  F13  1  0.54660000  0.29240000  0.63820000  1.0 -0.1886324476
F  F14  1  0.29240000  0.54660000  0.86180000  1.0 -0.1886324476
F  F15  1  0.45340000  0.70760000  0.36180000  1.0 -0.1886324476
F  F16  1  0.70760000  0.45340000  0.13820000  1.0 -0.1886324476
F  F17  1  0.58830000  0.34230000  0.52690000  1.0 -0.2004886629
F  F18  1  0.34230000  0.58830000  0.97310000  1.0 -0.2004886629
F  F19  1  0.41170000  0.65770000  0.47310000  1.0 -0.2004886629
F  F20  1  0.65770000  0.41170000  0.02690000  1.0 -0.2004886629
F  F21  1  0.61390000  0.23550000  0.58130000  1.0 -0.1417747873
F  F22  1  0.23550000  0.61390000  0.91870000  1.0 -0.1417747873
F  F23  1  0.38610000  0.76450000  0.41870000  1.0 -0.1417747873
F  F24  1  0.76450000  0.38610000  0.08130000  1.0 -0.1417747873
F  F25  1  0.46110000  0.43350000  0.47020000  1.0 -0.1886324476
F  F26  1  0.43350000  0.46110000  0.02980000  1.0 -0.1886324476
F  F27  1  0.53890000  0.56650000  0.52980000  1.0 -0.1886324476
F  F28  1  0.56650000  0.53890000  0.97020000  1.0 -0.1886324476
F  F29  1  0.36860000  0.45680000  0.51960000  1.0 -0.2004886629
F  F30  1  0.45680000  0.36860000  0.98040000  1.0 -0.2004886629
F  F31  1  0.63140000  0.54320000  0.48040000  1.0 -0.2004886629
F  F32  1  0.54320000  0.63140000  0.01960000  1.0 -0.2004886629
F  F33  1  0.38910000  0.51290000  0.40240000  1.0 -0.1886324476
F  F34  1  0.51290000  0.38910000  0.09760000  1.0 -0.1886324476
F  F35  1  0.61090000  0.48710000  0.59760000  1.0 -0.1886324476
F  F36  1  0.48710000  0.61090000  0.90240000  1.0 -0.1886324476
F  F37  1  0.64470000  0.15830000  0.17980000  1.0 -0.1800480547
F  F38  1  0.15830000  0.64470000  0.32020000  1.0 -0.1886324476
F  F39  1  0.35530000  0.84170000  0.82020000  1.0 -0.1886324476
F  F40  1  0.84170000  0.35530000  0.67980000  1.0 -0.1800480547
F  F41  1  0.59810000  0.22650000  0.06740000  1.0 -0.1886324476
F  F42  1  0.22650000  0.59810000  0.43260000  1.0 -0.1886324476
F  F43  1  0.40190000  0.77350000  0.93260000  1.0 -0.1886324476
F  F44  1  0.77350000  0.40190000  0.56740000  1.0 -0.1886324476
F  F45  1  0.64040000  0.27140000  0.17410000  1.0 -0.2093125252
F  F46  1  0.27140000  0.64040000  0.32590000  1.0 -0.2004886629
F  F47  1  0.35960000  0.72860000  0.82590000  1.0 -0.2093125252
F  F48  1  0.72860000  0.35960000  0.67410000  1.0 -0.2004886629
F  F49  1  0.82710000  0.11630000  0.09900000  1.0 -0.1886324476
F  F50  1  0.11630000  0.82710000  0.40100000  1.0 -0.1800480547
F  F51  1  0.17290000  0.88370000  0.90100000  1.0 -0.1886324476
F  F52  1  0.88370000  0.17290000  0.59900000  1.0 -0.1886324476
F  F53  1  0.78310000  0.21950000  0.08110000  1.0 -0.1694765525
F  F54  1  0.21950000  0.78310000  0.41890000  1.0 -0.1694765525
F  F55  1  0.21690000  0.78050000  0.91890000  1.0 -0.1694765525
F  F56  1  0.78050000  0.21690000  0.58110000  1.0 -0.1694765525
F  F57  1  0.79690000  0.15550000  0.19920000  1.0 -0.1886324476
F  F58  1  0.15550000  0.79690000  0.30080000  1.0 -0.1886324476
F  F59  1  0.20310000  0.84450000  0.80080000  1.0 -0.1886324476
F  F60  1  0.84450000  0.20310000  0.69920000  1.0 -0.1886324476
F  F61  1  0.14980000  0.23400000  0.65130000  1.0 -0.1886324476
F  F62  1  0.23400000  0.14980000  0.84870000  1.0 -0.1886324476
F  F63  1  0.85020000  0.76600000  0.34870000  1.0 -0.1886324476
F  F64  1  0.76600000  0.85020000  0.15130000  1.0 -0.1886324476
F  F65  1  0.13810000  0.12310000  0.64590000  1.0 -0.1800480547
F  F66  1  0.12310000  0.13810000  0.85410000  1.0 -0.1694765525
F  F67  1  0.86190000  0.87690000  0.35410000  1.0 -0.1694765525
F  F68  1  0.87690000  0.86190000  0.14590000  1.0 -0.1800480547
F  F69  1  0.05280000  0.19080000  0.59180000  1.0 -0.1694765525
F  F70  1  0.19080000  0.05280000  0.90820000  1.0 -0.1694765525
F  F71  1  0.94720000  0.80920000  0.40820000  1.0 -0.1694765525
F  F72  1  0.80920000  0.94720000  0.09180000  1.0 -0.1694765525
F  F73  1  0.92620000  0.42300000  0.45260000  1.0 -0.1694765525
F  F74  1  0.42300000  0.92620000  0.04740000  1.0 -0.1694765525
F  F75  1  0.07380000  0.57700000  0.54740000  1.0 -0.1694765525
F  F76  1  0.57700000  0.07380000  0.95260000  1.0 -0.1694765525
F  F77  1  0.99790000  0.38310000  0.55870000  1.0 -0.1800480547
F  F78  1  0.38310000  0.99790000  0.94130000  1.0 -0.1800480547
F  F79  1  0.00210000  0.61690000  0.44130000  1.0 -0.1800480547
F  F80  1  0.61690000  0.00210000  0.05870000  1.0 -0.1800480547
F  F81  1  0.91270000  0.31650000  0.51260000  1.0 -0.2093125252
F  F82  1  0.31650000  0.91270000  0.98740000  1.0 -0.2093125252
F  F83  1  0.08730000  0.68350000  0.48740000  1.0 -0.2093125252
F  F84  1  0.68350000  0.08730000  0.01260000  1.0 -0.2093125252
F  F85  1  0.95110000  0.02910000  0.19000000  1.0 0.0090611604
F  F86  1  0.02910000  0.95110000  0.31000000  1.0 0.0090611604
F  F87  1  0.04890000  0.97090000  0.81000000  1.0 0.0090611604
F  F88  1  0.97090000  0.04890000  0.69000000  1.0 0.0090611604
F  F89  1  0.97800000  0.98400000  0.31810000  1.0 0.1345094083
F  F90  1  0.98400000  0.97800000  0.18190000  1.0 0.1383546281
F  F91  1  0.02200000  0.01600000  0.68190000  1.0 0.1383546281
F  F92  1  0.01600000  0.02200000  0.81810000  1.0 0.1383546281
F  F93  1  0.02610000  0.94750000  0.22600000  1.0 0.0684577705
F  F94  1  0.94750000  0.02610000  0.27400000  1.0 0.0684577705
F  F95  1  0.97390000  0.05250000  0.77400000  1.0 0.0684577705
F  F96  1  0.05250000  0.97390000  0.72600000  1.0 0.0684577705
F  F97  1  0.93420000  0.50800000  0.11780000  1.0 -0.4371161567
F  F98  1  0.90550000  0.43970000  0.23870000  1.0 -0.3610723328
F  F99  1  0.02150000  0.44350000  0.21500000  1.0 -0.4536266686
F  F100  1  0.93560000  0.38440000  0.13450000  1.0 -0.4325791882
F  F101  1  0.50800000  0.93420000  0.38220000  1.0 -0.4371161567
F  F102  1  0.43970000  0.90550000  0.26130000  1.0 -0.3610723328
F  F103  1  0.44350000  0.02150000  0.28500000  1.0 -0.4562518658
F  F104  1  0.38440000  0.93560000  0.36550000  1.0 -0.4325791882
F  F105  1  0.06580000  0.49200000  0.88220000  1.0 -0.4371161567
F  F106  1  0.09450000  0.56030000  0.76130000  1.0 -0.3662379148
F  F107  1  0.97850000  0.55650000  0.78500000  1.0 -0.4536266686
F  F108  1  0.06440000  0.61560000  0.86550000  1.0 -0.4325791882
F  F109  1  0.49200000  0.06580000  0.61780000  1.0 -0.4371161567
F  F110  1  0.56030000  0.09450000  0.73870000  1.0 -0.3662379148
F  F111  1  0.55650000  0.97850000  0.71500000  1.0 -0.4536266686
F  F112  1  0.61560000  0.06440000  0.63450000  1.0 -0.4325791882
