# DDEC6 charges by PACMAN v1.1 (https://github.com/mtap-research/PACMAN-charge/)
data_QEZYUR_ASR_pacman
_symmetry_space_group_name_H-M   'P 1'
_cell_length_a   14.35510000
_cell_length_b   14.35510000
_cell_length_c   10.11320000
_cell_angle_alpha   90.00000000
_cell_angle_beta   90.00000000
_cell_angle_gamma   120.00000000
_symmetry_Int_Tables_number   1
_chemical_formula_structural   Sm3S7O29
_chemical_formula_sum   'Sm6 S14 O58'
_cell_volume   1804.81076250
_cell_formula_units_Z   2
loop_
 _symmetry_equiv_pos_site_id
 _symmetry_equiv_pos_as_xyz
  1  'x, y, z'
loop_
 _atom_site_type_symbol
 _atom_site_label
 _atom_site_symmetry_multiplicity
 _atom_site_fract_x
 _atom_site_fract_y
 _atom_site_fract_z
 _atom_site_occupancy
 _atom_site_charge
Sm  Sm1  1  0.85663000  0.44024000  0.90361000  1.0 2.0091662655
Sm  Sm2  1  0.55976000  0.41639000  0.90361000  1.0 2.0091662655
Sm  Sm3  1  0.58361000  0.14337000  0.90361000  1.0 2.0091662655
Sm  Sm4  1  0.44024000  0.85663000  0.40361000  1.0 2.0091662655
Sm  Sm5  1  0.41639000  0.55976000  0.40361000  1.0 2.0091662655
Sm  Sm6  1  0.14337000  0.58361000  0.40361000  1.0 2.0091662655
S  S1  1  0.80666000  0.66347000  0.94150000  1.0 1.2984915823
S  S2  1  0.33653000  0.14319000  0.94150000  1.0 1.3143124631
S  S3  1  0.85681000  0.19334000  0.94150000  1.0 1.3143124631
S  S4  1  0.66347000  0.80666000  0.44150000  1.0 1.2984915823
S  S5  1  0.14319000  0.33653000  0.44150000  1.0 1.3171857049
S  S6  1  0.19334000  0.85681000  0.44150000  1.0 1.2984915823
S  S7  1  0.99452000  0.51924000  0.15421000  1.0 1.4428512703
S  S8  1  0.48076000  0.47528000  0.15421000  1.0 1.4428512703
S  S9  1  0.52472000  0.00548000  0.15421000  1.0 1.4428512703
S  S10  1  0.51924000  0.99452000  0.65421000  1.0 1.4428512703
S  S11  1  0.47528000  0.48076000  0.65421000  1.0 1.4428512703
S  S12  1  0.00548000  0.52472000  0.65421000  1.0 1.4428512703
S  S13  1  0.66666667  0.33333333  0.69164000  1.0 1.4134232452
S  S14  1  0.33333333  0.66666667  0.19164000  1.0 1.4192082336
O  O1  1  0.83141000  0.70581000  0.80760000  1.0 -0.3290830205
O  O2  1  0.29419000  0.12560000  0.80760000  1.0 -0.3353865693
O  O3  1  0.87440000  0.16859000  0.80760000  1.0 -0.3290830205
O  O4  1  0.70581000  0.83141000  0.30760000  1.0 -0.3290830205
O  O5  1  0.12560000  0.29419000  0.30760000  1.0 -0.3290830205
O  O6  1  0.16859000  0.87440000  0.30760000  1.0 -0.3290830205
O  O7  1  0.85401000  0.59551000  0.97170000  1.0 -0.6819626341
O  O8  1  0.40449000  0.25850000  0.97170000  1.0 -0.6891254286
O  O9  1  0.74150000  0.14599000  0.97170000  1.0 -0.6891254286
O  O10  1  0.59551000  0.85401000  0.47170000  1.0 -0.6891254286
O  O11  1  0.25850000  0.40449000  0.47170000  1.0 -0.6891254286
O  O12  1  0.14599000  0.74150000  0.47170000  1.0 -0.6819626341
O  O13  1  0.84831000  0.75271000  0.03860000  1.0 -0.3680962498
O  O14  1  0.24729000  0.09560000  0.03860000  1.0 -0.3771797965
O  O15  1  0.90440000  0.15169000  0.03860000  1.0 -0.3771797965
O  O16  1  0.75271000  0.84831000  0.53860000  1.0 -0.3680962498
O  O17  1  0.09560000  0.24729000  0.53860000  1.0 -0.3680962498
O  O18  1  0.15169000  0.90440000  0.53860000  1.0 -0.3680962498
O  O19  1  0.68901000  0.59791000  0.95950000  1.0 -0.647702391
O  O20  1  0.40209000  0.09110000  0.95950000  1.0 -0.6438368509
O  O21  1  0.90890000  0.31099000  0.95950000  1.0 -0.6438368509
O  O22  1  0.59791000  0.68901000  0.45950000  1.0 -0.647702391
O  O23  1  0.09110000  0.40209000  0.45950000  1.0 -0.647702391
O  O24  1  0.31099000  0.90890000  0.45950000  1.0 -0.647702391
O  O25  1  0.03081000  0.54831000  0.01510000  1.0 -0.5816417287
O  O26  1  0.45169000  0.48250000  0.01510000  1.0 -0.5816417287
O  O27  1  0.51750000  0.96919000  0.01510000  1.0 -0.5816417287
O  O28  1  0.54831000  0.03081000  0.51510000  1.0 -0.5860944341
O  O29  1  0.48250000  0.45169000  0.51510000  1.0 -0.5816417287
O  O30  1  0.96919000  0.51750000  0.51510000  1.0 -0.5816417287
O  O31  1  0.87679000  0.45061000  0.14980000  1.0 -0.50919876
O  O32  1  0.54939000  0.42618000  0.14980000  1.0 -0.50919876
O  O33  1  0.57382000  0.12321000  0.14980000  1.0 -0.50919876
O  O34  1  0.45061000  0.87679000  0.64980000  1.0 -0.50919876
O  O35  1  0.42618000  0.54939000  0.64980000  1.0 -0.50919876
O  O36  1  0.12321000  0.57382000  0.64980000  1.0 -0.50919876
O  O37  1  0.02841000  0.61691000  0.23640000  1.0 -0.5498611778
O  O38  1  0.38309000  0.41150000  0.23640000  1.0 -0.5498611778
O  O39  1  0.58850000  0.97159000  0.23640000  1.0 -0.5498611778
O  O40  1  0.61691000  0.02841000  0.73640000  1.0 -0.5498611778
O  O41  1  0.41150000  0.38309000  0.73640000  1.0 -0.5498611778
O  O42  1  0.97159000  0.58850000  0.73640000  1.0 -0.5498611778
O  O43  1  0.04741000  0.46381000  0.21630000  1.0 -0.5619434664
O  O44  1  0.53619000  0.58360000  0.21630000  1.0 -0.5619434664
O  O45  1  0.41640000  0.95259000  0.21630000  1.0 -0.5619434664
O  O46  1  0.46381000  0.04741000  0.71630000  1.0 -0.5619434664
O  O47  1  0.58360000  0.53619000  0.71630000  1.0 -0.5619434664
O  O48  1  0.95259000  0.41640000  0.71630000  1.0 -0.5619434664
O  O49  1  0.72231000  0.44411000  0.74970000  1.0 -0.6633189867
O  O50  1  0.55589000  0.27820000  0.74970000  1.0 -0.6650535415
O  O51  1  0.72180000  0.27769000  0.74970000  1.0 -0.6650535415
O  O52  1  0.44411000  0.72231000  0.24970000  1.0 -0.6633189867
O  O53  1  0.27820000  0.55589000  0.24970000  1.0 -0.6633189867
O  O54  1  0.27769000  0.72180000  0.24970000  1.0 -0.6633189867
O  O55  1  0.66666667  0.33333333  0.54980000  1.0 -0.2404220949
O  O56  1  0.33333333  0.66666667  0.04980000  1.0 -0.2404220949
O  O57  1  0.66666667  0.33333333  0.99020000  1.0 -0.7475074181
O  O58  1  0.33333333  0.66666667  0.49020000  1.0 -0.7475074181
