# DDEC6 charges by PACMAN v1.1 (https://github.com/mtap-research/PACMAN-charge/)
data_QEZZOL_ASR_pacman
_symmetry_space_group_name_H-M   'P 1'
_cell_length_a   11.52840000
_cell_length_b   14.76100000
_cell_length_c   25.59300000
_cell_angle_alpha   90.00000000
_cell_angle_beta   90.00000000
_cell_angle_gamma   90.00000000
_symmetry_Int_Tables_number   1
_chemical_formula_structural   Cu3H8W2(C6N5)4
_chemical_formula_sum   'Cu12 H32 W8 C96 N80'
_cell_volume   4355.17904245
_cell_formula_units_Z   4
loop_
 _symmetry_equiv_pos_site_id
 _symmetry_equiv_pos_as_xyz
  1  'x, y, z'
loop_
 _atom_site_type_symbol
 _atom_site_label
 _atom_site_symmetry_multiplicity
 _atom_site_fract_x
 _atom_site_fract_y
 _atom_site_fract_z
 _atom_site_occupancy
 _atom_site_charge
Cu  Cu1  1  0.50000000  0.25000000  0.25000000  1.0 0.7603202672
Cu  Cu2  1  0.50000000  0.75000000  0.25000000  1.0 0.7603202672
Cu  Cu3  1  0.50000000  0.25000000  0.75000000  1.0 0.7603202672
Cu  Cu4  1  0.50000000  0.75000000  0.75000000  1.0 0.7603202672
Cu  Cu5  1  0.00000000  0.25000000  0.25000000  1.0 0.7690146328
Cu  Cu6  1  0.00000000  0.75000000  0.25000000  1.0 0.7690146328
Cu  Cu7  1  0.00000000  0.25000000  0.75000000  1.0 0.7690146328
Cu  Cu8  1  0.00000000  0.75000000  0.75000000  1.0 0.7690146328
Cu  Cu9  1  0.31494000  0.23596000  0.50000000  1.0 0.869790575
Cu  Cu10  1  0.68506000  0.73596000  0.00000000  1.0 0.869790575
Cu  Cu11  1  0.68506000  0.26404000  0.00000000  1.0 0.869790575
Cu  Cu12  1  0.31494000  0.76404000  0.50000000  1.0 0.869790575
H  H1  1  0.24990000  0.25080000  0.26540000  1.0 0.1178520234
H  H2  1  0.75010000  0.75080000  0.23460000  1.0 0.1178520234
H  H3  1  0.75010000  0.24920000  0.76540000  1.0 0.1178520234
H  H4  1  0.24990000  0.74920000  0.73460000  1.0 0.1178520234
H  H5  1  0.75010000  0.24920000  0.23460000  1.0 0.1178520234
H  H6  1  0.24990000  0.74920000  0.26540000  1.0 0.1178520234
H  H7  1  0.24990000  0.25080000  0.73460000  1.0 0.1178520234
H  H8  1  0.75010000  0.75080000  0.76540000  1.0 0.1178520234
H  H9  1  0.42190000  0.19650000  0.13810000  1.0 0.1335806808
H  H10  1  0.57810000  0.69650000  0.36190000  1.0 0.1335806808
H  H11  1  0.57810000  0.30350000  0.63810000  1.0 0.1335806808
H  H12  1  0.42190000  0.80350000  0.86190000  1.0 0.1335806808
H  H13  1  0.57810000  0.30350000  0.36190000  1.0 0.1335806808
H  H14  1  0.42190000  0.80350000  0.13810000  1.0 0.1335806808
H  H15  1  0.42190000  0.19650000  0.86190000  1.0 0.1335806808
H  H16  1  0.57810000  0.69650000  0.63810000  1.0 0.1335806808
H  H17  1  0.24880000  0.17150000  0.09560000  1.0 0.1687513502
H  H18  1  0.75120000  0.67150000  0.40440000  1.0 0.1687513502
H  H19  1  0.75120000  0.32850000  0.59560000  1.0 0.1687513502
H  H20  1  0.24880000  0.82850000  0.90440000  1.0 0.1687513502
H  H21  1  0.75120000  0.32850000  0.40440000  1.0 0.1687513502
H  H22  1  0.24880000  0.82850000  0.09560000  1.0 0.1687513502
H  H23  1  0.24880000  0.17150000  0.90440000  1.0 0.1687513502
H  H24  1  0.75120000  0.67150000  0.59560000  1.0 0.1687513502
H  H25  1  0.07810000  0.19440000  0.13980000  1.0 0.1369213076
H  H26  1  0.92190000  0.69440000  0.36020000  1.0 0.1369213076
H  H27  1  0.92190000  0.30560000  0.63980000  1.0 0.1369213076
H  H28  1  0.07810000  0.80560000  0.86020000  1.0 0.1369213076
H  H29  1  0.92190000  0.30560000  0.36020000  1.0 0.1369213076
H  H30  1  0.07810000  0.80560000  0.13980000  1.0 0.1369213076
H  H31  1  0.07810000  0.19440000  0.86020000  1.0 0.1369213076
H  H32  1  0.92190000  0.69440000  0.63980000  1.0 0.1369213076
W  W1  1  0.27670000  0.50000000  0.36056000  1.0 0.72669985
W  W2  1  0.72330000  0.00000000  0.13944000  1.0 0.72669985
W  W3  1  0.72330000  0.00000000  0.86056000  1.0 0.72669985
W  W4  1  0.27670000  0.50000000  0.63944000  1.0 0.72669985
W  W5  1  0.22739000  0.00000000  0.34949000  1.0 0.7133534016
W  W6  1  0.77261000  0.50000000  0.15051000  1.0 0.7133534016
W  W7  1  0.77261000  0.50000000  0.84949000  1.0 0.7133534016
W  W8  1  0.22739000  0.00000000  0.65051000  1.0 0.7133534016
C  C1  1  0.37400000  0.40710000  0.31090000  1.0 0.0425958666
C  C2  1  0.62600000  0.90710000  0.18910000  1.0 0.0425958666
C  C3  1  0.62600000  0.09290000  0.81090000  1.0 0.0425958666
C  C4  1  0.37400000  0.59290000  0.68910000  1.0 0.0425958666
C  C5  1  0.62600000  0.09290000  0.18910000  1.0 0.0425958666
C  C6  1  0.37400000  0.59290000  0.31090000  1.0 0.0425958666
C  C7  1  0.37400000  0.40710000  0.68910000  1.0 0.0425958666
C  C8  1  0.62600000  0.90710000  0.81090000  1.0 0.0425958666
C  C9  1  0.15900000  0.41100000  0.31870000  1.0 0.0242196643
C  C10  1  0.84100000  0.91100000  0.18130000  1.0 0.0242196643
C  C11  1  0.84100000  0.08900000  0.81870000  1.0 0.0242196643
C  C12  1  0.15900000  0.58900000  0.68130000  1.0 0.0242196643
C  C13  1  0.84100000  0.08900000  0.18130000  1.0 0.0242196643
C  C14  1  0.15900000  0.58900000  0.31870000  1.0 0.0242196643
C  C15  1  0.15900000  0.41100000  0.68130000  1.0 0.0242196643
C  C16  1  0.84100000  0.91100000  0.81870000  1.0 0.0242196643
C  C17  1  0.28960000  0.38840000  0.41550000  1.0 0.0630464466
C  C18  1  0.71040000  0.88840000  0.08450000  1.0 0.0630464466
C  C19  1  0.71040000  0.11160000  0.91550000  1.0 0.0630464466
C  C20  1  0.28960000  0.61160000  0.58450000  1.0 0.0630464466
C  C21  1  0.71040000  0.11160000  0.08450000  1.0 0.0630464466
C  C22  1  0.28960000  0.61160000  0.41550000  1.0 0.0630464466
C  C23  1  0.28960000  0.38840000  0.58450000  1.0 0.0630464466
C  C24  1  0.71040000  0.88840000  0.91550000  1.0 0.0630464466
C  C25  1  0.45290000  0.50000000  0.39120000  1.0 -0.05167878
C  C26  1  0.54710000  0.00000000  0.10880000  1.0 -0.05167878
C  C27  1  0.54710000  0.00000000  0.89120000  1.0 -0.05167878
C  C28  1  0.45290000  0.50000000  0.60880000  1.0 -0.05167878
C  C29  1  0.11470000  0.50000000  0.40320000  1.0 -0.0311703416
C  C30  1  0.88530000  0.00000000  0.09680000  1.0 -0.0311703416
C  C31  1  0.88530000  0.00000000  0.90320000  1.0 -0.0311703416
C  C32  1  0.11470000  0.50000000  0.59680000  1.0 -0.0311703416
C  C33  1  0.36330000  0.09430000  0.32640000  1.0 0.0117631979
C  C34  1  0.63670000  0.59430000  0.17360000  1.0 0.0117631979
C  C35  1  0.63670000  0.40570000  0.82640000  1.0 0.0117631979
C  C36  1  0.36330000  0.90570000  0.67360000  1.0 0.0117631979
C  C37  1  0.63670000  0.40570000  0.17360000  1.0 0.0117631979
C  C38  1  0.36330000  0.90570000  0.32640000  1.0 0.0117631979
C  C39  1  0.36330000  0.09430000  0.67360000  1.0 0.0117631979
C  C40  1  0.63670000  0.59430000  0.82640000  1.0 0.0117631979
C  C41  1  0.11640000  0.10790000  0.32250000  1.0 0.0495065255
C  C42  1  0.88360000  0.60790000  0.17750000  1.0 0.0495065255
C  C43  1  0.88360000  0.39210000  0.82250000  1.0 0.0495065255
C  C44  1  0.11640000  0.89210000  0.67750000  1.0 0.0495065255
C  C45  1  0.88360000  0.39210000  0.17750000  1.0 0.0495065255
C  C46  1  0.11640000  0.89210000  0.32250000  1.0 0.0495065255
C  C47  1  0.11640000  0.10790000  0.67750000  1.0 0.0495065255
C  C48  1  0.88360000  0.60790000  0.82250000  1.0 0.0495065255
C  C49  1  0.26510000  0.09220000  0.41310000  1.0 0.068063906
C  C50  1  0.73490000  0.59220000  0.08690000  1.0 0.068063906
C  C51  1  0.73490000  0.40780000  0.91310000  1.0 0.068063906
C  C52  1  0.26510000  0.90780000  0.58690000  1.0 0.068063906
C  C53  1  0.73490000  0.40780000  0.08690000  1.0 0.068063906
C  C54  1  0.26510000  0.90780000  0.41310000  1.0 0.068063906
C  C55  1  0.26510000  0.09220000  0.58690000  1.0 0.068063906
C  C56  1  0.73490000  0.59220000  0.91310000  1.0 0.068063906
C  C57  1  0.07470000  0.00000000  0.39920000  1.0 -0.0405414016
C  C58  1  0.92530000  0.50000000  0.10080000  1.0 -0.0405414016
C  C59  1  0.92530000  0.50000000  0.89920000  1.0 -0.0405414016
C  C60  1  0.07470000  0.00000000  0.60080000  1.0 -0.0405414016
C  C61  1  0.23250000  0.00000000  0.26410000  1.0 -0.0215787827
C  C62  1  0.76750000  0.50000000  0.23590000  1.0 -0.0215787827
C  C63  1  0.76750000  0.50000000  0.76410000  1.0 -0.0215787827
C  C64  1  0.23250000  0.00000000  0.73590000  1.0 -0.0215787827
C  C65  1  0.24980000  0.23610000  0.23010000  1.0 0.2345063747
C  C66  1  0.75020000  0.73610000  0.26990000  1.0 0.2345063747
C  C67  1  0.75020000  0.26390000  0.73010000  1.0 0.2345063747
C  C68  1  0.24980000  0.76390000  0.76990000  1.0 0.2345063747
C  C69  1  0.75020000  0.26390000  0.26990000  1.0 0.2345063747
C  C70  1  0.24980000  0.76390000  0.23010000  1.0 0.2345063747
C  C71  1  0.24980000  0.23610000  0.76990000  1.0 0.2345063747
C  C72  1  0.75020000  0.73610000  0.73010000  1.0 0.2345063747
C  C73  1  0.35230000  0.20350000  0.15600000  1.0 0.1335806808
C  C74  1  0.64770000  0.70350000  0.34400000  1.0 0.1335806808
C  C75  1  0.64770000  0.29650000  0.65600000  1.0 0.1335806808
C  C76  1  0.35230000  0.79650000  0.84400000  1.0 0.1335806808
C  C77  1  0.64770000  0.29650000  0.34400000  1.0 0.1335806808
C  C78  1  0.35230000  0.79650000  0.15600000  1.0 0.1335806808
C  C79  1  0.35230000  0.20350000  0.84400000  1.0 0.1335806808
C  C80  1  0.64770000  0.70350000  0.65600000  1.0 0.1335806808
C  C81  1  0.24960000  0.18940000  0.13040000  1.0 -0.1382309362
C  C82  1  0.75040000  0.68940000  0.36960000  1.0 -0.1382309362
C  C83  1  0.75040000  0.31060000  0.63040000  1.0 -0.1382309362
C  C84  1  0.24960000  0.81060000  0.86960000  1.0 -0.1382309362
C  C85  1  0.75040000  0.31060000  0.36960000  1.0 -0.1382309362
C  C86  1  0.24960000  0.81060000  0.13040000  1.0 -0.1382309362
C  C87  1  0.24960000  0.18940000  0.86960000  1.0 -0.1382309362
C  C88  1  0.75040000  0.68940000  0.63040000  1.0 -0.1382309362
C  C89  1  0.14810000  0.20230000  0.15730000  1.0 0.1335806808
C  C90  1  0.85190000  0.70230000  0.34270000  1.0 0.1335806808
C  C91  1  0.85190000  0.29770000  0.65730000  1.0 0.1335806808
C  C92  1  0.14810000  0.79770000  0.84270000  1.0 0.1335806808
C  C93  1  0.85190000  0.29770000  0.34270000  1.0 0.1335806808
C  C94  1  0.14810000  0.79770000  0.15730000  1.0 0.1335806808
C  C95  1  0.14810000  0.20230000  0.84270000  1.0 0.1335806808
C  C96  1  0.85190000  0.70230000  0.65730000  1.0 0.1335806808
N  N1  1  0.42320000  0.35370000  0.28800000  1.0 -0.3177174642
N  N2  1  0.57680000  0.85370000  0.21200000  1.0 -0.3177174642
N  N3  1  0.57680000  0.14630000  0.78800000  1.0 -0.3177174642
N  N4  1  0.42320000  0.64630000  0.71200000  1.0 -0.3177174642
N  N5  1  0.57680000  0.14630000  0.21200000  1.0 -0.3177174642
N  N6  1  0.42320000  0.64630000  0.28800000  1.0 -0.3177174642
N  N7  1  0.42320000  0.35370000  0.71200000  1.0 -0.3177174642
N  N8  1  0.57680000  0.85370000  0.78800000  1.0 -0.3177174642
N  N9  1  0.09790000  0.36420000  0.29670000  1.0 -0.3304052534
N  N10  1  0.90210000  0.86420000  0.20330000  1.0 -0.3304052534
N  N11  1  0.90210000  0.13580000  0.79670000  1.0 -0.3304052534
N  N12  1  0.09790000  0.63580000  0.70330000  1.0 -0.3304052534
N  N13  1  0.90210000  0.13580000  0.20330000  1.0 -0.3304052534
N  N14  1  0.09790000  0.63580000  0.29670000  1.0 -0.3304052534
N  N15  1  0.09790000  0.36420000  0.70330000  1.0 -0.3304052534
N  N16  1  0.90210000  0.86420000  0.79670000  1.0 -0.3304052534
N  N17  1  0.29820000  0.33050000  0.44580000  1.0 -0.3397680187
N  N18  1  0.70180000  0.83050000  0.05420000  1.0 -0.3397680187
N  N19  1  0.70180000  0.16950000  0.94580000  1.0 -0.3397680187
N  N20  1  0.29820000  0.66950000  0.55420000  1.0 -0.3397680187
N  N21  1  0.70180000  0.16950000  0.05420000  1.0 -0.3397680187
N  N22  1  0.29820000  0.66950000  0.44580000  1.0 -0.3397680187
N  N23  1  0.29820000  0.33050000  0.55420000  1.0 -0.3397680187
N  N24  1  0.70180000  0.83050000  0.94580000  1.0 -0.3397680187
N  N25  1  0.54530000  0.50000000  0.40840000  1.0 -0.2922297208
N  N26  1  0.45470000  0.00000000  0.09160000  1.0 -0.2922297208
N  N27  1  0.45470000  0.00000000  0.90840000  1.0 -0.2922297208
N  N28  1  0.54530000  0.50000000  0.59160000  1.0 -0.2922297208
N  N29  1  0.02790000  0.50000000  0.42600000  1.0 -0.2788993209
N  N30  1  0.97210000  0.00000000  0.07400000  1.0 -0.2788993209
N  N31  1  0.97210000  0.00000000  0.92600000  1.0 -0.2788993209
N  N32  1  0.02790000  0.50000000  0.57400000  1.0 -0.2788993209
N  N33  1  0.42960000  0.14760000  0.31340000  1.0 -0.3397680187
N  N34  1  0.57040000  0.64760000  0.18660000  1.0 -0.3397680187
N  N35  1  0.57040000  0.35240000  0.81340000  1.0 -0.3397680187
N  N36  1  0.42960000  0.85240000  0.68660000  1.0 -0.3397680187
N  N37  1  0.57040000  0.35240000  0.18660000  1.0 -0.3397680187
N  N38  1  0.42960000  0.85240000  0.31340000  1.0 -0.3397680187
N  N39  1  0.42960000  0.14760000  0.68660000  1.0 -0.3397680187
N  N40  1  0.57040000  0.64760000  0.81340000  1.0 -0.3397680187
N  N41  1  0.05820000  0.16380000  0.30400000  1.0 -0.3304052534
N  N42  1  0.94180000  0.66380000  0.19600000  1.0 -0.3304052534
N  N43  1  0.94180000  0.33620000  0.80400000  1.0 -0.3304052534
N  N44  1  0.05820000  0.83620000  0.69600000  1.0 -0.3304052534
N  N45  1  0.94180000  0.33620000  0.19600000  1.0 -0.3304052534
N  N46  1  0.05820000  0.83620000  0.30400000  1.0 -0.3304052534
N  N47  1  0.05820000  0.16380000  0.69600000  1.0 -0.3304052534
N  N48  1  0.94180000  0.66380000  0.80400000  1.0 -0.3304052534
N  N49  1  0.28440000  0.14280000  0.44580000  1.0 -0.3397680187
N  N50  1  0.71560000  0.64280000  0.05420000  1.0 -0.3397680187
N  N51  1  0.71560000  0.35720000  0.94580000  1.0 -0.3397680187
N  N52  1  0.28440000  0.85720000  0.55420000  1.0 -0.3397680187
N  N53  1  0.71560000  0.35720000  0.05420000  1.0 -0.3397680187
N  N54  1  0.28440000  0.85720000  0.44580000  1.0 -0.3397680187
N  N55  1  0.28440000  0.14280000  0.55420000  1.0 -0.3397680187
N  N56  1  0.71560000  0.64280000  0.94580000  1.0 -0.3397680187
N  N57  1  0.99420000  0.00000000  0.42670000  1.0 -0.2671644701
N  N58  1  0.00580000  0.50000000  0.07330000  1.0 -0.2671644701
N  N59  1  0.00580000  0.50000000  0.92670000  1.0 -0.2671644701
N  N60  1  0.99420000  0.00000000  0.57330000  1.0 -0.2671644701
N  N61  1  0.23390000  0.00000000  0.21960000  1.0 -0.2788993209
N  N62  1  0.76610000  0.50000000  0.28040000  1.0 -0.2788993209
N  N63  1  0.76610000  0.50000000  0.71960000  1.0 -0.2788993209
N  N64  1  0.23390000  0.00000000  0.78040000  1.0 -0.2788993209
N  N65  1  0.35380000  0.22760000  0.20730000  1.0 -0.2388666863
N  N66  1  0.64620000  0.72760000  0.29270000  1.0 -0.2388666863
N  N67  1  0.64620000  0.27240000  0.70730000  1.0 -0.2388666863
N  N68  1  0.35380000  0.77240000  0.79270000  1.0 -0.2388666863
N  N69  1  0.64620000  0.27240000  0.29270000  1.0 -0.2388666863
N  N70  1  0.35380000  0.77240000  0.20730000  1.0 -0.2388666863
N  N71  1  0.35380000  0.22760000  0.79270000  1.0 -0.2388666863
N  N72  1  0.64620000  0.72760000  0.70730000  1.0 -0.2388666863
N  N73  1  0.14620000  0.22590000  0.20770000  1.0 -0.2315473496
N  N74  1  0.85380000  0.72590000  0.29230000  1.0 -0.2315473496
N  N75  1  0.85380000  0.27410000  0.70770000  1.0 -0.2315473496
N  N76  1  0.14620000  0.77410000  0.79230000  1.0 -0.2315473496
N  N77  1  0.85380000  0.27410000  0.29230000  1.0 -0.2315473496
N  N78  1  0.14620000  0.77410000  0.20770000  1.0 -0.2315473496
N  N79  1  0.14620000  0.22590000  0.79230000  1.0 -0.2315473496
N  N80  1  0.85380000  0.72590000  0.70770000  1.0 -0.2315473496
