# DDEC6 charges by PACMAN v1.1 (https://github.com/mtap-research/PACMAN-charge/)
data_QEZZAY_ASR_pacman
_symmetry_space_group_name_H-M   'P 1'
_cell_length_a   14.32800000
_cell_length_b   14.32800000
_cell_length_c   10.09660000
_cell_angle_alpha   90.00000000
_cell_angle_beta   90.00000000
_cell_angle_gamma   120.00000000
_symmetry_Int_Tables_number   1
_chemical_formula_structural   Eu3S7O29
_chemical_formula_sum   'Eu6 S14 O58'
_cell_volume   1795.05156369
_cell_formula_units_Z   2
loop_
 _symmetry_equiv_pos_site_id
 _symmetry_equiv_pos_as_xyz
  1  'x, y, z'
loop_
 _atom_site_type_symbol
 _atom_site_label
 _atom_site_symmetry_multiplicity
 _atom_site_fract_x
 _atom_site_fract_y
 _atom_site_fract_z
 _atom_site_occupancy
 _atom_site_charge
Eu  Eu1  1  0.58407000  0.14347000  0.61308000  1.0 1.9471037201
Eu  Eu2  1  0.85653000  0.44060000  0.61308000  1.0 1.9443543565
Eu  Eu3  1  0.55940000  0.41593000  0.61308000  1.0 1.9443543565
Eu  Eu4  1  0.14347000  0.58407000  0.11308000  1.0 1.9471037201
Eu  Eu5  1  0.44060000  0.85653000  0.11308000  1.0 1.965647639
Eu  Eu6  1  0.41593000  0.55940000  0.11308000  1.0 1.9471037201
S  S1  1  0.33717000  0.14357000  0.57498000  1.0 1.30804214
S  S2  1  0.85643000  0.19360000  0.57498000  1.0 1.30804214
S  S3  1  0.80640000  0.66283000  0.57498000  1.0 1.30804214
S  S4  1  0.14357000  0.33717000  0.07498000  1.0 1.30804214
S  S5  1  0.19360000  0.85643000  0.07498000  1.0 1.3314047467
S  S6  1  0.66283000  0.80640000  0.07498000  1.0 1.3314047467
S  S7  1  0.52440000  0.00489000  0.36328000  1.0 1.4620522669
S  S8  1  0.99511000  0.51951000  0.36328000  1.0 1.4620522669
S  S9  1  0.48049000  0.47560000  0.36328000  1.0 1.4620522669
S  S10  1  0.00489000  0.52440000  0.86328000  1.0 1.4620522669
S  S11  1  0.51951000  0.99511000  0.86328000  1.0 1.4620522669
S  S12  1  0.47560000  0.48049000  0.86328000  1.0 1.4620522669
S  S13  1  0.66666667  0.33333333  0.82408000  1.0 1.4417670977
S  S14  1  0.33333333  0.66666667  0.32408000  1.0 1.4417670977
O  O1  1  0.57412000  0.12260000  0.36710000  1.0 -0.5086603352
O  O2  1  0.87740000  0.45152000  0.36710000  1.0 -0.5086603352
O  O3  1  0.54848000  0.42588000  0.36710000  1.0 -0.5086603352
O  O4  1  0.12260000  0.57412000  0.86710000  1.0 -0.5086603352
O  O5  1  0.45152000  0.87740000  0.86710000  1.0 -0.5086603352
O  O6  1  0.42588000  0.54848000  0.86710000  1.0 -0.5086603352
O  O7  1  0.41705000  0.95305000  0.30030000  1.0 -0.5659174311
O  O8  1  0.04695000  0.46400000  0.30030000  1.0 -0.563896476
O  O9  1  0.53600000  0.58295000  0.30030000  1.0 -0.563896476
O  O10  1  0.95305000  0.41705000  0.80030000  1.0 -0.5659174311
O  O11  1  0.46400000  0.04695000  0.80030000  1.0 -0.563896476
O  O12  1  0.58295000  0.53600000  0.80030000  1.0 -0.563896476
O  O13  1  0.51624000  0.96889000  0.50150000  1.0 -0.5795248835
O  O14  1  0.03111000  0.54735000  0.50150000  1.0 -0.5795248835
O  O15  1  0.45265000  0.48376000  0.50150000  1.0 -0.5795248835
O  O16  1  0.96889000  0.51624000  0.00150000  1.0 -0.5795248835
O  O17  1  0.54735000  0.03111000  0.00150000  1.0 -0.5795248835
O  O18  1  0.48376000  0.45265000  0.00150000  1.0 -0.5795248835
O  O19  1  0.58764000  0.97063000  0.28120000  1.0 -0.537979399
O  O20  1  0.02937000  0.61701000  0.28120000  1.0 -0.537979399
O  O21  1  0.38299000  0.41236000  0.28120000  1.0 -0.537979399
O  O22  1  0.97063000  0.58764000  0.78120000  1.0 -0.537979399
O  O23  1  0.61701000  0.02937000  0.78120000  1.0 -0.5343894947
O  O24  1  0.41236000  0.38299000  0.78120000  1.0 -0.537979399
O  O25  1  0.24741000  0.09469000  0.47920000  1.0 -0.3885916385
O  O26  1  0.90531000  0.15272000  0.47920000  1.0 -0.3885916385
O  O27  1  0.84728000  0.75259000  0.47920000  1.0 -0.3885916385
O  O28  1  0.09469000  0.24741000  0.97920000  1.0 -0.3885916385
O  O29  1  0.15272000  0.90531000  0.97920000  1.0 -0.3978967804
O  O30  1  0.75259000  0.84728000  0.97920000  1.0 -0.3978967804
O  O31  1  0.40360000  0.25905000  0.54530000  1.0 -0.6692389954
O  O32  1  0.74095000  0.14455000  0.54530000  1.0 -0.6766010313
O  O33  1  0.85545000  0.59640000  0.54530000  1.0 -0.6692389954
O  O34  1  0.25905000  0.40360000  0.04530000  1.0 -0.6692389954
O  O35  1  0.14455000  0.74095000  0.04530000  1.0 -0.6766010313
O  O36  1  0.59640000  0.85545000  0.04530000  1.0 -0.6766010313
O  O37  1  0.40363000  0.09230000  0.55650000  1.0 -0.6309766877
O  O38  1  0.90770000  0.31133000  0.55650000  1.0 -0.624242543
O  O39  1  0.68867000  0.59637000  0.55650000  1.0 -0.6309766877
O  O40  1  0.09230000  0.40363000  0.05650000  1.0 -0.6309766877
O  O41  1  0.31133000  0.90770000  0.05650000  1.0 -0.6309766877
O  O42  1  0.59637000  0.68867000  0.05650000  1.0 -0.6309766877
O  O43  1  0.29497000  0.12490000  0.70960000  1.0 -0.3274662721
O  O44  1  0.87510000  0.17007000  0.70960000  1.0 -0.3274662721
O  O45  1  0.82993000  0.70503000  0.70960000  1.0 -0.3274662721
O  O46  1  0.12490000  0.29497000  0.20960000  1.0 -0.3274662721
O  O47  1  0.17007000  0.87510000  0.20960000  1.0 -0.3274662721
O  O48  1  0.70503000  0.82993000  0.20960000  1.0 -0.3372317839
O  O49  1  0.72241000  0.44457000  0.76640000  1.0 -0.6645716417
O  O50  1  0.55543000  0.27784000  0.76640000  1.0 -0.6645716417
O  O51  1  0.72216000  0.27759000  0.76640000  1.0 -0.6645716417
O  O52  1  0.44457000  0.72241000  0.26640000  1.0 -0.6692389954
O  O53  1  0.27784000  0.55543000  0.26640000  1.0 -0.6645716417
O  O54  1  0.27759000  0.72216000  0.26640000  1.0 -0.6692389954
O  O55  1  0.66666667  0.33333333  0.96570000  1.0 -0.2452033151
O  O56  1  0.33333333  0.66666667  0.46570000  1.0 -0.2452033151
O  O57  1  0.66666667  0.33333333  0.52840000  1.0 -0.7385671425
O  O58  1  0.33333333  0.66666667  0.02840000  1.0 -0.7385671425
