# DDEC6 charges by PACMAN v1.1 (https://github.com/mtap-research/PACMAN-charge/)
data_QICBIR_FSR_pacman
_symmetry_space_group_name_H-M   'P 1'
_cell_length_a   11.62280000
_cell_length_b   15.29600000
_cell_length_c   14.55700000
_cell_angle_alpha   90.00000000
_cell_angle_beta   109.25400000
_cell_angle_gamma   90.00000000
_symmetry_Int_Tables_number   1
_chemical_formula_structural   ZnH18C18N4O5
_chemical_formula_sum   'Zn4 H72 C72 N16 O20'
_cell_volume   2443.22171300
_cell_formula_units_Z   4
loop_
 _symmetry_equiv_pos_site_id
 _symmetry_equiv_pos_as_xyz
  1  'x, y, z'
loop_
 _atom_site_type_symbol
 _atom_site_label
 _atom_site_symmetry_multiplicity
 _atom_site_fract_x
 _atom_site_fract_y
 _atom_site_fract_z
 _atom_site_occupancy
 _atom_site_charge
Zn  Zn1  1  0.92422000  0.91251000  0.16631000  1.0 0.7159562323
Zn  Zn2  1  0.92422000  0.58749000  0.66631000  1.0 0.7159562323
Zn  Zn3  1  0.07578000  0.41251000  0.33369000  1.0 0.7159562323
Zn  Zn4  1  0.07578000  0.08749000  0.83369000  1.0 0.7159562323
H  H1  1  0.32507000  0.22983000  0.40589000  1.0 0.2783156548
H  H2  1  0.32507000  0.27017000  0.90589000  1.0 0.2783156548
H  H3  1  0.42591000  0.32332000  0.51475000  1.0 0.1194932375
H  H4  1  0.42591000  0.17668000  0.01475000  1.0 0.1194932375
H  H5  1  0.69887000  0.52061000  0.70450000  1.0 0.1194932375
H  H6  1  0.69887000  0.97939000  0.20450000  1.0 0.1194932375
H  H7  1  0.54129000  0.42756000  0.64125000  1.0 0.1484711457
H  H8  1  0.54129000  0.07244000  0.14125000  1.0 0.1484711457
H  H9  1  0.99536000  0.08310000  0.27480000  1.0 0.1194932375
H  H10  1  0.99536000  0.41690000  0.77480000  1.0 0.1194932375
H  H11  1  0.15499000  0.17519000  0.33079000  1.0 0.1362816234
H  H12  1  0.15499000  0.32481000  0.83079000  1.0 0.1362816234
H  H13  1  0.17919000  0.92762000  0.16937000  1.0 0.1111197954
H  H14  1  0.17919000  0.57238000  0.66937000  1.0 0.1111197954
H  H15  1  0.03652000  0.77129000  0.93426000  1.0 0.0642732818
H  H16  1  0.03652000  0.72871000  0.43426000  1.0 0.0642732818
H  H17  1  0.34208000  0.01805000  0.21621000  1.0 0.1332507197
H  H18  1  0.34208000  0.48195000  0.71621000  1.0 0.1332507197
H  H19  1  0.67997000  0.36615000  0.43584000  1.0 0.1362816234
H  H20  1  0.67997000  0.13385000  0.93584000  1.0 0.1362816234
H  H21  1  0.84202000  0.45291000  0.51260000  1.0 0.1111197954
H  H22  1  0.84202000  0.04709000  0.01260000  1.0 0.1111197954
H  H23  1  0.68180000  0.74102000  0.87724000  1.0 0.1111197954
H  H24  1  0.68180000  0.75898000  0.37724000  1.0 0.1111197954
H  H25  1  0.74396000  0.66164000  0.84417000  1.0 0.1111197954
H  H26  1  0.74396000  0.83836000  0.34417000  1.0 0.1111197954
H  H27  1  0.73558000  0.66379000  0.94944000  1.0 0.1111197954
H  H28  1  0.73558000  0.83621000  0.44944000  1.0 0.1111197954
H  H29  1  0.80664000  0.71636000  0.90868000  1.0 0.0787647765
H  H30  1  0.80664000  0.78364000  0.40868000  1.0 0.0787647765
H  H31  1  0.15507000  0.73851000  0.97056000  1.0 0.1194932375
H  H32  1  0.15507000  0.76149000  0.47056000  1.0 0.1194932375
H  H33  1  0.11304000  0.81628000  0.89693000  1.0 0.1111197954
H  H34  1  0.11304000  0.68372000  0.39693000  1.0 0.1111197954
H  H35  1  0.09660000  0.82200000  0.99941000  1.0 0.0973306455
H  H36  1  0.09660000  0.67800000  0.49941000  1.0 0.0973306455
H  H37  1  0.67493000  0.72983000  0.09411000  1.0 0.2783156548
H  H38  1  0.67493000  0.77017000  0.59411000  1.0 0.2783156548
H  H39  1  0.57409000  0.82332000  0.98525000  1.0 0.1194932375
H  H40  1  0.57409000  0.67668000  0.48525000  1.0 0.1194932375
H  H41  1  0.30113000  0.02061000  0.79550000  1.0 0.1194932375
H  H42  1  0.30113000  0.47939000  0.29550000  1.0 0.1194932375
H  H43  1  0.45871000  0.92756000  0.85875000  1.0 0.1484711457
H  H44  1  0.45871000  0.57244000  0.35875000  1.0 0.1484711457
H  H45  1  0.00464000  0.58310000  0.22520000  1.0 0.1194932375
H  H46  1  0.00464000  0.91690000  0.72520000  1.0 0.1194932375
H  H47  1  0.84501000  0.67519000  0.16921000  1.0 0.1362816234
H  H48  1  0.84501000  0.82481000  0.66921000  1.0 0.1362816234
H  H49  1  0.82081000  0.42762000  0.33063000  1.0 0.1111197954
H  H50  1  0.82081000  0.07238000  0.83063000  1.0 0.1111197954
H  H51  1  0.96348000  0.27129000  0.56574000  1.0 0.0642732818
H  H52  1  0.96348000  0.22871000  0.06574000  1.0 0.0685061175
H  H53  1  0.65792000  0.51805000  0.28379000  1.0 0.1332507197
H  H54  1  0.65792000  0.98195000  0.78379000  1.0 0.1332507197
H  H55  1  0.32003000  0.86615000  0.06416000  1.0 0.1362816234
H  H56  1  0.32003000  0.63385000  0.56416000  1.0 0.1362816234
H  H57  1  0.15798000  0.95291000  0.98740000  1.0 0.1111197954
H  H58  1  0.15798000  0.54709000  0.48740000  1.0 0.1111197954
H  H59  1  0.31820000  0.24102000  0.62276000  1.0 0.1111197954
H  H60  1  0.31820000  0.25898000  0.12276000  1.0 0.1111197954
H  H61  1  0.25604000  0.16164000  0.65583000  1.0 0.1111197954
H  H62  1  0.25604000  0.33836000  0.15583000  1.0 0.1111197954
H  H63  1  0.26442000  0.16379000  0.55056000  1.0 0.1111197954
H  H64  1  0.26442000  0.33621000  0.05056000  1.0 0.1111197954
H  H65  1  0.19336000  0.21636000  0.59132000  1.0 0.0787647765
H  H66  1  0.19336000  0.28364000  0.09132000  1.0 0.0787647765
H  H67  1  0.84493000  0.23851000  0.52944000  1.0 0.1194932375
H  H68  1  0.84493000  0.26149000  0.02944000  1.0 0.1194932375
H  H69  1  0.88696000  0.31628000  0.60307000  1.0 0.1111197954
H  H70  1  0.88696000  0.18372000  0.10307000  1.0 0.1111197954
H  H71  1  0.90340000  0.32200000  0.50059000  1.0 0.0973306455
H  H72  1  0.90340000  0.17800000  0.00059000  1.0 0.0973306455
C  C1  1  0.88230000  0.80780000  0.02020000  1.0 0.5328870926
C  C2  1  0.88230000  0.69220000  0.52020000  1.0 0.5328870926
C  C3  1  0.58970000  0.38540000  0.53110000  1.0 0.1194932375
C  C4  1  0.58970000  0.11460000  0.03110000  1.0 0.1194932375
C  C5  1  0.27150000  0.10760000  0.28270000  1.0 0.0117283261
C  C6  1  0.27150000  0.39240000  0.78270000  1.0 0.0117283261
C  C7  1  0.48860000  0.32610000  0.48830000  1.0 -0.0139387591
C  C8  1  0.48860000  0.17390000  0.98830000  1.0 -0.0139387591
C  C9  1  0.69590000  0.48870000  0.64940000  1.0 0.0787647765
C  C10  1  0.69590000  0.01130000  0.14940000  1.0 0.0787647765
C  C11  1  0.87710000  0.74880000  0.93710000  1.0 -0.0736569773
C  C12  1  0.87710000  0.75120000  0.43710000  1.0 -0.0736569773
C  C13  1  0.37990000  0.16460000  0.31480000  1.0 0.4210913468
C  C14  1  0.37990000  0.33540000  0.81480000  1.0 0.4210913468
C  C15  1  0.60030000  0.43280000  0.61120000  1.0 -0.1900227528
C  C16  1  0.60030000  0.06720000  0.11120000  1.0 -0.1900227528
C  C17  1  0.95820000  0.68290000  0.81400000  1.0 0.5187982832
C  C18  1  0.95820000  0.81710000  0.31400000  1.0 0.5187982832
C  C19  1  0.06750000  0.06900000  0.26370000  1.0 0.0432600405
C  C20  1  0.06750000  0.43100000  0.76370000  1.0 0.0432600405
C  C21  1  0.16310000  0.12490000  0.29750000  1.0 -0.1814891484
C  C22  1  0.16310000  0.37510000  0.79750000  1.0 -0.1814891484
C  C23  1  0.17320000  0.97900000  0.20160000  1.0 0.0685061175
C  C24  1  0.17320000  0.52100000  0.70160000  1.0 0.0685061175
C  C25  1  0.96480000  0.74090000  0.90370000  1.0 -0.0444829
C  C26  1  0.96480000  0.75910000  0.40370000  1.0 -0.0444829
C  C27  1  0.27260000  0.03260000  0.23120000  1.0 -0.1720902409
C  C28  1  0.27260000  0.46740000  0.73120000  1.0 -0.1720902409
C  C29  1  0.68240000  0.39590000  0.49220000  1.0 -0.1900227528
C  C30  1  0.68240000  0.10410000  0.99220000  1.0 -0.1900227528
C  C31  1  0.77740000  0.45030000  0.53690000  1.0 0.0272813801
C  C32  1  0.77740000  0.04970000  0.03690000  1.0 0.0272813801
C  C33  1  0.74620000  0.69870000  0.89800000  1.0 -0.3118630733
C  C34  1  0.74620000  0.80130000  0.39800000  1.0 -0.3118630733
C  C35  1  0.09500000  0.78400000  0.94700000  1.0 -0.3238324981
C  C36  1  0.09500000  0.71600000  0.44700000  1.0 -0.3238324981
C  C37  1  0.11770000  0.30780000  0.47980000  1.0 0.5328870926
C  C38  1  0.11770000  0.19220000  0.97980000  1.0 0.5328870926
C  C39  1  0.41030000  0.88540000  0.96890000  1.0 0.1194932375
C  C40  1  0.41030000  0.61460000  0.46890000  1.0 0.1194932375
C  C41  1  0.72850000  0.60760000  0.21730000  1.0 0.0117283261
C  C42  1  0.72850000  0.89240000  0.71730000  1.0 0.0117283261
C  C43  1  0.51140000  0.82610000  0.01170000  1.0 -0.0139387591
C  C44  1  0.51140000  0.67390000  0.51170000  1.0 -0.0139387591
C  C45  1  0.30410000  0.98870000  0.85060000  1.0 0.0787647765
C  C46  1  0.30410000  0.51130000  0.35060000  1.0 0.0787647765
C  C47  1  0.12290000  0.24880000  0.56290000  1.0 -0.0736569773
C  C48  1  0.12290000  0.25120000  0.06290000  1.0 -0.0736569773
C  C49  1  0.62010000  0.66460000  0.18520000  1.0 0.4210913468
C  C50  1  0.62010000  0.83540000  0.68520000  1.0 0.4210913468
C  C51  1  0.39970000  0.93280000  0.88880000  1.0 -0.1900227528
C  C52  1  0.39970000  0.56720000  0.38880000  1.0 -0.1900227528
C  C53  1  0.04180000  0.18290000  0.68600000  1.0 0.5187982832
C  C54  1  0.04180000  0.31710000  0.18600000  1.0 0.5187982832
C  C55  1  0.93250000  0.56900000  0.23630000  1.0 0.0432600405
C  C56  1  0.93250000  0.93100000  0.73630000  1.0 0.0432600405
C  C57  1  0.83690000  0.62490000  0.20250000  1.0 -0.1814891484
C  C58  1  0.83690000  0.87510000  0.70250000  1.0 -0.1814891484
C  C59  1  0.82680000  0.47900000  0.29840000  1.0 0.0685061175
C  C60  1  0.82680000  0.02100000  0.79840000  1.0 0.0685061175
C  C61  1  0.03520000  0.24090000  0.59630000  1.0 -0.0444829
C  C62  1  0.03520000  0.25910000  0.09630000  1.0 -0.0444829
C  C63  1  0.72740000  0.53260000  0.26880000  1.0 -0.1720902409
C  C64  1  0.72740000  0.96740000  0.76880000  1.0 -0.1720902409
C  C65  1  0.31760000  0.89590000  0.00780000  1.0 -0.1900227528
C  C66  1  0.31760000  0.60410000  0.50780000  1.0 -0.1900227528
C  C67  1  0.22260000  0.95030000  0.96310000  1.0 0.0272813801
C  C68  1  0.22260000  0.54970000  0.46310000  1.0 0.0272813801
C  C69  1  0.25380000  0.19870000  0.60200000  1.0 -0.3118630733
C  C70  1  0.25380000  0.30130000  0.10200000  1.0 -0.3118630733
C  C71  1  0.90500000  0.28400000  0.55300000  1.0 -0.3238324981
C  C72  1  0.90500000  0.21600000  0.05300000  1.0 -0.3238324981
N  N1  1  0.07010000  0.99570000  0.21590000  1.0 -0.2154780637
N  N2  1  0.07010000  0.50430000  0.71590000  1.0 -0.2154780637
N  N3  1  0.78270000  0.49960000  0.61290000  1.0 -0.2266741183
N  N4  1  0.78270000  0.00040000  0.11290000  1.0 -0.2266741183
N  N5  1  0.38430000  0.22490000  0.38310000  1.0 -0.2370885547
N  N6  1  0.38430000  0.27510000  0.88310000  1.0 -0.2370885547
N  N7  1  0.48320000  0.27790000  0.41580000  1.0 -0.1318908718
N  N8  1  0.48320000  0.22210000  0.91580000  1.0 -0.1318908718
N  N9  1  0.92990000  0.49570000  0.28410000  1.0 -0.2154780637
N  N10  1  0.92990000  0.00430000  0.78410000  1.0 -0.2154780637
N  N11  1  0.21730000  0.99960000  0.88710000  1.0 -0.2266741183
N  N12  1  0.21730000  0.50040000  0.38710000  1.0 -0.2266741183
N  N13  1  0.61570000  0.72490000  0.11690000  1.0 -0.2370885547
N  N14  1  0.61570000  0.77510000  0.61690000  1.0 -0.2370885547
N  N15  1  0.51680000  0.77790000  0.08420000  1.0 -0.1318908718
N  N16  1  0.51680000  0.72210000  0.58420000  1.0 -0.1318908718
O  O1  1  0.96490000  0.86580000  0.04980000  1.0 -0.5105743911
O  O2  1  0.96490000  0.63420000  0.54980000  1.0 -0.5105743911
O  O3  1  0.80490000  0.79900000  0.06000000  1.0 -0.5105743911
O  O4  1  0.80490000  0.70100000  0.56000000  1.0 -0.5154948022
O  O5  1  0.88420000  0.62490000  0.78680000  1.0 -0.4802611109
O  O6  1  0.88420000  0.87510000  0.28680000  1.0 -0.4802611109
O  O7  1  0.45980000  0.15700000  0.27690000  1.0 -0.4585942115
O  O8  1  0.45980000  0.34300000  0.77690000  1.0 -0.4585942115
O  O9  1  0.02950000  0.69920000  0.77130000  1.0 -0.4802611109
O  O10  1  0.02950000  0.80080000  0.27130000  1.0 -0.4802611109
O  O11  1  0.03510000  0.36580000  0.45020000  1.0 -0.5105743911
O  O12  1  0.03510000  0.13420000  0.95020000  1.0 -0.5105743911
O  O13  1  0.19510000  0.29900000  0.44000000  1.0 -0.5154948022
O  O14  1  0.19510000  0.20100000  0.94000000  1.0 -0.5154948022
O  O15  1  0.11580000  0.12490000  0.71320000  1.0 -0.4802611109
O  O16  1  0.11580000  0.37510000  0.21320000  1.0 -0.4802611109
O  O17  1  0.54020000  0.65700000  0.22310000  1.0 -0.4585942115
O  O18  1  0.54020000  0.84300000  0.72310000  1.0 -0.4585942115
O  O19  1  0.97050000  0.19920000  0.72870000  1.0 -0.4802611109
O  O20  1  0.97050000  0.30080000  0.22870000  1.0 -0.4802611109
