# DDEC6 charges by PACMAN v1.1 (https://github.com/mtap-research/PACMAN-charge/)
data_QIDDAI01_ASR_pacman
_symmetry_space_group_name_H-M   'P 1'
_cell_length_a   13.04550000
_cell_length_b   13.04550000
_cell_length_c   16.68500000
_cell_angle_alpha   109.47100000
_cell_angle_beta   109.47100000
_cell_angle_gamma   93.70560000
_symmetry_Int_Tables_number   1
_chemical_formula_structural   Cd2H53C72(NF2)8
_chemical_formula_sum   'Cd2 H53 C72 N8 F16'
_cell_volume   2474.21978619
_cell_formula_units_Z   1
loop_
 _symmetry_equiv_pos_site_id
 _symmetry_equiv_pos_as_xyz
  1  'x, y, z'
loop_
 _atom_site_type_symbol
 _atom_site_label
 _atom_site_symmetry_multiplicity
 _atom_site_fract_x
 _atom_site_fract_y
 _atom_site_fract_z
 _atom_site_occupancy
 _atom_site_charge
Cd  Cd1  1  0.12249000  0.87751000  0.75000000  1.0 0.638370026
Cd  Cd2  1  0.87751000  0.12249000  0.25000000  1.0 0.6313313731
H  H1  1  0.36642000  0.83904000  0.73524000  1.0 0.0608695975
H  H2  1  0.02555000  0.70714000  0.53911000  1.0 0.0516710525
H  H3  1  0.43552000  0.73293000  0.60763000  1.0 0.1000336581
H  H4  1  0.09050000  0.59510000  0.41230000  1.0 0.1098362109
H  H5  1  0.33180000  0.65527000  0.39595000  1.0 0.1098362109
H  H6  1  0.23631000  0.52688000  0.37171000  1.0 0.1000336581
H  H7  1  0.40636000  0.58566000  0.53690000  1.0 0.08992195
H  H8  1  0.23336000  0.13656000  0.88219000  1.0 0.0516710525
H  H9  1  0.94394000  0.92540000  0.84996000  1.0 0.0667498187
H  H10  1  0.19511000  0.30600000  0.99228000  1.0 0.1098362109
H  H11  1  0.89930000  0.08988000  0.96391000  1.0 0.1000336581
H  H12  1  0.08683000  0.32915000  0.12609000  1.0 0.0831305954
H  H13  1  0.93515000  0.27634000  0.06056000  1.0 0.0831305954
H  H14  1  0.04852000  0.36428000  0.97421000  1.0 0.1000336581
H  H15  1  0.16096000  0.63358000  0.76476000  1.0 0.0608695975
H  H16  1  0.29286000  0.97445000  0.96089000  1.0 0.0608695975
H  H17  1  0.26707000  0.56448000  0.89237000  1.0 0.1000336581
H  H18  1  0.40490000  0.90950000  0.08770000  1.0 0.1098362109
H  H19  1  0.34473000  0.66820000  0.10405000  1.0 0.1098362109
H  H20  1  0.47312000  0.76369000  0.12829000  1.0 0.1000336581
H  H21  1  0.41434000  0.59364000  0.96310000  1.0 0.08992195
H  H22  1  0.86344000  0.76664000  0.61781000  1.0 0.0608695975
H  H23  1  0.07460000  0.05606000  0.65004000  1.0 0.0608695975
H  H24  1  0.69400000  0.80489000  0.50772000  1.0 0.1098362109
H  H25  1  0.91012000  0.10070000  0.53609000  1.0 0.1000336581
H  H26  1  0.67085000  0.91317000  0.37391000  1.0 0.08992195
H  H27  1  0.72366000  0.06485000  0.43944000  1.0 0.08992195
H  H28  1  0.63572000  0.95148000  0.52579000  1.0 0.1000336581
H  H29  1  0.63358000  0.16096000  0.26476000  1.0 0.0608695975
H  H30  1  0.97445000  0.29286000  0.46089000  1.0 0.0516710525
H  H31  1  0.56448000  0.26707000  0.39237000  1.0 0.1000336581
H  H32  1  0.90950000  0.40490000  0.58770000  1.0 0.1164234505
H  H33  1  0.76664000  0.86344000  0.11781000  1.0 0.0516710525
H  H34  1  0.05606000  0.07460000  0.15004000  1.0 0.0608695975
H  H35  1  0.80489000  0.69400000  0.00772000  1.0 0.1164234505
H  H36  1  0.10070000  0.91012000  0.03609000  1.0 0.1098362109
H  H37  1  0.83904000  0.36642000  0.23524000  1.0 0.0608695975
H  H38  1  0.70714000  0.02555000  0.03911000  1.0 0.0608695975
H  H39  1  0.73293000  0.43552000  0.10763000  1.0 0.1000336581
H  H40  1  0.59510000  0.09050000  0.91230000  1.0 0.1098362109
H  H41  1  0.52699000  0.23622000  0.87169000  1.0 0.1000336581
H  H42  1  0.65524000  0.33195000  0.89598000  1.0 0.1098362109
H  H43  1  0.58566000  0.40636000  0.03690000  1.0 0.08992195
H  H44  1  0.13656000  0.23336000  0.38219000  1.0 0.0516710525
H  H45  1  0.92540000  0.94394000  0.34996000  1.0 0.0608695975
H  H46  1  0.30600000  0.19511000  0.49228000  1.0 0.1098362109
H  H47  1  0.08988000  0.89930000  0.46391000  1.0 0.1000336581
H  H48  1  0.27628000  0.93519000  0.56058000  1.0 0.0831305954
H  H49  1  0.32923000  0.08684000  0.62609000  1.0 0.0831305954
H  H50  1  0.36428000  0.04852000  0.47421000  1.0 0.1000336581
H  H51  1  0.76378000  0.47301000  0.62831000  1.0 0.1000336581
H  H52  1  0.66805000  0.34476000  0.60402000  1.0 0.1098362109
H  H53  1  0.59364000  0.41434000  0.46310000  1.0 0.08992195
C  C1  1  0.30405000  0.78595000  0.66350000  1.0 0.08992195
C  C2  1  0.11790000  0.71110000  0.55400000  1.0 0.08992195
C  C3  1  0.34280000  0.72620000  0.59200000  1.0 -0.1910693756
C  C4  1  0.15410000  0.64990000  0.48300000  1.0 -0.2182918003
C  C5  1  0.27085000  0.66015000  0.50400000  1.0 0.1600597837
C  C6  1  0.30750000  0.59650000  0.42700000  1.0 -0.2182918003
C  C7  1  0.40715000  0.54685000  0.46500000  1.0 -0.0932257125
C  C8  1  0.51465000  0.60175000  0.49600000  1.0 0.0608695975
C  C9  1  0.60590000  0.55710000  0.53150000  1.0 0.08992195
C  C10  1  0.15770000  0.12830000  0.90100000  1.0 0.1000336581
C  C11  1  0.00025000  0.01075000  0.88250000  1.0 0.1000336581
C  C12  1  0.13685000  0.22215000  0.96250000  1.0 -0.2096783693
C  C13  1  0.97485000  0.10315000  0.94600000  1.0 -0.1910693756
C  C14  1  0.04105000  0.20695000  0.98500000  1.0 0.1460752079
C  C15  1  0.01705000  0.30395000  0.05600000  1.0 -0.2096783693
C  C16  1  0.00950000  0.40350000  0.02600000  1.0 -0.0831107757
C  C17  1  0.09355000  0.49945000  0.06800000  1.0 0.0667498187
C  C18  1  0.08280000  0.58920000  0.04400000  1.0 0.1332629063
C  C19  1  0.21405000  0.69595000  0.83650000  1.0 0.1000336581
C  C20  1  0.28890000  0.88210000  0.94600000  1.0 0.08992195
C  C21  1  0.27380000  0.65720000  0.90800000  1.0 -0.1796400906
C  C22  1  0.35010000  0.84590000  0.01700000  1.0 -0.2096783693
C  C23  1  0.33985000  0.72915000  0.99600000  1.0 0.1654779055
C  C24  1  0.40350000  0.69250000  0.07300000  1.0 -0.2182918003
C  C25  1  0.45315000  0.59285000  0.03500000  1.0 -0.0932257125
C  C26  1  0.39825000  0.48535000  0.00400000  1.0 0.0608695975
C  C27  1  0.44290000  0.39410000  0.96850000  1.0 0.0831305954
C  C28  1  0.87170000  0.84230000  0.59900000  1.0 0.1000336581
C  C29  1  0.98925000  0.99975000  0.61750000  1.0 0.08992195
C  C30  1  0.77785000  0.86315000  0.53750000  1.0 -0.2096783693
C  C31  1  0.89685000  0.02515000  0.55400000  1.0 -0.1967218182
C  C32  1  0.79305000  0.95895000  0.51500000  1.0 0.1421454773
C  C33  1  0.69605000  0.98295000  0.44400000  1.0 -0.2096783693
C  C34  1  0.59650000  0.99050000  0.47400000  1.0 -0.0932257125
C  C35  1  0.50055000  0.90645000  0.43200000  1.0 0.0831305954
C  C36  1  0.41080000  0.91720000  0.45600000  1.0 0.0608695975
C  C37  1  0.69595000  0.21405000  0.33650000  1.0 0.08992195
C  C38  1  0.88210000  0.28890000  0.44600000  1.0 0.08992195
C  C39  1  0.65720000  0.27380000  0.40800000  1.0 -0.1910693756
C  C40  1  0.84590000  0.35010000  0.51700000  1.0 -0.2182918003
C  C41  1  0.72915000  0.33985000  0.49600000  1.0 0.1600597837
C  C42  1  0.69250000  0.40350000  0.57300000  1.0 -0.2182918003
C  C43  1  0.59285000  0.45315000  0.53500000  1.0 -0.0932257125
C  C44  1  0.48535000  0.39825000  0.50400000  1.0 0.0608695975
C  C45  1  0.39410000  0.44290000  0.46850000  1.0 0.08992195
C  C46  1  0.84230000  0.87170000  0.09900000  1.0 0.1000336581
C  C47  1  0.99975000  0.98925000  0.11750000  1.0 0.08992195
C  C48  1  0.86315000  0.77785000  0.03750000  1.0 -0.1796400906
C  C49  1  0.02515000  0.89685000  0.05400000  1.0 -0.1796400906
C  C50  1  0.95895000  0.79305000  0.01500000  1.0 0.1421454773
C  C51  1  0.98295000  0.69605000  0.94400000  1.0 -0.3768079093
C  C52  1  0.99050000  0.59650000  0.97400000  1.0 -0.0955132729
C  C53  1  0.90645000  0.50055000  0.93200000  1.0 0.1421454773
C  C54  1  0.91720000  0.41080000  0.95600000  1.0 0.0516710525
C  C55  1  0.78595000  0.30405000  0.16350000  1.0 0.08992195
C  C56  1  0.71110000  0.11790000  0.05400000  1.0 0.08992195
C  C57  1  0.72620000  0.34280000  0.09200000  1.0 -0.1910693756
C  C58  1  0.64990000  0.15410000  0.98300000  1.0 -0.2182918003
C  C59  1  0.66015000  0.27085000  0.00400000  1.0 0.1600597837
C  C60  1  0.59650000  0.30750000  0.92700000  1.0 -0.2182918003
C  C61  1  0.54685000  0.40715000  0.96500000  1.0 -0.0932257125
C  C62  1  0.60175000  0.51465000  0.99600000  1.0 0.0831305954
C  C63  1  0.55710000  0.60590000  0.03150000  1.0 0.08992195
C  C64  1  0.12830000  0.15770000  0.40100000  1.0 0.1098362109
C  C65  1  0.01075000  0.00025000  0.38250000  1.0 0.08992195
C  C66  1  0.22215000  0.13685000  0.46250000  1.0 -0.2096783693
C  C67  1  0.10315000  0.97485000  0.44600000  1.0 -0.1967218182
C  C68  1  0.20695000  0.04105000  0.48500000  1.0 0.1421454773
C  C69  1  0.30395000  0.01705000  0.55600000  1.0 -0.2096783693
C  C70  1  0.40350000  0.00950000  0.52600000  1.0 -0.0932257125
C  C71  1  0.49945000  0.09355000  0.56800000  1.0 0.0831305954
C  C72  1  0.58920000  0.08280000  0.54400000  1.0 0.0608695975
N  N1  1  0.19140000  0.77440000  0.63950000  1.0 -0.2817620075
N  N2  1  0.09175000  0.02825000  0.86300000  1.0 -0.2705459556
N  N3  1  0.22560000  0.80860000  0.86050000  1.0 -0.2817620075
N  N4  1  0.97175000  0.90825000  0.63700000  1.0 -0.2705459556
N  N5  1  0.80860000  0.22560000  0.36050000  1.0 -0.2817620075
N  N6  1  0.90825000  0.97175000  0.13700000  1.0 -0.2705459556
N  N7  1  0.77440000  0.19140000  0.13950000  1.0 -0.2817620075
N  N8  1  0.02825000  0.09175000  0.36300000  1.0 -0.2705459556
F  F1  1  0.53495000  0.70475000  0.49360000  1.0 -0.1205872344
F  F2  1  0.70945000  0.61685000  0.55990000  1.0 -0.1337477303
F  F3  1  0.18595000  0.50415000  0.13845000  1.0 -0.1205872344
F  F4  1  0.16665000  0.68025000  0.08990000  1.0 -0.1089823967
F  F5  1  0.29525000  0.46505000  0.00640000  1.0 -0.1205872344
F  F6  1  0.38315000  0.29055000  0.94010000  1.0 -0.1359812877
F  F7  1  0.49585000  0.81405000  0.36155000  1.0 -0.1205872344
F  F8  1  0.31975000  0.83335000  0.41010000  1.0 -0.1089823967
F  F9  1  0.46505000  0.29525000  0.50640000  1.0 -0.1205872344
F  F10  1  0.29055000  0.38315000  0.44010000  1.0 -0.1359812877
F  F11  1  0.81405000  0.49585000  0.86155000  1.0 -0.1205872344
F  F12  1  0.83335000  0.31975000  0.91010000  1.0 -0.1089823967
F  F13  1  0.70475000  0.53495000  0.99360000  1.0 -0.1089823967
F  F14  1  0.61685000  0.70945000  0.05990000  1.0 -0.1337477303
F  F15  1  0.50415000  0.18595000  0.63845000  1.0 -0.1205872344
F  F16  1  0.68025000  0.16665000  0.58990000  1.0 -0.1089823967
