# DDEC6 charges by PACMAN v1.1 (https://github.com/mtap-research/PACMAN-charge/)
data_QIDDAI01_FSR_pacman
_symmetry_space_group_name_H-M   'P 1'
_cell_length_a   13.04550000
_cell_length_b   13.04550000
_cell_length_c   16.68500000
_cell_angle_alpha   70.52940000
_cell_angle_beta   109.47100000
_cell_angle_gamma   86.29440000
_symmetry_Int_Tables_number   1
_chemical_formula_structural   CdC36N6(O3F4)2
_chemical_formula_sum   'Cd2 C72 N12 O12 F16'
_cell_volume   2474.22739798
_cell_formula_units_Z   2
loop_
 _symmetry_equiv_pos_site_id
 _symmetry_equiv_pos_as_xyz
  1  'x, y, z'
loop_
 _atom_site_type_symbol
 _atom_site_label
 _atom_site_symmetry_multiplicity
 _atom_site_fract_x
 _atom_site_fract_y
 _atom_site_fract_z
 _atom_site_occupancy
 _atom_site_charge
Cd  Cd1  1  0.87751000  0.87751000  0.75000000  1.0 0.7963098902
Cd  Cd2  1  0.12249000  0.12249000  0.25000000  1.0 0.7963098902
C  C1  1  0.78595000  0.69595000  0.66350000  1.0 0.2538014967
C  C2  1  0.69595000  0.78595000  0.83650000  1.0 0.2538014967
C  C3  1  0.21405000  0.30405000  0.33650000  1.0 0.2621921916
C  C4  1  0.30405000  0.21405000  0.16350000  1.0 0.2621921916
C  C5  1  0.71110000  0.88210000  0.55400000  1.0 0.2621921916
C  C6  1  0.88210000  0.71110000  0.94600000  1.0 0.267452872
C  C7  1  0.28890000  0.11790000  0.44600000  1.0 0.2621921916
C  C8  1  0.11790000  0.28890000  0.05400000  1.0 0.2621921916
C  C9  1  0.72620000  0.65720000  0.59200000  1.0 -0.1165831265
C  C10  1  0.65720000  0.72620000  0.90800000  1.0 -0.1165831265
C  C11  1  0.27380000  0.34280000  0.40800000  1.0 -0.1165831265
C  C12  1  0.34280000  0.27380000  0.09200000  1.0 -0.1165831265
C  C13  1  0.64990000  0.84590000  0.48300000  1.0 -0.0729667227
C  C14  1  0.84590000  0.64990000  0.01700000  1.0 -0.0729667227
C  C15  1  0.35010000  0.15410000  0.51700000  1.0 -0.0729667227
C  C16  1  0.15410000  0.35010000  0.98300000  1.0 -0.0729667227
C  C17  1  0.66015000  0.72915000  0.50400000  1.0 0.1393912342
C  C18  1  0.72915000  0.66015000  0.99600000  1.0 0.1393912342
C  C19  1  0.33985000  0.27085000  0.49600000  1.0 0.1393912342
C  C20  1  0.27085000  0.33985000  0.00400000  1.0 0.1393912342
C  C21  1  0.59650000  0.69250000  0.42700000  1.0 0.0488367788
C  C22  1  0.69250000  0.59650000  0.07300000  1.0 0.0488367788
C  C23  1  0.40350000  0.30750000  0.57300000  1.0 0.0372363385
C  C24  1  0.30750000  0.40350000  0.92700000  1.0 0.0372363385
C  C25  1  0.54685000  0.59285000  0.46500000  1.0 -0.0800826493
C  C26  1  0.59285000  0.54685000  0.03500000  1.0 -0.0800826493
C  C27  1  0.45315000  0.40715000  0.53500000  1.0 -0.0800826493
C  C28  1  0.40715000  0.45315000  0.96500000  1.0 -0.0800826493
C  C29  1  0.60175000  0.48535000  0.49600000  1.0 0.1315475665
C  C30  1  0.48535000  0.60175000  0.00400000  1.0 0.1315475665
C  C31  1  0.39825000  0.51465000  0.50400000  1.0 0.1315475665
C  C32  1  0.51465000  0.39825000  0.99600000  1.0 0.1315475665
C  C33  1  0.55710000  0.39410000  0.53150000  1.0 0.1315475665
C  C34  1  0.39410000  0.55710000  0.96850000  1.0 0.1315475665
C  C35  1  0.44290000  0.60590000  0.46850000  1.0 0.1315475665
C  C36  1  0.60590000  0.44290000  0.03150000  1.0 0.1315475665
C  C37  1  0.12830000  0.84230000  0.90100000  1.0 0.267452872
C  C38  1  0.84230000  0.12830000  0.59900000  1.0 0.267452872
C  C39  1  0.87170000  0.15770000  0.09900000  1.0 0.267452872
C  C40  1  0.15770000  0.87170000  0.40100000  1.0 0.267452872
C  C41  1  0.01075000  0.99975000  0.88250000  1.0 0.267452872
C  C42  1  0.99975000  0.01075000  0.61750000  1.0 0.267452872
C  C43  1  0.98925000  0.00025000  0.11750000  1.0 0.2621921916
C  C44  1  0.00025000  0.98925000  0.38250000  1.0 0.2621921916
C  C45  1  0.22215000  0.86315000  0.96250000  1.0 -0.1274192407
C  C46  1  0.86315000  0.22215000  0.53750000  1.0 -0.1274192407
C  C47  1  0.77785000  0.13685000  0.03750000  1.0 -0.1274192407
C  C48  1  0.13685000  0.77785000  0.46250000  1.0 -0.1274192407
C  C49  1  0.10315000  0.02515000  0.94600000  1.0 -0.1527257394
C  C50  1  0.02515000  0.10315000  0.55400000  1.0 -0.1527257394
C  C51  1  0.89685000  0.97485000  0.05400000  1.0 -0.1527257394
C  C52  1  0.97485000  0.89685000  0.44600000  1.0 -0.1527257394
C  C53  1  0.20695000  0.95895000  0.98500000  1.0 0.1510762926
C  C54  1  0.95895000  0.20695000  0.51500000  1.0 0.1510762926
C  C55  1  0.79305000  0.04105000  0.01500000  1.0 0.1510762926
C  C56  1  0.04105000  0.79305000  0.48500000  1.0 0.1510762926
C  C57  1  0.30395000  0.98295000  0.05600000  1.0 -0.0429938156
C  C58  1  0.98295000  0.30395000  0.44400000  1.0 -0.0429938156
C  C59  1  0.69605000  0.01705000  0.94400000  1.0 -0.0519153252
C  C60  1  0.01705000  0.69605000  0.55600000  1.0 -0.0519153252
C  C61  1  0.40350000  0.99050000  0.02600000  1.0 -0.0729667227
C  C62  1  0.99050000  0.40350000  0.47400000  1.0 -0.0729667227
C  C63  1  0.59650000  0.00950000  0.97400000  1.0 -0.0729667227
C  C64  1  0.00950000  0.59650000  0.52600000  1.0 -0.0729667227
C  C65  1  0.49945000  0.90645000  0.06800000  1.0 0.1205785461
C  C66  1  0.90645000  0.49945000  0.43200000  1.0 0.1205785461
C  C67  1  0.50055000  0.09355000  0.93200000  1.0 0.1205785461
C  C68  1  0.09355000  0.50055000  0.56800000  1.0 0.1205785461
C  C69  1  0.58920000  0.91720000  0.04400000  1.0 0.1205785461
C  C70  1  0.91720000  0.58920000  0.45600000  1.0 0.1205785461
C  C71  1  0.41080000  0.08280000  0.95600000  1.0 0.1205785461
C  C72  1  0.08280000  0.41080000  0.54400000  1.0 0.1205785461
N  N1  1  0.77440000  0.80860000  0.63950000  1.0 -0.2025451045
N  N2  1  0.80860000  0.77440000  0.86050000  1.0 -0.2025451045
N  N3  1  0.22560000  0.19140000  0.36050000  1.0 -0.2025451045
N  N4  1  0.19140000  0.22560000  0.13950000  1.0 -0.2025451045
N  N5  1  0.02825000  0.90825000  0.86300000  1.0 -0.2200460452
N  N6  1  0.90825000  0.02825000  0.63700000  1.0 -0.2200460452
N  N7  1  0.97175000  0.09175000  0.13700000  1.0 -0.2200460452
N  N8  1  0.09175000  0.97175000  0.36300000  1.0 -0.2200460452
N  N9  1  0.66530000  0.04160000  0.71665000  1.0 0.689200731
N  N10  1  0.04160000  0.66530000  0.78335000  1.0 0.689200731
N  N11  1  0.33470000  0.95840000  0.28335000  1.0 0.689200731
N  N12  1  0.95840000  0.33470000  0.21665000  1.0 0.689200731
O  O1  1  0.76795000  0.02825000  0.76800000  1.0 -0.54131159
O  O2  1  0.02825000  0.76795000  0.73200000  1.0 -0.54131159
O  O3  1  0.23205000  0.97175000  0.23200000  1.0 -0.54131159
O  O4  1  0.97175000  0.23205000  0.26800000  1.0 -0.54131159
O  O5  1  0.64440000  0.00040000  0.65675000  1.0 -0.5074684824
O  O6  1  0.00040000  0.64440000  0.84325000  1.0 -0.5074684824
O  O7  1  0.35560000  0.99960000  0.34325000  1.0 -0.5074684824
O  O8  1  0.99960000  0.35560000  0.15675000  1.0 -0.5074684824
O  O9  1  0.59165000  0.09085000  0.72835000  1.0 -0.4004534961
O  O10  1  0.09085000  0.59165000  0.77165000  1.0 -0.4004534961
O  O11  1  0.40835000  0.90915000  0.27165000  1.0 -0.4004534961
O  O12  1  0.90915000  0.40835000  0.22835000  1.0 -0.4051719289
F  F1  1  0.70475000  0.46505000  0.49360000  1.0 -0.1102933539
F  F2  1  0.46505000  0.70475000  0.00640000  1.0 -0.1102933539
F  F3  1  0.29525000  0.53495000  0.50640000  1.0 -0.1102933539
F  F4  1  0.53495000  0.29525000  0.99360000  1.0 -0.1102933539
F  F5  1  0.61685000  0.29055000  0.55990000  1.0 -0.1102933539
F  F6  1  0.29055000  0.61685000  0.94010000  1.0 -0.1102933539
F  F7  1  0.38315000  0.70945000  0.44010000  1.0 -0.1102933539
F  F8  1  0.70945000  0.38315000  0.05990000  1.0 -0.1102933539
F  F9  1  0.50415000  0.81405000  0.13845000  1.0 -0.098518664
F  F10  1  0.81405000  0.50415000  0.36155000  1.0 -0.098518664
F  F11  1  0.49585000  0.18595000  0.86155000  1.0 -0.098518664
F  F12  1  0.18595000  0.49585000  0.63845000  1.0 -0.098518664
F  F13  1  0.68025000  0.83335000  0.08990000  1.0 -0.1165831265
F  F14  1  0.83335000  0.68025000  0.41010000  1.0 -0.1165831265
F  F15  1  0.31975000  0.16665000  0.91010000  1.0 -0.1165831265
F  F16  1  0.16665000  0.31975000  0.58990000  1.0 -0.1165831265
