# DDEC6 charges by PACMAN v1.1 (https://github.com/mtap-research/PACMAN-charge/)
data_QIDDAI_ASR_pacman
_symmetry_space_group_name_H-M   'P 1'
_cell_length_a   13.04550000
_cell_length_b   13.04550000
_cell_length_c   16.68500000
_cell_angle_alpha   70.52880000
_cell_angle_beta   109.47100000
_cell_angle_gamma   86.29440000
_symmetry_Int_Tables_number   1
_chemical_formula_structural   CdC36(NF2)4
_chemical_formula_sum   'Cd2 C72 N8 F16'
_cell_volume   2474.21598023
_cell_formula_units_Z   2
loop_
 _symmetry_equiv_pos_site_id
 _symmetry_equiv_pos_as_xyz
  1  'x, y, z'
loop_
 _atom_site_type_symbol
 _atom_site_label
 _atom_site_symmetry_multiplicity
 _atom_site_fract_x
 _atom_site_fract_y
 _atom_site_fract_z
 _atom_site_occupancy
 _atom_site_charge
Cd  Cd1  1  0.60301000  0.15201000  0.05980000  1.0 0.7552687024
Cd  Cd2  1  0.84799000  0.39699000  0.55980000  1.0 0.7552687024
C  C1  1  0.51440000  0.96640000  0.98100000  1.0 0.2763343846
C  C2  1  0.03360000  0.48560000  0.48100000  1.0 0.2763343846
C  C3  1  0.43250000  0.16650000  0.85700000  1.0 0.1628867681
C  C4  1  0.83350000  0.56750000  0.35700000  1.0 0.1628867681
C  C5  1  0.45510000  0.92910000  0.90800000  1.0 -0.2131122331
C  C6  1  0.07090000  0.54490000  0.40800000  1.0 -0.2131122331
C  C7  1  0.37380000  0.11980000  0.79400000  1.0 -0.1411339658
C  C8  1  0.88020000  0.62620000  0.29400000  1.0 -0.1411339658
C  C9  1  0.38990000  0.00190000  0.81400000  1.0 0.1708949526
C  C10  1  0.99810000  0.61010000  0.31400000  1.0 0.1708949526
C  C11  1  0.31070000  0.97470000  0.73200000  1.0 -0.0332933104
C  C12  1  0.02530000  0.68930000  0.23200000  1.0 -0.0332933104
C  C13  1  0.27720000  0.86120000  0.78500000  1.0 -0.1411339658
C  C14  1  0.13880000  0.72280000  0.28500000  1.0 -0.1411339658
C  C15  1  0.33320000  0.75240000  0.80800000  1.0 0.1937681084
C  C16  1  0.24760000  0.66680000  0.30800000  1.0 0.1937681084
C  C17  1  0.16870000  0.87870000  0.78200000  1.0 0.1628867681
C  C18  1  0.12130000  0.83130000  0.28200000  1.0 0.1628867681
C  C19  1  0.28290000  0.66690000  0.84500000  1.0 0.1020323579
C  C20  1  0.33310000  0.71710000  0.34500000  1.0 0.1020323579
C  C21  1  0.12970000  0.78170000  0.81600000  1.0 0.0933866037
C  C22  1  0.21830000  0.87030000  0.31600000  1.0 0.0933866037
C  C23  1  0.18350000  0.67550000  0.85500000  1.0 -0.0707507971
C  C24  1  0.32450000  0.81650000  0.35500000  1.0 -0.0707507971
C  C25  1  0.11770000  0.58970000  0.87800000  1.0 0.0470656698
C  C26  1  0.41030000  0.88230000  0.37800000  1.0 0.0470656698
C  C27  1  0.06960000  0.54360000  0.80600000  1.0 0.1155330037
C  C28  1  0.45640000  0.93040000  0.30600000  1.0 0.1155330037
C  C29  1  0.07400000  0.42800000  0.82800000  1.0 -0.1995814199
C  C30  1  0.57200000  0.92600000  0.32800000  1.0 -0.1995814199
C  C31  1  0.00270000  0.61470000  0.72400000  1.0 -0.1297357981
C  C32  1  0.38530000  0.99730000  0.22400000  1.0 -0.1297357981
C  C33  1  0.01030000  0.40230000  0.74900000  1.0 0.2231697832
C  C34  1  0.59770000  0.98970000  0.24900000  1.0 0.2231697832
C  C35  1  0.94250000  0.57450000  0.65400000  1.0 0.1341782903
C  C36  1  0.42550000  0.05750000  0.15400000  1.0 0.1341782903
C  C37  1  0.85350000  0.12550000  0.20800000  1.0 0.1708949526
C  C38  1  0.87450000  0.14650000  0.70800000  1.0 0.1708949526
C  C39  1  0.72700000  0.27300000  0.19400000  1.0 0.2065814157
C  C40  1  0.72700000  0.27300000  0.69400000  1.0 0.2065814157
C  C41  1  0.94200000  0.14400000  0.26300000  1.0 -0.1527356224
C  C42  1  0.85600000  0.05800000  0.76300000  1.0 -0.1527356224
C  C43  1  0.82140000  0.29740000  0.25800000  1.0 -0.1411339658
C  C44  1  0.70260000  0.17860000  0.75800000  1.0 -0.1411339658
C  C45  1  0.92600000  0.23600000  0.29200000  1.0 0.1628867681
C  C46  1  0.76400000  0.07400000  0.79200000  1.0 0.1628867681
C  C47  1  0.02370000  0.27170000  0.35800000  1.0 -0.1199833105
C  C48  1  0.72830000  0.97630000  0.85800000  1.0 -0.1199833105
C  C49  1  0.12870000  0.26870000  0.33100000  1.0 -0.062712185
C  C50  1  0.73130000  0.87130000  0.83100000  1.0 -0.062712185
C  C51  1  0.22050000  0.18650000  0.37500000  1.0 0.1072298681
C  C52  1  0.81350000  0.77950000  0.87500000  1.0 0.1072298681
C  C53  1  0.13700000  0.35900000  0.26300000  1.0 0.0751695131
C  C54  1  0.64100000  0.86300000  0.76300000  1.0 0.0751695131
C  C55  1  0.31540000  0.19340000  0.35100000  1.0 0.1708949526
C  C56  1  0.80660000  0.68460000  0.85100000  1.0 0.1708949526
C  C57  1  0.22160000  0.37360000  0.23900000  1.0 0.1708949526
C  C58  1  0.62640000  0.77840000  0.73900000  1.0 0.1708949526
C  C59  1  0.32170000  0.28770000  0.27900000  1.0 -0.1297357981
C  C60  1  0.71230000  0.67830000  0.77900000  1.0 -0.1297357981
C  C61  1  0.41580000  0.30580000  0.24600000  1.0 -0.1764449606
C  C62  1  0.69420000  0.58420000  0.74600000  1.0 -0.1764449606
C  C63  1  0.51210000  0.31810000  0.32200000  1.0 0.1363898014
C  C64  1  0.68190000  0.48790000  0.82200000  1.0 0.1363898014
C  C65  1  0.61510000  0.24710000  0.36600000  1.0 -0.163631698
C  C66  1  0.75290000  0.38490000  0.86600000  1.0 -0.163631698
C  C67  1  0.49770000  0.41770000  0.33800000  1.0 -0.1199833105
C  C68  1  0.58230000  0.50230000  0.83800000  1.0 -0.1199833105
C  C69  1  0.70550000  0.27350000  0.42900000  1.0 0.2065814157
C  C70  1  0.72650000  0.29450000  0.92900000  1.0 0.2065814157
C  C71  1  0.59690000  0.44090000  0.40600000  1.0 0.2438494657
C  C72  1  0.55910000  0.40310000  0.90600000  1.0 0.2438494657
N  N1  1  0.50510000  0.07530000  0.95100000  1.0 -0.2820927406
N  N2  1  0.92470000  0.49490000  0.45100000  1.0 -0.2820927406
N  N3  1  0.74960000  0.18360000  0.17400000  1.0 -0.2820927406
N  N4  1  0.81640000  0.25040000  0.67400000  1.0 -0.2820927406
N  N5  1  0.95630000  0.45810000  0.67200000  1.0 -0.2326770331
N  N6  1  0.54190000  0.04370000  0.17200000  1.0 -0.2326770331
N  N7  1  0.69310000  0.36710000  0.44800000  1.0 -0.301883241
N  N8  1  0.63290000  0.30690000  0.94800000  1.0 -0.301883241
F  F1  1  0.43000000  0.73940000  0.80720000  1.0 -0.1199833105
F  F2  1  0.26060000  0.57000000  0.30720000  1.0 -0.1199833105
F  F3  1  0.11070000  0.98510000  0.75370000  1.0 -0.1527356224
F  F4  1  0.01490000  0.88930000  0.25370000  1.0 -0.1527356224
F  F5  1  0.34440000  0.56620000  0.87350000  1.0 -0.1411339658
F  F6  1  0.43380000  0.65560000  0.37350000  1.0 -0.1411339658
F  F7  1  0.02050000  0.80930000  0.82000000  1.0 -0.0965671296
F  F8  1  0.19070000  0.97950000  0.32000000  1.0 -0.0965671296
F  F9  1  0.23580000  0.08540000  0.45310000  1.0 -0.1199833105
F  F10  1  0.91460000  0.76420000  0.95310000  1.0 -0.1199833105
F  F11  1  0.04430000  0.44130000  0.21950000  1.0 -0.1148079539
F  F12  1  0.55870000  0.95570000  0.71950000  1.0 -0.1148079539
F  F13  1  0.40480000  0.10800000  0.39930000  1.0 -0.1297357981
F  F14  1  0.89200000  0.59520000  0.89930000  1.0 -0.1297357981
F  F15  1  0.22750000  0.45730000  0.17620000  1.0 -0.1199833105
F  F16  1  0.54270000  0.77250000  0.67620000  1.0 -0.1199833105
