# DDEC6 charges by PACMAN v1.1 (https://github.com/mtap-research/PACMAN-charge/)
data_QIDPIF_FSR_pacman
_symmetry_space_group_name_H-M   'P 1'
_cell_length_a   13.45990000
_cell_length_b   14.30420000
_cell_length_c   16.35110000
_cell_angle_alpha   60.39620000
_cell_angle_beta   68.54090000
_cell_angle_gamma   68.41100000
_symmetry_Int_Tables_number   1
_chemical_formula_structural   Co3B40H104C86(NO5)4
_chemical_formula_sum   'Co3 B40 H104 C86 N4 O20'
_cell_volume   2478.31130613
_cell_formula_units_Z   1
loop_
 _symmetry_equiv_pos_site_id
 _symmetry_equiv_pos_as_xyz
  1  'x, y, z'
loop_
 _atom_site_type_symbol
 _atom_site_label
 _atom_site_symmetry_multiplicity
 _atom_site_fract_x
 _atom_site_fract_y
 _atom_site_fract_z
 _atom_site_occupancy
 _atom_site_charge
Co  Co1  1  0.44255000  0.82716000  0.93510000  1.0 0.9618833917
Co  Co2  1  0.55745000  0.17284000  0.06490000  1.0 0.9618833917
Co  Co3  1  0.50000000  0.00000000  0.00000000  1.0 1.0624646502
B  B1  1  0.69720000  0.43950000  0.60640000  1.0 -0.2011737866
B  B2  1  0.82870000  0.42560000  0.61060000  1.0 -0.1779951943
B  B3  1  0.83340000  0.54140000  0.61730000  1.0 -0.2095813663
B  B4  1  0.70180000  0.62790000  0.61570000  1.0 -0.1399908243
B  B5  1  0.61830000  0.56570000  0.60940000  1.0 -0.1708156285
B  B6  1  0.66930000  0.55070000  0.50130000  1.0 -0.1708156285
B  B7  1  0.80200000  0.46630000  0.50220000  1.0 -0.1625147778
B  B8  1  0.88480000  0.52700000  0.50840000  1.0 -0.0709622033
B  B9  1  0.80610000  0.65310000  0.50950000  1.0 -0.2196472628
B  B10  1  0.78480000  0.60600000  0.43920000  1.0 -0.1625147778
B  B11  1  0.55390000  0.57110000  0.54080000  1.0 -0.2011737866
B  B12  1  0.69240000  0.60140000  0.61060000  1.0 -0.1399908243
B  B13  1  0.71210000  0.39280000  0.63610000  1.0 -0.1912606587
B  B14  1  0.68110000  0.57520000  0.46020000  1.0 -0.1912606587
B  B15  1  0.78640000  0.48460000  0.61250000  1.0 -0.1625147778
B  B16  1  0.64580000  0.44780000  0.54110000  1.0 -0.2095813663
B  B17  1  0.56030000  0.58850000  0.63590000  1.0 -0.1399908243
B  B18  1  0.76700000  0.46020000  0.52540000  1.0 -0.2095813663
B  B19  1  0.76720000  0.59630000  0.50400000  1.0 -0.1625147778
B  B20  1  0.57340000  0.45640000  0.64990000  1.0 -0.1625147778
B  B21  1  0.30280000  0.56050000  0.39360000  1.0 -0.2011737866
B  B22  1  0.17130000  0.57440000  0.38940000  1.0 -0.1779951943
B  B23  1  0.16660000  0.45860000  0.38270000  1.0 -0.2095813663
B  B24  1  0.29820000  0.37210000  0.38430000  1.0 -0.1399908243
B  B25  1  0.38170000  0.43430000  0.39060000  1.0 -0.1708156285
B  B26  1  0.33070000  0.44930000  0.49870000  1.0 -0.1708156285
B  B27  1  0.19800000  0.53370000  0.49780000  1.0 -0.1625147778
B  B28  1  0.11520000  0.47300000  0.49160000  1.0 -0.0709622033
B  B29  1  0.19390000  0.34690000  0.49050000  1.0 -0.2196472628
B  B30  1  0.21520000  0.39400000  0.56080000  1.0 -0.1625147778
B  B31  1  0.44610000  0.42890000  0.45920000  1.0 -0.2011737866
B  B32  1  0.30760000  0.39860000  0.38940000  1.0 -0.1399908243
B  B33  1  0.28790000  0.60720000  0.36390000  1.0 -0.1912606587
B  B34  1  0.31890000  0.42480000  0.53980000  1.0 -0.1912606587
B  B35  1  0.21360000  0.51540000  0.38750000  1.0 -0.1625147778
B  B36  1  0.35420000  0.55220000  0.45890000  1.0 -0.2095813663
B  B37  1  0.43970000  0.41150000  0.36410000  1.0 -0.1399908243
B  B38  1  0.23300000  0.53980000  0.47460000  1.0 -0.2095813663
B  B39  1  0.23280000  0.40370000  0.49600000  1.0 -0.1625147778
B  B40  1  0.42660000  0.54360000  0.35010000  1.0 -0.1625147778
H  H1  1  0.66106000  0.36612000  0.63928000  1.0 -0.1467472581
H  H2  1  0.88048000  0.34223000  0.64717000  1.0 0.0594402977
H  H3  1  0.88776000  0.53760000  0.65735000  1.0 0.1997031569
H  H4  1  0.66829000  0.68318000  0.65448000  1.0 -0.0216799555
H  H5  1  0.52838000  0.57880000  0.64374000  1.0 -0.0802466748
H  H6  1  0.61390000  0.55362000  0.46258000  1.0 -0.1399908243
H  H7  1  0.83752000  0.41107000  0.46323000  1.0 0.0009145575
H  H8  1  0.97492000  0.51380000  0.47473000  1.0 0.0009145575
H  H9  1  0.84308000  0.72615000  0.47519000  1.0 0.1693492191
H  H10  1  0.80588000  0.64696000  0.35835000  1.0 0.0594402977
H  H11  1  0.72223000  0.87494000  0.68715000  1.0 0.1428886721
H  H12  1  0.82970000  0.94780000  0.53151000  1.0 0.1304292739
H  H13  1  0.77808000  0.22910000  0.55904000  1.0 0.2298446354
H  H14  1  0.67351000  0.15482000  0.71482000  1.0 0.2177391978
H  H15  1  0.96696000  0.01522000  0.40543000  1.0 0.1304292739
H  H16  1  0.95251000  0.28819000  0.15417000  1.0 0.1304292739
H  H17  1  0.76747000  0.30682000  0.40610000  1.0 0.2395038674
H  H18  1  0.00693000  0.93215000  0.29764000  1.0 0.1997031569
H  H19  1  0.13515000  0.83805000  0.20576000  1.0 0.2124216961
H  H20  1  0.25122000  0.11293000  0.02028000  1.0 0.1428886721
H  H21  1  0.12410000  0.20709000  0.11235000  1.0 0.1304292739
H  H22  1  0.81150000  0.41254000  0.09719000  1.0 0.1194228239
H  H23  1  0.70865000  0.58601000  0.01827000  1.0 0.1194228239
H  H24  1  0.66981000  0.66909000  0.23249000  1.0 0.2395038674
H  H25  1  0.77281000  0.49419000  0.31259000  1.0 0.268785234
H  H26  1  0.36903000  0.65499000  0.90909000  1.0 0.1194228239
H  H27  1  0.45099000  0.51634000  0.85575000  1.0 0.1891894724
H  H28  1  0.74620000  0.55585000  0.82358000  1.0 0.2298446354
H  H29  1  0.65689000  0.69827000  0.87244000  1.0 0.1194228239
H  H30  1  0.61529000  0.38647000  0.80928000  1.0 0.1997031569
H  H31  1  0.54815000  0.77022000  0.43461000  1.0 0.1891894724
H  H32  1  0.64222000  0.88303000  0.53939000  1.0 0.2177391978
H  H33  1  0.53479000  0.93980000  0.66071000  1.0 0.1194228239
H  H34  1  0.28234000  0.85914000  0.66769000  1.0 0.1194228239
H  H35  1  0.38326000  0.80457000  0.54365000  1.0 0.2503704386
H  H36  1  0.80513000  0.34564000  0.78240000  1.0 0.5087686138
H  H37  1  0.63177000  0.90333000  0.37548000  1.0 0.268785234
H  H38  1  0.34400000  0.90780000  0.79520000  1.0 0.3196309614
H  H39  1  0.27500000  0.87400000  0.88300000  1.0 0.34458458
H  H40  1  0.61600000  0.38147000  0.82648000  1.0 0.2298446354
H  H41  1  0.66378000  0.81268000  0.42385000  1.0 0.1510611581
H  H42  1  0.57648000  0.82363000  0.34296000  1.0 0.3196309614
H  H43  1  0.47607000  0.60232000  0.51577000  1.0 0.2395038674
H  H44  1  0.70722000  0.65471000  0.63510000  1.0 -0.0872626954
H  H45  1  0.74220000  0.30193000  0.67732000  1.0 -0.029313136
H  H46  1  0.69062000  0.60933000  0.38031000  1.0 0.0206888453
H  H47  1  0.86517000  0.45771000  0.63508000  1.0 -0.1467472581
H  H48  1  0.63006000  0.39583000  0.51572000  1.0 0.1891894724
H  H49  1  0.48611000  0.63014000  0.67622000  1.0 0.0206888453
H  H50  1  0.83595000  0.41042000  0.48884000  1.0 -0.0034809211
H  H51  1  0.83308000  0.64232000  0.45429000  1.0 -0.1625147778
H  H52  1  0.50924000  0.40811000  0.69974000  1.0 0.2395038674
H  H53  1  0.33894000  0.63388000  0.36072000  1.0 -0.1467472581
H  H54  1  0.11952000  0.65777000  0.35283000  1.0 0.0594402977
H  H55  1  0.11224000  0.46240000  0.34265000  1.0 0.1997031569
H  H56  1  0.33171000  0.31682000  0.34552000  1.0 -0.0216799555
H  H57  1  0.47162000  0.42120000  0.35626000  1.0 -0.0802466748
H  H58  1  0.38610000  0.44638000  0.53742000  1.0 -0.1399908243
H  H59  1  0.16248000  0.58893000  0.53677000  1.0 0.0009145575
H  H60  1  0.02508000  0.48620000  0.52527000  1.0 0.0009145575
H  H61  1  0.15692000  0.27385000  0.52481000  1.0 0.1693492191
H  H62  1  0.19412000  0.35304000  0.64165000  1.0 0.0594402977
H  H63  1  0.27777000  0.12506000  0.31285000  1.0 0.1428886721
H  H64  1  0.17030000  0.05220000  0.46849000  1.0 0.1304292739
H  H65  1  0.22192000  0.77090000  0.44096000  1.0 0.2298446354
H  H66  1  0.32649000  0.84518000  0.28518000  1.0 0.2177391978
H  H67  1  0.03304000  0.98478000  0.59457000  1.0 0.1304292739
H  H68  1  0.04749000  0.71181000  0.84583000  1.0 0.1304292739
H  H69  1  0.23253000  0.69318000  0.59390000  1.0 0.2395038674
H  H70  1  0.99307000  0.06785000  0.70236000  1.0 0.1891894724
H  H71  1  0.86485000  0.16195000  0.79424000  1.0 0.2124216961
H  H72  1  0.74878000  0.88707000  0.97972000  1.0 0.1428886721
H  H73  1  0.87590000  0.79291000  0.88765000  1.0 0.1304292739
H  H74  1  0.18850000  0.58746000  0.90281000  1.0 0.1194228239
H  H75  1  0.29135000  0.41399000  0.98173000  1.0 0.1194228239
H  H76  1  0.33019000  0.33091000  0.76751000  1.0 0.2395038674
H  H77  1  0.22719000  0.50581000  0.68741000  1.0 0.268785234
H  H78  1  0.63097000  0.34501000  0.09091000  1.0 0.1194228239
H  H79  1  0.54901000  0.48366000  0.14425000  1.0 0.1891894724
H  H80  1  0.25380000  0.44415000  0.17642000  1.0 0.2298446354
H  H81  1  0.34311000  0.30173000  0.12756000  1.0 0.1194228239
H  H82  1  0.38471000  0.61353000  0.19072000  1.0 0.1997031569
H  H83  1  0.45185000  0.22978000  0.56539000  1.0 0.1891894724
H  H84  1  0.35778000  0.11697000  0.46061000  1.0 0.2177391978
H  H85  1  0.46521000  0.06020000  0.33929000  1.0 0.1194228239
H  H86  1  0.71766000  0.14086000  0.33231000  1.0 0.1194228239
H  H87  1  0.61674000  0.19543000  0.45635000  1.0 0.2503704386
H  H88  1  0.19487000  0.65436000  0.21760000  1.0 0.4996792631
H  H89  1  0.36823000  0.09667000  0.62452000  1.0 0.268785234
H  H90  1  0.65600000  0.09220000  0.20480000  1.0 0.3196309614
H  H91  1  0.72500000  0.12600000  0.11700000  1.0 0.34458458
H  H92  1  0.38400000  0.61853000  0.17352000  1.0 0.2298446354
H  H93  1  0.33622000  0.18732000  0.57615000  1.0 0.1510611581
H  H94  1  0.42352000  0.17637000  0.65704000  1.0 0.3196309614
H  H95  1  0.52393000  0.39768000  0.48423000  1.0 0.2395038674
H  H96  1  0.29278000  0.34529000  0.36490000  1.0 -0.0802466748
H  H97  1  0.25780000  0.69807000  0.32268000  1.0 -0.029313136
H  H98  1  0.30938000  0.39067000  0.61969000  1.0 0.0206888453
H  H99  1  0.13483000  0.54229000  0.36492000  1.0 -0.1467472581
H  H100  1  0.36994000  0.60417000  0.48428000  1.0 0.1891894724
H  H101  1  0.51389000  0.36986000  0.32378000  1.0 0.0206888453
H  H102  1  0.16405000  0.58958000  0.51116000  1.0 -0.0034809211
H  H103  1  0.16692000  0.35768000  0.54571000  1.0 -0.1625147778
H  H104  1  0.49076000  0.59189000  0.30026000  1.0 0.2395038674
C  C1  1  0.60420000  0.96892000  0.80988000  1.0 0.589584853
C  C2  1  0.68330000  0.01055000  0.71435000  1.0 -0.0216799555
C  C3  1  0.73230000  0.94760000  0.66050000  1.0 -0.0709622033
C  C4  1  0.79580000  0.99140000  0.56760000  1.0 -0.1210509666
C  C5  1  0.81010000  0.09812000  0.52698000  1.0 0.0594402977
C  C6  1  0.76540000  0.15770000  0.58410000  1.0 -0.0872626954
C  C7  1  0.70310000  0.11350000  0.67680000  1.0 -0.0482578283
C  C8  1  0.85990000  0.15216000  0.42224000  1.0 0.0816910671
C  C9  1  0.93740000  0.09158000  0.37142000  1.0 -0.2011737866
C  C10  1  0.97210000  0.14169000  0.27141000  1.0 0.1027202427
C  C11  1  0.92880000  0.25375000  0.22245000  1.0 -0.2095813663
C  C12  1  0.85160000  0.31680000  0.27110000  1.0 0.1027202427
C  C13  1  0.81880000  0.26472000  0.37158000  1.0 -0.0872626954
C  C14  1  0.05280000  0.07923000  0.21467000  1.0 0.0594402977
C  C15  1  0.05690000  0.96900000  0.24160000  1.0 -0.1068369081
C  C16  1  0.13340000  0.91290000  0.18710000  1.0 -0.029313136
C  C17  1  0.20730000  0.96531000  0.10579000  1.0 -0.0079275682
C  C18  1  0.20230000  0.07580000  0.07730000  1.0 -0.0709622033
C  C19  1  0.12620000  0.13200000  0.13170000  1.0 -0.1399908243
C  C20  1  0.29470000  0.90613000  0.04887000  1.0 0.5749399023
C  C21  1  0.79760000  0.43260000  0.21680000  1.0 0.0594402977
C  C22  1  0.78060000  0.46340000  0.12630000  1.0 -0.1210509666
C  C23  1  0.71940000  0.56660000  0.07950000  1.0 -0.0802466748
C  C24  1  0.67300000  0.64320000  0.11990000  1.0 -0.0216799555
C  C25  1  0.69610000  0.61620000  0.20590000  1.0 -0.029313136
C  C26  1  0.75780000  0.51160000  0.25360000  1.0 -0.0709622033
C  C27  1  0.59320000  0.74719000  0.07191000  1.0 0.5963363307
C  C28  1  0.44680000  0.63630000  0.88970000  1.0 0.0594402977
C  C29  1  0.49520000  0.55300000  0.85840000  1.0 -0.1302147898
C  C30  1  0.60730000  0.52300000  0.83110000  1.0 0.1027202427
C  C31  1  0.66830000  0.57670000  0.83880000  1.0 -0.0872626954
C  C32  1  0.61430000  0.66050000  0.86910000  1.0 0.0594402977
C  C33  1  0.66380000  0.43560000  0.79130000  1.0 0.0472230031
C  C34  1  0.71700000  0.49120000  0.67160000  1.0 -0.0566974958
C  C35  1  0.67650000  0.66350000  0.50930000  1.0 -0.029313136
C  C36  1  0.59740000  0.78110000  0.46090000  1.0 0.1997031569
C  C37  1  0.52620000  0.83140000  0.53200000  1.0 0.0296595222
C  C38  1  0.56840000  0.87570000  0.56580000  1.0 -0.1210509666
C  C39  1  0.50390000  0.90950000  0.63800000  1.0 0.0433801333
C  C40  1  0.35710000  0.86330000  0.64170000  1.0 0.0472230031
C  C41  1  0.41720000  0.82940000  0.56870000  1.0 -0.1210509666
C  C42  1  0.63160000  0.65610000  0.52110000  1.0 -0.0079275682
C  C43  1  0.65970000  0.48370000  0.68720000  1.0 0.0120559947
C  C44  1  0.39580000  0.03108000  0.19012000  1.0 0.589584853
C  C45  1  0.31670000  0.98945000  0.28565000  1.0 -0.0216799555
C  C46  1  0.26770000  0.05240000  0.33950000  1.0 -0.0709622033
C  C47  1  0.20420000  0.00860000  0.43240000  1.0 -0.1210509666
C  C48  1  0.18990000  0.90188000  0.47302000  1.0 0.0594402977
C  C49  1  0.23460000  0.84230000  0.41590000  1.0 -0.0872626954
C  C50  1  0.29690000  0.88650000  0.32320000  1.0 -0.0482578283
C  C51  1  0.14010000  0.84784000  0.57776000  1.0 0.0816910671
C  C52  1  0.06260000  0.90842000  0.62858000  1.0 -0.2011737866
C  C53  1  0.02790000  0.85831000  0.72859000  1.0 0.1027202427
C  C54  1  0.07120000  0.74625000  0.77755000  1.0 -0.2095813663
C  C55  1  0.14840000  0.68320000  0.72890000  1.0 0.1027202427
C  C56  1  0.18120000  0.73528000  0.62842000  1.0 -0.0872626954
C  C57  1  0.94720000  0.92077000  0.78533000  1.0 0.0594402977
C  C58  1  0.94310000  0.03100000  0.75840000  1.0 -0.1068369081
C  C59  1  0.86660000  0.08710000  0.81290000  1.0 -0.029313136
C  C60  1  0.79270000  0.03469000  0.89421000  1.0 -0.0079275682
C  C61  1  0.79770000  0.92420000  0.92270000  1.0 -0.0709622033
C  C62  1  0.87380000  0.86800000  0.86830000  1.0 -0.1399908243
C  C63  1  0.70530000  0.09387000  0.95113000  1.0 0.5749399023
C  C64  1  0.20240000  0.56740000  0.78320000  1.0 0.0594402977
C  C65  1  0.21940000  0.53660000  0.87370000  1.0 -0.1210509666
C  C66  1  0.28060000  0.43340000  0.92050000  1.0 -0.0802466748
C  C67  1  0.32700000  0.35680000  0.88010000  1.0 -0.0216799555
C  C68  1  0.30390000  0.38380000  0.79410000  1.0 -0.029313136
C  C69  1  0.24220000  0.48840000  0.74640000  1.0 -0.0709622033
C  C70  1  0.40680000  0.25281000  0.92809000  1.0 0.5963363307
C  C71  1  0.55320000  0.36370000  0.11030000  1.0 0.0594402977
C  C72  1  0.50480000  0.44700000  0.14160000  1.0 -0.1302147898
C  C73  1  0.39270000  0.47700000  0.16890000  1.0 0.1027202427
C  C74  1  0.33170000  0.42330000  0.16120000  1.0 -0.0872626954
C  C75  1  0.38570000  0.33950000  0.13090000  1.0 0.0594402977
C  C76  1  0.33620000  0.56440000  0.20870000  1.0 0.0472230031
C  C77  1  0.28300000  0.50880000  0.32840000  1.0 -0.0566974958
C  C78  1  0.32350000  0.33650000  0.49070000  1.0 -0.029313136
C  C79  1  0.40260000  0.21890000  0.53910000  1.0 0.1997031569
C  C80  1  0.47380000  0.16860000  0.46800000  1.0 0.0296595222
C  C81  1  0.43160000  0.12430000  0.43420000  1.0 -0.1302147898
C  C82  1  0.49610000  0.09050000  0.36200000  1.0 0.0433801333
C  C83  1  0.64290000  0.13670000  0.35830000  1.0 0.0472230031
C  C84  1  0.58280000  0.17060000  0.43130000  1.0 -0.1210509666
C  C85  1  0.36840000  0.34390000  0.47890000  1.0 -0.0079275682
C  C86  1  0.34030000  0.51630000  0.31280000  1.0 0.0120559947
N  N1  1  0.50400000  0.69187000  0.89413000  1.0 -0.2696078462
N  N2  1  0.40020000  0.90170000  0.67730000  1.0 -0.2481867714
N  N3  1  0.49600000  0.30813000  0.10587000  1.0 -0.2696078462
N  N4  1  0.59980000  0.09830000  0.32270000  1.0 -0.2481867714
O  O1  1  0.56264000  0.89445000  0.82431000  1.0 -0.5741275393
O  O2  1  0.58441000  0.01251000  0.86592000  1.0 -0.5207634611
O  O3  1  0.32690000  0.90752000  0.85048000  1.0 -0.6319493694
O  O4  1  0.29066000  0.81676000  0.05557000  1.0 -0.5207634611
O  O5  1  0.37465000  0.95021000  0.98908000  1.0 -0.5741275393
O  O6  1  0.54002000  0.73534000  0.03001000  1.0 -0.5741275393
O  O7  1  0.58469000  0.83469000  0.07669000  1.0 -0.5567579312
O  O8  1  0.76380000  0.37560000  0.82000000  1.0 -0.4860611899
O  O9  1  0.66120000  0.83560000  0.39190000  1.0 -0.3756411714
O  O10  1  0.53910000  0.80070000  0.40000000  1.0 -0.3736497206
O  O11  1  0.43736000  0.10555000  0.17569000  1.0 -0.5741275393
O  O12  1  0.41559000  0.98749000  0.13408000  1.0 -0.5207634611
O  O13  1  0.67310000  0.09248000  0.14952000  1.0 -0.6319493694
O  O14  1  0.70934000  0.18324000  0.94443000  1.0 -0.5207634611
O  O15  1  0.62535000  0.04979000  0.01092000  1.0 -0.5741275393
O  O16  1  0.45998000  0.26466000  0.96999000  1.0 -0.5741275393
O  O17  1  0.41531000  0.16531000  0.92331000  1.0 -0.5567579312
O  O18  1  0.23620000  0.62440000  0.18000000  1.0 -0.4849352283
O  O19  1  0.33880000  0.16440000  0.60810000  1.0 -0.3756411714
O  O20  1  0.46090000  0.19930000  0.60000000  1.0 -0.3736497206
