# DDEC6 charges by PACMAN v1.1 (https://github.com/mtap-research/PACMAN-charge/)
data_QIFPUU_FSR_pacman
_symmetry_space_group_name_H-M   'P 1'
_cell_length_a   15.43950000
_cell_length_b   15.43950000
_cell_length_c   9.69240000
_cell_angle_alpha   90.00000000
_cell_angle_beta   90.00000000
_cell_angle_gamma   90.00000000
_symmetry_Int_Tables_number   1
_chemical_formula_structural   ZnH14C18N(O2F3)2
_chemical_formula_sum   'Zn4 H56 C72 N4 O16 F24'
_cell_volume   2310.45648041
_cell_formula_units_Z   4
loop_
 _symmetry_equiv_pos_site_id
 _symmetry_equiv_pos_as_xyz
  1  'x, y, z'
loop_
 _atom_site_type_symbol
 _atom_site_label
 _atom_site_symmetry_multiplicity
 _atom_site_fract_x
 _atom_site_fract_y
 _atom_site_fract_z
 _atom_site_occupancy
 _atom_site_charge
Zn  Zn1  1  0.00000000  0.50000000  0.34294000  1.0 0.7358821606
Zn  Zn2  1  0.50000000  0.00000000  0.65706000  1.0 0.7358821606
Zn  Zn3  1  0.00000000  0.50000000  0.65477000  1.0 0.720310626
Zn  Zn4  1  0.50000000  0.00000000  0.34523000  1.0 0.720310626
H  H1  1  0.26362000  0.61846000  0.61448000  1.0 0.1382212615
H  H2  1  0.73638000  0.38154000  0.61448000  1.0 0.1382212615
H  H3  1  0.11846000  0.23638000  0.61448000  1.0 0.1382212615
H  H4  1  0.88154000  0.76362000  0.61448000  1.0 0.1382212615
H  H5  1  0.23638000  0.88154000  0.38552000  1.0 0.1382212615
H  H6  1  0.76362000  0.11846000  0.38552000  1.0 0.1382212615
H  H7  1  0.38154000  0.26362000  0.38552000  1.0 0.1382212615
H  H8  1  0.61846000  0.73638000  0.38552000  1.0 0.1382212615
H  H9  1  0.10816000  0.57280000  0.88478000  1.0 0.0973726734
H  H10  1  0.89184000  0.42720000  0.88478000  1.0 0.0973726734
H  H11  1  0.07280000  0.39184000  0.88478000  1.0 0.0973726734
H  H12  1  0.92720000  0.60816000  0.88478000  1.0 0.0973726734
H  H13  1  0.39184000  0.92720000  0.11522000  1.0 0.0973726734
H  H14  1  0.60816000  0.07280000  0.11522000  1.0 0.0973726734
H  H15  1  0.42720000  0.10816000  0.11522000  1.0 0.0973726734
H  H16  1  0.57280000  0.89184000  0.11522000  1.0 0.0973726734
H  H17  1  0.11064000  0.56851000  0.10756000  1.0 0.112122354
H  H18  1  0.88936000  0.43149000  0.10756000  1.0 0.112122354
H  H19  1  0.06851000  0.38936000  0.10756000  1.0 0.112122354
H  H20  1  0.93149000  0.61064000  0.10756000  1.0 0.112122354
H  H21  1  0.38936000  0.93149000  0.89244000  1.0 0.112122354
H  H22  1  0.61064000  0.06851000  0.89244000  1.0 0.112122354
H  H23  1  0.43149000  0.11064000  0.89244000  1.0 0.112122354
H  H24  1  0.56851000  0.88936000  0.89244000  1.0 0.112122354
H  H25  1  0.02695000  0.62779000  0.11187000  1.0 0.0973726734
H  H26  1  0.97305000  0.37221000  0.11187000  1.0 0.0973726734
H  H27  1  0.12779000  0.47305000  0.11187000  1.0 0.0973726734
H  H28  1  0.87221000  0.52695000  0.11187000  1.0 0.0973726734
H  H29  1  0.47305000  0.87221000  0.88813000  1.0 0.0973726734
H  H30  1  0.52695000  0.12779000  0.88813000  1.0 0.0973726734
H  H31  1  0.37221000  0.02695000  0.88813000  1.0 0.0973726734
H  H32  1  0.62779000  0.97305000  0.88813000  1.0 0.0973726734
H  H33  1  0.02694000  0.62908000  0.88657000  1.0 0.112122354
H  H34  1  0.97306000  0.37092000  0.88657000  1.0 0.112122354
H  H35  1  0.12908000  0.47306000  0.88657000  1.0 0.112122354
H  H36  1  0.87092000  0.52694000  0.88657000  1.0 0.112122354
H  H37  1  0.47306000  0.87092000  0.11343000  1.0 0.112122354
H  H38  1  0.52694000  0.12908000  0.11343000  1.0 0.112122354
H  H39  1  0.37092000  0.02694000  0.11343000  1.0 0.112122354
H  H40  1  0.62908000  0.97306000  0.11343000  1.0 0.112122354
H  H41  1  0.02159000  0.62778000  0.88920000  1.0 0.112122354
H  H42  1  0.97841000  0.37222000  0.88920000  1.0 0.112122354
H  H43  1  0.12778000  0.47841000  0.88920000  1.0 0.112122354
H  H44  1  0.87222000  0.52159000  0.88920000  1.0 0.112122354
H  H45  1  0.47841000  0.87222000  0.11080000  1.0 0.112122354
H  H46  1  0.52159000  0.12778000  0.11080000  1.0 0.112122354
H  H47  1  0.37222000  0.02159000  0.11080000  1.0 0.112122354
H  H48  1  0.62778000  0.97841000  0.11080000  1.0 0.112122354
H  H49  1  0.92430000  0.60838000  0.11164000  1.0 0.112122354
H  H50  1  0.07570000  0.39162000  0.11164000  1.0 0.112122354
H  H51  1  0.10838000  0.57570000  0.11164000  1.0 0.112122354
H  H52  1  0.89162000  0.42430000  0.11164000  1.0 0.112122354
H  H53  1  0.57570000  0.89162000  0.88836000  1.0 0.112122354
H  H54  1  0.42430000  0.10838000  0.88836000  1.0 0.112122354
H  H55  1  0.39162000  0.92430000  0.88836000  1.0 0.112122354
H  H56  1  0.60838000  0.07570000  0.88836000  1.0 0.112122354
C  C1  1  0.18000000  0.69220000  0.49930000  1.0 0.0350278729
C  C2  1  0.82000000  0.30780000  0.49930000  1.0 0.0350278729
C  C3  1  0.19220000  0.32000000  0.49930000  1.0 0.0350278729
C  C4  1  0.80780000  0.68000000  0.49930000  1.0 0.0350278729
C  C5  1  0.32000000  0.80780000  0.50070000  1.0 0.0350278729
C  C6  1  0.68000000  0.19220000  0.50070000  1.0 0.0350278729
C  C7  1  0.30780000  0.18000000  0.50070000  1.0 0.0350278729
C  C8  1  0.69220000  0.82000000  0.50070000  1.0 0.0350278729
C  C9  1  0.32670000  0.73060000  0.56940000  1.0 -0.1080287242
C  C10  1  0.67330000  0.26940000  0.56940000  1.0 -0.1080287242
C  C11  1  0.23060000  0.17330000  0.56940000  1.0 -0.1080287242
C  C12  1  0.76940000  0.82670000  0.56940000  1.0 -0.1080287242
C  C13  1  0.17330000  0.76940000  0.43060000  1.0 -0.1080287242
C  C14  1  0.82670000  0.23060000  0.43060000  1.0 -0.1080287242
C  C15  1  0.26940000  0.32670000  0.43060000  1.0 -0.1080287242
C  C16  1  0.73060000  0.67330000  0.43060000  1.0 -0.1080287242
C  C17  1  0.11130000  0.62170000  0.49880000  1.0 0.5403776145
C  C18  1  0.88870000  0.37830000  0.49880000  1.0 0.5403776145
C  C19  1  0.12170000  0.38870000  0.49880000  1.0 0.5403776145
C  C20  1  0.87830000  0.61130000  0.49880000  1.0 0.5403776145
C  C21  1  0.38870000  0.87830000  0.50120000  1.0 0.5403776145
C  C22  1  0.61130000  0.12170000  0.50120000  1.0 0.5403776145
C  C23  1  0.37830000  0.11130000  0.50120000  1.0 0.5403776145
C  C24  1  0.62170000  0.88870000  0.50120000  1.0 0.5403776145
C  C25  1  0.25800000  0.67240000  0.56820000  1.0 -0.1336828494
C  C26  1  0.74200000  0.32760000  0.56820000  1.0 -0.1336828494
C  C27  1  0.17240000  0.24200000  0.56820000  1.0 -0.1336828494
C  C28  1  0.82760000  0.75800000  0.56820000  1.0 -0.1336828494
C  C29  1  0.24200000  0.82760000  0.43180000  1.0 -0.1336828494
C  C30  1  0.75800000  0.17240000  0.43180000  1.0 -0.1336828494
C  C31  1  0.32760000  0.25800000  0.43180000  1.0 -0.1336828494
C  C32  1  0.67240000  0.74200000  0.43180000  1.0 -0.1336828494
C  C33  1  0.40860000  0.70250000  0.64040000  1.0 0.6572322151
C  C34  1  0.59140000  0.29750000  0.64040000  1.0 0.6572322151
C  C35  1  0.20250000  0.09140000  0.64040000  1.0 0.6572322151
C  C36  1  0.79750000  0.90860000  0.64040000  1.0 0.6572322151
C  C37  1  0.09140000  0.79750000  0.35960000  1.0 0.6572322151
C  C38  1  0.90860000  0.20250000  0.35960000  1.0 0.6572322151
C  C39  1  0.29750000  0.40860000  0.35960000  1.0 0.6572322151
C  C40  1  0.70250000  0.59140000  0.35960000  1.0 0.6572322151
C  C41  1  0.04930000  0.57480000  0.91980000  1.0 -0.0685586658
C  C42  1  0.95070000  0.42520000  0.91980000  1.0 -0.0685586658
C  C43  1  0.07480000  0.45070000  0.91980000  1.0 -0.0685586658
C  C44  1  0.92520000  0.54930000  0.91980000  1.0 -0.0685586658
C  C45  1  0.45070000  0.92520000  0.08020000  1.0 -0.0685586658
C  C46  1  0.54930000  0.07480000  0.08020000  1.0 -0.0685586658
C  C47  1  0.42520000  0.04930000  0.08020000  1.0 -0.0685586658
C  C48  1  0.57480000  0.95070000  0.08020000  1.0 -0.0685586658
C  C49  1  0.05100000  0.57400000  0.07720000  1.0 -0.0685586658
C  C50  1  0.94900000  0.42600000  0.07720000  1.0 -0.0685586658
C  C51  1  0.07400000  0.44900000  0.07720000  1.0 -0.0685586658
C  C52  1  0.92600000  0.55100000  0.07720000  1.0 -0.0685586658
C  C53  1  0.44900000  0.92600000  0.92280000  1.0 -0.0685586658
C  C54  1  0.55100000  0.07400000  0.92280000  1.0 -0.0685586658
C  C55  1  0.42600000  0.05100000  0.92280000  1.0 -0.0685586658
C  C56  1  0.57400000  0.94900000  0.92280000  1.0 -0.0685586658
C  C57  1  0.98090000  0.59020000  0.07960000  1.0 -0.0685586658
C  C58  1  0.01910000  0.40980000  0.07960000  1.0 -0.0685586658
C  C59  1  0.09020000  0.51910000  0.07960000  1.0 -0.0685586658
C  C60  1  0.90980000  0.48090000  0.07960000  1.0 -0.0685586658
C  C61  1  0.51910000  0.90980000  0.92040000  1.0 -0.0685586658
C  C62  1  0.48090000  0.09020000  0.92040000  1.0 -0.0685586658
C  C63  1  0.40980000  0.98090000  0.92040000  1.0 -0.0685586658
C  C64  1  0.59020000  0.01910000  0.92040000  1.0 -0.0685586658
C  C65  1  0.98190000  0.59020000  0.91870000  1.0 -0.0685586658
C  C66  1  0.01810000  0.40980000  0.91870000  1.0 -0.0685586658
C  C67  1  0.09020000  0.51810000  0.91870000  1.0 -0.0685586658
C  C68  1  0.90980000  0.48190000  0.91870000  1.0 -0.0685586658
C  C69  1  0.51810000  0.90980000  0.08130000  1.0 -0.0685586658
C  C70  1  0.48190000  0.09020000  0.08130000  1.0 -0.0685586658
C  C71  1  0.40980000  0.98190000  0.08130000  1.0 -0.0685586658
C  C72  1  0.59020000  0.01810000  0.08130000  1.0 -0.0685586658
N  N1  1  0.00000000  0.50000000  0.13350000  1.0 -0.1196156019
N  N2  1  0.50000000  0.00000000  0.86650000  1.0 -0.1196156019
N  N3  1  0.00000000  0.50000000  0.86340000  1.0 -0.1080287242
N  N4  1  0.50000000  0.00000000  0.13660000  1.0 -0.1080287242
O  O1  1  0.09380000  0.58980000  0.61350000  1.0 -0.5280135596
O  O2  1  0.90620000  0.41020000  0.61350000  1.0 -0.5280135596
O  O3  1  0.08980000  0.40620000  0.61350000  1.0 -0.5280135596
O  O4  1  0.91020000  0.59380000  0.61350000  1.0 -0.5280135596
O  O5  1  0.40620000  0.91020000  0.38650000  1.0 -0.5280135596
O  O6  1  0.59380000  0.08980000  0.38650000  1.0 -0.5280135596
O  O7  1  0.41020000  0.09380000  0.38650000  1.0 -0.5280135596
O  O8  1  0.58980000  0.90620000  0.38650000  1.0 -0.5280135596
O  O9  1  0.08270000  0.59890000  0.38440000  1.0 -0.5241267035
O  O10  1  0.91730000  0.40110000  0.38440000  1.0 -0.5241267035
O  O11  1  0.09890000  0.41730000  0.38440000  1.0 -0.5241267035
O  O12  1  0.90110000  0.58270000  0.38440000  1.0 -0.5241267035
O  O13  1  0.41730000  0.90110000  0.61560000  1.0 -0.5241267035
O  O14  1  0.58270000  0.09890000  0.61560000  1.0 -0.5241267035
O  O15  1  0.40110000  0.08270000  0.61560000  1.0 -0.5241267035
O  O16  1  0.59890000  0.91730000  0.61560000  1.0 -0.5241267035
F  F1  1  0.41460000  0.61640000  0.64890000  1.0 -0.2094920451
F  F2  1  0.58540000  0.38360000  0.64890000  1.0 -0.2094920451
F  F3  1  0.11640000  0.08540000  0.64890000  1.0 -0.2094920451
F  F4  1  0.88360000  0.91460000  0.64890000  1.0 -0.2094920451
F  F5  1  0.08540000  0.88360000  0.35110000  1.0 -0.2094920451
F  F6  1  0.91460000  0.11640000  0.35110000  1.0 -0.2094920451
F  F7  1  0.38360000  0.41460000  0.35110000  1.0 -0.2094920451
F  F8  1  0.61640000  0.58540000  0.35110000  1.0 -0.2094920451
F  F9  1  0.47930000  0.72860000  0.57240000  1.0 -0.2292615907
F  F10  1  0.52070000  0.27140000  0.57240000  1.0 -0.2292615907
F  F11  1  0.22860000  0.02070000  0.57240000  1.0 -0.2292615907
F  F12  1  0.77140000  0.97930000  0.57240000  1.0 -0.2292615907
F  F13  1  0.02070000  0.77140000  0.42760000  1.0 -0.2292615907
F  F14  1  0.97930000  0.22860000  0.42760000  1.0 -0.2292615907
F  F15  1  0.27140000  0.47930000  0.42760000  1.0 -0.2292615907
F  F16  1  0.72860000  0.52070000  0.42760000  1.0 -0.2292615907
F  F17  1  0.41440000  0.73440000  0.76780000  1.0 -0.3143907064
F  F18  1  0.58560000  0.26560000  0.76780000  1.0 -0.3143907064
F  F19  1  0.23440000  0.08560000  0.76780000  1.0 -0.3143907064
F  F20  1  0.76560000  0.91440000  0.76780000  1.0 -0.3143907064
F  F21  1  0.08560000  0.76560000  0.23220000  1.0 -0.3143907064
F  F22  1  0.91440000  0.23440000  0.23220000  1.0 -0.3143907064
F  F23  1  0.26560000  0.41440000  0.23220000  1.0 -0.3143907064
F  F24  1  0.73440000  0.58560000  0.23220000  1.0 -0.3143907064
