# DDEC6 charges by PACMAN v1.1 (https://github.com/mtap-research/PACMAN-charge/)
data_QIFQIJ_ASR_pacman
_symmetry_space_group_name_H-M   'P 1'
_cell_length_a   15.42750000
_cell_length_b   15.42750000
_cell_length_c   9.63860000
_cell_angle_alpha   90.00000000
_cell_angle_beta   90.00000000
_cell_angle_gamma   90.00000000
_symmetry_Int_Tables_number   1
_chemical_formula_structural   ZnH2C18N(O2F3)2
_chemical_formula_sum   'Zn4 H8 C72 N4 O16 F24'
_cell_volume   2294.06155939
_cell_formula_units_Z   4
loop_
 _symmetry_equiv_pos_site_id
 _symmetry_equiv_pos_as_xyz
  1  'x, y, z'
loop_
 _atom_site_type_symbol
 _atom_site_label
 _atom_site_symmetry_multiplicity
 _atom_site_fract_x
 _atom_site_fract_y
 _atom_site_fract_z
 _atom_site_occupancy
 _atom_site_charge
Zn  Zn1  1  0.00000000  0.50000000  0.35180000  1.0 0.8078196013
Zn  Zn2  1  0.50000000  0.00000000  0.64820000  1.0 0.8078196013
Zn  Zn3  1  0.00000000  0.50000000  0.66111000  1.0 0.8380077744
Zn  Zn4  1  0.50000000  0.00000000  0.33889000  1.0 0.8380077744
H  H1  1  0.26485000  0.61874000  0.38438000  1.0 0.1351630913
H  H2  1  0.11874000  0.23515000  0.38438000  1.0 0.1351630913
H  H3  1  0.88126000  0.76485000  0.38438000  1.0 0.1351630913
H  H4  1  0.73515000  0.38126000  0.38438000  1.0 0.1351630913
H  H5  1  0.23515000  0.88126000  0.61562000  1.0 0.1351630913
H  H6  1  0.38126000  0.26485000  0.61562000  1.0 0.1351630913
H  H7  1  0.61874000  0.73515000  0.61562000  1.0 0.1351630913
H  H8  1  0.76485000  0.11874000  0.61562000  1.0 0.1351630913
C  C1  1  0.07440000  0.55090000  0.08600000  1.0 0.0284606344
C  C2  1  0.05090000  0.42560000  0.08600000  1.0 0.0284606344
C  C3  1  0.94910000  0.57440000  0.08600000  1.0 0.0284606344
C  C4  1  0.92560000  0.44910000  0.08600000  1.0 0.0284606344
C  C5  1  0.42560000  0.94910000  0.91400000  1.0 0.0284606344
C  C6  1  0.44910000  0.07440000  0.91400000  1.0 0.0284606344
C  C7  1  0.55090000  0.92560000  0.91400000  1.0 0.0284606344
C  C8  1  0.57440000  0.05090000  0.91400000  1.0 0.0284606344
C  C9  1  0.08820000  0.51740000  0.92560000  1.0 0.0372681333
C  C10  1  0.01740000  0.41180000  0.92560000  1.0 0.0372681333
C  C11  1  0.98260000  0.58820000  0.92560000  1.0 0.0372681333
C  C12  1  0.91180000  0.48260000  0.92560000  1.0 0.0372681333
C  C13  1  0.41180000  0.98260000  0.07440000  1.0 0.0372681333
C  C14  1  0.48260000  0.08820000  0.07440000  1.0 0.0372681333
C  C15  1  0.51740000  0.91180000  0.07440000  1.0 0.0372681333
C  C16  1  0.58820000  0.01740000  0.07440000  1.0 0.0372681333
C  C17  1  0.11510000  0.61850000  0.50520000  1.0 0.5883468056
C  C18  1  0.11850000  0.38490000  0.50520000  1.0 0.5883468056
C  C19  1  0.88150000  0.61510000  0.50520000  1.0 0.5883468056
C  C20  1  0.88490000  0.38150000  0.50520000  1.0 0.5883468056
C  C21  1  0.38490000  0.88150000  0.49480000  1.0 0.5883468056
C  C22  1  0.38150000  0.11510000  0.49480000  1.0 0.5883468056
C  C23  1  0.61850000  0.88490000  0.49480000  1.0 0.5883468056
C  C24  1  0.61510000  0.11850000  0.49480000  1.0 0.5883468056
C  C25  1  0.18380000  0.68830000  0.50470000  1.0 0.0229125457
C  C26  1  0.18830000  0.31620000  0.50470000  1.0 0.0229125457
C  C27  1  0.81170000  0.68380000  0.50470000  1.0 0.0229125457
C  C28  1  0.81620000  0.31170000  0.50470000  1.0 0.0229125457
C  C29  1  0.31620000  0.81170000  0.49530000  1.0 0.0229125457
C  C30  1  0.31170000  0.18380000  0.49530000  1.0 0.0229125457
C  C31  1  0.68830000  0.81620000  0.49530000  1.0 0.0229125457
C  C32  1  0.68380000  0.18830000  0.49530000  1.0 0.0229125457
C  C33  1  0.17410000  0.76870000  0.57150000  1.0 -0.097210136
C  C34  1  0.26870000  0.32590000  0.57150000  1.0 -0.097210136
C  C35  1  0.73130000  0.67410000  0.57150000  1.0 -0.097210136
C  C36  1  0.82590000  0.23130000  0.57150000  1.0 -0.097210136
C  C37  1  0.32590000  0.73130000  0.42850000  1.0 -0.097210136
C  C38  1  0.23130000  0.17410000  0.42850000  1.0 -0.097210136
C  C39  1  0.76870000  0.82590000  0.42850000  1.0 -0.097210136
C  C40  1  0.67410000  0.26870000  0.42850000  1.0 -0.097210136
C  C41  1  0.25890000  0.67210000  0.43260000  1.0 -0.1141373178
C  C42  1  0.17210000  0.24110000  0.43260000  1.0 -0.1153498104
C  C43  1  0.82790000  0.75890000  0.43260000  1.0 -0.1153498104
C  C44  1  0.74110000  0.32790000  0.43260000  1.0 -0.1153498104
C  C45  1  0.24110000  0.82790000  0.56740000  1.0 -0.1141373178
C  C46  1  0.32790000  0.25890000  0.56740000  1.0 -0.1153498104
C  C47  1  0.67210000  0.74110000  0.56740000  1.0 -0.1153498104
C  C48  1  0.75890000  0.17210000  0.56740000  1.0 -0.1141373178
C  C49  1  0.09310000  0.79730000  0.64620000  1.0 0.6370649899
C  C50  1  0.29730000  0.40690000  0.64620000  1.0 0.6370649899
C  C51  1  0.70270000  0.59310000  0.64620000  1.0 0.6370649899
C  C52  1  0.90690000  0.20270000  0.64620000  1.0 0.6370649899
C  C53  1  0.40690000  0.70270000  0.35380000  1.0 0.6370649899
C  C54  1  0.20270000  0.09310000  0.35380000  1.0 0.6370649899
C  C55  1  0.79730000  0.90690000  0.35380000  1.0 0.6370649899
C  C56  1  0.59310000  0.29730000  0.35380000  1.0 0.6370649899
C  C57  1  0.07730000  0.45470000  0.92820000  1.0 0.0372681333
C  C58  1  0.95470000  0.42270000  0.92820000  1.0 0.0372681333
C  C59  1  0.04530000  0.57730000  0.92820000  1.0 0.0372681333
C  C60  1  0.92270000  0.54530000  0.92820000  1.0 0.0372681333
C  C61  1  0.42270000  0.04530000  0.07180000  1.0 0.0372681333
C  C62  1  0.54530000  0.07730000  0.07180000  1.0 0.0372681333
C  C63  1  0.45470000  0.92270000  0.07180000  1.0 0.0372681333
C  C64  1  0.57730000  0.95470000  0.07180000  1.0 0.0372681333
C  C65  1  0.01054000  0.58827000  0.08651000  1.0 0.0284606344
C  C66  1  0.08827000  0.48946000  0.08651000  1.0 0.0284606344
C  C67  1  0.91173000  0.51054000  0.08651000  1.0 0.0284606344
C  C68  1  0.98946000  0.41173000  0.08651000  1.0 0.0284606344
C  C69  1  0.48946000  0.91173000  0.91349000  1.0 0.0284606344
C  C70  1  0.41173000  0.01054000  0.91349000  1.0 0.0284606344
C  C71  1  0.58827000  0.98946000  0.91349000  1.0 0.0284606344
C  C72  1  0.51054000  0.08827000  0.91349000  1.0 0.0284606344
N  N1  1  0.00000000  0.50000000  0.13990000  1.0 0.0372681333
N  N2  1  0.50000000  0.00000000  0.86010000  1.0 0.0372681333
N  N3  1  0.00000000  0.50000000  0.87350000  1.0 0.0372681333
N  N4  1  0.50000000  0.00000000  0.12650000  1.0 0.0372681333
O  O1  1  0.09710000  0.58630000  0.39220000  1.0 -0.4828722475
O  O2  1  0.08630000  0.40290000  0.39220000  1.0 -0.4828722475
O  O3  1  0.91370000  0.59710000  0.39220000  1.0 -0.4828722475
O  O4  1  0.90290000  0.41370000  0.39220000  1.0 -0.4828722475
O  O5  1  0.40290000  0.91370000  0.60780000  1.0 -0.4828722475
O  O6  1  0.41370000  0.09710000  0.60780000  1.0 -0.4828722475
O  O7  1  0.58630000  0.90290000  0.60780000  1.0 -0.4828722475
O  O8  1  0.59710000  0.08630000  0.60780000  1.0 -0.4828722475
O  O9  1  0.08190000  0.59960000  0.62170000  1.0 -0.5281092932
O  O10  1  0.09960000  0.41810000  0.62170000  1.0 -0.5281092932
O  O11  1  0.90040000  0.58190000  0.62170000  1.0 -0.5281092932
O  O12  1  0.91810000  0.40040000  0.62170000  1.0 -0.5281092932
O  O13  1  0.41810000  0.90040000  0.37830000  1.0 -0.5281092932
O  O14  1  0.40040000  0.08190000  0.37830000  1.0 -0.5281092932
O  O15  1  0.59960000  0.91810000  0.37830000  1.0 -0.5281092932
O  O16  1  0.58190000  0.09960000  0.37830000  1.0 -0.5281092932
F  F1  1  0.01910000  0.77350000  0.57900000  1.0 -0.2432452699
F  F2  1  0.27350000  0.48090000  0.57900000  1.0 -0.2432452699
F  F3  1  0.72650000  0.51910000  0.57900000  1.0 -0.2432452699
F  F4  1  0.98090000  0.22650000  0.57900000  1.0 -0.2432452699
F  F5  1  0.48090000  0.72650000  0.42100000  1.0 -0.2432452699
F  F6  1  0.22650000  0.01910000  0.42100000  1.0 -0.2432452699
F  F7  1  0.77350000  0.98090000  0.42100000  1.0 -0.2432452699
F  F8  1  0.51910000  0.27350000  0.42100000  1.0 -0.2432452699
F  F9  1  0.08690000  0.76340000  0.77370000  1.0 -0.2656712269
F  F10  1  0.26340000  0.41310000  0.77370000  1.0 -0.2656712269
F  F11  1  0.73660000  0.58690000  0.77370000  1.0 -0.2656712269
F  F12  1  0.91310000  0.23660000  0.77370000  1.0 -0.2656712269
F  F13  1  0.41310000  0.73660000  0.22630000  1.0 -0.2656712269
F  F14  1  0.23660000  0.08690000  0.22630000  1.0 -0.2656712269
F  F15  1  0.76340000  0.91310000  0.22630000  1.0 -0.2656712269
F  F16  1  0.58690000  0.26340000  0.22630000  1.0 -0.2656712269
F  F17  1  0.09030000  0.88430000  0.66300000  1.0 -0.2130325789
F  F18  1  0.38430000  0.40970000  0.66300000  1.0 -0.2130325789
F  F19  1  0.61570000  0.59030000  0.66300000  1.0 -0.2130325789
F  F20  1  0.90970000  0.11570000  0.66300000  1.0 -0.2130325789
F  F21  1  0.40970000  0.61570000  0.33700000  1.0 -0.2130325789
F  F22  1  0.11570000  0.09030000  0.33700000  1.0 -0.2130325789
F  F23  1  0.88430000  0.90970000  0.33700000  1.0 -0.2130325789
F  F24  1  0.59030000  0.38430000  0.33700000  1.0 -0.2130325789
