# DDEC6 charges by PACMAN v1.1 (https://github.com/mtap-research/PACMAN-charge/)
data_QIFQEF_FSR_pacman
_symmetry_space_group_name_H-M   'P 1'
_cell_length_a   15.41710000
_cell_length_b   15.41710000
_cell_length_c   9.63640000
_cell_angle_alpha   90.00000000
_cell_angle_beta   90.00000000
_cell_angle_gamma   90.00000000
_symmetry_Int_Tables_number   1
_chemical_formula_structural   ZnH2C18N(O2F3)2
_chemical_formula_sum   'Zn4 H8 C72 N4 O16 F24'
_cell_volume   2290.44674093
_cell_formula_units_Z   4
loop_
 _symmetry_equiv_pos_site_id
 _symmetry_equiv_pos_as_xyz
  1  'x, y, z'
loop_
 _atom_site_type_symbol
 _atom_site_label
 _atom_site_symmetry_multiplicity
 _atom_site_fract_x
 _atom_site_fract_y
 _atom_site_fract_z
 _atom_site_occupancy
 _atom_site_charge
Zn  Zn1  1  0.50000000  0.00000000  0.66287000  1.0 0.8351487418
Zn  Zn2  1  0.00000000  0.50000000  0.33713000  1.0 0.8343613048
Zn  Zn3  1  0.50000000  0.00000000  0.35369000  1.0 0.8120997448
Zn  Zn4  1  0.00000000  0.50000000  0.64631000  1.0 0.8120997448
H  H1  1  0.38150000  0.73290000  0.38068000  1.0 0.1367880639
H  H2  1  0.23290000  0.11850000  0.38068000  1.0 0.1367880639
H  H3  1  0.76710000  0.88150000  0.38068000  1.0 0.1367880639
H  H4  1  0.61850000  0.26710000  0.38068000  1.0 0.1367880639
H  H5  1  0.11850000  0.76710000  0.61932000  1.0 0.1367880639
H  H6  1  0.26710000  0.38150000  0.61932000  1.0 0.1367880639
H  H7  1  0.73290000  0.61850000  0.61932000  1.0 0.1367880639
H  H8  1  0.88150000  0.23290000  0.61932000  1.0 0.1367880639
C  C1  1  0.54280000  0.08150000  0.92600000  1.0 0.0422553956
C  C2  1  0.58150000  0.95720000  0.92600000  1.0 0.0422553956
C  C3  1  0.41850000  0.04280000  0.92600000  1.0 0.0422553956
C  C4  1  0.45720000  0.91850000  0.92600000  1.0 0.0422553956
C  C5  1  0.95720000  0.41850000  0.07400000  1.0 0.0422553956
C  C6  1  0.91850000  0.54280000  0.07400000  1.0 0.0422553956
C  C7  1  0.08150000  0.45720000  0.07400000  1.0 0.0422553956
C  C8  1  0.04280000  0.58150000  0.07400000  1.0 0.0422553956
C  C9  1  0.26710000  0.67410000  0.42680000  1.0 -0.0973653856
C  C10  1  0.17410000  0.23290000  0.42680000  1.0 -0.0973653856
C  C11  1  0.82590000  0.76710000  0.42680000  1.0 -0.0973653856
C  C12  1  0.73290000  0.32590000  0.42680000  1.0 -0.0973653856
C  C13  1  0.23290000  0.82590000  0.57320000  1.0 -0.0973653856
C  C14  1  0.32590000  0.26710000  0.57320000  1.0 -0.0973653856
C  C15  1  0.67410000  0.73290000  0.57320000  1.0 -0.0973653856
C  C16  1  0.76710000  0.17410000  0.57320000  1.0 -0.0973653856
C  C17  1  0.29650000  0.59510000  0.34990000  1.0 0.6358313461
C  C18  1  0.09510000  0.20350000  0.34990000  1.0 0.6358313461
C  C19  1  0.90490000  0.79650000  0.34990000  1.0 0.6358313461
C  C20  1  0.70350000  0.40490000  0.34990000  1.0 0.6358313461
C  C21  1  0.20350000  0.90490000  0.65010000  1.0 0.6358313461
C  C22  1  0.40490000  0.29650000  0.65010000  1.0 0.6358313461
C  C23  1  0.59510000  0.70350000  0.65010000  1.0 0.6358313461
C  C24  1  0.79650000  0.09510000  0.65010000  1.0 0.6358313461
C  C25  1  0.31280000  0.81500000  0.50570000  1.0 0.0278513636
C  C26  1  0.31500000  0.18720000  0.50570000  1.0 0.0278513636
C  C27  1  0.68500000  0.81280000  0.50570000  1.0 0.0278513636
C  C28  1  0.68720000  0.18500000  0.50570000  1.0 0.0278513636
C  C29  1  0.18720000  0.68500000  0.49430000  1.0 0.0278513636
C  C30  1  0.18500000  0.31280000  0.49430000  1.0 0.0278513636
C  C31  1  0.81500000  0.68720000  0.49430000  1.0 0.0278513636
C  C32  1  0.81280000  0.31500000  0.49430000  1.0 0.0278513636
C  C33  1  0.38250000  0.88380000  0.50770000  1.0 0.5910678332
C  C34  1  0.38380000  0.11750000  0.50770000  1.0 0.5910678332
C  C35  1  0.61620000  0.88250000  0.50770000  1.0 0.5910678332
C  C36  1  0.61750000  0.11620000  0.50770000  1.0 0.5910678332
C  C37  1  0.11750000  0.61620000  0.49230000  1.0 0.5910678332
C  C38  1  0.11620000  0.38250000  0.49230000  1.0 0.5910678332
C  C39  1  0.88380000  0.61750000  0.49230000  1.0 0.5910678332
C  C40  1  0.88250000  0.38380000  0.49230000  1.0 0.5910678332
C  C41  1  0.32860000  0.73950000  0.43000000  1.0 -0.127540902
C  C42  1  0.23950000  0.17140000  0.43000000  1.0 -0.127540902
C  C43  1  0.76050000  0.82860000  0.43000000  1.0 -0.127540902
C  C44  1  0.67140000  0.26050000  0.43000000  1.0 -0.127540902
C  C45  1  0.17140000  0.76050000  0.57000000  1.0 -0.127540902
C  C46  1  0.26050000  0.32860000  0.57000000  1.0 -0.127540902
C  C47  1  0.73950000  0.67140000  0.57000000  1.0 -0.127540902
C  C48  1  0.82860000  0.23950000  0.57000000  1.0 -0.127540902
C  C49  1  0.56800000  0.06100000  0.08800000  1.0 0.0278513636
C  C50  1  0.56100000  0.93200000  0.08800000  1.0 0.0278513636
C  C51  1  0.43900000  0.06800000  0.08800000  1.0 0.0278513636
C  C52  1  0.43200000  0.93900000  0.08800000  1.0 0.0278513636
C  C53  1  0.93200000  0.43900000  0.91200000  1.0 0.0278513636
C  C54  1  0.93900000  0.56800000  0.91200000  1.0 0.0278513636
C  C55  1  0.06100000  0.43200000  0.91200000  1.0 0.0278513636
C  C56  1  0.06800000  0.56100000  0.91200000  1.0 0.0278513636
C  C57  1  0.51300000  0.08930000  0.08800000  1.0 0.0278513636
C  C58  1  0.58930000  0.98700000  0.08800000  1.0 0.0278513636
C  C59  1  0.41070000  0.01300000  0.08800000  1.0 0.0278513636
C  C60  1  0.48700000  0.91070000  0.08800000  1.0 0.0278513636
C  C61  1  0.98700000  0.41070000  0.91200000  1.0 0.0278513636
C  C62  1  0.91070000  0.51300000  0.91200000  1.0 0.0278513636
C  C63  1  0.08930000  0.48700000  0.91200000  1.0 0.0278513636
C  C64  1  0.01300000  0.58930000  0.91200000  1.0 0.0278513636
C  C65  1  0.47140000  0.08650000  0.93000000  1.0 0.0422553956
C  C66  1  0.58650000  0.02860000  0.93000000  1.0 0.0422553956
C  C67  1  0.41350000  0.97140000  0.93000000  1.0 0.0422553956
C  C68  1  0.52860000  0.91350000  0.93000000  1.0 0.0422553956
C  C69  1  0.02860000  0.41350000  0.07000000  1.0 0.0422553956
C  C70  1  0.91350000  0.47140000  0.07000000  1.0 0.0422553956
C  C71  1  0.08650000  0.52860000  0.07000000  1.0 0.0422553956
C  C72  1  0.97140000  0.58650000  0.07000000  1.0 0.0422553956
N  N1  1  0.50000000  0.00000000  0.87450000  1.0 0.057198142
N  N2  1  0.00000000  0.50000000  0.12550000  1.0 0.057198142
N  N3  1  0.50000000  0.00000000  0.14270000  1.0 0.0688598019
N  N4  1  0.00000000  0.50000000  0.85730000  1.0 0.0688598019
O  O1  1  0.40150000  0.91710000  0.62260000  1.0 -0.5185055534
O  O2  1  0.41710000  0.09850000  0.62260000  1.0 -0.5185055534
O  O3  1  0.58290000  0.90150000  0.62260000  1.0 -0.5185055534
O  O4  1  0.59850000  0.08290000  0.62260000  1.0 -0.5185055534
O  O5  1  0.09850000  0.58290000  0.37740000  1.0 -0.5185055534
O  O6  1  0.08290000  0.40150000  0.37740000  1.0 -0.5185055534
O  O7  1  0.91710000  0.59850000  0.37740000  1.0 -0.5185055534
O  O8  1  0.90150000  0.41710000  0.37740000  1.0 -0.5185055534
O  O9  1  0.41390000  0.90260000  0.39410000  1.0 -0.4863861564
O  O10  1  0.40260000  0.08610000  0.39410000  1.0 -0.4863861564
O  O11  1  0.59740000  0.91390000  0.39410000  1.0 -0.4863861564
O  O12  1  0.58610000  0.09740000  0.39410000  1.0 -0.4863861564
O  O13  1  0.08610000  0.59740000  0.60590000  1.0 -0.4863861564
O  O14  1  0.09740000  0.41390000  0.60590000  1.0 -0.4863861564
O  O15  1  0.90260000  0.58610000  0.60590000  1.0 -0.4863861564
O  O16  1  0.91390000  0.40260000  0.60590000  1.0 -0.4863861564
F  F1  1  0.27420000  0.51760000  0.41610000  1.0 -0.2505029391
F  F2  1  0.01760000  0.22580000  0.41610000  1.0 -0.2505029391
F  F3  1  0.98240000  0.77420000  0.41610000  1.0 -0.2505029391
F  F4  1  0.72580000  0.48240000  0.41610000  1.0 -0.2505029391
F  F5  1  0.22580000  0.98240000  0.58390000  1.0 -0.2505029391
F  F6  1  0.48240000  0.27420000  0.58390000  1.0 -0.2505029391
F  F7  1  0.51760000  0.72580000  0.58390000  1.0 -0.2505029391
F  F8  1  0.77420000  0.01760000  0.58390000  1.0 -0.2505029391
F  F9  1  0.26190000  0.58970000  0.22380000  1.0 -0.27354304
F  F10  1  0.08970000  0.23810000  0.22380000  1.0 -0.27354304
F  F11  1  0.91030000  0.76190000  0.22380000  1.0 -0.27354304
F  F12  1  0.73810000  0.41030000  0.22380000  1.0 -0.27354304
F  F13  1  0.23810000  0.91030000  0.77620000  1.0 -0.27354304
F  F14  1  0.41030000  0.26190000  0.77620000  1.0 -0.27354304
F  F15  1  0.58970000  0.73810000  0.77620000  1.0 -0.27354304
F  F16  1  0.76190000  0.08970000  0.77620000  1.0 -0.27354304
F  F17  1  0.38710000  0.59370000  0.33500000  1.0 -0.2211363266
F  F18  1  0.09370000  0.11290000  0.33500000  1.0 -0.2211363266
F  F19  1  0.90630000  0.88710000  0.33500000  1.0 -0.2211363266
F  F20  1  0.61290000  0.40630000  0.33500000  1.0 -0.2211363266
F  F21  1  0.11290000  0.90630000  0.66500000  1.0 -0.2211363266
F  F22  1  0.40630000  0.38710000  0.66500000  1.0 -0.2211363266
F  F23  1  0.59370000  0.61290000  0.66500000  1.0 -0.2211363266
F  F24  1  0.88710000  0.09370000  0.66500000  1.0 -0.2211363266
