# DDEC6 charges by PACMAN v1.1 (https://github.com/mtap-research/PACMAN-charge/)
data_QIFTUW_ASR_pacman
_symmetry_space_group_name_H-M   'P 1'
_cell_length_a   7.76620000
_cell_length_b   13.78090000
_cell_length_c   18.96130000
_cell_angle_alpha   109.65700000
_cell_angle_beta   92.87400000
_cell_angle_gamma   98.72600000
_symmetry_Int_Tables_number   1
_chemical_formula_structural   Ag7H10C22N3(O2F3)5
_chemical_formula_sum   'Ag14 H20 C44 N6 O20 F30'
_cell_volume   1877.76268737
_cell_formula_units_Z   2
loop_
 _symmetry_equiv_pos_site_id
 _symmetry_equiv_pos_as_xyz
  1  'x, y, z'
loop_
 _atom_site_type_symbol
 _atom_site_label
 _atom_site_symmetry_multiplicity
 _atom_site_fract_x
 _atom_site_fract_y
 _atom_site_fract_z
 _atom_site_occupancy
 _atom_site_charge
Ag  Ag1  1  0.77629000  0.45892000  0.60790000  1.0 0.5246697489
Ag  Ag2  1  0.22371000  0.54108000  0.39210000  1.0 0.5246697489
Ag  Ag3  1  0.04296000  0.73246000  0.66730000  1.0 0.5002396229
Ag  Ag4  1  0.95704000  0.26754000  0.33270000  1.0 0.5002396229
Ag  Ag5  1  0.11683000  0.56945000  0.71260000  1.0 0.3605022255
Ag  Ag6  1  0.88317000  0.43055000  0.28740000  1.0 0.3605022255
Ag  Ag7  1  0.37314000  0.66120000  0.62286000  1.0 0.5002396229
Ag  Ag8  1  0.62686000  0.33880000  0.37714000  1.0 0.5002396229
Ag  Ag9  1  0.49055000  0.55108000  0.71858000  1.0 0.3803519729
Ag  Ag10  1  0.50945000  0.44892000  0.28142000  1.0 0.3803519729
Ag  Ag11  1  0.36516000  0.35180000  0.62262000  1.0 0.3803519729
Ag  Ag12  1  0.63484000  0.64820000  0.37738000  1.0 0.3803519729
Ag  Ag13  1  0.10479000  0.00505000  0.81841000  1.0 0.4398557518
Ag  Ag14  1  0.89521000  0.99495000  0.18159000  1.0 0.4398557518
H  H1  1  0.09037000  0.84798000  0.90898000  1.0 0.1194276374
H  H2  1  0.90963000  0.15202000  0.09102000  1.0 0.1194276374
H  H3  1  0.92677000  0.13918000  0.88719000  1.0 0.1315084223
H  H4  1  0.07323000  0.86082000  0.11281000  1.0 0.1315084223
H  H5  1  0.03643000  0.23841000  0.97208000  1.0 0.1588519736
H  H6  1  0.96357000  0.76159000  0.02792000  1.0 0.1588519736
H  H7  1  0.81294000  0.18932000  0.96722000  1.0 0.1662604783
H  H8  1  0.18706000  0.81068000  0.03278000  1.0 0.1662604783
H  H9  1  0.40673000  0.35010000  0.77938000  1.0 0.1194276374
H  H10  1  0.59327000  0.64990000  0.22062000  1.0 0.1194276374
H  H11  1  0.11453000  0.98637000  0.64785000  1.0 0.1194276374
H  H12  1  0.88547000  0.01363000  0.35215000  1.0 0.1194276374
H  H13  1  0.19649000  0.11122000  0.57638000  1.0 0.1194276374
H  H14  1  0.80351000  0.88878000  0.42362000  1.0 0.1194276374
H  H15  1  0.44303000  0.30997000  0.89385000  1.0 0.1588519736
H  H16  1  0.55697000  0.69003000  0.10615000  1.0 0.1588519736
H  H17  1  0.40497000  0.17693000  0.88951000  1.0 0.1588519736
H  H18  1  0.59503000  0.82307000  0.11049000  1.0 0.1588519736
H  H19  1  0.23268000  0.24980000  0.90348000  1.0 0.1501384351
H  H20  1  0.76732000  0.75020000  0.09652000  1.0 0.1501384351
C  C1  1  0.03358000  0.57210000  0.60792000  1.0 -0.5673051651
C  C2  1  0.96642000  0.42790000  0.39208000  1.0 -0.5673051651
C  C3  1  0.00372000  0.52034000  0.53743000  1.0 0.0971234489
C  C4  1  0.99628000  0.47966000  0.46257000  1.0 0.0971234489
C  C5  1  0.47736000  0.48391000  0.59746000  1.0 -0.5392481264
C  C6  1  0.52264000  0.51609000  0.40254000  1.0 -0.5392481264
C  C7  1  0.49172000  0.49705000  0.53451000  1.0 0.0971234489
C  C8  1  0.50828000  0.50295000  0.46549000  1.0 0.0971234489
C  C9  1  0.75108000  0.85234000  0.67681000  1.0 0.4398557518
C  C10  1  0.24892000  0.14766000  0.32319000  1.0 0.4398557518
C  C11  1  0.66356000  0.95202000  0.69374000  1.0 0.5839952949
C  C12  1  0.33644000  0.04798000  0.30626000  1.0 0.5839952949
C  C13  1  0.38440000  0.82136000  0.79802000  1.0 0.4282747928
C  C14  1  0.61560000  0.17864000  0.20198000  1.0 0.4282747928
C  C15  1  0.48617000  0.88596000  0.87762000  1.0 0.5906477793
C  C16  1  0.51383000  0.11404000  0.12238000  1.0 0.5906477793
C  C17  1  0.23706000  0.78172000  0.52542000  1.0 0.4282747928
C  C18  1  0.76294000  0.21828000  0.47458000  1.0 0.4223587239
C  C19  1  0.24999000  0.83856000  0.46630000  1.0 0.5839952949
C  C20  1  0.75001000  0.16144000  0.53370000  1.0 0.5839952949
C  C21  1  0.31339000  0.58598000  0.86127000  1.0 0.4223587239
C  C22  1  0.68661000  0.41402000  0.13873000  1.0 0.4223587239
C  C23  1  0.30765000  0.59270000  0.94490000  1.0 0.5906477793
C  C24  1  0.69235000  0.40730000  0.05510000  1.0 0.5906477793
C  C25  1  0.87697000  0.38562000  0.73975000  1.0 0.4282747928
C  C26  1  0.12303000  0.61438000  0.26025000  1.0 0.4282747928
C  C27  1  0.83738000  0.32913000  0.79783000  1.0 0.5906477793
C  C28  1  0.16262000  0.67087000  0.20217000  1.0 0.5906477793
C  C29  1  0.05048000  0.91627000  0.95015000  1.0 0.0069395452
C  C30  1  0.94952000  0.08373000  0.04985000  1.0 0.0069395452
C  C31  1  0.97448000  0.08088000  0.97631000  1.0 0.2690765087
C  C32  1  0.02552000  0.91912000  0.02369000  1.0 0.2690765087
C  C33  1  0.93704000  0.16616000  0.94935000  1.0 -0.4695271578
C  C34  1  0.06296000  0.83384000  0.05065000  1.0 -0.4695271578
C  C35  1  0.34146000  0.26842000  0.74958000  1.0 0.0045487559
C  C36  1  0.65854000  0.73158000  0.25042000  1.0 0.0045487559
C  C37  1  0.30078000  0.20019000  0.78997000  1.0 0.2867573921
C  C38  1  0.69922000  0.79981000  0.21003000  1.0 0.2867573921
C  C39  1  0.17752000  0.06829000  0.67684000  1.0 0.0727886345
C  C40  1  0.82248000  0.93171000  0.32316000  1.0 0.0727886345
C  C41  1  0.22256000  0.13623000  0.63753000  1.0 0.0429278772
C  C42  1  0.77744000  0.86377000  0.36247000  1.0 0.0429278772
C  C43  1  0.34874000  0.23594000  0.87289000  1.0 -0.4592909616
C  C44  1  0.65126000  0.76406000  0.12711000  1.0 -0.4592909616
N  N1  1  0.21361000  0.10032000  0.75288000  1.0 -0.2339497011
N  N2  1  0.78639000  0.89968000  0.24712000  1.0 -0.2339497011
N  N3  1  0.30070000  0.23704000  0.67402000  1.0 -0.1244936462
N  N4  1  0.69930000  0.76296000  0.32598000  1.0 -0.1244936462
N  N5  1  0.02682000  0.99622000  0.92653000  1.0 -0.21863355
N  N6  1  0.97318000  0.00378000  0.07347000  1.0 -0.21863355
O  O1  1  0.90276000  0.86980000  0.71300000  1.0 -0.4817723211
O  O2  1  0.09724000  0.13020000  0.28700000  1.0 -0.4817723211
O  O3  1  0.67199000  0.76929000  0.62813000  1.0 -0.4592909616
O  O4  1  0.32801000  0.23071000  0.37187000  1.0 -0.4592909616
O  O5  1  0.23280000  0.83979000  0.78726000  1.0 -0.5180159983
O  O6  1  0.76720000  0.16021000  0.21274000  1.0 -0.5180159983
O  O7  1  0.46649000  0.75639000  0.75537000  1.0 -0.5092110213
O  O8  1  0.53351000  0.24361000  0.24463000  1.0 -0.5092110213
O  O9  1  0.14183000  0.81604000  0.57617000  1.0 -0.4695271578
O  O10  1  0.85817000  0.18396000  0.42383000  1.0 -0.4695271578
O  O11  1  0.32163000  0.70619000  0.51294000  1.0 -0.5092110213
O  O12  1  0.67837000  0.29381000  0.48706000  1.0 -0.5092110213
O  O13  1  0.18348000  0.61175000  0.83398000  1.0 -0.4331274953
O  O14  1  0.81652000  0.38825000  0.16602000  1.0 -0.4331274953
O  O15  1  0.44969000  0.55762000  0.83259000  1.0 -0.4331274953
O  O16  1  0.55031000  0.44238000  0.16741000  1.0 -0.4331274953
O  O17  1  0.74212000  0.40939000  0.71295000  1.0 -0.5519616779
O  O18  1  0.25788000  0.59061000  0.28705000  1.0 -0.5519616779
O  O19  1  0.03372000  0.39995000  0.72633000  1.0 -0.4854296919
O  O20  1  0.96628000  0.60005000  0.27367000  1.0 -0.4854296919
F  F1  1  0.68741000  0.01375000  0.76916000  1.0 -0.2094331186
F  F2  1  0.31259000  0.98625000  0.23084000  1.0 -0.2094331186
F  F3  1  0.48605000  0.92824000  0.67274000  1.0 -0.1832591619
F  F4  1  0.51395000  0.07176000  0.32726000  1.0 -0.1832591619
F  F5  1  0.73583000  0.01297000  0.65398000  1.0 -0.2094331186
F  F6  1  0.26417000  0.98703000  0.34602000  1.0 -0.2094331186
F  F7  1  0.46230000  0.98863000  0.90265000  1.0 -0.21863355
F  F8  1  0.53770000  0.01137000  0.09735000  1.0 -0.21863355
F  F9  1  0.42581000  0.84254000  0.92966000  1.0 -0.2019868519
F  F10  1  0.57419000  0.15746000  0.07034000  1.0 -0.2019868519
F  F11  1  0.66240000  0.88651000  0.87936000  1.0 -0.1907763746
F  F12  1  0.33760000  0.11349000  0.12064000  1.0 -0.1907763746
F  F13  1  0.24177000  0.94298000  0.49714000  1.0 -0.2019868519
F  F14  1  0.75823000  0.05702000  0.50286000  1.0 -0.2019868519
F  F15  1  0.10923000  0.79290000  0.41064000  1.0 -0.2019868519
F  F16  1  0.89077000  0.20710000  0.58936000  1.0 -0.2019868519
F  F17  1  0.40101000  0.83182000  0.43172000  1.0 -0.2019868519
F  F18  1  0.59899000  0.16818000  0.56828000  1.0 -0.2019868519
F  F19  1  0.42765000  0.54274000  0.96608000  1.0 -0.1907763746
F  F20  1  0.57235000  0.45726000  0.03392000  1.0 -0.1907763746
F  F21  1  0.34766000  0.69630000  0.99203000  1.0 -0.1907763746
F  F22  1  0.65234000  0.30370000  0.00797000  1.0 -0.1907763746
F  F23  1  0.14507000  0.55122000  0.95745000  1.0 -0.2019868519
F  F24  1  0.85493000  0.44878000  0.04255000  1.0 -0.2019868519
F  F25  1  0.75686000  0.38749000  0.85625000  1.0 -0.1907763746
F  F26  1  0.24314000  0.61251000  0.14375000  1.0 -0.1907763746
F  F27  1  0.98646000  0.31015000  0.82897000  1.0 -0.1907763746
F  F28  1  0.01354000  0.68985000  0.17103000  1.0 -0.1907763746
F  F29  1  0.72813000  0.23380000  0.76345000  1.0 -0.2019868519
F  F30  1  0.27187000  0.76620000  0.23655000  1.0 -0.2019868519
